REMARK  4 active torsions:
REMARK  status: ('A' for Active; 'I' for Inactive)
REMARK    1  A    between atoms: C_7  and  C_1 
REMARK    2  A    between atoms: O_10  and  C_8 
REMARK    3  A    between atoms: C_14  and  C_9 
REMARK    4  A    between atoms: C_15  and  O_10 
ROOT
ATOM      1  C   UNL d   1      -0.349   1.164  -0.507  0.00  0.00     0.167 A 
ATOM      2  N   UNL d   1       0.667   1.022  -1.301  0.00  0.00    -0.331 N 
ATOM      3  HN  UNL d   1       1.167   1.738  -1.829  1.00  0.00     0.168 HD
ATOM      4  O   UNL d   1      -0.836   0.053   0.091  0.00  0.00    -0.255 OA
ATOM      5  C   UNL d   1       0.902  -0.324  -1.256  0.00  0.00     0.111 A 
ATOM      6  C   UNL d   1      -0.075  -0.990  -0.351  0.00  0.00     0.316 A 
ATOM      7  C   UNL d   1       1.829  -1.014  -1.931  0.00  0.00     0.047 C 
ATOM      8  O   UNL d   1      -0.196  -2.165  -0.079  0.00  0.00    -0.257 OA
ENDROOT
BRANCH   1   9
ATOM      9  C   UNL d   1      -1.097   2.407  -0.300  0.00  0.00     0.067 A 
ATOM     10  C   UNL d   1      -1.874   2.698   0.817  0.00  0.00     0.162 A 
ATOM     11  N   UNL d   1      -2.649   3.813   0.900  0.00  0.00    -0.346 N 
ATOM     12  C   UNL d   1      -2.603   4.691  -0.123  0.00  0.00     0.090 A 
ATOM     13  HN  UNL d   1      -3.246   3.980   1.710  1.00  0.00     0.167 HD
ATOM     14  C   UNL d   1      -1.812   4.516  -1.243  0.00  0.00     0.018 A 
ATOM     15  C   UNL d   1      -1.052   3.356  -1.332  0.00  0.00     0.021 A 
BRANCH  10  16
ATOM     16  O   UNL d   1      -1.867   1.824   1.896  0.00  0.00    -0.293 OA
BRANCH  16  17
ATOM     17  C   UNL d   1      -2.151   2.331   3.148  0.00  0.00     0.077 A 
ATOM     18  C   UNL d   1      -2.923   1.528   3.993  0.00  0.00     0.039 A 
ATOM     19  C   UNL d   1      -3.223   1.958   5.290  0.00  0.00     0.026 A 
ATOM     20  C   UNL d   1      -2.740   3.185   5.744  0.00  0.00     0.034 A 
ATOM     21  C   UNL d   1      -1.949   3.980   4.917  0.00  0.00     0.026 A 
ATOM     22 CL   UNL d   1      -3.114   3.719   7.336  0.00  0.00    -0.084 Cl
ATOM     23  C   UNL d   1      -1.640   3.545   3.625  0.00  0.00     0.039 A 
ENDBRANCH  16  17
ENDBRANCH  10  16
ENDBRANCH   1   9
BRANCH   7  24
ATOM     24  C   UNL d   1       2.805  -0.406  -2.837  0.00  0.00    -0.034 A 
ATOM     25  C   UNL d   1       4.092  -0.106  -2.372  0.00  0.00     0.013 A 
ATOM     26  C   UNL d   1       5.043   0.445  -3.235  0.00  0.00     0.024 A 
ATOM     27  C   UNL d   1       4.710   0.696  -4.564  0.00  0.00     0.034 A 
ATOM     28  C   UNL d   1       3.431   0.407  -5.036  0.00  0.00     0.024 A 
ATOM     29 CL   UNL d   1       5.887   1.359  -5.630  0.00  0.00    -0.084 Cl
ATOM     30  C   UNL d   1       2.478  -0.141  -4.173  0.00  0.00     0.013 A 
ENDBRANCH   7  24
TORSDOF 4
