REMARK  5 active torsions:
REMARK  status: ('A' for Active; 'I' for Inactive)
REMARK    1  A    between atoms: C_7  and  C_1 
REMARK    2  A    between atoms: O_11  and  C_6 
REMARK    3  A    between atoms: C_8  and  C_10 
REMARK       I    between atoms: N_9  and  C_8 
REMARK    4  A    between atoms: C_12  and  N_9 
REMARK    5  A    between atoms: C_10  and  O_11 
ROOT
ATOM      1  C   UNL d   1       3.683   1.056  -0.083  0.00  0.00     0.142 C 
ATOM      2  C   UNL d   1       3.696   0.695  -1.581  0.00  0.00     0.057 C 
ATOM      3  C   UNL d   1       4.514   2.353   0.042  0.00  0.00     0.057 C 
ENDROOT
BRANCH   1   4
ATOM      4  C   UNL d   1       4.395  -0.027   0.770  0.00  0.00     0.257 C 
ATOM      5  N   UNL d   1       4.516   0.300   2.112  0.00  0.00    -0.323 N 
ATOM      6  H   UNL d   1       3.862   0.992   2.477  0.00  0.00     0.169 HD
ATOM      7  O   UNL d   1       4.818  -1.069   0.267  0.00  0.00    -0.270 OA
BRANCH   5   8
ATOM      8  C   UNL d   1       5.355  -0.331   3.064  0.00  0.00     0.056 A 
ATOM      9  C   UNL d   1       5.158  -0.082   4.433  0.00  0.00     0.062 A 
ATOM     10  C   UNL d   1       5.984  -0.666   5.401  0.00  0.00     0.050 A 
ATOM     11 CL   UNL d   1       3.872   0.941   4.976  0.00  0.00    -0.082 Cl
ATOM     12  C   UNL d   1       7.033  -1.486   4.998  0.00  0.00     0.035 A 
ATOM     13  C   UNL d   1       7.260  -1.727   3.648  0.00  0.00     0.026 A 
ATOM     14 CL   UNL d   1       8.065  -2.198   6.178  0.00  0.00    -0.084 Cl
ATOM     15  C   UNL d   1       6.424  -1.151   2.683  0.00  0.00     0.033 A 
ENDBRANCH   5   8
ENDBRANCH   1   4
BRANCH   1  16
ATOM     16  O   UNL d   1       2.388   1.419   0.390  0.00  0.00    -0.314 OA
BRANCH  16  17
ATOM     17  C   UNL d   1       1.451   0.458   0.504  0.00  0.00     0.160 A 
ATOM     18  C   UNL d   1       1.292  -0.813  -0.057  0.00  0.00     0.093 A 
ATOM     19  C   UNL d   1       0.043  -1.245   0.365  0.00  0.00     0.138 A 
ATOM     20  N   UNL d   1      -0.415  -0.264   1.203  0.00  0.00    -0.290 N 
ATOM     21  N   UNL d   1       0.422   0.793   1.276  0.00  0.00    -0.278 N 
ATOM     22  C   UNL d   1      -1.627  -0.187   1.988  0.00  0.00     0.178 C 
ATOM     23  HN  UNL d   1       0.293   1.656   1.806  1.00  0.00     0.189 HD
BRANCH  19  24
ATOM     24  C   UNL d   1      -0.676  -2.479  -0.012  0.00  0.00     0.434 C 
ATOM     25  F   UNL d   1      -1.857  -2.659   0.621  0.00  0.00    -0.165 F 
ATOM     26  F   UNL d   1      -0.946  -2.495  -1.342  0.00  0.00    -0.165 F 
ATOM     27  F   UNL d   1       0.073  -3.581   0.245  0.00  0.00    -0.165 F 
ENDBRANCH  19  24
ENDBRANCH  16  17
ENDBRANCH   1  16
TORSDOF 5
