REMARK  4 active torsions:
REMARK  status: ('A' for Active; 'I' for Inactive)
REMARK    1  A    between atoms: C_6  and  C_1 
REMARK    2  A    between atoms: C_11  and  C_4 
REMARK    3  A    between atoms: C_17  and  C_11 
REMARK    4  A    between atoms: O_21  and  C_17 
ROOT
ATOM      1  C   UNL d   1      -1.523   0.355  -0.031  0.00  0.00     0.092 A 
ATOM      2  N   UNL d   1      -1.343  -0.952  -0.010  0.00  0.00    -0.352 N 
ATOM      3  HN  UNL d   1      -2.096  -1.641   0.002  1.00  0.00     0.166 HD
ATOM      4  C   UNL d   1       0.020  -1.265  -0.006  0.00  0.00     0.032 A 
ATOM      5  S   UNL d   1      -0.070   1.273  -0.081  0.00  0.00    -0.074 SA
ATOM      6  C   UNL d   1       0.858  -0.161  -0.044  0.00  0.00     0.004 A 
ATOM      7  C   UNL d   1       2.345  -0.071  -0.048  0.00  0.00     0.058 C 
ENDROOT
BRANCH   1   8
ATOM      8  C   UNL d   1      -2.836   0.961   0.018  0.00  0.00     0.039 A 
ATOM      9  S   UNL d   1      -3.077   2.653  -0.134  0.00  0.00    -0.085 SA
ATOM     10  C   UNL d   1      -4.756   2.544   0.157  0.00  0.00     0.041 A 
ATOM     11  C   UNL d   1      -5.577   3.720   0.257  0.00  0.00     0.117 A 
ATOM     12  C   UNL d   1      -5.149   1.227   0.283  0.00  0.00     0.023 A 
ATOM     13  O   UNL d   1      -6.923   3.666   0.521  0.00  0.00    -0.237 OA
ATOM     14  C   UNL d   1      -5.229   5.055   0.150  0.00  0.00     0.059 A 
ATOM     15  N   UNL d   1      -7.448   4.945   0.597  0.00  0.00    -0.272 N 
ATOM     16  C   UNL d   1      -6.420   5.762   0.375  0.00  0.00     0.117 A 
ATOM     17  HN  UNL d   1      -8.417   5.206   0.782  1.00  0.00     0.194 HD
ATOM     18  C   UNL d   1      -4.048   0.317   0.195  0.00  0.00     0.023 A 
ENDBRANCH   1   8
BRANCH   4  19
ATOM     19  C   UNL d   1       0.402  -2.712  -0.029  0.00  0.00     0.169 C 
BRANCH  19  20
ATOM     20  C   UNL d   1       1.173  -3.168   1.189  0.00  0.00     0.264 C 
ATOM     21  O   UNL d   1       1.627  -2.461   2.078  0.00  0.00    -0.265 OA
BRANCH  20  22
ATOM     22  O   UNL d   1       1.343  -4.525   1.124  0.00  0.00    -0.326 OA
ATOM     23  C   UNL d   1       2.089  -5.078   2.210  0.00  0.00     0.213 C 
ENDBRANCH  20  22
ENDBRANCH  19  20
ENDBRANCH   4  19
TORSDOF 4
