REMARK  7 active torsions:
REMARK  status: ('A' for Active; 'I' for Inactive)
REMARK    1  A    between atoms: C_14  and  N_1 
REMARK    2  A    between atoms: C_4  and  S_9 
REMARK    3  A    between atoms: S_9  and  C_7 
REMARK    4  A    between atoms: O_25  and  C_12 
REMARK    5  A    between atoms: N_13  and  C_16 
REMARK    6  A    between atoms: C_29  and  C_18 
REMARK    7  A    between atoms: O_28  and  C_29 
ROOT
ATOM      1  N   UNL d   1       0.034   0.851  -0.097  0.00  0.00    -0.251 N 
ATOM      2  C   UNL d   1      -1.112   0.111   0.059  0.00  0.00     0.232 A 
ATOM      3  C   UNL d   1       1.151   0.046  -0.177  0.00  0.00     0.246 A 
ATOM      4  C   UNL d   1       0.722  -1.396  -0.207  0.00  0.00     0.157 A 
ATOM      5  C   UNL d   1      -0.781  -1.346  -0.025  0.00  0.00     0.129 A 
ATOM      6  O   UNL d   1      -2.264   0.488   0.226  0.00  0.00    -0.273 OA
ATOM      7  O   UNL d   1       2.330   0.382  -0.161  0.00  0.00    -0.271 OA
ENDROOT
BRANCH   4   8
ATOM      8  S   UNL d   1       1.256  -2.131  -1.791  0.00  0.00    -0.079 SA
BRANCH   8   9
ATOM      9  C   UNL d   1       0.645  -3.778  -1.569  0.00  0.00     0.147 A 
ATOM     10  N   UNL d   1       0.358  -4.460  -2.683  0.00  0.00    -0.318 N 
ATOM     11  C   UNL d   1      -0.205  -5.651  -2.481  0.00  0.00     0.143 A 
ATOM     12  HN  UNL d   1       0.555  -4.097  -3.616  1.00  0.00     0.170 HD
ATOM     13  C   UNL d   1      -0.500  -6.198  -1.262  0.00  0.00     0.083 A 
ATOM     14  C   UNL d   1      -0.162  -5.423  -0.175  0.00  0.00     0.039 A 
ATOM     15  N   UNL d   1       0.403  -4.201  -0.317  0.00  0.00    -0.338 N 
ATOM     16  HN  UNL d   1       0.635  -3.626   0.493  1.00  0.00     0.168 HD
BRANCH  11  17
ATOM     17  O   UNL d   1      -0.522  -6.313  -3.622  0.00  0.00    -0.346 OA
ATOM     18  H   UNL d   1      -0.201  -5.682  -4.292  0.00  0.00     0.219 HD
ENDBRANCH  11  17
BRANCH  14  19
ATOM     19  C   UNL d   1      -0.480  -5.879   1.228  0.00  0.00     0.224 C 
BRANCH  19  20
ATOM     20  O   UNL d   1       0.115  -7.151   1.486  0.00  0.00    -0.390 OA
ATOM     21  C   UNL d   1      -0.149  -7.579   2.817  0.00  0.00     0.201 C 
ENDBRANCH  19  20
ENDBRANCH  14  19
ENDBRANCH   8   9
ENDBRANCH   4   8
BRANCH   1  22
ATOM     22  C   UNL d   1       0.086   2.273  -0.121  0.00  0.00     0.045 A 
ATOM     23  C   UNL d   1      -0.939   3.058   0.414  0.00  0.00     0.032 A 
ATOM     24  C   UNL d   1      -0.875   4.459   0.378  0.00  0.00     0.031 A 
ATOM     25  C   UNL d   1       0.198   5.140  -0.208  0.00  0.00     0.030 A 
ATOM     26  C   UNL d   1       1.212   4.347  -0.750  0.00  0.00     0.031 A 
ATOM     27  C   UNL d   1       1.161   2.947  -0.708  0.00  0.00     0.032 A 
BRANCH  25  28
ATOM     28  N   UNL d   1       0.252   6.513  -0.264  0.00  0.00    -0.377 N 
ATOM     29  C   UNL d   1      -0.945   7.363  -0.301  0.00  0.00     0.149 C 
ATOM     30  C   UNL d   1      -0.933   8.318   0.898  0.00  0.00     0.187 C 
ATOM     31  O   UNL d   1       0.270   9.108   0.919  0.00  0.00    -0.388 OA
ATOM     32  C   UNL d   1       1.424   8.255   1.020  0.00  0.00     0.187 C 
ATOM     33  C   UNL d   1       1.516   7.257  -0.149  0.00  0.00     0.149 C 
ENDBRANCH  25  28
ENDBRANCH   1  22
TORSDOF 7
