REMARK  2 active torsions:
REMARK  status: ('A' for Active; 'I' for Inactive)
REMARK    1  A    between atoms: C_2  and  C_1 
REMARK       I    between atoms: N_3  and  C_1 
REMARK    2  A    between atoms: C_7  and  N_3 
ROOT
ATOM      1  C   UNL d   1       1.018   0.124   0.015  0.00  0.00     0.257 C 
ATOM      2  N   UNL d   1       0.274  -0.736  -0.775  0.00  0.00    -0.323 N 
ATOM      3  O   UNL d   1       0.588   1.037   0.710  0.00  0.00    -0.267 OA
ATOM      4  H   UNL d   1       0.734  -1.566  -1.124  0.00  0.00     0.169 HD
ENDROOT
BRANCH   1   5
ATOM      5  C   UNL d   1       2.474  -0.135   0.049  0.00  0.00     0.047 A 
ATOM      6  C   UNL d   1       3.180  -0.521  -1.082  0.00  0.00     0.104 A 
ATOM      7  N   UNL d   1       4.515  -0.758  -1.091  0.00  0.00    -0.374 N 
ATOM      8  C   UNL d   1       5.174  -0.569   0.074  0.00  0.00     0.087 A 
ATOM      9  HN  UNL d   1       4.998  -1.063  -1.936  1.00  0.00     0.164 HD
ATOM     10  C   UNL d   1       4.562  -0.155   1.248  0.00  0.00     0.018 A 
ATOM     11  C   UNL d   1       3.188   0.069   1.231  0.00  0.00     0.020 A 
ENDBRANCH   1   5
BRANCH   2  12
ATOM     12  C   UNL d   1      -1.103  -0.626  -1.067  0.00  0.00     0.035 A 
ATOM     13  C   UNL d   1      -1.874   0.494  -0.742  0.00  0.00     0.031 A 
ATOM     14  C   UNL d   1      -3.225   0.558  -1.100  0.00  0.00     0.026 A 
ATOM     15  C   UNL d   1      -3.812  -0.500  -1.784  0.00  0.00     0.034 A 
ATOM     16  C   UNL d   1      -3.061  -1.627  -2.108  0.00  0.00     0.026 A 
ATOM     17 CL   UNL d   1      -5.468  -0.412  -2.240  0.00  0.00    -0.084 Cl
ATOM     18  C   UNL d   1      -1.708  -1.687  -1.754  0.00  0.00     0.031 A 
ENDBRANCH   2  12
TORSDOF 2
