REMARK  8 active torsions:
REMARK  status: ('A' for Active; 'I' for Inactive)
REMARK    1  A    between atoms: C_24  and  N_1 
REMARK    2  A    between atoms: S_15  and  C_2 
REMARK    3  A    between atoms: C_3  and  C_4 
REMARK    4  A    between atoms: O_29  and  C_5 
REMARK    5  A    between atoms: O_32  and  C_14 
REMARK    6  A    between atoms: C_30  and  S_15 
REMARK    7  A    between atoms: C_20  and  C_30 
REMARK    8  A    between atoms: C_28  and  C_24 
ROOT
ATOM      1  C   UNL d   1       6.134  -3.929   0.085  0.00  0.00     0.092 A 
ATOM      2  N   UNL d   1       6.229  -5.266   0.112  0.00  0.00    -0.326 N 
ATOM      3  HN  UNL d   1       7.126  -5.751   0.134  1.00  0.00     0.169 HD
ATOM      4  N   UNL d   1       4.954  -3.260   0.040  0.00  0.00    -0.348 N 
ATOM      5  HN  UNL d   1       4.937  -2.241   0.018  1.00  0.00     0.167 HD
ATOM      6  C   UNL d   1       5.065  -5.917   0.109  0.00  0.00     0.142 A 
ATOM      7  C   UNL d   1       3.818  -5.345   0.086  0.00  0.00     0.081 A 
ATOM      8  C   UNL d   1       3.793  -3.970   0.024  0.00  0.00     0.024 A 
ENDROOT
BRANCH   8   9
ATOM      9  C   UNL d   1       2.506  -3.159   0.058  0.00  0.00     0.139 C 
BRANCH   9  10
ATOM     10  S   UNL d   1       1.029  -3.893  -0.765  0.00  0.00    -0.086 SA
BRANCH  10  11
ATOM     11  C   UNL d   1      -0.141  -2.635  -0.494  0.00  0.00     0.165 A 
ATOM     12  N   UNL d   1      -1.460  -2.651  -0.890  0.00  0.00    -0.288 N 
ATOM     13  C   UNL d   1      -1.965  -1.441  -0.469  0.00  0.00     0.240 A 
ATOM     14  N   UNL d   1      -1.028  -0.748   0.130  0.00  0.00    -0.263 N 
ATOM     15  N   UNL d   1       0.118  -1.504   0.124  0.00  0.00    -0.277 N 
ATOM     16  HN  UNL d   1      -1.131   0.184   0.530  1.00  0.00     0.190 HD
ATOM     17  HN  UNL d   1       1.015  -1.235   0.528  1.00  0.00     0.189 HD
BRANCH  12  18
ATOM     18  C   UNL d   1      -2.168  -3.606  -1.721  0.00  0.00     0.161 C 
BRANCH  18  19
ATOM     19  C   UNL d   1      -3.043  -4.601  -1.003  0.00  0.00    -0.017 C 
ATOM     20  C   UNL d   1      -3.141  -4.837   0.313  0.00  0.00     0.008 C 
ENDBRANCH  18  19
ENDBRANCH  12  18
BRANCH  13  21
ATOM     21  O   UNL d   1      -3.198  -0.989  -0.643  0.00  0.00    -0.331 OA
ATOM     22  H   UNL d   1      -3.777  -1.708  -0.933  0.00  0.00     0.221 HD
ENDBRANCH  13  21
ENDBRANCH  10  11
ENDBRANCH   9  10
ENDBRANCH   8   9
BRANCH   1  23
ATOM     23  C   UNL d   1       7.419  -3.105   0.141  0.00  0.00     0.019 C 
ATOM     24  C   UNL d   1       7.455  -2.280   1.454  0.00  0.00     0.022 C 
ATOM     25  C   UNL d   1       8.713  -1.394   1.511  0.00  0.00    -0.013 C 
ATOM     26  C   UNL d   1       9.965  -2.283   1.456  0.00  0.00     0.009 C 
ATOM     27  C   UNL d   1       8.712  -0.439   0.306  0.00  0.00     0.009 C 
ATOM     28  C   UNL d   1       9.973  -3.093   0.150  0.00  0.00    -0.013 C 
ATOM     29  C   UNL d   1       8.711  -3.976   0.094  0.00  0.00     0.022 C 
ATOM     30  C   UNL d   1       9.973  -2.132  -1.048  0.00  0.00     0.009 C 
ATOM     31  C   UNL d   1       8.721  -1.243  -1.005  0.00  0.00    -0.013 C 
ATOM     32  C   UNL d   1       7.465  -2.129  -1.064  0.00  0.00     0.022 C 
ENDBRANCH   1  23
BRANCH   6  33
ATOM     33  O   UNL d   1       5.197  -7.269   0.132  0.00  0.00    -0.346 OA
ATOM     34  H   UNL d   1       6.163  -7.346   0.117  0.00  0.00     0.219 HD
ENDBRANCH   6  33
TORSDOF 8
