REMARK  5 active torsions:
REMARK  status: ('A' for Active; 'I' for Inactive)
REMARK       I    between atoms: N_2  and  C_1 
REMARK       I    between atoms: N_4  and  C_1 
REMARK    1  A    between atoms: C_3  and  O_11 
REMARK    2  A    between atoms: C_19  and  N_4 
REMARK    3  A    between atoms: C_17  and  N_5 
REMARK    4  A    between atoms: O_11  and  C_25 
REMARK    5  A    between atoms: C_16  and  C_17 
ROOT
ATOM      1  C   UNL d   1       0.966   0.019  -0.059  0.00  0.00     0.323 C 
ATOM      2  N   UNL d   1       0.392  -0.801   0.901  0.00  0.00    -0.331 N 
ATOM      3  N   UNL d   1       0.532  -0.170  -1.352  0.00  0.00    -0.309 N 
ATOM      4  N   UNL d   1      -0.161  -2.824   2.977  0.00  0.00     0.095 N 
ATOM      5  O   UNL d   1       1.813   0.842   0.263  0.00  0.00    -0.247 OA
ATOM      6  C   UNL d   1       0.828  -0.599   2.289  0.00  0.00     0.158 C 
ATOM      7  C   UNL d   1      -0.739  -1.725   0.744  0.00  0.00     0.158 C 
ATOM      8  C   UNL d   1      -0.543  -3.024   1.560  0.00  0.00     0.292 C 
ATOM      9  C   UNL d   1       1.027  -1.940   3.010  0.00  0.00     0.292 C 
ATOM     10  H   UNL d   1      -0.264  -0.758  -1.497  0.00  0.00     0.170 HD
ENDROOT
BRANCH   3  11
ATOM     11  C   UNL d   1       0.990   0.520  -2.497  0.00  0.00     0.036 A 
ATOM     12  C   UNL d   1       2.087   1.381  -2.498  0.00  0.00     0.032 A 
ATOM     13  C   UNL d   1       2.437   2.100  -3.645  0.00  0.00     0.039 A 
ATOM     14  C   UNL d   1       1.670   1.988  -4.798  0.00  0.00     0.078 A 
ATOM     15  C   UNL d   1       0.631   1.057  -4.836  0.00  0.00     0.039 A 
ATOM     16  C   UNL d   1       0.291   0.326  -3.692  0.00  0.00     0.032 A 
BRANCH  14  17
ATOM     17  O   UNL d   1       1.885   2.684  -5.947  0.00  0.00    -0.255 OA
BRANCH  17  18
ATOM     18  C   UNL d   1       2.297   4.044  -5.846  0.00  0.00     0.530 C 
ATOM     19  F   UNL d   1       2.368   4.521  -4.587  0.00  0.00    -0.144 F 
ATOM     20  F   UNL d   1       3.508   4.181  -6.428  0.00  0.00    -0.144 F 
ATOM     21  F   UNL d   1       1.415   4.811  -6.527  0.00  0.00    -0.144 F 
ENDBRANCH  17  18
ENDBRANCH  14  17
ENDBRANCH   3  11
BRANCH   4  22
ATOM     22  C   UNL d   1      -1.299  -2.286   3.743  0.00  0.00     0.311 C 
BRANCH  22  23
ATOM     23  C   UNL d   1      -1.016  -2.047   5.210  0.00  0.00    -0.027 A 
ATOM     24  C   UNL d   1      -1.161  -0.758   5.751  0.00  0.00     0.048 A 
ATOM     25  C   UNL d   1      -0.956  -0.593   7.103  0.00  0.00     0.105 A 
ATOM     26  O   UNL d   1      -1.076   0.577   7.785  0.00  0.00    -0.323 OA
ATOM     27  C   UNL d   1      -0.610  -1.645   7.917  0.00  0.00     0.105 A 
ATOM     28  C   UNL d   1      -0.793   0.135   9.129  0.00  0.00     0.352 A 
ATOM     29  O   UNL d   1      -0.475  -1.270   9.217  0.00  0.00    -0.323 OA
ATOM     30  C   UNL d   1      -0.438  -2.919   7.422  0.00  0.00     0.040 A 
ATOM     31  C   UNL d   1      -0.643  -3.119   6.053  0.00  0.00     0.012 A 
ENDBRANCH  22  23
ENDBRANCH   4  22
TORSDOF 5
