REMARK  3 active torsions:
REMARK  status: ('A' for Active; 'I' for Inactive)
REMARK    1  A    between atoms: C_2  and  C_1 
REMARK    2  A    between atoms: O_8  and  C_1 
REMARK    3  A    between atoms: C_10  and  O_8 
ROOT
ATOM      1  C   UNL d   1       0.448   1.119   0.556  0.00  0.00     0.157 C 
ATOM      2  O   UNL d   1       0.837   3.856   1.490  0.00  0.00    -0.310 OA
ATOM      3  C   UNL d   1       0.417   2.324  -0.366  0.00  0.00    -0.006 A 
ATOM      4  C   UNL d   1       0.938   1.458   1.952  0.00  0.00    -0.006 A 
ATOM      5  C   UNL d   1       0.547   3.607   0.172  0.00  0.00     0.083 A 
ATOM      6  C   UNL d   1       1.087   2.797   2.326  0.00  0.00     0.083 A 
ATOM      7  C   UNL d   1       1.156   0.465   2.919  0.00  0.00     0.011 A 
ATOM      8  C   UNL d   1       0.140   2.198  -1.738  0.00  0.00     0.011 A 
ATOM      9  C   UNL d   1       0.370   4.740  -0.627  0.00  0.00     0.038 A 
ATOM     10  C   UNL d   1       1.477   3.138   3.623  0.00  0.00     0.038 A 
ATOM     11  C   UNL d   1      -0.016   3.332  -2.541  0.00  0.00     0.001 A 
ATOM     12  C   UNL d   1       1.545   0.806   4.217  0.00  0.00     0.001 A 
ATOM     13  C   UNL d   1       0.084   4.603  -1.982  0.00  0.00     0.003 A 
ATOM     14  C   UNL d   1       1.712   2.143   4.569  0.00  0.00     0.003 A 
ENDROOT
BRANCH   1  15
ATOM     15  C   UNL d   1       1.152  -0.093  -0.050  0.00  0.00     0.277 C 
ATOM     16  O   UNL d   1       0.592  -1.170  -0.235  0.00  0.00    -0.264 OA
BRANCH  15  17
ATOM     17  O   UNL d   1       2.480   0.199  -0.365  0.00  0.00    -0.278 OA
BRANCH  17  18
ATOM     18  C   UNL d   1       3.360  -0.732  -0.966  0.00  0.00     0.079 A 
ATOM     19  C   UNL d   1       4.386  -0.167  -1.727  0.00  0.00     0.039 A 
ATOM     20  C   UNL d   1       5.348  -0.988  -2.319  0.00  0.00     0.022 A 
ATOM     21  C   UNL d   1       5.282  -2.369  -2.140  0.00  0.00     0.011 A 
ATOM     22  C   UNL d   1       4.256  -2.935  -1.380  0.00  0.00     0.022 A 
ATOM     23 BR   UNL d   1       6.598  -3.480  -2.917  0.00  0.00    -0.051 Br
ATOM     24  C   UNL d   1       3.293  -2.112  -0.784  0.00  0.00     0.039 A 
ENDBRANCH  17  18
ENDBRANCH  15  17
ENDBRANCH   1  15
TORSDOF 3
