REMARK  4 active torsions:
REMARK  status: ('A' for Active; 'I' for Inactive)
REMARK    1  A    between atoms: N_8  and  C_1 
REMARK    2  A    between atoms: S_10  and  C_3 
REMARK    3  A    between atoms: C_9  and  S_10 
REMARK    4  A    between atoms: N_18  and  C_13 
ROOT
ATOM      1  C   UNL d   1       2.057  -2.985   0.016  0.00  0.00     0.102 C 
ATOM      2  C   UNL d   1       2.852  -1.801   0.122  0.00  0.00     0.108 C 
ATOM      3  N   UNL d   1       3.473  -0.823   0.178  0.00  0.00    -0.191 NA
ATOM      4  C   UNL d   1       2.619  -4.211   0.098  0.00  0.00     0.115 C 
ENDROOT
BRANCH   1   5
ATOM      5  S   UNL d   1       0.308  -2.911  -0.202  0.00  0.00    -0.051 SA
BRANCH   5   6
ATOM      6  C   UNL d   1       0.030  -1.188  -0.094  0.00  0.00     0.135 A 
ATOM      7  S   UNL d   1       0.097  -0.123  -1.442  0.00  0.00    -0.025 SA
ATOM      8  C   UNL d   1      -0.227   1.139  -0.345  0.00  0.00     0.172 A 
ATOM      9  N   UNL d   1      -0.453   0.763   0.895  0.00  0.00    -0.278 N 
ATOM     10  N   UNL d   1      -0.306  -0.608   1.039  0.00  0.00    -0.286 N 
ATOM     11  HN  UNL d   1      -0.705   1.398   1.653  1.00  0.00     0.189 HD
ATOM     12  HN  UNL d   1      -0.442  -1.107   1.918  1.00  0.00     0.188 HD
BRANCH   8  13
ATOM     13  N   UNL d   1      -0.209   2.477  -0.756  0.00  0.00    -0.312 N 
ATOM     14  C   UNL d   1       0.023   2.993  -2.024  0.00  0.00     0.098 A 
ATOM     15  C   UNL d   1       0.030   4.370  -1.966  0.00  0.00     0.019 A 
ATOM     16  C   UNL d   1      -0.236   4.734  -0.631  0.00  0.00     0.019 A 
ATOM     17  C   UNL d   1      -0.401   3.567   0.082  0.00  0.00     0.098 A 
ENDBRANCH   8  13
ENDBRANCH   5   6
ENDBRANCH   1   5
BRANCH   4  18
ATOM     18  N   UNL d   1       3.932  -4.668   0.220  0.00  0.00    -0.397 N 
ATOM     19  C   UNL d   1       5.116  -3.978  -0.301  0.00  0.00     0.148 C 
ATOM     20  C   UNL d   1       4.226  -6.012   0.732  0.00  0.00     0.148 C 
ENDBRANCH   4  18
TORSDOF 4
