REMARK  2 active torsions:
REMARK  status: ('A' for Active; 'I' for Inactive)
REMARK    1  A    between atoms: C_2  and  C_1 
REMARK       I    between atoms: N_8  and  C_2 
REMARK    2  A    between atoms: C_7  and  C_3 
ROOT
ATOM      1  C   UNL d   1       1.136  -1.241  -1.720  0.00  0.00     0.112 C 
ATOM      2  C   UNL d   1       0.388  -0.963  -0.635  0.00  0.00     0.039 C 
ATOM      3  C   UNL d   1       0.572  -1.584  -2.980  0.00  0.00     0.105 C 
ATOM      4  N   UNL d   1       0.151  -1.867  -4.023  0.00  0.00    -0.191 NA
ENDROOT
BRANCH   1   5
ATOM      5  C   UNL d   1       2.619  -1.177  -1.546  0.00  0.00     0.260 C 
ATOM      6  O   UNL d   1       3.151  -0.886  -0.480  0.00  0.00    -0.267 OA
ATOM      7  N   UNL d   1       3.391  -1.462  -2.631  0.00  0.00    -0.365 N 
ATOM      8  H   UNL d   1       3.047  -1.714  -3.549  0.00  0.00     0.159 HD
ATOM      9  H   UNL d   1       4.395  -1.419  -2.503  0.00  0.00     0.159 HD
ENDBRANCH   1   5
BRANCH   2  10
ATOM     10  C   UNL d   1      -1.076  -0.986  -0.614  0.00  0.00    -0.035 A 
ATOM     11  C   UNL d   1      -1.752  -2.178  -0.332  0.00  0.00     0.013 A 
ATOM     12  C   UNL d   1      -3.148  -2.205  -0.324  0.00  0.00     0.024 A 
ATOM     13  C   UNL d   1      -3.865  -1.042  -0.596  0.00  0.00     0.034 A 
ATOM     14  C   UNL d   1      -3.198   0.149  -0.882  0.00  0.00     0.024 A 
ATOM     15 CL   UNL d   1      -5.585  -1.074  -0.576  0.00  0.00    -0.084 Cl
ATOM     16  C   UNL d   1      -1.802   0.177  -0.890  0.00  0.00     0.013 A 
ENDBRANCH   2  10
TORSDOF 2
