REMARK  6 active torsions:
REMARK  status: ('A' for Active; 'I' for Inactive)
REMARK    1  A    between atoms: S_2  and  C_1 
REMARK    2  A    between atoms: N_12  and  S_2 
REMARK    3  A    between atoms: C_11  and  C_4 
REMARK    4  A    between atoms: C_7  and  C_16 
REMARK    5  A    between atoms: O_22  and  C_11 
REMARK    6  A    between atoms: C_16  and  N_12 
ROOT
ATOM      1  S   UNL d   1       0.404   2.815   0.074  0.00  0.00     0.257 S 
ATOM      2  O   UNL d   1      -0.269   3.327   1.245  0.00  0.00    -0.204 OA
ATOM      3  O   UNL d   1       1.839   2.738  -0.046  0.00  0.00    -0.204 OA
ENDROOT
BRANCH   1   4
ATOM      4  C   UNL d   1      -0.115   1.113  -0.043  0.00  0.00     0.146 A 
ATOM      5  N   UNL d   1       0.154   0.157   0.927  0.00  0.00    -0.336 N 
ATOM      6  C   UNL d   1      -0.377  -1.075   0.550  0.00  0.00     0.111 A 
ATOM      7  C   UNL d   1       0.905   0.366   2.152  0.00  0.00     0.157 C 
ATOM      8  C   UNL d   1      -0.967  -0.882  -0.690  0.00  0.00     0.039 A 
ATOM      9  C   UNL d   1      -0.788   0.461  -1.063  0.00  0.00     0.046 A 
BRANCH   6  10
ATOM     10  C   UNL d   1      -0.308  -2.308   1.315  0.00  0.00     0.309 C 
ATOM     11  O   UNL d   1       0.229  -2.451   2.404  0.00  0.00    -0.258 OA
BRANCH  10  12
ATOM     12  O   UNL d   1      -0.942  -3.298   0.624  0.00  0.00    -0.321 OA
ATOM     13  C   UNL d   1      -0.948  -4.574   1.264  0.00  0.00     0.213 C 
ENDBRANCH  10  12
ENDBRANCH   6  10
ENDBRANCH   1   4
BRANCH   1  14
ATOM     14  N   UNL d   1      -0.185   3.601  -1.290  0.00  0.00    -0.210 NA
ATOM     15  H   UNL d   1       0.087   3.121  -2.147  0.00  0.00     0.140 HD
BRANCH  14  16
ATOM     16  C   UNL d   1      -1.580   4.044  -1.233  0.00  0.00     0.144 C 
BRANCH  16  17
ATOM     17  C   UNL d   1      -1.943   4.596  -2.586  0.00  0.00    -0.026 A 
ATOM     18  C   UNL d   1      -2.643   3.871  -3.632  0.00  0.00    -0.009 A 
ATOM     19  C   UNL d   1      -2.806   4.651  -4.783  0.00  0.00     0.015 A 
ATOM     20  C   UNL d   1      -3.158   2.548  -3.662  0.00  0.00     0.037 A 
ATOM     21  C   UNL d   1      -3.435   4.150  -5.941  0.00  0.00     0.021 A 
ATOM     22  S   UNL d   1      -2.159   6.229  -4.571  0.00  0.00    -0.101 SA
ATOM     23  C   UNL d   1      -3.908   2.836  -5.945  0.00  0.00     0.025 A 
ATOM     24  C   UNL d   1      -3.772   2.048  -4.814  0.00  0.00     0.035 A 
ATOM     25 CL   UNL d   1      -4.358   0.430  -4.823  0.00  0.00    -0.084 Cl
ATOM     26  C   UNL d   1      -1.643   5.885  -2.988  0.00  0.00     0.059 A 
ENDBRANCH  16  17
ENDBRANCH  14  16
ENDBRANCH   1  14
TORSDOF 6
