REMARK  5 active torsions:
REMARK  status: ('A' for Active; 'I' for Inactive)
REMARK    1  A    between atoms: N_3  and  S_1 
REMARK    2  A    between atoms: C_9  and  S_1 
REMARK    3  A    between atoms: C_2  and  N_3 
REMARK    4  A    between atoms: C_12  and  C_7 
REMARK    5  A    between atoms: C_13  and  C_14 
ROOT
ATOM      1  C   UNL d   1       0.792   0.834   2.436  0.00  0.00     0.131 A 
ATOM      2  C   UNL d   1       1.979   0.410   2.975  0.00  0.00     0.082 A 
ATOM      3  N   UNL d   1       0.541   0.867   4.675  0.00  0.00    -0.298 N 
ATOM      4  HN  UNL d   1       0.117   0.949   5.599  1.00  0.00     0.187 HD
ATOM      5  C   UNL d   1       1.799   0.492   4.381  0.00  0.00     0.062 A 
ATOM      6  N   UNL d   1      -0.034   1.111   3.487  0.00  0.00    -0.284 N 
ATOM      7  H   UNL d   1      -1.002   1.420   3.475  0.00  0.00     0.188 HD
ENDROOT
BRANCH   1   8
ATOM      8  N   UNL d   1       0.543   0.980   1.092  0.00  0.00    -0.265 N 
ATOM      9  H   UNL d   1       0.772   0.224   0.461  0.00  0.00     0.180 HD
BRANCH   8  10
ATOM     10  S   UNL d   1       0.509   2.459   0.381  0.00  0.00     0.264 S 
ATOM     11  O   UNL d   1      -0.262   3.375   1.191  0.00  0.00    -0.200 OA
ATOM     12  O   UNL d   1       0.224   2.275  -1.030  0.00  0.00    -0.200 OA
BRANCH  10  13
ATOM     13  C   UNL d   1       2.232   2.953   0.488  0.00  0.00     0.079 A 
ATOM     14  C   UNL d   1       3.135   2.540  -0.501  0.00  0.00     0.026 A 
ATOM     15  C   UNL d   1       4.465   2.967  -0.439  0.00  0.00     0.008 A 
ATOM     16  C   UNL d   1       4.898   3.807   0.596  0.00  0.00    -0.062 A 
ATOM     17  C   UNL d   1       3.987   4.198   1.587  0.00  0.00     0.008 A 
ATOM     18  C   UNL d   1       6.314   4.311   0.612  0.00  0.00     0.048 C 
ATOM     19  C   UNL d   1       2.655   3.777   1.535  0.00  0.00     0.026 A 
ENDBRANCH  10  13
ENDBRANCH   8  10
ENDBRANCH   1   8
BRANCH   5  20
ATOM     20  C   UNL d   1       2.796   0.240   5.416  0.00  0.00    -0.008 A 
ATOM     21  C   UNL d   1       4.141   0.571   5.214  0.00  0.00     0.014 A 
ATOM     22  C   UNL d   1       5.087   0.347   6.223  0.00  0.00     0.009 A 
ATOM     23  C   UNL d   1       4.725  -0.218   7.460  0.00  0.00    -0.051 A 
ATOM     24  C   UNL d   1       3.373  -0.555   7.638  0.00  0.00     0.009 A 
ATOM     25  C   UNL d   1       2.423  -0.325   6.636  0.00  0.00     0.014 A 
BRANCH  23  26
ATOM     26  C   UNL d   1       5.783  -0.435   8.558  0.00  0.00    -0.024 C 
ATOM     27  C   UNL d   1       5.211  -1.061   9.850  0.00  0.00     0.019 C 
ATOM     28  C   UNL d   1       6.889  -1.380   8.041  0.00  0.00     0.019 C 
ATOM     29  C   UNL d   1       6.420   0.916   8.950  0.00  0.00     0.019 C 
ENDBRANCH  23  26
ENDBRANCH   5  20
TORSDOF 5
