REMARK  3 active torsions:
REMARK  status: ('A' for Active; 'I' for Inactive)
REMARK    1  A    between atoms: S_11  and  C_5 
REMARK    2  A    between atoms: N_10  and  C_14 
REMARK    3  A    between atoms: C_12  and  S_11 
ROOT
ATOM      1  C   UNL d   1       0.464  -0.933   0.141  0.00  0.00     0.706 A 
ATOM      2  N   UNL d   1       1.583  -1.618   0.232  0.00  0.00    -0.167 N 
ATOM      3  HN  UNL d   1       1.701  -2.629   0.291  1.00  0.00     0.186 HD
ATOM      4  N   UNL d   1       0.766   0.436   0.100  0.00  0.00    -0.089 N 
ATOM      5  C   UNL d   1       2.547  -0.656   0.228  0.00  0.00     0.181 A 
ATOM      6  N   UNL d   1       2.108   0.599   0.144  0.00  0.00    -0.258 N 
ATOM      7  HN  UNL d   1       2.648   1.464   0.120  1.00  0.00     0.190 HD
ATOM      8  N   UNL d   1      -0.824  -1.387   0.102  0.00  0.00    -0.194 N 
ATOM      9  HN  UNL d   1      -1.040  -2.384   0.124  1.00  0.00     0.184 HD
ATOM     10  C   UNL d   1      -0.246   1.401   0.027  0.00  0.00     0.050 A 
ATOM     11  C   UNL d   1      -1.527   0.992  -0.011  0.00  0.00     0.052 A 
ATOM     12  C   UNL d   1      -1.759  -0.487   0.035  0.00  0.00     0.024 A 
ATOM     13  C   UNL d   1       0.120   2.853  -0.002  0.00  0.00     0.071 C 
ATOM     14  C   UNL d   1      -3.194  -0.956   0.013  0.00  0.00     0.068 C 
ENDROOT
BRANCH   5  15
ATOM     15  S   UNL d   1       4.245  -1.043   0.230  0.00  0.00    -0.032 SA
BRANCH  15  16
ATOM     16  C   UNL d   1       4.604  -0.995   1.970  0.00  0.00     0.110 A 
ATOM     17  C   UNL d   1       4.585  -2.092   2.825  0.00  0.00     0.136 A 
ATOM     18  C   UNL d   1       4.910  -1.943   4.181  0.00  0.00     0.040 A 
ATOM     19  C   UNL d   1       5.269  -0.686   4.650  0.00  0.00     0.020 A 
ATOM     20  C   UNL d   1       5.284   0.362   3.747  0.00  0.00     0.089 A 
ATOM     21  N   UNL d   1       4.962   0.233   2.438  0.00  0.00    -0.358 N 
ATOM     22  HN  UNL d   1       4.987   1.039   1.814  1.00  0.00     0.166 HD
BRANCH  17  23
ATOM     23  N   UNL d   1       4.285  -3.417   2.349  0.00  0.00    -0.113 N 
ATOM     24  O   UNL d   1       5.032  -3.896   1.486  0.00  0.00    -0.532 OA
ATOM     25  O   UNL d   1       3.360  -4.016   2.913  0.00  0.00    -0.532 OA
ENDBRANCH  17  23
ENDBRANCH  15  16
ENDBRANCH   5  15
TORSDOF 3
