REMARK  3 active torsions:
REMARK  status: ('A' for Active; 'I' for Inactive)
REMARK    1  A    between atoms: N_6  and  C_1 
REMARK    2  A    between atoms: C_2  and  C_3 
REMARK    3  A    between atoms: N_19  and  C_18 
ROOT
ATOM      1  C   UNL d   1      -0.308   1.224   0.059  0.00  0.00     0.125 A 
ATOM      2  C   UNL d   1      -1.556  -1.107   0.942  0.00  0.00     0.065 A 
ATOM      3  N   UNL d   1      -0.004   0.714   1.278  0.00  0.00    -0.350 N 
ATOM      4  HN  UNL d   1       0.680   1.177   1.876  1.00  0.00     0.166 HD
ATOM      5  C   UNL d   1      -1.217   0.551  -0.783  0.00  0.00     0.078 A 
ATOM      6  C   UNL d   1      -1.835  -0.619  -0.335  0.00  0.00     0.045 A 
ATOM      7  C   UNL d   1      -0.621  -0.418   1.691  0.00  0.00     0.106 A 
ATOM      8 CL   UNL d   1      -1.730   1.168  -2.317  0.00  0.00    -0.080 Cl
ENDROOT
BRANCH   1   9
ATOM      9  N   UNL d   1       0.192   2.487  -0.271  0.00  0.00    -0.366 N 
ATOM     10  C   UNL d   1       0.564   3.331   0.869  0.00  0.00     0.126 C 
ATOM     11  C   UNL d   1       0.527   4.787   0.402  0.00  0.00     0.055 C 
ATOM     12  C   UNL d   1       1.415   4.998  -0.830  0.00  0.00     0.221 C 
ATOM     13  C   UNL d   1       1.118   3.970  -1.933  0.00  0.00     0.055 C 
ATOM     14  C   UNL d   1       1.157   2.546  -1.370  0.00  0.00     0.126 C 
BRANCH  12  15
ATOM     15  N   UNL d   1       1.241   6.366  -1.331  0.00  0.00     0.083 N 
ATOM     16  H   UNL d   1       0.265   6.510  -1.592  0.00  0.00     0.313 HD
ATOM     17  H   UNL d   1       1.781   6.491  -2.187  0.00  0.00     0.313 HD
ENDBRANCH  12  15
ENDBRANCH   1   9
BRANCH   2  18
ATOM     18  C   UNL d   1      -2.259  -2.290   1.526  0.00  0.00     0.418 C 
ATOM     19  F   UNL d   1      -3.208  -2.818   0.704  0.00  0.00    -0.166 F 
ATOM     20  F   UNL d   1      -1.409  -3.310   1.820  0.00  0.00    -0.166 F 
ATOM     21  F   UNL d   1      -2.900  -1.991   2.689  0.00  0.00    -0.166 F 
ENDBRANCH   2  18
TORSDOF 3
