REMARK  1 active torsions:
REMARK  status: ('A' for Active; 'I' for Inactive)
REMARK    1  A    between atoms: C_3  and  C_1 
ROOT
ATOM      1  C   UNL d   1       0.072   2.352  -3.905  0.00  0.00     0.105 A 
ATOM      2  C   UNL d   1       0.688   1.209  -1.881  0.00  0.00    -0.050 A 
ATOM      3  C   UNL d   1       0.054   2.290  -2.526  0.00  0.00     0.047 A 
ATOM      4  C   UNL d   1       0.702   1.399  -4.663  0.00  0.00     0.105 A 
ATOM      5  O   UNL d   1      -0.495   3.326  -4.664  0.00  0.00    -0.323 OA
ATOM      6  O   UNL d   1       0.612   1.646  -5.996  0.00  0.00    -0.323 OA
ATOM      7  C   UNL d   1      -0.144   2.875  -5.990  0.00  0.00     0.352 A 
ATOM      8  C   UNL d   1       1.349   0.247  -2.686  0.00  0.00     0.010 A 
ATOM      9  C   UNL d   1       1.351   0.336  -4.083  0.00  0.00     0.040 A 
ENDROOT
BRANCH   2  10
ATOM     10  C   UNL d   1       0.684   1.155  -0.351  0.00  0.00     0.032 C 
ATOM     11  C   UNL d   1       1.432  -0.023   0.289  0.00  0.00     0.088 C 
ATOM     12  C   UNL d   1       0.691  -1.325   0.072  0.00  0.00     0.134 C 
ATOM     13  O   UNL d   1       1.298  -2.354  -0.223  0.00  0.00    -0.298 OA
ATOM     14  C   UNL d   1      -0.778  -1.346   0.387  0.00  0.00     0.156 C 
ATOM     15  C   UNL d   1      -1.480  -0.070   0.015  0.00  0.00     0.134 C 
ATOM     16  C   UNL d   1      -0.731   1.222   0.247  0.00  0.00     0.088 C 
ATOM     17  O   UNL d   1      -2.667  -0.065  -0.310  0.00  0.00    -0.298 OA
ENDBRANCH   2  10
TORSDOF 1
