REMARK  9 active torsions:
REMARK  status: ('A' for Active; 'I' for Inactive)
REMARK    1  A    between atoms: C_3  and  S_1 
REMARK    2  A    between atoms: N_21  and  S_1 
REMARK    3  A    between atoms: S_2  and  N_22 
REMARK    4  A    between atoms: C_11  and  S_2 
REMARK    5  A    between atoms: C_8  and  C_12 
REMARK    6  A    between atoms: C_9  and  C_13 
REMARK    7  A    between atoms: C_29  and  N_21 
REMARK    8  A    between atoms: N_22  and  C_30 
REMARK    9  A    between atoms: C_30  and  C_29 
ROOT
ATOM      1  N   UNL d   1       5.275   0.689   2.421  0.00  0.00    -0.314 N 
ATOM      2  H   UNL d   1       5.503  -0.010   3.127  0.00  0.00     0.172 HD
ENDROOT
BRANCH   1   3
ATOM      3  S   UNL d   1       5.018   2.242   3.007  0.00  0.00     0.258 S 
ATOM      4  O   UNL d   1       6.072   2.512   3.954  0.00  0.00    -0.201 OA
ATOM      5  O   UNL d   1       4.737   3.098   1.876  0.00  0.00    -0.201 OA
BRANCH   3   6
ATOM      6  C   UNL d   1       3.519   2.132   3.967  0.00  0.00     0.081 A 
ATOM      7  C   UNL d   1       2.908   0.904   4.226  0.00  0.00     0.041 A 
ATOM      8  C   UNL d   1       1.692   0.839   4.918  0.00  0.00     0.050 A 
ATOM      9  C   UNL d   1       1.155   2.025   5.441  0.00  0.00     0.032 A 
ATOM     10  C   UNL d   1       1.813   3.259   5.271  0.00  0.00     0.050 A 
ATOM     11  C   UNL d   1       2.981   3.309   4.493  0.00  0.00     0.041 A 
BRANCH   8  12
ATOM     12  C   UNL d   1       1.000  -0.491   5.123  0.00  0.00     0.417 C 
ATOM     13  F   UNL d   1       1.661  -1.529   4.535  0.00  0.00    -0.166 F 
ATOM     14  F   UNL d   1       0.897  -0.815   6.439  0.00  0.00    -0.166 F 
ATOM     15  F   UNL d   1      -0.263  -0.510   4.625  0.00  0.00    -0.166 F 
ENDBRANCH   8  12
BRANCH  10  16
ATOM     16  C   UNL d   1       1.280   4.493   5.964  0.00  0.00     0.417 C 
ATOM     17  F   UNL d   1       2.059   5.594   5.789  0.00  0.00    -0.166 F 
ATOM     18  F   UNL d   1       0.036   4.835   5.537  0.00  0.00    -0.166 F 
ATOM     19  F   UNL d   1       1.182   4.315   7.311  0.00  0.00    -0.166 F 
ENDBRANCH  10  16
ENDBRANCH   3   6
ENDBRANCH   1   3
BRANCH   1  20
ATOM     20  C   UNL d   1       4.705   0.243   1.137  0.00  0.00     0.147 C 
BRANCH  20  21
ATOM     21  C   UNL d   1       3.183   0.339   1.086  0.00  0.00     0.124 C 
BRANCH  21  22
ATOM     22  N   UNL d   1       2.628  -0.103  -0.212  0.00  0.00    -0.214 NA
ATOM     23  H   UNL d   1       3.052   0.405  -0.988  0.00  0.00     0.140 HD
BRANCH  22  24
ATOM     24  S   UNL d   1       0.911   0.042  -0.263  0.00  0.00     0.242 S 
ATOM     25  O   UNL d   1       0.417  -0.784  -1.348  0.00  0.00    -0.206 OA
ATOM     26  O   UNL d   1       0.477  -0.197   1.089  0.00  0.00    -0.206 OA
BRANCH  24  27
ATOM     27  C   UNL d   1       0.714   1.782  -0.763  0.00  0.00     0.087 A 
ATOM     28  C   UNL d   1       1.262   2.181  -2.028  0.00  0.00    -0.032 A 
ATOM     29  C   UNL d   1       1.237   3.555  -2.399  0.00  0.00    -0.048 A 
ATOM     30  C   UNL d   1       1.877   1.222  -3.029  0.00  0.00     0.050 C 
ATOM     31  C   UNL d   1       1.806   4.034  -3.724  0.00  0.00     0.049 C 
ATOM     32  C   UNL d   1       0.669   4.520  -1.532  0.00  0.00    -0.049 A 
ATOM     33  C   UNL d   1       0.069   4.115  -0.314  0.00  0.00    -0.048 A 
ATOM     34  C   UNL d   1       0.718   5.982  -1.940  0.00  0.00     0.049 C 
ATOM     35  C   UNL d   1       0.072   2.739   0.078  0.00  0.00    -0.032 A 
ATOM     36  C   UNL d   1      -0.574   5.184   0.555  0.00  0.00     0.049 C 
ATOM     37  C   UNL d   1      -0.646   2.418   1.369  0.00  0.00     0.050 C 
ENDBRANCH  24  27
ENDBRANCH  22  24
ENDBRANCH  21  22
ENDBRANCH  20  21
ENDBRANCH   1  20
TORSDOF 9
