REMARK  5 active torsions:
REMARK  status: ('A' for Active; 'I' for Inactive)
REMARK    1  A    between atoms: N_4  and  C_1 
REMARK    2  A    between atoms: N_5  and  C_2 
REMARK    3  A    between atoms: N_7  and  C_3 
REMARK    4  A    between atoms: C_6  and  C_8 
REMARK    5  A    between atoms: C_11  and  C_18 
REMARK       I    between atoms: N_25  and  C_11 
ROOT
ATOM      1  C   UNL d   1       0.956  -0.505  -1.037  0.00  0.00     0.132 A 
ATOM      2  C   UNL d   1      -0.219  -0.755   0.999  0.00  0.00     0.132 A 
ATOM      3  C   UNL d   1       0.593  -1.380   0.012  0.00  0.00     0.097 A 
ATOM      4  C   UNL d   1      -0.118   1.450  -0.029  0.00  0.00     0.052 A 
ATOM      5  C   UNL d   1      -0.559   0.617   0.998  0.00  0.00     0.054 A 
ATOM      6  C   UNL d   1       0.616   0.870  -1.067  0.00  0.00     0.054 A 
ENDROOT
BRANCH   3   7
ATOM      7  N   UNL d   1       0.962  -2.724   0.145  0.00  0.00    -0.377 N 
ATOM      8  C   UNL d   1       1.231  -3.596  -1.011  0.00  0.00     0.124 C 
ATOM      9  C   UNL d   1       0.978  -5.055  -0.624  0.00  0.00     0.034 C 
ATOM     10  C   UNL d   1       1.766  -5.474   0.627  0.00  0.00     0.081 C 
ATOM     11  C   UNL d   1       1.541  -4.466   1.761  0.00  0.00     0.034 C 
ATOM     12  C   UNL d   1       1.832  -3.034   1.304  0.00  0.00     0.124 C 
BRANCH  10  13
ATOM     13  C   UNL d   1       3.257  -5.654   0.352  0.00  0.00     0.219 C 
ATOM     14  O   UNL d   1       4.146  -5.069   0.959  0.00  0.00    -0.273 OA
ATOM     15  N   UNL d   1       3.574  -6.558  -0.616  0.00  0.00    -0.370 N 
ATOM     16  H   UNL d   1       2.911  -7.238  -0.959  0.00  0.00     0.159 HD
ATOM     17  H   UNL d   1       4.559  -6.750  -0.745  0.00  0.00     0.159 HD
ENDBRANCH  10  13
ENDBRANCH   3   7
BRANCH   2  18
ATOM     18  N   UNL d   1      -0.801  -1.531   2.089  0.00  0.00    -0.113 N 
ATOM     19  O   UNL d   1      -1.581  -2.446   1.796  0.00  0.00    -0.532 OA
ATOM     20  O   UNL d   1      -0.516  -1.167   3.239  0.00  0.00    -0.532 OA
ENDBRANCH   2  18
BRANCH   1  21
ATOM     21  N   UNL d   1       1.765  -0.930  -2.160  0.00  0.00    -0.113 N 
ATOM     22  O   UNL d   1       2.966  -1.143  -1.948  0.00  0.00    -0.532 OA
ATOM     23  O   UNL d   1       1.204  -0.983  -3.262  0.00  0.00    -0.532 OA
ENDBRANCH   1  21
BRANCH   4  24
ATOM     24  C   UNL d   1      -0.396   2.934  -0.024  0.00  0.00     0.417 C 
ATOM     25  F   UNL d   1      -1.092   3.348   1.069  0.00  0.00    -0.166 F 
ATOM     26  F   UNL d   1       0.751   3.664  -0.041  0.00  0.00    -0.166 F 
ATOM     27  F   UNL d   1      -1.115   3.330  -1.107  0.00  0.00    -0.166 F 
ENDBRANCH   4  24
TORSDOF 5
