REMARK  5 active torsions:
REMARK  status: ('A' for Active; 'I' for Inactive)
REMARK    1  A    between atoms: C_3  and  C_1 
REMARK    2  A    between atoms: C_4  and  CA_2 
REMARK       I    between atoms: N_6  and  C_3 
REMARK    3  A    between atoms: OXT_18  and  C_4 
REMARK    4  A    between atoms: N_5  and  C_11 
REMARK    5  A    between atoms: C_15  and  N_6 
ROOT
ATOM      1  C   UNL d   1      -1.843  -4.338  -0.622  0.00  0.00     0.275 C 
ATOM      2  N   UNL d   1      -0.913  -3.687   0.171  0.00  0.00    -0.322 N 
ATOM      3  O   UNL d   1      -1.683  -5.471  -1.077  0.00  0.00    -0.266 OA
ATOM      4  H   UNL d   1      -1.223  -2.929   0.777  0.00  0.00     0.169 HD
ENDROOT
BRANCH   1   5
ATOM      5  C   UNL d   1      -3.108  -3.626  -1.019  0.00  0.00     0.134 A 
ATOM      6  CA  UNL d   1      -3.850  -2.699  -0.304  0.00  0.00     0.139 A 
ATOM      7  N   UNL d   1      -5.037  -2.163  -0.776  0.00  0.00    -0.357 N 
ATOM      8  C   UNL d   1      -5.431  -2.579  -2.000  0.00  0.00     0.105 A 
ATOM      9  HN  UNL d   1      -5.582  -1.494  -0.233  1.00  0.00     0.165 HD
ATOM     10  C   UNL d   1      -4.697  -3.486  -2.731  0.00  0.00     0.105 A 
ATOM     11  N   UNL d   1      -3.547  -4.015  -2.263  0.00  0.00    -0.358 N 
ATOM     12  HN  UNL d   1      -3.016  -4.686  -2.818  1.00  0.00     0.165 HD
BRANCH   6  13
ATOM     13  C   UNL d   1      -3.509  -2.165   1.042  0.00  0.00     0.196 C 
ATOM     14  O   UNL d   1      -2.466  -2.338   1.643  0.00  0.00    -0.645 OA
BRANCH  13  15
ATOM     15  OXT UNL d   1      -4.519  -1.398   1.522  0.00  0.00    -0.772 OA
ATOM     16  HXT UNL d   1      -5.242  -1.351   0.853  0.00  0.00     0.167 HD
ENDBRANCH  13  15
ENDBRANCH   6  13
ENDBRANCH   1   5
BRANCH   2  17
ATOM     17  C   UNL d   1       0.458  -4.013   0.281  0.00  0.00     0.035 A 
ATOM     18  C   UNL d   1       1.096  -4.915  -0.561  0.00  0.00     0.032 A 
ATOM     19  C   UNL d   1       2.480  -5.097  -0.484  0.00  0.00     0.031 A 
ATOM     20  C   UNL d   1       3.285  -4.388   0.418  0.00  0.00     0.030 A 
ATOM     21  C   UNL d   1       2.619  -3.528   1.300  0.00  0.00     0.031 A 
ATOM     22  C   UNL d   1       1.227  -3.335   1.230  0.00  0.00     0.032 A 
BRANCH  20  23
ATOM     23  N   UNL d   1       4.653  -4.600   0.431  0.00  0.00    -0.377 N 
ATOM     24  C   UNL d   1       5.514  -4.184   1.549  0.00  0.00     0.149 C 
ATOM     25  C   UNL d   1       6.742  -5.117   1.591  0.00  0.00     0.187 C 
ATOM     26  O   UNL d   1       7.455  -5.136   0.341  0.00  0.00    -0.388 OA
ATOM     27  C   UNL d   1       6.583  -5.554  -0.726  0.00  0.00     0.187 C 
ATOM     28  C   UNL d   1       5.381  -4.609  -0.856  0.00  0.00     0.149 C 
ENDBRANCH  20  23
ENDBRANCH   2  17
TORSDOF 5
