REMARK  5 active torsions:
REMARK  status: ('A' for Active; 'I' for Inactive)
REMARK    1  A    between atoms: S_16  and  C_5 
REMARK    2  A    between atoms: S_8  and  C_11 
REMARK    3  A    between atoms: C_10  and  S_8 
REMARK    4  A    between atoms: C_11  and  C_22 
REMARK    5  A    between atoms: C_22  and  S_16 
ROOT
ATOM      1  N   UNL d   1      -1.118  -0.522   0.317  0.00  0.00    -0.314 N 
ATOM      2  C   UNL d   1      -0.913   0.836   0.298  0.00  0.00     0.158 A 
ATOM      3  N   UNL d   1       0.366   1.071   0.069  0.00  0.00    -0.281 N 
ATOM      4  HN  UNL d   1       0.792   1.990  -0.053  1.00  0.00     0.188 HD
ATOM      5  C   UNL d   1       0.128  -1.079   0.197  0.00  0.00     0.162 A 
ATOM      6  N   UNL d   1       1.024  -0.137   0.022  0.00  0.00    -0.278 N 
ATOM      7  HN  UNL d   1       2.024  -0.275  -0.122  1.00  0.00     0.189 HD
ATOM      8  C   UNL d   1      -1.893   1.856   0.512  0.00  0.00     0.120 A 
ATOM      9  O   UNL d   1      -3.049   1.659   1.228  0.00  0.00    -0.319 OA
ATOM     10  C   UNL d   1      -1.857   3.178   0.098  0.00  0.00     0.043 A 
ATOM     11  C   UNL d   1      -3.722   2.836   1.264  0.00  0.00     0.142 A 
ATOM     12  C   UNL d   1      -3.035   3.803   0.573  0.00  0.00     0.027 A 
ATOM     13  C   UNL d   1      -2.371  -1.228   0.375  0.00  0.00     0.160 C 
ENDROOT
BRANCH   5  14
ATOM     14  S   UNL d   1       0.423  -2.778   0.309  0.00  0.00    -0.091 SA
BRANCH  14  15
ATOM     15  C   UNL d   1       2.176  -2.873  -0.178  0.00  0.00     0.098 C 
BRANCH  15  16
ATOM     16  C   UNL d   1       2.686  -4.308  -0.235  0.00  0.00     0.156 C 
BRANCH  16  17
ATOM     17  S   UNL d   1       2.104  -5.175  -1.679  0.00  0.00     0.176 S 
ATOM     18  O   UNL d   1       0.683  -5.427  -1.552  0.00  0.00    -0.223 OA
ATOM     19  O   UNL d   1       2.635  -4.504  -2.852  0.00  0.00    -0.223 OA
BRANCH  17  20
ATOM     20  C   UNL d   1       2.905  -6.765  -1.579  0.00  0.00     0.059 A 
ATOM     21  C   UNL d   1       2.280  -7.804  -0.883  0.00  0.00     0.024 A 
ATOM     22  C   UNL d   1       2.838  -9.084  -0.909  0.00  0.00     0.008 A 
ATOM     23  C   UNL d   1       4.010  -9.334  -1.637  0.00  0.00    -0.062 A 
ATOM     24  C   UNL d   1       4.633  -8.280  -2.316  0.00  0.00     0.008 A 
ATOM     25  C   UNL d   1       4.561 -10.729  -1.705  0.00  0.00     0.048 C 
ATOM     26  C   UNL d   1       4.081  -6.996  -2.294  0.00  0.00     0.024 A 
ENDBRANCH  17  20
ENDBRANCH  16  17
ENDBRANCH  15  16
ENDBRANCH  14  15
ENDBRANCH   5  14
TORSDOF 5
