REMARK  6 active torsions:
REMARK  status: ('A' for Active; 'I' for Inactive)
REMARK    1  A    between atoms: C_5  and  C_1 
REMARK    2  A    between atoms: C_12  and  C_2 
REMARK    3  A    between atoms: C_4  and  N_10 
REMARK       I    between atoms: N_10  and  C_5 
REMARK    4  A    between atoms: C_19  and  C_7 
REMARK    5  A    between atoms: O_18  and  C_12 
REMARK    6  A    between atoms: C_22  and  O_18 
ROOT
ATOM      1  C   UNL d   1      -3.514  -4.387  -1.159  0.00  0.00     0.262 C 
ATOM      2  N   UNL d   1      -2.600  -3.849  -0.276  0.00  0.00    -0.317 N 
ATOM      3  O   UNL d   1      -3.465  -5.514  -1.645  0.00  0.00    -0.267 OA
ATOM      4  H   UNL d   1      -2.849  -2.993   0.220  0.00  0.00     0.169 HD
ENDROOT
BRANCH   2   5
ATOM      5  C   UNL d   1      -1.322  -4.339  -0.060  0.00  0.00     0.078 A 
ATOM      6  S   UNL d   1      -0.653  -5.541  -1.044  0.00  0.00    -0.076 SA
ATOM      7  C   UNL d   1       0.895  -5.413  -0.320  0.00  0.00     0.001 A 
ATOM      8  C   UNL d   1       0.894  -4.495   0.727  0.00  0.00     0.055 A 
ATOM      9  C   UNL d   1      -0.415  -3.892   0.869  0.00  0.00     0.056 A 
BRANCH   7  10
ATOM     10  C   UNL d   1       1.996  -6.255  -0.908  0.00  0.00     0.043 C 
ATOM     11  C   UNL d   1       2.717  -5.523  -2.034  0.00  0.00     0.010 C 
ENDBRANCH   7  10
BRANCH   8  12
ATOM     12  C   UNL d   1       2.034  -4.094   1.556  0.00  0.00     0.294 C 
ATOM     13  O   UNL d   1       1.920  -3.310   2.491  0.00  0.00    -0.259 OA
BRANCH  12  14
ATOM     14  O   UNL d   1       3.223  -4.597   1.123  0.00  0.00    -0.318 OA
BRANCH  14  15
ATOM     15  C   UNL d   1       4.399  -3.955   1.633  0.00  0.00     0.174 C 
ATOM     16  C   UNL d   1       4.748  -2.802   0.709  0.00  0.00     0.034 C 
ENDBRANCH  14  15
ENDBRANCH  12  14
ENDBRANCH   8  12
ENDBRANCH   2   5
BRANCH   1  17
ATOM     17  C   UNL d   1      -4.651  -3.488  -1.540  0.00  0.00     0.108 A 
ATOM     18  C   UNL d   1      -4.998  -2.249  -0.819  0.00  0.00     0.304 A 
ATOM     19  O   UNL d   1      -6.117  -1.545  -1.261  0.00  0.00    -0.274 OA
ATOM     20  O   UNL d   1      -4.331  -1.855   0.135  0.00  0.00    -0.259 OA
ATOM     21  C   UNL d   1      -6.821  -1.934  -2.417  0.00  0.00     0.089 A 
ATOM     22  C   UNL d   1      -6.436  -3.061  -3.131  0.00  0.00    -0.001 A 
ATOM     23  C   UNL d   1      -7.893  -1.147  -2.830  0.00  0.00     0.038 A 
ATOM     24  C   UNL d   1      -5.332  -3.858  -2.636  0.00  0.00     0.037 A 
ATOM     25  C   UNL d   1      -7.119  -3.401  -4.301  0.00  0.00     0.014 A 
ATOM     26  C   UNL d   1      -8.188  -2.614  -4.734  0.00  0.00     0.001 A 
ATOM     27  C   UNL d   1      -8.579  -1.493  -3.996  0.00  0.00     0.003 A 
ENDBRANCH   1  17
TORSDOF 6
