REMARK  3 active torsions:
REMARK  status: ('A' for Active; 'I' for Inactive)
REMARK       I    between atoms: C_2  and  N_1 
REMARK       I    between atoms: C_3  and  N_1 
REMARK    1  A    between atoms: C_5  and  C_2 
REMARK       I    between atoms: N_7  and  C_3 
REMARK    2  A    between atoms: C_4  and  C_6 
REMARK    3  A    between atoms: C_13  and  N_7 
ROOT
ATOM      1  N   UNL d   1       1.081   0.293  -0.220  0.00  0.00    -0.275 N 
ATOM      2  C   UNL d   1       0.404  -0.660  -0.968  0.00  0.00     0.260 C 
ATOM      3  C   UNL d   1       2.442   0.544  -0.173  0.00  0.00     0.327 C 
ATOM      4  N   UNL d   1       3.173  -0.091  -1.141  0.00  0.00    -0.309 N 
ATOM      5  O   UNL d   1       0.941  -1.411  -1.772  0.00  0.00    -0.267 OA
ATOM      6  O   UNL d   1       2.861   1.299   0.697  0.00  0.00    -0.247 OA
ATOM      7  H   UNL d   1       0.583   0.841   0.464  0.00  0.00     0.173 HD
ATOM      8  H   UNL d   1       2.624  -0.678  -1.767  0.00  0.00     0.170 HD
ENDROOT
BRANCH   2   9
ATOM      9  C   UNL d   1      -1.058  -0.755  -0.719  0.00  0.00     0.047 A 
ATOM     10  C   UNL d   1      -2.001  -0.910  -1.752  0.00  0.00     0.063 A 
ATOM     11  C   UNL d   1      -3.363  -1.035  -1.395  0.00  0.00     0.017 A 
ATOM     12  C   UNL d   1      -3.776  -1.011  -0.065  0.00  0.00     0.001 A 
ATOM     13  C   UNL d   1      -2.836  -0.871   0.946  0.00  0.00     0.001 A 
ATOM     14  C   UNL d   1      -1.484  -0.750   0.625  0.00  0.00     0.018 A 
BRANCH  10  15
ATOM     15  C   UNL d   1      -1.690  -0.956  -3.232  0.00  0.00     0.418 C 
ATOM     16  F   UNL d   1      -0.434  -0.616  -3.610  0.00  0.00    -0.166 F 
ATOM     17  F   UNL d   1      -1.940  -2.185  -3.766  0.00  0.00    -0.166 F 
ATOM     18  F   UNL d   1      -2.498  -0.097  -3.925  0.00  0.00    -0.166 F 
ENDBRANCH  10  15
ENDBRANCH   2   9
BRANCH   4  19
ATOM     19  C   UNL d   1       4.550  -0.013  -1.400  0.00  0.00     0.036 A 
ATOM     20  C   UNL d   1       5.461   0.693  -0.610  0.00  0.00     0.032 A 
ATOM     21  C   UNL d   1       6.815   0.725  -0.959  0.00  0.00     0.044 A 
ATOM     22  C   UNL d   1       7.252   0.057  -2.097  0.00  0.00     0.116 A 
ATOM     23  C   UNL d   1       6.362  -0.651  -2.892  0.00  0.00     0.044 A 
ATOM     24  F   UNL d   1       8.546   0.101  -2.436  0.00  0.00    -0.206 F 
ATOM     25  C   UNL d   1       5.010  -0.692  -2.539  0.00  0.00     0.032 A 
ENDBRANCH   4  19
TORSDOF 3
