REMARK  1 active torsions:
REMARK  status: ('A' for Active; 'I' for Inactive)
REMARK    1  A    between atoms: C_9  and  N_1 
ROOT
ATOM      1  N   UNL d   1       0.986  -0.566  -0.014  0.00  0.00    -0.239 N 
ATOM      2  C   UNL d   1       0.901   0.748   0.477  0.00  0.00     0.143 A 
ATOM      3  N   UNL d   1      -0.172  -0.941  -0.631  0.00  0.00    -0.302 N 
ATOM      4  HN  UNL d   1      -0.350  -1.797  -1.156  1.00  0.00     0.186 HD
ATOM      5  C   UNL d   1      -0.411   1.135   0.268  0.00  0.00     0.106 A 
ATOM      6  C   UNL d   1      -1.019   0.060  -0.393  0.00  0.00     0.134 A 
ATOM      7  C   UNL d   1      -0.992   2.393   0.583  0.00  0.00     0.104 C 
ATOM      8  N   UNL d   1      -1.455   3.430   0.821  0.00  0.00    -0.191 NA
ATOM      9  N   UNL d   1       1.951   1.460   0.974  0.00  0.00    -0.383 N 
ATOM     10  H   UNL d   1       2.903   1.204   0.712  0.00  0.00     0.157 HD
ATOM     11  H   UNL d   1       1.866   2.468   1.104  0.00  0.00     0.157 HD
ENDROOT
BRANCH   1  12
ATOM     12  C   UNL d   1       2.094  -1.459   0.026  0.00  0.00     0.058 A 
ATOM     13  C   UNL d   1       3.049  -1.380   1.046  0.00  0.00     0.032 A 
ATOM     14  C   UNL d   1       4.161  -2.224   1.031  0.00  0.00     0.009 A 
ATOM     15  C   UNL d   1       4.334  -3.156   0.001  0.00  0.00    -0.062 A 
ATOM     16  C   UNL d   1       3.355  -3.261  -0.994  0.00  0.00     0.009 A 
ATOM     17  C   UNL d   1       5.548  -4.037  -0.009  0.00  0.00     0.048 C 
ATOM     18  C   UNL d   1       2.231  -2.431  -0.975  0.00  0.00     0.032 A 
ENDBRANCH   1  12
TORSDOF 1
