REMARK  4 active torsions:
REMARK  status: ('A' for Active; 'I' for Inactive)
REMARK    1  A    between atoms: C_5  and  C_1 
REMARK    2  A    between atoms: C_13  and  N_2 
REMARK    3  A    between atoms: S_8  and  C_5 
REMARK    4  A    between atoms: C_10  and  S_8 
ROOT
ATOM      1  C   UNL d   1      -0.555  -2.707   0.525  0.00  0.00     0.241 C 
ATOM      2  O   UNL d   1       0.359  -3.520   0.465  0.00  0.00    -0.278 OA
ENDROOT
BRANCH   1   3
ATOM      3  C   UNL d   1      -0.413  -1.286   0.278  0.00  0.00     0.110 A 
ATOM      4  N   UNL d   1       0.623  -0.704  -0.420  0.00  0.00    -0.288 N 
ATOM      5  N   UNL d   1       0.521   0.640  -0.516  0.00  0.00    -0.303 N 
ATOM      6  C   UNL d   1      -0.617   0.937   0.107  0.00  0.00     0.024 A 
ATOM      7  HN  UNL d   1       1.172   1.283  -0.967  1.00  0.00     0.186 HD
ATOM      8  C   UNL d   1      -1.226  -0.219   0.636  0.00  0.00     0.061 A 
ATOM      9  C   UNL d   1      -1.100   2.337   0.178  0.00  0.00     0.070 C 
BRANCH   4  10
ATOM     10  C   UNL d   1       1.694  -1.351  -1.159  0.00  0.00     0.145 C 
ATOM     11  C   UNL d   1       2.967  -1.503  -0.346  0.00  0.00     0.028 C 
ENDBRANCH   4  10
ENDBRANCH   1   3
BRANCH   1  12
ATOM     12  S   UNL d   1      -2.221  -3.191   0.815  0.00  0.00    -0.046 SA
BRANCH  12  13
ATOM     13  C   UNL d   1      -2.199  -4.546   1.969  0.00  0.00     0.010 A 
ATOM     14  C   UNL d   1      -1.124  -4.899   2.789  0.00  0.00     0.042 A 
ATOM     15  C   UNL d   1      -1.255  -5.954   3.700  0.00  0.00     0.035 A 
ATOM     16 CL   UNL d   1       0.074  -6.384   4.706  0.00  0.00    -0.084 Cl
ATOM     17  C   UNL d   1      -2.453  -6.657   3.815  0.00  0.00     0.024 A 
ATOM     18  C   UNL d   1      -3.532  -6.310   3.010  0.00  0.00     0.003 A 
ATOM     19  C   UNL d   1      -3.402  -5.264   2.095  0.00  0.00     0.019 A 
ENDBRANCH  12  13
ENDBRANCH   1  12
TORSDOF 4
