REMARK  5 active torsions:
REMARK  status: ('A' for Active; 'I' for Inactive)
REMARK    1  A    between atoms: C_2  and  S_1 
REMARK    2  A    between atoms: C_8  and  S_1 
REMARK    3  A    between atoms: C_3  and  C_4 
REMARK       I    between atoms: C_4  and  N_7 
REMARK    4  A    between atoms: N_7  and  C_18 
REMARK    5  A    between atoms: C_19  and  C_8 
ROOT
ATOM      1  C   UNL d   1       1.758  -5.112  -0.678  0.00  0.00     0.034 C 
ATOM      2  C   UNL d   1       0.865  -2.773   0.617  0.00  0.00    -0.044 C 
ATOM      3  C   UNL d   1       2.677  -4.170  -0.206  0.00  0.00     0.030 C 
ATOM      4  C   UNL d   1       0.419  -4.967  -0.326  0.00  0.00     0.030 C 
ATOM      5  C   UNL d   1       2.233  -3.005   0.437  0.00  0.00     0.010 C 
ATOM      6  C   UNL d   1      -0.020  -3.821   0.334  0.00  0.00     0.010 C 
ENDROOT
BRANCH   2   7
ATOM      7  C   UNL d   1       0.303  -1.463   1.107  0.00  0.00     0.184 C 
BRANCH   7   8
ATOM      8  S   UNL d   1       0.723  -0.050   0.104  0.00  0.00     0.180 S 
ATOM      9  O   UNL d   1      -0.082   1.048   0.605  0.00  0.00    -0.222 OA
ATOM     10  O   UNL d   1       2.176   0.067   0.095  0.00  0.00    -0.222 OA
BRANCH   8  11
ATOM     11  C   UNL d   1       0.233  -0.232  -1.615  0.00  0.00     0.066 A 
ATOM     12  C   UNL d   1      -0.427  -1.383  -2.066  0.00  0.00     0.032 A 
ATOM     13  C   UNL d   1      -0.714  -1.585  -3.429  0.00  0.00    -0.039 A 
ATOM     14  C   UNL d   1      -1.313  -2.891  -3.880  0.00  0.00     0.050 C 
ATOM     15  C   UNL d   1      -0.404  -0.570  -4.338  0.00  0.00     0.040 A 
ATOM     16  C   UNL d   1       0.194   0.610  -3.892  0.00  0.00     0.032 A 
ATOM     17 CL   UNL d   1      -0.742  -0.722  -6.024  0.00  0.00    -0.084 Cl
ATOM     18  C   UNL d   1       0.541   0.791  -2.538  0.00  0.00    -0.039 A 
ATOM     19  C   UNL d   1       1.168   2.114  -2.182  0.00  0.00     0.050 C 
ENDBRANCH   8  11
ENDBRANCH   7   8
ENDBRANCH   2   7
BRANCH   1  20
ATOM     20  N   UNL d   1       2.225  -6.131  -1.539  0.00  0.00    -0.323 N 
ATOM     21  C   UNL d   1       1.434  -6.907  -2.394  0.00  0.00     0.277 C 
ATOM     22  O   UNL d   1       0.199  -6.865  -2.399  0.00  0.00    -0.268 OA
ATOM     23  H   UNL d   1       3.229  -6.154  -1.700  0.00  0.00     0.169 HD
BRANCH  21  24
ATOM     24  C   UNL d   1       2.194  -7.850  -3.363  0.00  0.00     0.269 C 
ATOM     25 CL   UNL d   1       3.946  -7.496  -3.398  0.00  0.00    -0.073 Cl
ATOM     26 CL   UNL d   1       1.934  -9.523  -2.812  0.00  0.00    -0.073 Cl
ATOM     27 CL   UNL d   1       1.533  -7.629  -5.007  0.00  0.00    -0.073 Cl
ENDBRANCH  21  24
ENDBRANCH   1  20
TORSDOF 5
