REMARK  2 active torsions:
REMARK  status: ('A' for Active; 'I' for Inactive)
REMARK       I    between atoms: N_2  and  C_1 
REMARK    1  A    between atoms: C_10  and  C_1 
REMARK    2  A    between atoms: C_4  and  N_2 
ROOT
ATOM      1  C   UNL d   1      -1.763  -2.422   0.525  0.00  0.00     0.019 A 
ATOM      2  C   UNL d   1      -1.200  -1.331  -0.184  0.00  0.00     0.047 A 
ATOM      3  N   UNL d   1      -3.450  -3.648   1.341  0.00  0.00    -0.365 N 
ATOM      4  C   UNL d   1      -3.154  -2.573   0.531  0.00  0.00     0.044 A 
ATOM      5  C   UNL d   1      -2.299  -4.208   1.822  0.00  0.00     0.089 A 
ATOM      6  C   UNL d   1      -1.240  -3.475   1.335  0.00  0.00     0.033 A 
ATOM      7  C   UNL d   1      -2.065  -0.508  -0.926  0.00  0.00     0.030 A 
ATOM      8  C   UNL d   1      -3.444  -0.699  -0.916  0.00  0.00     0.005 A 
ATOM      9  C   UNL d   1      -4.017  -1.724  -0.168  0.00  0.00     0.030 A 
ATOM     10  H   UNL d   1      -4.387  -3.964   1.549  0.00  0.00     0.165 HD
ENDROOT
BRANCH   2  11
ATOM     11  N   UNL d   1       0.197  -1.109  -0.128  0.00  0.00    -0.326 N 
ATOM     12  C   UNL d   1       0.808   0.106  -0.372  0.00  0.00     0.226 C 
ATOM     13  O   UNL d   1       0.204   1.161  -0.565  0.00  0.00    -0.273 OA
ATOM     14  H   UNL d   1       0.746  -1.828   0.323  0.00  0.00     0.169 HD
BRANCH  12  15
ATOM     15  C   UNL d   1       2.342   0.079  -0.296  0.00  0.00     0.078 C 
ATOM     16  C   UNL d   1       2.927   1.472  -0.600  0.00  0.00     0.014 C 
ATOM     17  C   UNL d   1       2.782   1.859  -2.074  0.00  0.00     0.001 C 
ATOM     18  C   UNL d   1       3.369   0.800  -3.000  0.00  0.00     0.000 C 
ATOM     19  C   UNL d   1       2.831  -0.596  -2.700  0.00  0.00     0.001 C 
ATOM     20  C   UNL d   1       2.978  -0.964  -1.224  0.00  0.00     0.014 C 
ENDBRANCH  12  15
ENDBRANCH   2  11
TORSDOF 2
