REMARK  8 active torsions:
REMARK  status: ('A' for Active; 'I' for Inactive)
REMARK    1  A    between atoms: S_2  and  C_1 
REMARK    2  A    between atoms: N_15  and  S_2 
REMARK       I    between atoms: C_13  and  N_14 
REMARK    3  A    between atoms: N_14  and  C_18 
REMARK    4  A    between atoms: C_25  and  N_15 
REMARK    5  A    between atoms: C_21  and  O_23 
REMARK    6  A    between atoms: C_22  and  C_25 
REMARK    7  A    between atoms: C_28  and  C_22 
REMARK    8  A    between atoms: O_23  and  C_28 
ROOT
ATOM      1  N   UNL d   1      -2.709  -3.756  -0.013  0.00  0.00    -0.315 N 
ATOM      2  H   UNL d   1      -3.256  -3.195  -0.672  0.00  0.00     0.172 HD
ENDROOT
BRANCH   1   3
ATOM      3  S   UNL d   1      -1.101  -3.232   0.056  0.00  0.00     0.261 S 
ATOM      4  O   UNL d   1      -0.411  -4.053   1.028  0.00  0.00    -0.200 OA
ATOM      5  O   UNL d   1      -1.105  -1.793   0.147  0.00  0.00    -0.200 OA
BRANCH   3   6
ATOM      6  C   UNL d   1      -0.477  -3.653  -1.527  0.00  0.00     0.110 A 
ATOM      7  C   UNL d   1      -1.023  -3.123  -2.707  0.00  0.00     0.108 A 
ATOM      8  C   UNL d   1      -0.474  -3.460  -4.015  0.00  0.00     0.086 A 
ATOM      9  N   UNL d   1      -2.066  -2.303  -2.898  0.00  0.00    -0.238 N 
ATOM     10  N   UNL d   1      -1.178  -2.811  -4.948  0.00  0.00    -0.239 N 
ATOM     11  C   UNL d   1       0.616  -4.338  -4.176  0.00  0.00     0.034 A 
ATOM     12  O   UNL d   1      -2.140  -2.091  -4.263  0.00  0.00    -0.156 OA
ATOM     13  HN  UNL d   1      -1.035  -2.841  -5.958  1.00  0.00     0.197 HD
ATOM     14  C   UNL d   1       1.130  -4.868  -2.977  0.00  0.00     0.004 A 
ATOM     15  C   UNL d   1       0.609  -4.538  -1.698  0.00  0.00     0.028 A 
ATOM     16  HN  UNL d   1      -2.680  -1.915  -2.182  1.00  0.00     0.197 HD
ENDBRANCH   3   6
ENDBRANCH   1   3
BRANCH   1  17
ATOM     17  C   UNL d   1      -2.927  -5.205  -0.031  0.00  0.00     0.134 C 
BRANCH  17  18
ATOM     18  C   UNL d   1      -4.418  -5.534  -0.003  0.00  0.00     0.047 C 
BRANCH  18  19
ATOM     19  C   UNL d   1      -4.556  -7.050   0.020  0.00  0.00     0.177 C 
BRANCH  19  20
ATOM     20  O   UNL d   1      -5.920  -7.478   0.045  0.00  0.00    -0.351 OA
BRANCH  20  21
ATOM     21  C   UNL d   1      -6.072  -8.848   0.009  0.00  0.00     0.070 A 
ATOM     22  C   UNL d   1      -5.009  -9.758  -0.028  0.00  0.00     0.066 A 
ATOM     23  C   UNL d   1      -5.213 -11.134  -0.107  0.00  0.00     0.037 A 
ATOM     24  C   UNL d   1      -6.526 -11.611  -0.106  0.00  0.00     0.029 A 
ATOM     25  C   UNL d   1      -7.602 -10.716  -0.050  0.00  0.00     0.005 A 
ATOM     26  C   UNL d   1      -7.375  -9.337  -0.000  0.00  0.00     0.037 A 
BRANCH  23  27
ATOM     27  N   UNL d   1      -4.145 -12.058  -0.200  0.00  0.00    -0.327 N 
ATOM     28  C   UNL d   1      -2.792 -11.757  -0.289  0.00  0.00     0.218 C 
ATOM     29  O   UNL d   1      -2.280 -10.640  -0.287  0.00  0.00    -0.274 OA
ATOM     30  C   UNL d   1      -1.908 -12.968  -0.407  0.00  0.00     0.117 C 
ATOM     31  H   UNL d   1      -4.408 -13.034  -0.242  0.00  0.00     0.169 HD
ENDBRANCH  23  27
ENDBRANCH  20  21
ENDBRANCH  19  20
ENDBRANCH  18  19
ENDBRANCH  17  18
ENDBRANCH   1  17
TORSDOF 8
