REMARK  9 active torsions:
REMARK  status: ('A' for Active; 'I' for Inactive)
REMARK    1  A    between atoms: N_2  and  S_1 
REMARK    2  A    between atoms: C_3  and  S_1 
REMARK    3  A    between atoms: C_4  and  N_2 
REMARK    4  A    between atoms: C_9  and  N_2 
REMARK    5  A    between atoms: C_13  and  C_4 
REMARK    6  A    between atoms: O_22  and  C_13 
REMARK    7  A    between atoms: O_23  and  C_13 
REMARK    8  A    between atoms: C_25  and  O_22 
REMARK    9  A    between atoms: C_24  and  O_23 
ROOT
ATOM      1  N   UNL d   1       0.665   0.619  -1.460  0.00  0.00    -0.267 N 
ENDROOT
BRANCH   1   2
ATOM      2  S   UNL d   1       1.519  -0.372  -0.393  0.00  0.00     0.265 S 
ATOM      3  O   UNL d   1       0.554  -1.237   0.262  0.00  0.00    -0.200 OA
ATOM      4  O   UNL d   1       2.459   0.408   0.381  0.00  0.00    -0.200 OA
BRANCH   2   5
ATOM      5  C   UNL d   1       2.503  -1.453  -1.425  0.00  0.00     0.083 A 
ATOM      6  C   UNL d   1       3.504  -0.922  -2.246  0.00  0.00     0.049 A 
ATOM      7  C   UNL d   1       4.290  -1.788  -3.008  0.00  0.00     0.037 A 
ATOM      8 CL   UNL d   1       5.503  -1.147  -4.049  0.00  0.00    -0.084 Cl
ATOM      9  C   UNL d   1       4.113  -3.170  -2.936  0.00  0.00     0.047 A 
ATOM     10  C   UNL d   1       3.136  -3.685  -2.090  0.00  0.00     0.037 A 
ATOM     11  C   UNL d   1       2.325  -2.837  -1.339  0.00  0.00     0.049 A 
ATOM     12 CL   UNL d   1       2.938  -5.390  -1.956  0.00  0.00    -0.084 Cl
ENDBRANCH   2   5
ENDBRANCH   1   2
BRANCH   1  13
ATOM     13  C   UNL d   1      -0.296   0.049  -2.433  0.00  0.00     0.202 C 
BRANCH  13  14
ATOM     14  C   UNL d   1      -1.633  -0.444  -1.821  0.00  0.00     0.278 C 
BRANCH  14  15
ATOM     15  O   UNL d   1      -2.356   0.722  -1.400  0.00  0.00    -0.360 OA
BRANCH  15  16
ATOM     16  C   UNL d   1      -3.692   0.504  -0.955  0.00  0.00     0.166 C 
ATOM     17  C   UNL d   1      -3.816  -0.442   0.227  0.00  0.00     0.033 C 
ENDBRANCH  15  16
ENDBRANCH  14  15
BRANCH  14  18
ATOM     18  O   UNL d   1      -2.367  -1.174  -2.821  0.00  0.00    -0.360 OA
BRANCH  18  19
ATOM     19  C   UNL d   1      -1.817  -2.469  -3.071  0.00  0.00     0.166 C 
ATOM     20  C   UNL d   1      -2.677  -3.196  -4.083  0.00  0.00     0.033 C 
ENDBRANCH  18  19
ENDBRANCH  14  18
ENDBRANCH  13  14
ENDBRANCH   1  13
BRANCH   1  21
ATOM     21  C   UNL d   1       1.093   1.964  -1.673  0.00  0.00     0.045 A 
ATOM     22  C   UNL d   1       1.857   2.308  -2.792  0.00  0.00     0.033 A 
ATOM     23  C   UNL d   1       2.202   3.643  -3.014  0.00  0.00     0.044 A 
ATOM     24  C   UNL d   1       1.767   4.621  -2.127  0.00  0.00     0.116 A 
ATOM     25  C   UNL d   1       1.000   4.290  -1.015  0.00  0.00     0.044 A 
ATOM     26  F   UNL d   1       2.079   5.903  -2.357  0.00  0.00    -0.206 F 
ATOM     27  C   UNL d   1       0.666   2.955  -0.784  0.00  0.00     0.033 A 
ENDBRANCH   1  21
TORSDOF 9
