REMARK  5 active torsions:
REMARK  status: ('A' for Active; 'I' for Inactive)
REMARK    1  A    between atoms: C_2  and  C_1 
REMARK    2  A    between atoms: C_9  and  C_5 
REMARK    3  A    between atoms: O_13  and  C_9 
REMARK    4  A    between atoms: C_15  and  O_13 
REMARK    5  A    between atoms: O_21  and  C_16 
ROOT
ATOM      1  C   UNL d   1       1.284   0.395  -1.726  0.00  0.00     0.064 A 
ATOM      2  N   UNL d   1       0.872   0.291  -4.106  0.00  0.00    -0.365 N 
ATOM      3  HN  UNL d   1       1.019  -0.172  -5.002  1.00  0.00     0.165 HD
ATOM      4  C   UNL d   1       0.089   1.407  -4.012  0.00  0.00     0.055 A 
ATOM      5  C   UNL d   1       0.463   1.524  -1.639  0.00  0.00     0.043 A 
ATOM      6  C   UNL d   1      -0.146   2.036  -2.787  0.00  0.00     0.059 A 
ATOM      7  C   UNL d   1       1.446  -0.182  -2.975  0.00  0.00     0.104 A 
ATOM      8 CL   UNL d   1      -1.174   3.410  -2.617  0.00  0.00    -0.082 Cl
ENDROOT
BRANCH   4   9
ATOM      9  C   UNL d   1      -0.506   1.915  -5.309  0.00  0.00     0.234 C 
BRANCH   9  10
ATOM     10  O   UNL d   1      -0.006   3.225  -5.578  0.00  0.00    -0.345 OA
BRANCH  10  11
ATOM     11  C   UNL d   1      -0.433   3.844  -6.718  0.00  0.00     0.069 A 
ATOM     12  C   UNL d   1      -1.249   3.293  -7.708  0.00  0.00     0.039 A 
ATOM     13  C   UNL d   1      -1.583   4.041  -8.847  0.00  0.00     0.039 A 
ATOM     14  C   UNL d   1      -1.102   5.341  -9.002  0.00  0.00     0.068 A 
ATOM     15  C   UNL d   1      -0.313   5.902  -7.999  0.00  0.00     0.039 A 
ATOM     16  C   UNL d   1       0.025   5.153  -6.871  0.00  0.00     0.039 A 
BRANCH  14  17
ATOM     17  O   UNL d   1      -1.369   6.165 -10.061  0.00  0.00    -0.356 OA
ATOM     18  C   UNL d   1      -1.595   5.513 -11.305  0.00  0.00     0.210 C 
ENDBRANCH  14  17
ENDBRANCH  10  11
ENDBRANCH   9  10
ENDBRANCH   4   9
BRANCH   1  19
ATOM     19  C   UNL d   1       1.974  -0.199  -0.539  0.00  0.00     0.418 C 
ATOM     20  F   UNL d   1       1.755   0.488   0.616  0.00  0.00    -0.166 F 
ATOM     21  F   UNL d   1       3.326  -0.248  -0.693  0.00  0.00    -0.166 F 
ATOM     22  F   UNL d   1       1.579  -1.478  -0.293  0.00  0.00    -0.166 F 
ENDBRANCH   1  19
TORSDOF 5
