REMARK  2 active torsions:
REMARK  status: ('A' for Active; 'I' for Inactive)
REMARK    1  A    between atoms: C_3  and  N_1 
REMARK    2  A    between atoms: C_10  and  C_2 
ROOT
ATOM      1  N   UNL d   1       1.160  -0.708   0.086  0.00  0.00    -0.257 N 
ATOM      2  C   UNL d   1      -0.257   1.796   0.154  0.00  0.00     0.011 A 
ATOM      3  C   UNL d   1       1.400   1.122   0.239  0.00  0.00     0.041 A 
ATOM      4  N   UNL d   1      -0.596  -1.223  -0.282  0.00  0.00    -0.304 N 
ATOM      5  HN  UNL d   1      -0.912  -2.171  -0.489  1.00  0.00     0.186 HD
ATOM      6  C   UNL d   1      -1.587   0.182  -0.210  0.00  0.00     0.119 A 
ATOM      7  C   UNL d   1       2.693   1.826   0.112  0.00  0.00     0.071 C 
ENDROOT
BRANCH   1   8
ATOM      8  C   UNL d   1       2.176  -1.710   0.131  0.00  0.00     0.100 A 
ATOM      9  C   UNL d   1       3.278  -1.582   0.994  0.00  0.00     0.066 A 
ATOM     10  C   UNL d   1       4.318  -2.525   0.974  0.00  0.00     0.050 A 
ATOM     11 CL   UNL d   1       3.379  -0.442   2.289  0.00  0.00    -0.082 Cl
ATOM     12  C   UNL d   1       4.228  -3.645   0.162  0.00  0.00     0.037 A 
ATOM     13  C   UNL d   1       3.110  -3.833  -0.635  0.00  0.00     0.050 A 
ATOM     14 CL   UNL d   1       5.493  -4.809   0.156  0.00  0.00    -0.084 Cl
ATOM     15  C   UNL d   1       2.091  -2.866  -0.670  0.00  0.00     0.066 A 
ATOM     16 CL   UNL d   1       0.875  -3.185  -1.859  0.00  0.00    -0.082 Cl
ENDBRANCH   1   8
BRANCH   2  17
ATOM     17  C   UNL d   1      -1.164   2.713  -0.013  0.00  0.00     0.160 C 
ATOM     18  N   UNL d   1      -1.202   1.746   1.216  0.00  0.00    -0.324 N 
ATOM     19  N   UNL d   1      -0.210   0.267   0.877  0.00  0.00    -0.316 N 
ATOM     20  H   UNL d   1      -1.618   1.835   2.142  0.00  0.00     0.181 HD
ATOM     21  C   UNL d   1       0.004   0.533  -1.054  0.00  0.00     0.105 C 
ATOM     22  HN  UNL d   1       0.130  -0.471   1.495  1.00  0.00     0.185 HD
ATOM     23  C   UNL d   1      -0.816   2.144  -1.332  0.00  0.00     0.023 C 
ENDBRANCH   2  17
TORSDOF 2
