REMARK  7 active torsions:
REMARK  status: ('A' for Active; 'I' for Inactive)
REMARK    1  A    between atoms: N_7  and  C_3 
REMARK    2  A    between atoms: C_4  and  C_10 
REMARK    3  A    between atoms: C_5  and  C_11 
REMARK    4  A    between atoms: C_15  and  C_6 
REMARK       I    between atoms: C_9  and  N_7 
REMARK    5  A    between atoms: C_8  and  C_15 
REMARK       I    between atoms: N_16  and  C_9 
REMARK    6  A    between atoms: N_22  and  N_16 
REMARK    7  A    between atoms: C_17  and  N_22 
ROOT
ATOM      1  N   UNL d   1       2.518   1.274  -0.563  0.00  0.00    -0.293 N 
ATOM      2  C   UNL d   1       3.834   1.109  -0.272  0.00  0.00     0.336 C 
ATOM      3  N   UNL d   1       4.326  -0.138   0.078  0.00  0.00    -0.268 N 
ATOM      4  O   UNL d   1       4.611   2.052  -0.468  0.00  0.00    -0.246 OA
ATOM      5  H   UNL d   1       2.343   2.076  -1.154  0.00  0.00     0.172 HD
ATOM      6  H   UNL d   1       3.758  -0.744   0.656  0.00  0.00     0.185 HD
ENDROOT
BRANCH   1   7
ATOM      7  C   UNL d   1       1.356   0.644  -0.188  0.00  0.00     0.116 C 
ATOM      8  N   UNL d   1       0.245   0.882  -0.992  0.00  0.00    -0.339 N 
ATOM      9  C   UNL d   1      -0.795   0.182  -0.578  0.00  0.00     0.056 C 
ATOM     10  HN  UNL d   1       0.236   1.513  -1.794  1.00  0.00     0.168 HD
ATOM     11  S   UNL d   1      -0.543  -0.601   0.948  0.00  0.00    -0.085 SA
ATOM     12  C   UNL d   1       1.110  -0.124   0.925  0.00  0.00     0.100 C 
BRANCH   9  13
ATOM     13  C   UNL d   1      -1.997  -0.210  -1.412  0.00  0.00     0.107 C 
BRANCH  13  14
ATOM     14  C   UNL d   1      -3.030   0.827  -1.842  0.00  0.00    -0.009 A 
ATOM     15  C   UNL d   1      -3.136   1.239  -3.187  0.00  0.00     0.042 A 
ATOM     16 CL   UNL d   1      -1.942   0.844  -4.377  0.00  0.00    -0.084 Cl
ATOM     17  C   UNL d   1      -4.257   1.953  -3.650  0.00  0.00     0.024 A 
ATOM     18  C   UNL d   1      -5.281   2.297  -2.779  0.00  0.00     0.003 A 
ATOM     19  C   UNL d   1      -5.166   1.962  -1.433  0.00  0.00     0.024 A 
ATOM     20  C   UNL d   1      -4.056   1.242  -0.969  0.00  0.00     0.042 A 
ATOM     21 CL   UNL d   1      -4.055   0.822   0.709  0.00  0.00    -0.084 Cl
ENDBRANCH  13  14
ENDBRANCH   9  13
ENDBRANCH   1   7
BRANCH   3  22
ATOM     22  N   UNL d   1       5.723  -0.115   0.454  0.00  0.00    -0.202 NA
ATOM     23  H   UNL d   1       6.080   0.839   0.282  0.00  0.00     0.153 HD
BRANCH  22  24
ATOM     24  C   UNL d   1       6.586  -1.054  -0.176  0.00  0.00     0.029 A 
ATOM     25  C   UNL d   1       7.949  -0.711  -0.337  0.00  0.00     0.041 A 
ATOM     26  C   UNL d   1       8.921  -1.637  -0.782  0.00  0.00     0.050 A 
ATOM     27  C   UNL d   1       8.512  -2.942  -1.064  0.00  0.00     0.032 A 
ATOM     28  C   UNL d   1       7.176  -3.331  -0.893  0.00  0.00     0.050 A 
ATOM     29  C   UNL d   1       6.228  -2.384  -0.443  0.00  0.00     0.041 A 
BRANCH  26  30
ATOM     30  C   UNL d   1      10.369  -1.229  -0.936  0.00  0.00     0.417 C 
ATOM     31  F   UNL d   1      11.214  -2.293  -1.009  0.00  0.00    -0.166 F 
ATOM     32  F   UNL d   1      10.590  -0.501  -2.063  0.00  0.00    -0.166 F 
ATOM     33  F   UNL d   1      10.821  -0.471   0.099  0.00  0.00    -0.166 F 
ENDBRANCH  26  30
BRANCH  28  34
ATOM     34  C   UNL d   1       6.791  -4.772  -1.111  0.00  0.00     0.417 C 
ATOM     35  F   UNL d   1       7.683  -5.464  -1.869  0.00  0.00    -0.166 F 
ATOM     36  F   UNL d   1       6.690  -5.462   0.062  0.00  0.00    -0.166 F 
ATOM     37  F   UNL d   1       5.584  -4.916  -1.736  0.00  0.00    -0.166 F 
ENDBRANCH  28  34
ENDBRANCH  22  24
ENDBRANCH   3  22
TORSDOF 7
