REMARK  6 active torsions:
REMARK  status: ('A' for Active; 'I' for Inactive)
REMARK    1  A    between atoms: C_7  and  S_1 
REMARK    2  A    between atoms: C_9  and  S_1 
REMARK    3  A    between atoms: N_2  and  C_3 
REMARK    4  A    between atoms: O_5  and  C_4 
REMARK    5  A    between atoms: C_6  and  O_5 
REMARK    6  A    between atoms: C_16  and  C_9 
ROOT
ATOM      1  C   UNL d   1       0.489  -2.850   3.512  0.00  0.00     0.137 A 
ATOM      2  C   UNL d   1       1.369  -2.528   4.546  0.00  0.00     0.109 A 
ATOM      3  C   UNL d   1       0.137  -1.912   2.525  0.00  0.00     0.047 A 
ATOM      4  C   UNL d   1       0.694  -0.623   2.557  0.00  0.00    -0.041 A 
ATOM      5  C   UNL d   1       1.948  -1.252   4.549  0.00  0.00     0.040 A 
ATOM      6  C   UNL d   1       1.596  -0.306   3.583  0.00  0.00     0.011 A 
ENDROOT
BRANCH   4   7
ATOM      7  C   UNL d   1       0.388   0.394   1.485  0.00  0.00     0.184 C 
BRANCH   7   8
ATOM      8  S   UNL d   1      -1.078   1.339   1.834  0.00  0.00     0.179 S 
ATOM      9  O   UNL d   1      -1.188   2.357   0.799  0.00  0.00    -0.222 OA
ATOM     10  O   UNL d   1      -2.181   0.433   2.075  0.00  0.00    -0.222 OA
BRANCH   8  11
ATOM     11  C   UNL d   1      -0.762   2.215   3.357  0.00  0.00     0.059 A 
ATOM     12  C   UNL d   1      -0.164   3.479   3.320  0.00  0.00     0.025 A 
ATOM     13  C   UNL d   1      -0.014   4.206   4.505  0.00  0.00     0.025 A 
ATOM     14  C   UNL d   1      -0.468   3.671   5.711  0.00  0.00     0.034 A 
ATOM     15  C   UNL d   1      -1.069   2.412   5.746  0.00  0.00     0.025 A 
ATOM     16 CL   UNL d   1      -0.311   4.580   7.162  0.00  0.00    -0.084 Cl
ATOM     17  C   UNL d   1      -1.227   1.682   4.565  0.00  0.00     0.025 A 
ENDBRANCH   8  11
ENDBRANCH   7   8
ENDBRANCH   4   7
BRANCH   1  18
ATOM     18  N   UNL d   1      -0.104  -4.172   3.444  0.00  0.00    -0.113 N 
ATOM     19  O   UNL d   1       0.663  -5.136   3.330  0.00  0.00    -0.532 OA
ATOM     20  O   UNL d   1      -1.341  -4.229   3.459  0.00  0.00    -0.532 OA
ENDBRANCH   1  18
BRANCH   2  21
ATOM     21  O   UNL d   1       1.664  -3.460   5.518  0.00  0.00    -0.307 OA
BRANCH  21  22
ATOM     22  C   UNL d   1       1.811  -3.018   6.819  0.00  0.00     0.098 A 
ATOM     23  C   UNL d   1       2.832  -3.559   7.613  0.00  0.00     0.069 A 
ATOM     24  C   UNL d   1       3.006  -3.123   8.929  0.00  0.00     0.050 A 
ATOM     25 CL   UNL d   1       3.920  -4.746   6.993  0.00  0.00    -0.081 Cl
ATOM     26  C   UNL d   1       2.161  -2.143   9.447  0.00  0.00     0.035 A 
ATOM     27  C   UNL d   1       1.133  -1.611   8.673  0.00  0.00     0.026 A 
ATOM     28 CL   UNL d   1       2.382  -1.585  11.059  0.00  0.00    -0.084 Cl
ATOM     29  C   UNL d   1       0.938  -2.068   7.370  0.00  0.00     0.041 A 
ENDBRANCH  21  22
ENDBRANCH   2  21
TORSDOF 6
