REMARK  4 active torsions:
REMARK  status: ('A' for Active; 'I' for Inactive)
REMARK       I    between atoms: C_2  and  N_1 
REMARK    1  A    between atoms: C_3  and  N_1 
REMARK    2  A    between atoms: C_7  and  C_2 
REMARK    3  A    between atoms: C_16  and  N_10 
REMARK    4  A    between atoms: C_11  and  C_16 
ROOT
ATOM      1  C   UNL d   1       2.344  -0.156  -0.432  0.00  0.00     0.174 C 
ATOM      2  S   UNL d   1       2.784  -1.692   0.054  0.00  0.00    -0.041 SA
ATOM      3  N   UNL d   1       3.192   0.882  -0.691  0.00  0.00    -0.364 N 
ATOM      4  H   UNL d   1       2.755   1.807  -0.677  0.00  0.00     0.162 HD
ENDROOT
BRANCH   1   5
ATOM      5  N   UNL d   1       1.013   0.080  -0.677  0.00  0.00    -0.300 N 
ATOM      6  C   UNL d   1       0.429   1.221  -1.202  0.00  0.00     0.257 C 
ATOM      7  O   UNL d   1       0.931   2.342  -1.145  0.00  0.00    -0.267 OA
ATOM      8  H   UNL d   1       0.440  -0.746  -0.567  0.00  0.00     0.171 HD
BRANCH   6   9
ATOM      9  C   UNL d   1      -0.925   1.040  -1.796  0.00  0.00     0.032 A 
ATOM     10  C   UNL d   1      -1.819   2.121  -1.773  0.00  0.00     0.018 A 
ATOM     11  C   UNL d   1      -3.086   1.995  -2.346  0.00  0.00     0.025 A 
ATOM     12  C   UNL d   1      -3.459   0.798  -2.953  0.00  0.00     0.034 A 
ATOM     13  C   UNL d   1      -2.572  -0.278  -2.995  0.00  0.00     0.025 A 
ATOM     14 CL   UNL d   1      -5.015   0.647  -3.668  0.00  0.00    -0.084 Cl
ATOM     15  C   UNL d   1      -1.301  -0.157  -2.422  0.00  0.00     0.018 A 
ENDBRANCH   6   9
ENDBRANCH   1   5
BRANCH   3  16
ATOM     16  C   UNL d   1       4.647   0.851  -0.576  0.00  0.00     0.156 C 
BRANCH  16  17
ATOM     17  C   UNL d   1       5.303   2.114  -1.168  0.00  0.00     0.171 C 
ATOM     18  O   UNL d   1       4.987   3.274  -0.375  0.00  0.00    -0.339 OA
ATOM     19  C   UNL d   1       5.723   3.301   0.783  0.00  0.00     0.102 A 
ATOM     20  C   UNL d   1       5.222   4.081   1.822  0.00  0.00     0.039 A 
ATOM     21  C   UNL d   1       6.884   2.539   0.968  0.00  0.00     0.102 A 
ATOM     22  C   UNL d   1       5.840   4.045   3.071  0.00  0.00     0.003 A 
ATOM     23  C   UNL d   1       6.967   3.245   3.272  0.00  0.00     0.003 A 
ATOM     24  C   UNL d   1       7.496   2.500   2.216  0.00  0.00     0.039 A 
ATOM     25  O   UNL d   1       7.431   1.750  -0.012  0.00  0.00    -0.346 OA
ATOM     26  C   UNL d   1       6.820   1.982  -1.286  0.00  0.00     0.209 C 
ENDBRANCH  16  17
ENDBRANCH   3  16
TORSDOF 4
