REMARK  5 active torsions:
REMARK  status: ('A' for Active; 'I' for Inactive)
REMARK    1  A    between atoms: C_11  and  N_1 
REMARK    2  A    between atoms: C_9  and  C_6 
REMARK    3  A    between atoms: C_16  and  C_9 
REMARK    4  A    between atoms: C_10  and  N_15 
REMARK    5  A    between atoms: N_15  and  N_12 
ROOT
ATOM      1  N   UNL d   1      -0.454  -0.961  -0.971  0.00  0.00    -0.227 N 
ATOM      2  N   UNL d   1       0.728  -0.173   0.650  0.00  0.00    -0.226 N 
ATOM      3  HN  UNL d   1       1.527   0.085   1.229  1.00  0.00     0.210 HD
ATOM      4  N   UNL d   1       0.810  -0.851  -0.479  0.00  0.00    -0.220 N 
ATOM      5  HN  UNL d   1       1.661  -1.223  -0.902  1.00  0.00     0.210 HD
ATOM      6  C   UNL d   1      -1.302  -0.356  -0.043  0.00  0.00     0.125 A 
ATOM      7  N   UNL d   1      -0.564   0.134   0.937  0.00  0.00    -0.271 N 
ATOM      8  HN  UNL d   1      -0.899   0.645   1.753  1.00  0.00     0.190 HD
ENDROOT
BRANCH   6   9
ATOM      9  C   UNL d   1      -2.778  -0.253  -0.055  0.00  0.00     0.126 C 
BRANCH   9  10
ATOM     10  C   UNL d   1      -3.402  -1.591   0.235  0.00  0.00     0.087 C 
ATOM     11  N   UNL d   1      -4.246  -2.097  -0.604  0.00  0.00    -0.315 N 
ATOM     12  HN  UNL d   1      -4.475  -1.638  -1.485  1.00  0.00     0.185 HD
BRANCH  11  13
ATOM     13  N   UNL d   1      -4.807  -3.271  -0.241  0.00  0.00    -0.300 N 
ATOM     14  H   UNL d   1      -4.522  -3.804   0.582  0.00  0.00     0.187 HD
BRANCH  13  15
ATOM     15  C   UNL d   1      -5.640  -3.961  -1.147  0.00  0.00     0.069 A 
ATOM     16  C   UNL d   1      -6.301  -5.146  -0.762  0.00  0.00     0.062 A 
ATOM     17 CL   UNL d   1      -6.069  -5.812   0.820  0.00  0.00    -0.082 Cl
ATOM     18  C   UNL d   1      -7.163  -5.815  -1.639  0.00  0.00     0.026 A 
ATOM     19  C   UNL d   1      -7.387  -5.308  -2.917  0.00  0.00     0.002 A 
ATOM     20  C   UNL d   1      -6.761  -4.129  -3.310  0.00  0.00     0.002 A 
ATOM     21  C   UNL d   1      -5.907  -3.459  -2.430  0.00  0.00     0.033 A 
ENDBRANCH  13  15
ENDBRANCH  11  13
ENDBRANCH   9  10
ENDBRANCH   6   9
BRANCH   1  22
ATOM     22  C   UNL d   1      -0.666  -1.625  -2.213  0.00  0.00     0.059 A 
ATOM     23  C   UNL d   1       0.414  -2.307  -2.807  0.00  0.00     0.031 A 
ATOM     24  C   UNL d   1       0.250  -3.012  -4.003  0.00  0.00     0.002 A 
ATOM     25  C   UNL d   1      -0.991  -3.038  -4.628  0.00  0.00     0.000 A 
ATOM     26  C   UNL d   1      -2.059  -2.346  -4.069  0.00  0.00     0.002 A 
ATOM     27  C   UNL d   1      -1.898  -1.636  -2.873  0.00  0.00     0.031 A 
ENDBRANCH   1  22
TORSDOF 5
