REMARK  4 active torsions:
REMARK  status: ('A' for Active; 'I' for Inactive)
REMARK    1  A    between atoms: C_2  and  C_1 
REMARK    2  A    between atoms: O_8  and  C_2 
REMARK    3  A    between atoms: C_5  and  C_7 
REMARK    4  A    between atoms: C_9  and  O_8 
ROOT
ATOM      1  C   UNL d   1      -1.767   0.119   0.172  0.00  0.00     0.062 A 
ATOM      2  N   UNL d   1       0.483   0.912   0.565  0.00  0.00    -0.355 N 
ATOM      3  HN  UNL d   1       1.113   1.652   0.876  1.00  0.00     0.166 HD
ATOM      4  C   UNL d   1      -0.869   1.099   0.609  0.00  0.00     0.022 A 
ATOM      5  C   UNL d   1       0.989  -0.267   0.103  0.00  0.00     0.117 A 
ATOM      6  C   UNL d   1      -1.225  -1.094  -0.287  0.00  0.00     0.022 A 
ATOM      7  C   UNL d   1       0.153  -1.293  -0.319  0.00  0.00     0.035 A 
ATOM      8  C   UNL d   1      -1.273   2.428   1.178  0.00  0.00     0.069 C 
ENDROOT
BRANCH   1   9
ATOM      9  C   UNL d   1      -3.255   0.200   0.192  0.00  0.00     0.300 C 
ATOM     10  O   UNL d   1      -3.955  -0.790   0.033  0.00  0.00    -0.259 OA
BRANCH   9  11
ATOM     11  O   UNL d   1      -3.700   1.492   0.394  0.00  0.00    -0.272 OA
BRANCH  11  12
ATOM     12  C   UNL d   1      -5.042   1.879   0.639  0.00  0.00     0.118 A 
ATOM     13  C   UNL d   1      -5.213   3.196   1.080  0.00  0.00     0.153 A 
ATOM     14  C   UNL d   1      -6.471   3.683   1.407  0.00  0.00     0.087 A 
ATOM     15  F   UNL d   1      -4.150   4.004   1.210  0.00  0.00    -0.203 F 
ATOM     16  C   UNL d   1      -7.566   2.839   1.284  0.00  0.00     0.119 A 
ATOM     17  C   UNL d   1      -7.417   1.530   0.828  0.00  0.00     0.045 A 
ATOM     18  F   UNL d   1      -8.784   3.286   1.611  0.00  0.00    -0.206 F 
ATOM     19  C   UNL d   1      -6.149   1.045   0.497  0.00  0.00     0.043 A 
ENDBRANCH  11  12
ENDBRANCH   9  11
ENDBRANCH   1   9
BRANCH   5  20
ATOM     20  C   UNL d   1       2.499  -0.481   0.062  0.00  0.00     0.432 C 
ATOM     21  F   UNL d   1       3.233   0.626   0.363  0.00  0.00    -0.165 F 
ATOM     22  F   UNL d   1       2.911  -1.451   0.930  0.00  0.00    -0.165 F 
ATOM     23  F   UNL d   1       2.930  -0.888  -1.169  0.00  0.00    -0.165 F 
ENDBRANCH   5  20
TORSDOF 4
