REMARK  9 active torsions:
REMARK  status: ('A' for Active; 'I' for Inactive)
REMARK    1  A    between atoms: N_4  and  S_1 
REMARK    2  A    between atoms: C_8  and  S_1 
REMARK    3  A    between atoms: C_5  and  C_2 
REMARK    4  A    between atoms: C_3  and  N_4 
REMARK    5  A    between atoms: O_15  and  C_5 
REMARK    6  A    between atoms: C_19  and  C_18 
REMARK    7  A    between atoms: C_21  and  C_19 
REMARK    8  A    between atoms: C_23  and  C_21 
REMARK    9  A    between atoms: C_22  and  C_23 
ROOT
ATOM      1  S   UNL d   1       0.626   0.144   0.026  0.00  0.00     0.245 S 
ATOM      2  O   UNL d   1       0.736   1.172   1.040  0.00  0.00    -0.206 OA
ATOM      3  O   UNL d   1       1.666  -0.077  -0.950  0.00  0.00    -0.206 OA
ENDROOT
BRANCH   1   4
ATOM      4  N   UNL d   1      -0.868   0.432  -0.770  0.00  0.00    -0.180 NA
ATOM      5  H   UNL d   1      -1.443   0.870  -0.045  0.00  0.00     0.146 HD
BRANCH   4   6
ATOM      6  C   UNL d   1      -0.805   1.251  -1.929  0.00  0.00     0.046 A 
ATOM      7  C   UNL d   1      -0.645   0.849  -3.248  0.00  0.00     0.102 A 
ATOM      8  S   UNL d   1      -0.644   2.212  -4.311  0.00  0.00    -0.094 SA
ATOM      9  C   UNL d   1      -0.879   3.312  -3.035  0.00  0.00     0.052 A 
ATOM     10  C   UNL d   1      -0.956   2.673  -1.821  0.00  0.00     0.033 A 
BRANCH   7  11
ATOM     11  C   UNL d   1      -0.511  -0.460  -3.865  0.00  0.00     0.301 C 
ATOM     12  O   UNL d   1      -0.432  -0.675  -5.071  0.00  0.00    -0.259 OA
BRANCH  11  13
ATOM     13  O   UNL d   1      -0.526  -1.454  -2.929  0.00  0.00    -0.322 OA
ATOM     14  C   UNL d   1      -0.435  -2.778  -3.462  0.00  0.00     0.213 C 
ENDBRANCH  11  13
ENDBRANCH   7  11
ENDBRANCH   4   6
ENDBRANCH   1   4
BRANCH   1  15
ATOM     15  C   UNL d   1       0.305  -1.397   0.851  0.00  0.00     0.074 A 
ATOM     16  C   UNL d   1       0.617  -2.602   0.219  0.00  0.00     0.025 A 
ATOM     17  C   UNL d   1       0.418  -3.811   0.891  0.00  0.00     0.009 A 
ATOM     18  C   UNL d   1      -0.072  -3.822   2.205  0.00  0.00    -0.058 A 
ATOM     19  C   UNL d   1      -0.349  -2.602   2.838  0.00  0.00     0.009 A 
ATOM     20  C   UNL d   1      -0.167  -1.391   2.166  0.00  0.00     0.025 A 
BRANCH  18  21
ATOM     21  C   UNL d   1      -0.270  -5.130   2.938  0.00  0.00     0.038 C 
BRANCH  21  22
ATOM     22  C   UNL d   1      -1.701  -5.357   3.440  0.00  0.00     0.005 C 
BRANCH  22  23
ATOM     23  C   UNL d   1      -2.728  -5.438   2.306  0.00  0.00    -0.000 C 
BRANCH  23  24
ATOM     24  C   UNL d   1      -4.136  -5.659   2.859  0.00  0.00    -0.005 C 
ATOM     25  C   UNL d   1      -5.167  -5.727   1.744  0.00  0.00     0.005 C 
ENDBRANCH  23  24
ENDBRANCH  22  23
ENDBRANCH  21  22
ENDBRANCH  18  21
ENDBRANCH   1  15
TORSDOF 9
