REMARK  4 active torsions:
REMARK  status: ('A' for Active; 'I' for Inactive)
REMARK    1  A    between atoms: S_6  and  C_1 
REMARK    2  A    between atoms: C_10  and  S_6 
REMARK    3  A    between atoms: C_8  and  C_10 
REMARK    4  A    between atoms: C_9  and  C_8 
ROOT
ATOM      1  S   UNL d   1      -3.038  -0.959   0.873  0.00  0.00    -0.115 SA
ENDROOT
BRANCH   1   2
ATOM      2  C   UNL d   1      -1.475  -0.527   0.231  0.00  0.00     0.041 C 
ATOM      3  C   UNL d   1      -0.472  -1.395   0.402  0.00  0.00     0.075 C 
ATOM      4  C   UNL d   1       0.916  -1.159  -0.027  0.00  0.00     0.152 C 
ATOM      5  O   UNL d   1       1.663  -2.133  -0.130  0.00  0.00    -0.293 OA
ATOM      6  C   UNL d   1       1.433   0.231  -0.310  0.00  0.00     0.103 C 
ATOM      7  C   UNL d   1       0.466   1.411  -0.151  0.00  0.00     0.013 C 
ATOM      8  S   UNL d   1      -1.260   0.986  -0.578  0.00  0.00    -0.113 SA
ATOM      9  C   UNL d   1       0.521   1.999   1.268  0.00  0.00     0.027 C 
ATOM     10  C   UNL d   1       0.874   2.514  -1.148  0.00  0.00     0.027 C 
ENDBRANCH   1   2
BRANCH   1  11
ATOM     11  C   UNL d   1      -4.143  -0.728  -0.558  0.00  0.00     0.163 C 
BRANCH  11  12
ATOM     12  C   UNL d   1      -5.568  -1.158  -0.232  0.00  0.00     0.169 C 
ATOM     13  O   UNL d   1      -5.899  -1.712   0.816  0.00  0.00    -0.291 OA
BRANCH  12  14
ATOM     14  C   UNL d   1      -6.632  -0.948  -1.261  0.00  0.00     0.011 A 
ATOM     15  C   UNL d   1      -7.789  -1.735  -1.179  0.00  0.00     0.017 A 
ATOM     16  C   UNL d   1      -8.832  -1.576  -2.102  0.00  0.00     0.025 A 
ATOM     17  C   UNL d   1      -8.720  -0.614  -3.101  0.00  0.00     0.034 A 
ATOM     18  C   UNL d   1      -7.578   0.178  -3.191  0.00  0.00     0.025 A 
ATOM     19 CL   UNL d   1     -10.003  -0.402  -4.227  0.00  0.00    -0.084 Cl
ATOM     20  C   UNL d   1      -6.530   0.014  -2.276  0.00  0.00     0.017 A 
ENDBRANCH  12  14
ENDBRANCH  11  12
ENDBRANCH   1  11
TORSDOF 4
