REMARK  5 active torsions:
REMARK  status: ('A' for Active; 'I' for Inactive)
REMARK    1  A    between atoms: C_10  and  N_2 
REMARK       I    between atoms: C_3  and  N_7 
REMARK       I    between atoms: N_8  and  C_3 
REMARK    2  A    between atoms: N_7  and  C_12 
REMARK    3  A    between atoms: C_13  and  N_8 
REMARK    4  A    between atoms: C_12  and  C_10 
REMARK    5  A    between atoms: C_14  and  C_13 
ROOT
ATOM      1  C   UNL d   1      -2.807  -4.669  -0.126  0.00  0.00     0.316 C 
ATOM      2  O   UNL d   1      -2.755  -4.411   1.067  0.00  0.00    -0.247 OA
ATOM      3  N   UNL d   1      -2.499  -3.777  -1.117  0.00  0.00    -0.342 N 
ATOM      4  N   UNL d   1      -3.194  -5.882  -0.638  0.00  0.00    -0.343 N 
ATOM      5  H   UNL d   1      -2.221  -4.149  -2.012  0.00  0.00     0.164 HD
ATOM      6  H   UNL d   1      -3.424  -5.911  -1.619  0.00  0.00     0.164 HD
ENDROOT
BRANCH   3   7
ATOM      7  C   UNL d   1      -1.998  -2.449  -0.795  0.00  0.00     0.144 C 
BRANCH   7   8
ATOM      8  C   UNL d   1      -0.488  -2.445  -0.505  0.00  0.00     0.147 C 
BRANCH   8   9
ATOM      9  N   UNL d   1       0.299  -2.907  -1.640  0.00  0.00    -0.331 N 
ATOM     10  C   UNL d   1       0.382  -2.215  -2.849  0.00  0.00     0.318 C 
ATOM     11  N   UNL d   1       1.405  -2.792  -3.588  0.00  0.00    -0.341 N 
ATOM     12  O   UNL d   1      -0.306  -1.283  -3.221  0.00  0.00    -0.247 OA
ATOM     13  C   UNL d   1       1.905  -3.967  -2.928  0.00  0.00     0.144 C 
ATOM     14  H   UNL d   1       1.527  -2.545  -4.560  0.00  0.00     0.164 HD
ATOM     15  C   UNL d   1       1.453  -3.764  -1.488  0.00  0.00     0.147 C 
ENDBRANCH   8   9
ENDBRANCH   7   8
ENDBRANCH   3   7
BRANCH   4  16
ATOM     16  C   UNL d   1      -3.732  -6.924   0.217  0.00  0.00     0.124 C 
BRANCH  16  17
ATOM     17  C   UNL d   1      -5.228  -6.754   0.485  0.00  0.00     0.015 C 
ATOM     18  C   UNL d   1      -6.075  -6.936  -0.767  0.00  0.00     0.006 C 
ENDBRANCH  16  17
ENDBRANCH   4  16
TORSDOF 5
