REMARK  6 active torsions:
REMARK  status: ('A' for Active; 'I' for Inactive)
REMARK    1  A    between atoms: N_2  and  S_1 
REMARK    2  A    between atoms: C_5  and  S_1 
REMARK    3  A    between atoms: C_12  and  N_2 
REMARK    4  A    between atoms: C_15  and  C_3 
REMARK    5  A    between atoms: C_4  and  O_10 
REMARK    6  A    between atoms: O_10  and  C_11 
ROOT
ATOM      1  N   UNL d   1       0.925   5.149   1.049  0.00  0.00    -0.344 N 
ATOM      2  HN  UNL d   1       0.611   6.107   0.895  1.00  0.00     0.167 HD
ATOM      3  C   UNL d   1       1.846   4.856   1.996  0.00  0.00     0.148 A 
ATOM      4  C   UNL d   1       0.822   2.800   0.476  0.00  0.00     0.058 A 
ATOM      5  C   UNL d   1       0.437   4.123   0.314  0.00  0.00     0.120 A 
ATOM      6  C   UNL d   1       2.256   3.550   2.255  0.00  0.00     0.059 A 
ATOM      7  C   UNL d   1       1.755   2.511   1.463  0.00  0.00     0.036 A 
ENDROOT
BRANCH   3   8
ATOM      8  O   UNL d   1       2.253   5.956   2.716  0.00  0.00    -0.293 OA
BRANCH   8   9
ATOM      9  C   UNL d   1       3.523   6.059   3.234  0.00  0.00     0.084 C 
ATOM     10  C   UNL d   1       3.716   6.780   4.435  0.00  0.00    -0.018 C 
ATOM     11  C   UNL d   1       5.016   6.741   4.997  0.00  0.00     0.034 C 
ATOM     12  C   UNL d   1       6.087   6.129   4.345  0.00  0.00     0.034 C 
ATOM     13  C   UNL d   1       5.903   5.540   3.105  0.00  0.00     0.026 C 
ATOM     14 CL   UNL d   1       7.643   6.119   5.076  0.00  0.00    -0.084 Cl
ATOM     15  C   UNL d   1       4.627   5.518   2.546  0.00  0.00     0.039 C 
BRANCH  10  16
ATOM     16  C   UNL d   1       2.646   7.561   5.223  0.00  0.00     0.021 C 
ATOM     17  C   UNL d   1       1.232   7.735   4.628  0.00  0.00     0.009 C 
ATOM     18  C   UNL d   1       1.172   8.721   3.457  0.00  0.00     0.001 C 
ATOM     19  C   UNL d   1       1.799  10.074   3.779  0.00  0.00     0.000 C 
ATOM     20  C   UNL d   1       3.152   9.960   4.471  0.00  0.00     0.001 C 
ATOM     21  C   UNL d   1       3.113   8.982   5.645  0.00  0.00     0.009 C 
ENDBRANCH  10  16
ENDBRANCH   8   9
ENDBRANCH   3   8
BRANCH   4  22
ATOM     22  N   UNL d   1       0.326   1.799  -0.393  0.00  0.00    -0.279 N 
ATOM     23  H   UNL d   1       0.784   1.600  -1.280  0.00  0.00     0.179 HD
BRANCH  22  24
ATOM     24  S   UNL d   1      -0.924   0.786   0.060  0.00  0.00     0.263 S 
ATOM     25  O   UNL d   1      -0.628   0.238   1.362  0.00  0.00    -0.200 OA
ATOM     26  O   UNL d   1      -1.170  -0.073  -1.080  0.00  0.00    -0.200 OA
BRANCH  24  27
ATOM     27  C   UNL d   1      -2.318   1.886   0.214  0.00  0.00     0.079 A 
ATOM     28  C   UNL d   1      -3.093   2.198  -0.904  0.00  0.00     0.026 A 
ATOM     29  C   UNL d   1      -4.242   2.978  -0.750  0.00  0.00     0.008 A 
ATOM     30  C   UNL d   1      -4.626   3.442   0.517  0.00  0.00    -0.062 A 
ATOM     31  C   UNL d   1      -3.832   3.132   1.627  0.00  0.00     0.008 A 
ATOM     32  C   UNL d   1      -5.892   4.234   0.678  0.00  0.00     0.048 C 
ATOM     33  C   UNL d   1      -2.684   2.352   1.483  0.00  0.00     0.026 A 
ENDBRANCH  24  27
ENDBRANCH  22  24
ENDBRANCH   4  22
TORSDOF 6
