REMARK  2 active torsions:
REMARK  status: ('A' for Active; 'I' for Inactive)
REMARK    1  A    between atoms: C_6  and  C_1 
REMARK    2  A    between atoms: C_4  and  C_5 
REMARK       I    between atoms: N_12  and  C_6 
ROOT
ATOM      1  C   UNL d   1       1.250   0.789   0.111  0.00  0.00     0.108 A 
ATOM      2  N   UNL d   1       0.225   1.056   1.025  0.00  0.00    -0.344 N 
ATOM      3  HN  UNL d   1       0.128   1.925   1.550  1.00  0.00     0.167 HD
ATOM      4  C   UNL d   1      -0.599   0.030   1.115  0.00  0.00     0.103 A 
ATOM      5  S   UNL d   1      -0.192  -1.319   0.132  0.00  0.00    -0.079 SA
ATOM      6  C   UNL d   1       1.170  -0.472  -0.457  0.00  0.00     0.087 A 
ENDROOT
BRANCH   1   7
ATOM      7  C   UNL d   1       2.364   1.716  -0.184  0.00  0.00     0.270 C 
ATOM      8  N   UNL d   1       2.190   3.092   0.046  0.00  0.00    -0.347 N 
ATOM      9  C   UNL d   1       3.338   3.948  -0.243  0.00  0.00     0.126 C 
ATOM     10  C   UNL d   1       0.886   3.756  -0.051  0.00  0.00     0.126 C 
ATOM     11  C   UNL d   1       3.314   5.252   0.553  0.00  0.00     0.020 C 
ATOM     12  C   UNL d   1       1.971   5.964   0.433  0.00  0.00     0.003 C 
ATOM     13  C   UNL d   1       0.836   5.017   0.804  0.00  0.00     0.020 C 
ATOM     14  O   UNL d   1       3.431   1.264  -0.608  0.00  0.00    -0.266 OA
ENDBRANCH   1   7
BRANCH   4  15
ATOM     15  C   UNL d   1      -1.808   0.058   2.007  0.00  0.00     0.091 A 
ATOM     16  N   UNL d   1      -2.618  -0.995   2.188  0.00  0.00    -0.258 N 
ATOM     17  O   UNL d   1      -3.597  -0.570   3.068  0.00  0.00    -0.242 OA
ATOM     18  HN  UNL d   1      -2.531  -1.918   1.764  1.00  0.00     0.195 HD
ATOM     19  C   UNL d   1      -3.382   0.733   3.394  0.00  0.00     0.074 A 
ATOM     20  C   UNL d   1      -2.252   1.177   2.753  0.00  0.00     0.068 A 
ATOM     21  C   UNL d   1      -4.359   1.343   4.312  0.00  0.00     0.079 C 
ENDBRANCH   4  15
TORSDOF 2
