REMARK  7 active torsions:
REMARK  status: ('A' for Active; 'I' for Inactive)
REMARK    1  A    between atoms: C_5  and  C_1 
REMARK    2  A    between atoms: C_7  and  C_2 
REMARK    3  A    between atoms: O_12  and  C_7 
REMARK    4  A    between atoms: C_16  and  C_9 
REMARK    5  A    between atoms: N_19  and  C_9 
REMARK    6  A    between atoms: N_10  and  O_12 
REMARK    7  A    between atoms: N_13  and  C_16 
ROOT
ATOM      1  C   UNL d   1      -1.290  -0.875   0.224  0.00  0.00     0.320 C 
ATOM      2  O   UNL d   1      -0.227  -1.378  -0.131  0.00  0.00    -0.257 OA
ENDROOT
BRANCH   1   3
ATOM      3  C   UNL d   1      -1.372   0.486   0.720  0.00  0.00     0.102 A 
ATOM      4  C   UNL d   1      -0.330   1.300   1.290  0.00  0.00     0.087 A 
ATOM      5  N   UNL d   1      -0.829   2.485   1.680  0.00  0.00    -0.259 N 
ATOM      6  O   UNL d   1      -2.148   2.496   1.323  0.00  0.00    -0.241 OA
ATOM      7  HN  UNL d   1      -0.321   3.233   2.152  1.00  0.00     0.195 HD
ATOM      8  C   UNL d   1      -2.482   1.314   0.750  0.00  0.00     0.091 A 
ATOM      9  C   UNL d   1      -3.887   1.243   0.306  0.00  0.00     0.080 C 
BRANCH   4  10
ATOM     10  C   UNL d   1       1.089   1.026   1.544  0.00  0.00     0.037 A 
ATOM     11  C   UNL d   1       2.087   1.897   1.053  0.00  0.00     0.048 A 
ATOM     12 CL   UNL d   1       1.744   3.216  -0.022  0.00  0.00    -0.083 Cl
ATOM     13  C   UNL d   1       3.433   1.733   1.411  0.00  0.00     0.025 A 
ATOM     14  C   UNL d   1       3.817   0.680   2.233  0.00  0.00     0.003 A 
ATOM     15  C   UNL d   1       2.854  -0.208   2.702  0.00  0.00     0.025 A 
ATOM     16  C   UNL d   1       1.500  -0.030   2.379  0.00  0.00     0.048 A 
ATOM     17 CL   UNL d   1       0.385  -1.122   3.135  0.00  0.00    -0.083 Cl
ENDBRANCH   4  10
ENDBRANCH   1   3
BRANCH   1  18
ATOM     18  O   UNL d   1      -2.517  -1.516   0.222  0.00  0.00    -0.194 OA
BRANCH  18  19
ATOM     19  N   UNL d   1      -2.362  -2.903  -0.002  0.00  0.00    -0.249 N 
ATOM     20  C   UNL d   1      -3.499  -3.498  -0.224  0.00  0.00     0.104 C 
ATOM     21  HN  UNL d   1      -1.463  -3.383   0.009  1.00  0.00     0.196 HD
BRANCH  20  22
ATOM     22  C   UNL d   1      -3.449  -5.022  -0.492  0.00  0.00     0.343 C 
BRANCH  22  23
ATOM     23  N   UNL d   1      -4.352  -5.855   0.330  0.00  0.00     0.096 N 
ATOM     24  C   UNL d   1      -5.745  -5.903  -0.125  0.00  0.00     0.283 C 
ATOM     25  C   UNL d   1      -6.564  -7.030   0.523  0.00  0.00     0.104 C 
ATOM     26  S   UNL d   1      -6.659  -6.856   2.331  0.00  0.00    -0.166 SA
ATOM     27  C   UNL d   1      -4.870  -6.705   2.634  0.00  0.00     0.104 C 
ATOM     28  C   UNL d   1      -4.222  -5.609   1.773  0.00  0.00     0.283 C 
ENDBRANCH  22  23
ENDBRANCH  20  22
BRANCH  20  29
ATOM     29  N   UNL d   1      -4.706  -2.846  -0.314  0.00  0.00    -0.289 NA
ATOM     30  H   UNL d   1      -4.621  -1.847  -0.439  0.00  0.00     0.125 HD
ATOM     31  H   UNL d   1      -5.400  -3.270  -0.917  0.00  0.00     0.125 HD
ENDBRANCH  20  29
ENDBRANCH  18  19
ENDBRANCH   1  18
TORSDOF 7
