REMARK  4 active torsions:
REMARK  status: ('A' for Active; 'I' for Inactive)
REMARK    1  A    between atoms: N_10  and  C_1 
REMARK    2  A    between atoms: O_11  and  C_4 
REMARK    3  A    between atoms: C_8  and  C_5 
REMARK    4  A    between atoms: C_15  and  O_11 
ROOT
ATOM      1  C   UNL d   1       0.974  -1.228  -0.022  0.00  0.00     0.120 A 
ATOM      2  N   UNL d   1       1.694  -0.092  -0.130  0.00  0.00    -0.327 N 
ATOM      3  HN  UNL d   1       2.707  -0.127  -0.248  1.00  0.00     0.168 HD
ATOM      4  C   UNL d   1      -0.421  -1.195   0.120  0.00  0.00     0.136 A 
ATOM      5  C   UNL d   1       1.046   1.094  -0.076  0.00  0.00     0.192 A 
ATOM      6  N   UNL d   1      -0.292   1.202   0.093  0.00  0.00    -0.340 N 
ATOM      7  HN  UNL d   1      -0.748   2.114   0.117  1.00  0.00     0.167 HD
ATOM      8  C   UNL d   1      -1.004   0.061   0.230  0.00  0.00     0.044 A 
ATOM      9  C   UNL d   1      -2.458   0.261   0.555  0.00  0.00     0.071 C 
ENDROOT
BRANCH   4  10
ATOM     10  O   UNL d   1      -1.087  -2.371   0.361  0.00  0.00    -0.305 OA
BRANCH  10  11
ATOM     11  C   UNL d   1      -2.183  -2.723  -0.394  0.00  0.00     0.076 A 
ATOM     12  C   UNL d   1      -2.506  -2.212  -1.653  0.00  0.00     0.037 A 
ATOM     13  C   UNL d   1      -3.679  -2.627  -2.291  0.00  0.00     0.003 A 
ATOM     14  C   UNL d   1      -4.507  -3.578  -1.692  0.00  0.00     0.000 A 
ATOM     15  C   UNL d   1      -4.158  -4.127  -0.461  0.00  0.00     0.003 A 
ATOM     16  C   UNL d   1      -2.997  -3.701   0.184  0.00  0.00     0.037 A 
ENDBRANCH  10  11
ENDBRANCH   4  10
BRANCH   1  17
ATOM     17  N   UNL d   1       1.666  -2.449   0.065  0.00  0.00    -0.267 NA
ATOM     18  C   UNL d   1       3.068  -2.337   0.486  0.00  0.00     0.097 C 
ATOM     19  C   UNL d   1       3.543  -3.717   0.948  0.00  0.00     0.015 C 
ATOM     20  C   UNL d   1       3.327  -4.779  -0.130  0.00  0.00     0.002 C 
ATOM     21  C   UNL d   1       1.894  -4.754  -0.662  0.00  0.00     0.015 C 
ATOM     22  C   UNL d   1       1.478  -3.343  -1.083  0.00  0.00     0.097 C 
ENDBRANCH   1  17
BRANCH   5  23
ATOM     23  C   UNL d   1       1.869   2.388  -0.158  0.00  0.00     0.449 C 
ATOM     24  F   UNL d   1       3.218   2.183  -0.259  0.00  0.00    -0.163 F 
ATOM     25  F   UNL d   1       1.540   3.163  -1.236  0.00  0.00    -0.163 F 
ATOM     26  F   UNL d   1       1.710   3.193   0.936  0.00  0.00    -0.163 F 
ENDBRANCH   5  23
TORSDOF 4
