REMARK  4 active torsions:
REMARK  status: ('A' for Active; 'I' for Inactive)
REMARK    1  A    between atoms: S_15  and  C_2 
REMARK    2  A    between atoms: C_6  and  C_7 
REMARK    3  A    between atoms: C_7  and  O_13 
REMARK    4  A    between atoms: O_13  and  N_9 
ROOT
ATOM      1  C   UNL d   1       0.395   0.781   0.007  0.00  0.00     0.020 A 
ATOM      2  C   UNL d   1       1.756   1.053  -0.039  0.00  0.00     0.055 A 
ATOM      3  S   UNL d   1       2.697  -0.381   0.048  0.00  0.00    -0.071 SA
ATOM      4  C   UNL d   1       0.154  -0.654   0.082  0.00  0.00    -0.016 A 
ATOM      5  C   UNL d   1       1.327  -1.387   0.122  0.00  0.00     0.093 A 
ATOM      6  C   UNL d   1      -0.740   1.722  -0.040  0.00  0.00     0.045 C 
ATOM      7  N   UNL d   1      -0.520   2.975  -0.290  0.00  0.00    -0.261 N 
ATOM      8  HN  UNL d   1       0.407   3.365  -0.457  1.00  0.00     0.194 HD
ATOM      9  C   UNL d   1       1.422  -2.811   0.205  0.00  0.00     0.107 C 
ATOM     10  N   UNL d   1       1.466  -3.971   0.272  0.00  0.00    -0.191 NA
ATOM     11  C   UNL d   1      -1.237  -1.229   0.110  0.00  0.00     0.042 C 
ATOM     12  C   UNL d   1      -2.117   1.133   0.256  0.00  0.00     0.060 C 
ATOM     13  C   UNL d   1      -2.270  -0.231  -0.412  0.00  0.00     0.011 C 
ENDROOT
BRANCH   2  14
ATOM     14  S   UNL d   1       2.606   2.585  -0.214  0.00  0.00    -0.126 SA
ATOM     15  C   UNL d   1       2.313   3.339   1.400  0.00  0.00     0.096 C 
ENDBRANCH   2  14
BRANCH   7  16
ATOM     16  O   UNL d   1      -1.704   3.739  -0.305  0.00  0.00    -0.195 OA
BRANCH  16  17
ATOM     17  C   UNL d   1      -1.411   5.072  -0.345  0.00  0.00     0.316 C 
ATOM     18  O   UNL d   1      -0.305   5.595  -0.336  0.00  0.00    -0.257 OA
BRANCH  17  19
ATOM     19  C   UNL d   1      -2.650   5.870  -0.518  0.00  0.00     0.063 A 
ATOM     20  C   UNL d   1      -3.875   5.597   0.105  0.00  0.00     0.050 A 
ATOM     21 CL   UNL d   1      -4.113   4.309   1.234  0.00  0.00    -0.083 Cl
ATOM     22  C   UNL d   1      -4.980   6.430  -0.131  0.00  0.00     0.025 A 
ATOM     23  C   UNL d   1      -4.866   7.544  -0.963  0.00  0.00     0.002 A 
ATOM     24  C   UNL d   1      -3.646   7.837  -1.564  0.00  0.00     0.001 A 
ATOM     25  C   UNL d   1      -2.545   7.006  -1.344  0.00  0.00     0.019 A 
ENDBRANCH  17  19
ENDBRANCH  16  17
ENDBRANCH   7  16
TORSDOF 4
