REMARK  8 active torsions:
REMARK  status: ('A' for Active; 'I' for Inactive)
REMARK    1  A    between atoms: S_8  and  C_2 
REMARK    2  A    between atoms: S_9  and  C_3 
REMARK    3  A    between atoms: C_15  and  S_8 
REMARK    4  A    between atoms: C_14  and  S_9 
REMARK    5  A    between atoms: C_10  and  C_15 
REMARK    6  A    between atoms: C_12  and  C_10 
REMARK    7  A    between atoms: C_11  and  C_14 
REMARK    8  A    between atoms: C_13  and  C_11 
ROOT
ATOM      1  N   UNL d   1       0.839   0.169  -0.132  0.00  0.00    -0.310 N 
ATOM      2  C   UNL d   1      -0.022   1.222   0.028  0.00  0.00     0.163 A 
ATOM      3  C   UNL d   1       0.028  -0.899  -0.427  0.00  0.00     0.163 A 
ATOM      4  N   UNL d   1      -1.264   0.803  -0.073  0.00  0.00    -0.278 N 
ATOM      5  HN  UNL d   1      -2.102   1.373   0.045  1.00  0.00     0.189 HD
ATOM      6  N   UNL d   1      -1.233  -0.538  -0.365  0.00  0.00    -0.278 N 
ATOM      7  HN  UNL d   1      -2.042  -1.143  -0.508  1.00  0.00     0.189 HD
ATOM      8  C   UNL d   1       2.274   0.152  -0.015  0.00  0.00     0.160 C 
ENDROOT
BRANCH   2   9
ATOM      9  S   UNL d   1       0.460   2.868   0.268  0.00  0.00    -0.085 SA
BRANCH   9  10
ATOM     10  C   UNL d   1      -1.174   3.672   0.268  0.00  0.00     0.166 C 
BRANCH  10  11
ATOM     11  C   UNL d   1      -1.091   5.191   0.275  0.00  0.00     0.169 C 
ATOM     12  O   UNL d   1      -0.043   5.821   0.155  0.00  0.00    -0.291 OA
BRANCH  11  13
ATOM     13  C   UNL d   1      -2.377   5.955   0.415  0.00  0.00     0.011 A 
ATOM     14  C   UNL d   1      -3.621   5.321   0.522  0.00  0.00     0.015 A 
ATOM     15  C   UNL d   1      -4.790   6.077   0.666  0.00  0.00     0.007 A 
ATOM     16  C   UNL d   1      -4.739   7.474   0.700  0.00  0.00    -0.062 A 
ATOM     17  C   UNL d   1      -3.499   8.110   0.580  0.00  0.00     0.007 A 
ATOM     18  C   UNL d   1      -6.004   8.266   0.866  0.00  0.00     0.048 C 
ATOM     19  C   UNL d   1      -2.329   7.355   0.439  0.00  0.00     0.015 A 
ENDBRANCH  11  13
ENDBRANCH  10  11
ENDBRANCH   9  10
ENDBRANCH   2   9
BRANCH   3  20
ATOM     20  S   UNL d   1       0.608  -2.468  -0.862  0.00  0.00    -0.085 SA
BRANCH  20  21
ATOM     21  C   UNL d   1      -0.883  -3.158  -1.658  0.00  0.00     0.166 C 
BRANCH  21  22
ATOM     22  C   UNL d   1      -0.607  -4.500  -2.322  0.00  0.00     0.169 C 
ATOM     23  O   UNL d   1       0.469  -5.092  -2.241  0.00  0.00    -0.291 OA
BRANCH  22  24
ATOM     24  C   UNL d   1      -1.707  -5.139  -3.120  0.00  0.00     0.011 A 
ATOM     25  C   UNL d   1      -2.980  -4.572  -3.253  0.00  0.00     0.015 A 
ATOM     26  C   UNL d   1      -3.959  -5.209  -4.027  0.00  0.00     0.007 A 
ATOM     27  C   UNL d   1      -3.687  -6.421  -4.674  0.00  0.00    -0.062 A 
ATOM     28  C   UNL d   1      -2.418  -6.990  -4.536  0.00  0.00     0.007 A 
ATOM     29  C   UNL d   1      -4.739  -7.081  -5.516  0.00  0.00     0.048 C 
ATOM     30  C   UNL d   1      -1.438  -6.356  -3.765  0.00  0.00     0.015 A 
ENDBRANCH  22  24
ENDBRANCH  21  22
ENDBRANCH  20  21
ENDBRANCH   3  20
TORSDOF 8
