REMARK  3 active torsions:
REMARK  status: ('A' for Active; 'I' for Inactive)
REMARK    1  A    between atoms: N_2  and  S_1 
REMARK    2  A    between atoms: C_5  and  S_1 
REMARK    3  A    between atoms: S_4  and  N_2 
ROOT
ATOM      1  S   UNL d   1       1.429   0.017  -0.350  0.00  0.00     0.269 S 
ATOM      2  O   UNL d   1       2.787  -0.416  -0.081  0.00  0.00    -0.200 OA
ATOM      3  O   UNL d   1       1.118   1.435  -0.420  0.00  0.00    -0.200 OA
ENDROOT
BRANCH   1   4
ATOM      4  N   UNL d   1       0.402  -0.698   0.785  0.00  0.00    -0.240 N 
ATOM      5  HN  UNL d   1       0.826  -1.184   1.575  1.00  0.00     0.188 HD
BRANCH   4   6
ATOM      6  S   UNL d   1      -1.246  -0.661   0.695  0.00  0.00     0.026 S 
ATOM      7  O   UNL d   1      -1.797  -1.423  -0.395  0.00  0.00    -0.250 OA
ATOM      8  C   UNL d   1      -1.745   1.047   0.658  0.00  0.00     0.137 C 
ATOM      9  C   UNL d   1      -1.775  -1.308   2.262  0.00  0.00     0.137 C 
ENDBRANCH   4   6
ENDBRANCH   1   4
BRANCH   1  10
ATOM     10  C   UNL d   1       0.943  -0.739  -1.877  0.00  0.00     0.080 A 
ATOM     11  C   UNL d   1       0.461   0.046  -2.926  0.00  0.00     0.026 A 
ATOM     12  C   UNL d   1      -0.002  -0.576  -4.086  0.00  0.00     0.008 A 
ATOM     13  C   UNL d   1       0.016  -1.974  -4.200  0.00  0.00    -0.062 A 
ATOM     14  C   UNL d   1       0.533  -2.744  -3.150  0.00  0.00     0.008 A 
ATOM     15  C   UNL d   1      -0.543  -2.630  -5.428  0.00  0.00     0.048 C 
ATOM     16  C   UNL d   1       1.006  -2.130  -1.991  0.00  0.00     0.026 A 
ENDBRANCH   1  10
TORSDOF 3
