REMARK  5 active torsions:
REMARK  status: ('A' for Active; 'I' for Inactive)
REMARK    1  A    between atoms: C_2  and  C_1 
REMARK    2  A    between atoms: S_9  and  C_5 
REMARK    3  A    between atoms: C_6  and  C_11 
REMARK    4  A    between atoms: C_8  and  C_6 
REMARK    5  A    between atoms: C_11  and  S_9 
ROOT
ATOM      1  C   UNL d   1       1.302  -1.829   0.175  0.00  0.00     0.063 A 
ATOM      2  N   UNL d   1       1.020  -4.231   0.226  0.00  0.00    -0.360 N 
ATOM      3  HN  UNL d   1       1.163  -5.122   0.701  1.00  0.00     0.166 HD
ATOM      4  C   UNL d   1       0.372  -4.165  -0.958  0.00  0.00     0.069 A 
ATOM      5  C   UNL d   1       1.474  -3.073   0.760  0.00  0.00     0.105 A 
ATOM      6  C   UNL d   1       0.631  -1.785  -1.050  0.00  0.00     0.020 A 
ATOM      7  C   UNL d   1       0.163  -2.966  -1.626  0.00  0.00     0.038 A 
ENDROOT
BRANCH   4   8
ATOM      8  S   UNL d   1      -0.244  -5.680  -1.665  0.00  0.00    -0.104 SA
BRANCH   8   9
ATOM      9  C   UNL d   1       0.080  -6.822  -0.285  0.00  0.00     0.164 C 
BRANCH   9  10
ATOM     10  C   UNL d   1      -0.472  -8.196  -0.594  0.00  0.00     0.169 C 
ATOM     11  O   UNL d   1       0.264  -9.101  -0.995  0.00  0.00    -0.291 OA
BRANCH  10  12
ATOM     12  C   UNL d   1      -1.928  -8.485  -0.386  0.00  0.00     0.011 A 
ATOM     13  C   UNL d   1      -2.865  -7.497  -0.060  0.00  0.00     0.015 A 
ATOM     14  C   UNL d   1      -4.219  -7.825   0.075  0.00  0.00     0.007 A 
ATOM     15  C   UNL d   1      -4.656  -9.143  -0.098  0.00  0.00    -0.062 A 
ATOM     16  C   UNL d   1      -3.719 -10.134  -0.403  0.00  0.00     0.007 A 
ATOM     17  C   UNL d   1      -6.117  -9.471   0.004  0.00  0.00     0.048 C 
ATOM     18  C   UNL d   1      -2.367  -9.807  -0.545  0.00  0.00     0.015 A 
ENDBRANCH  10  12
ENDBRANCH   9  10
ENDBRANCH   8   9
ENDBRANCH   4   8
BRANCH   1  19
ATOM     19  C   UNL d   1       1.807  -0.589   0.846  0.00  0.00     0.418 C 
ATOM     20  F   UNL d   1       2.443  -0.828   2.026  0.00  0.00    -0.166 F 
ATOM     21  F   UNL d   1       0.806   0.287   1.135  0.00  0.00    -0.166 F 
ATOM     22  F   UNL d   1       2.695   0.098   0.076  0.00  0.00    -0.166 F 
ENDBRANCH   1  19
TORSDOF 5
