REMARK  3 active torsions:
REMARK  status: ('A' for Active; 'I' for Inactive)
REMARK    1  A    between atoms: N_2  and  S_1 
REMARK    2  A    between atoms: C_15  and  S_1 
REMARK    3  A    between atoms: C_9  and  C_3 
ROOT
ATOM      1  N   UNL d   1       0.585   1.551   0.768  0.00  0.00    -0.257 N 
ATOM      2  C   UNL d   1       0.427   3.696   1.352  0.00  0.00     0.010 A 
ATOM      3  C   UNL d   1       1.044   2.810   0.479  0.00  0.00     0.122 A 
ATOM      4  C   UNL d   1      -0.260   1.582   1.843  0.00  0.00     0.110 A 
ATOM      5  C   UNL d   1      -0.395   2.904   2.214  0.00  0.00     0.033 A 
ENDROOT
BRANCH   2   6
ATOM      6  C   UNL d   1       0.610   5.143   1.301  0.00  0.00     0.060 A 
ATOM      7  N   UNL d   1       1.489   5.632   0.392  0.00  0.00    -0.353 N 
ATOM      8  C   UNL d   1       1.604   6.973   0.308  0.00  0.00     0.061 A 
ATOM      9  HN  UNL d   1       2.040   5.012  -0.203  1.00  0.00     0.166 HD
ATOM     10  C   UNL d   1       2.478   7.532  -0.615  0.00  0.00     0.057 A 
ATOM     11  C   UNL d   1       0.846   7.834   1.140  0.00  0.00     0.060 A 
ATOM     12  C   UNL d   1       2.604   8.918  -0.744  0.00  0.00     0.058 A 
ATOM     13 CL   UNL d   1       3.716   9.522  -1.921  0.00  0.00    -0.082 Cl
ATOM     14  C   UNL d   1       1.843   9.760   0.066  0.00  0.00     0.058 A 
ATOM     15  C   UNL d   1       0.972   9.208   1.005  0.00  0.00     0.057 A 
ATOM     16 CL   UNL d   1       1.923  11.482  -0.044  0.00  0.00    -0.082 Cl
ATOM     17  N   UNL d   1      -0.004   7.347   2.058  0.00  0.00    -0.362 N 
ATOM     18  C   UNL d   1      -0.110   5.998   2.122  0.00  0.00     0.119 A 
ATOM     19  HN  UNL d   1      -0.541   7.959   2.672  1.00  0.00     0.165 HD
ENDBRANCH   2   6
BRANCH   1  20
ATOM     20  S   UNL d   1       1.099   0.122  -0.003  0.00  0.00     0.268 S 
ATOM     21  O   UNL d   1       1.650   0.532  -1.279  0.00  0.00    -0.200 OA
ATOM     22  O   UNL d   1      -0.028  -0.785   0.109  0.00  0.00    -0.200 OA
BRANCH  20  23
ATOM     23  C   UNL d   1       2.428  -0.531   0.972  0.00  0.00     0.080 A 
ATOM     24  C   UNL d   1       2.611  -1.921   0.977  0.00  0.00     0.027 A 
ATOM     25  C   UNL d   1       3.650  -2.483   1.722  0.00  0.00     0.025 A 
ATOM     26  C   UNL d   1       4.500  -1.657   2.456  0.00  0.00     0.034 A 
ATOM     27  C   UNL d   1       4.322  -0.272   2.448  0.00  0.00     0.025 A 
ATOM     28 CL   UNL d   1       5.779  -2.349   3.374  0.00  0.00    -0.084 Cl
ATOM     29  C   UNL d   1       3.285   0.298   1.701  0.00  0.00     0.027 A 
ENDBRANCH  20  23
ENDBRANCH   1  20
TORSDOF 3
