REMARK  3 active torsions:
REMARK  status: ('A' for Active; 'I' for Inactive)
REMARK    1  A    between atoms: C_3  and  C_1 
REMARK    2  A    between atoms: C_2  and  N_8 
REMARK       I    between atoms: N_8  and  C_3 
REMARK    3  A    between atoms: C_11  and  C_6 
ROOT
ATOM      1  C   UNL d   1       1.148  -0.160   0.068  0.00  0.00     0.113 C 
ATOM      2  C   UNL d   1       0.285   0.101  -0.938  0.00  0.00     0.041 C 
ATOM      3  C   UNL d   1       0.713  -0.434   1.387  0.00  0.00     0.105 C 
ATOM      4  N   UNL d   1       0.428  -0.672   2.489  0.00  0.00    -0.191 NA
ENDROOT
BRANCH   1   5
ATOM      5  C   UNL d   1       2.625  -0.050  -0.238  0.00  0.00     0.267 C 
ATOM      6  N   UNL d   1       3.476  -0.275   0.831  0.00  0.00    -0.307 N 
ATOM      7  H   UNL d   1       3.126  -0.611   1.718  0.00  0.00     0.170 HD
ATOM      8  O   UNL d   1       2.981   0.246  -1.375  0.00  0.00    -0.266 OA
BRANCH   6   9
ATOM      9  C   UNL d   1       4.833   0.025   0.819  0.00  0.00     0.130 A 
ATOM     10  N   UNL d   1       5.490   0.653  -0.161  0.00  0.00    -0.245 N 
ATOM     11  O   UNL d   1       6.780   0.848   0.290  0.00  0.00    -0.241 OA
ATOM     12  HN  UNL d   1       5.112   0.934  -1.066  1.00  0.00     0.196 HD
ATOM     13  C   UNL d   1       6.906   0.329   1.538  0.00  0.00     0.076 A 
ATOM     14  C   UNL d   1       5.712  -0.244   1.902  0.00  0.00     0.084 A 
ATOM     15  C   UNL d   1       8.211   0.518   2.199  0.00  0.00     0.079 C 
ENDBRANCH   6   9
ENDBRANCH   1   5
BRANCH   2  16
ATOM     16  C   UNL d   1      -1.178   0.255  -0.827  0.00  0.00    -0.013 A 
ATOM     17  C   UNL d   1      -2.103  -0.798  -0.929  0.00  0.00     0.045 A 
ATOM     18  C   UNL d   1      -3.480  -0.540  -0.913  0.00  0.00     0.048 A 
ATOM     19 CL   UNL d   1      -1.590  -2.439  -1.088  0.00  0.00    -0.083 Cl
ATOM     20  C   UNL d   1      -3.938   0.768  -0.773  0.00  0.00     0.035 A 
ATOM     21  C   UNL d   1      -3.036   1.819  -0.638  0.00  0.00     0.024 A 
ATOM     22 CL   UNL d   1      -5.627   1.094  -0.779  0.00  0.00    -0.084 Cl
ATOM     23  C   UNL d   1      -1.663   1.563  -0.670  0.00  0.00     0.015 A 
ENDBRANCH   2  16
TORSDOF 3
