REMARK  2 active torsions:
REMARK  status: ('A' for Active; 'I' for Inactive)
REMARK       I    between atoms: C_2  and  N_3 
REMARK    1  A    between atoms: C_8  and  C_2 
REMARK    2  A    between atoms: N_4  and  C_5 
ROOT
ATOM      1  C   UNL d   1       1.956  -6.869   0.944  0.00  0.00     0.253 C 
ATOM      2  N   UNL d   1       1.871  -5.519   0.596  0.00  0.00    -0.346 N 
ATOM      3  N   UNL d   1       1.355  -2.772  -0.059  0.00  0.00    -0.280 NA
ATOM      4  C   UNL d   1       1.175  -5.151  -0.656  0.00  0.00     0.141 C 
ATOM      5  C   UNL d   1       2.624  -4.427   1.228  0.00  0.00     0.141 C 
ATOM      6  C   UNL d   1       0.426  -3.796  -0.564  0.00  0.00     0.115 C 
ATOM      7  C   UNL d   1       1.845  -3.111   1.290  0.00  0.00     0.115 C 
ATOM      8  O   UNL d   1       1.305  -7.740   0.367  0.00  0.00    -0.267 OA
ENDROOT
BRANCH   3   9
ATOM      9  C   UNL d   1       1.048  -1.399  -0.153  0.00  0.00     0.023 A 
ATOM     10  C   UNL d   1      -0.235  -0.785  -0.160  0.00  0.00     0.013 A 
ATOM     11  C   UNL d   1      -0.322   0.614  -0.157  0.00  0.00     0.044 A 
ATOM     12  C   UNL d   1      -1.587  -1.255  -0.124  0.00  0.00     0.032 A 
ATOM     13  N   UNL d   1      -1.656   0.955  -0.133  0.00  0.00    -0.365 N 
ATOM     14  C   UNL d   1       0.797   1.455  -0.161  0.00  0.00     0.030 A 
ATOM     15  C   UNL d   1      -2.428  -0.168  -0.113  0.00  0.00     0.089 A 
ATOM     16  H   UNL d   1      -1.998   1.904  -0.119  0.00  0.00     0.165 HD
ATOM     17  C   UNL d   1       2.050   0.860  -0.189  0.00  0.00     0.004 A 
ATOM     18  C   UNL d   1       2.166  -0.525  -0.192  0.00  0.00     0.024 A 
ENDBRANCH   3   9
BRANCH   1  19
ATOM     19  C   UNL d   1       2.813  -7.301   2.086  0.00  0.00     0.032 A 
ATOM     20  C   UNL d   1       2.290  -8.234   2.990  0.00  0.00     0.017 A 
ATOM     21  C   UNL d   1       3.042  -8.642   4.097  0.00  0.00     0.007 A 
ATOM     22  C   UNL d   1       4.321  -8.117   4.319  0.00  0.00    -0.062 A 
ATOM     23  C   UNL d   1       4.859  -7.222   3.389  0.00  0.00     0.007 A 
ATOM     24  C   UNL d   1       5.115  -8.546   5.519  0.00  0.00     0.048 C 
ATOM     25  C   UNL d   1       4.125  -6.847   2.261  0.00  0.00     0.017 A 
ENDBRANCH   1  19
TORSDOF 2
