REMARK  2 active torsions:
REMARK  status: ('A' for Active; 'I' for Inactive)
REMARK    1  A    between atoms: C_8  and  C_2 
REMARK    2  A    between atoms: O_12  and  C_8 
ROOT
ATOM      1  C   UNL d   1       0.098  -0.668   0.002  0.00  0.00     0.057 A 
ATOM      2  C   UNL d   1       2.334   0.265  -0.008  0.00  0.00     0.088 A 
ATOM      3  S   UNL d   1       1.626  -1.321  -0.000  0.00  0.00    -0.075 SA
ATOM      4  C   UNL d   1       1.354   1.283  -0.021  0.00  0.00    -0.026 A 
ATOM      5  C   UNL d   1       0.061   0.676   0.003  0.00  0.00     0.002 A 
ATOM      6  S   UNL d   1      -1.395  -1.412   0.004  0.00  0.00    -0.093 SA
ATOM      7  C   UNL d   1      -1.264   1.201   0.026  0.00  0.00    -0.043 A 
ATOM      8  C   UNL d   1      -2.160   0.128   0.015  0.00  0.00     0.058 A 
ATOM      9  C   UNL d   1       1.697   2.736  -0.061  0.00  0.00     0.050 C 
ATOM     10  C   UNL d   1      -1.776   2.600   0.062  0.00  0.00     0.049 C 
ENDROOT
BRANCH   2  11
ATOM     11  C   UNL d   1       3.795   0.319   0.001  0.00  0.00     0.300 C 
ATOM     12  O   UNL d   1       4.557  -0.643  -0.013  0.00  0.00    -0.259 OA
BRANCH  11  13
ATOM     13  O   UNL d   1       4.230   1.612   0.023  0.00  0.00    -0.322 OA
ATOM     14  C   UNL d   1       5.649   1.762   0.019  0.00  0.00     0.213 C 
ENDBRANCH  11  13
ENDBRANCH   2  11
TORSDOF 2
