REMARK  4 active torsions:
REMARK  status: ('A' for Active; 'I' for Inactive)
REMARK    1  A    between atoms: C_9  and  C_1 
REMARK    2  A    between atoms: O_10  and  C_1 
REMARK    3  A    between atoms: N_3  and  O_10 
REMARK    4  A    between atoms: C_13  and  C_12 
ROOT
ATOM      1  N   UNL d   1       3.074  -0.254  -1.304  0.00  0.00    -0.268 N 
ATOM      2  HN  UNL d   1       2.557  -0.244  -2.184  1.00  0.00     0.194 HD
ATOM      3  C   UNL d   1       4.346  -0.466  -1.206  0.00  0.00     0.126 C 
ENDROOT
BRANCH   1   4
ATOM      4  O   UNL d   1       2.495  -0.038  -0.037  0.00  0.00    -0.195 OA
BRANCH   4   5
ATOM      5  C   UNL d   1       1.162   0.235  -0.200  0.00  0.00     0.315 C 
ATOM      6  O   UNL d   1       0.537   0.302  -1.251  0.00  0.00    -0.257 OA
BRANCH   5   7
ATOM      7  C   UNL d   1       0.527   0.539   1.105  0.00  0.00     0.041 A 
ATOM      8  C   UNL d   1       0.958  -0.038   2.305  0.00  0.00     0.017 A 
ATOM      9  C   UNL d   1       0.314   0.290   3.503  0.00  0.00     0.001 A 
ATOM     10  C   UNL d   1      -0.754   1.190   3.506  0.00  0.00     0.000 A 
ATOM     11  C   UNL d   1      -1.198   1.751   2.310  0.00  0.00     0.001 A 
ATOM     12  C   UNL d   1      -0.565   1.421   1.111  0.00  0.00     0.017 A 
ENDBRANCH   5   7
ENDBRANCH   4   5
ENDBRANCH   1   4
BRANCH   3  13
ATOM     13  C   UNL d   1       5.169  -0.724  -2.411  0.00  0.00    -0.018 A 
ATOM     14  C   UNL d   1       4.573  -0.721  -3.682  0.00  0.00     0.022 A 
ATOM     15  C   UNL d   1       5.375  -0.978  -4.781  0.00  0.00    -0.022 A 
ATOM     16  C   UNL d   1       5.037  -0.968  -6.221  0.00  0.00     0.068 C 
ATOM     17  C   UNL d   1       6.730  -1.225  -4.631  0.00  0.00     0.075 A 
ATOM     18  C   UNL d   1       6.309  -1.613  -6.773  0.00  0.00     0.180 C 
ATOM     19  O   UNL d   1       7.383  -1.443  -5.815  0.00  0.00    -0.350 OA
ATOM     20  C   UNL d   1       7.342  -1.219  -3.392  0.00  0.00     0.038 A 
ATOM     21  C   UNL d   1       6.548  -0.968  -2.266  0.00  0.00     0.015 A 
ENDBRANCH   3  13
TORSDOF 4
