REMARK  3 active torsions:
REMARK  status: ('A' for Active; 'I' for Inactive)
REMARK    1  A    between atoms: N_5  and  C_1 
REMARK    2  A    between atoms: C_8  and  N_2 
REMARK    3  A    between atoms: N_17  and  C_12 
ROOT
ATOM      1  C   UNL d   1       0.915  -0.828  -0.097  0.00  0.00     0.150 A 
ATOM      2  N   UNL d   1       0.946   0.570   0.046  0.00  0.00    -0.239 N 
ATOM      3  N   UNL d   1      -0.291   1.101   0.251  0.00  0.00    -0.302 N 
ATOM      4  HN  UNL d   1      -0.529   2.072   0.454  1.00  0.00     0.186 HD
ATOM      5  C   UNL d   1      -0.432  -1.143  -0.044  0.00  0.00     0.107 A 
ATOM      6  C   UNL d   1      -1.117   0.067   0.126  0.00  0.00     0.134 A 
ATOM      7  C   UNL d   1      -1.034  -2.435  -0.090  0.00  0.00     0.105 C 
ATOM      8  N   UNL d   1      -1.533  -3.477  -0.139  0.00  0.00    -0.191 NA
ENDROOT
BRANCH   1   9
ATOM      9  N   UNL d   1       2.076  -1.547  -0.110  0.00  0.00    -0.336 N 
ATOM     10  C   UNL d   1       2.155  -2.628  -0.810  0.00  0.00     0.179 C 
ATOM     11  HN  UNL d   1       2.880  -1.231   0.433  1.00  0.00     0.168 HD
BRANCH  10  12
ATOM     12  N   UNL d   1       3.270  -3.424  -0.932  0.00  0.00    -0.386 N 
ATOM     13  C   UNL d   1       4.525  -3.116  -0.258  0.00  0.00     0.149 C 
ATOM     14  C   UNL d   1       3.245  -4.666  -1.685  0.00  0.00     0.149 C 
ENDBRANCH  10  12
ENDBRANCH   1   9
BRANCH   2  15
ATOM     15  C   UNL d   1       2.079   1.429   0.011  0.00  0.00     0.060 A 
ATOM     16  C   UNL d   1       2.059   2.623   0.746  0.00  0.00     0.058 A 
ATOM     17  C   UNL d   1       3.194   3.434   0.768  0.00  0.00     0.074 A 
ATOM     18 CL   UNL d   1       3.211   4.842   1.758  0.00  0.00    -0.081 Cl
ATOM     19  C   UNL d   1       4.315   3.086   0.014  0.00  0.00     0.138 A 
ATOM     20  C   UNL d   1       4.323   1.927  -0.753  0.00  0.00     0.046 A 
ATOM     21  F   UNL d   1       5.410   3.861   0.015  0.00  0.00    -0.204 F 
ATOM     22  C   UNL d   1       3.211   1.087  -0.745  0.00  0.00     0.034 A 
ENDBRANCH   2  15
TORSDOF 3
