REMARK  3 active torsions:
REMARK  status: ('A' for Active; 'I' for Inactive)
REMARK    1  A    between atoms: S_2  and  C_1 
REMARK    2  A    between atoms: C_10  and  S_2 
REMARK    3  A    between atoms: S_12  and  C_4 
ROOT
ATOM      1  C   UNL d   1       0.066  -1.201  -0.033  0.00  0.00     0.139 A 
ATOM      2  C   UNL d   1       0.776  -0.026  -0.211  0.00  0.00     0.138 A 
ATOM      3  C   UNL d   1      -1.290  -0.790   0.083  0.00  0.00     0.109 A 
ATOM      4  N   UNL d   1      -1.417   0.540   0.040  0.00  0.00    -0.291 N 
ATOM      5  HN  UNL d   1      -2.270   1.094   0.109  1.00  0.00     0.187 HD
ATOM      6  N   UNL d   1      -0.163   0.971  -0.117  0.00  0.00    -0.284 N 
ATOM      7  N   UNL d   1       2.062   0.317  -0.432  0.00  0.00    -0.383 N 
ATOM      8  H   UNL d   1      -0.007   1.969  -0.174  0.00  0.00     0.188 HD
ATOM      9  H   UNL d   1       2.805  -0.339  -0.653  0.00  0.00     0.157 HD
ATOM     10  H   UNL d   1       2.378   1.284  -0.488  0.00  0.00     0.157 HD
ENDROOT
BRANCH   1  11
ATOM     11  S   UNL d   1       0.565  -2.842   0.030  0.00  0.00     0.185 S 
ATOM     12  O   UNL d   1       0.145  -3.302   1.339  0.00  0.00    -0.222 OA
ATOM     13  O   UNL d   1       0.029  -3.404  -1.195  0.00  0.00    -0.222 OA
BRANCH  11  14
ATOM     14  C   UNL d   1       2.344  -2.946  -0.053  0.00  0.00     0.106 C 
ATOM     15  C   UNL d   1       3.038  -2.363   1.175  0.00  0.00     0.026 C 
ATOM     16  C   UNL d   1       2.765  -4.412  -0.201  0.00  0.00     0.026 C 
ENDBRANCH  11  14
ENDBRANCH   1  11
BRANCH   3  17
ATOM     17  S   UNL d   1      -2.709  -1.804   0.252  0.00  0.00    -0.114 SA
ATOM     18  C   UNL d   1      -4.045  -0.589   0.214  0.00  0.00     0.097 C 
ENDBRANCH   3  17
TORSDOF 3
