REMARK  6 active torsions:
REMARK  status: ('A' for Active; 'I' for Inactive)
REMARK    1  A    between atoms: N_3  and  C_1 
REMARK    2  A    between atoms: C_2  and  C_8 
REMARK       I    between atoms: C_4  and  N_3 
REMARK    3  A    between atoms: C_11  and  C_4 
REMARK    4  A    between atoms: N_7  and  C_5 
REMARK    5  A    between atoms: C_6  and  O_12 
REMARK    6  A    between atoms: O_12  and  C_24 
ROOT
ATOM      1  C   UNL d   1       1.371  -0.315   0.544  0.00  0.00     0.062 A 
ATOM      2  C   UNL d   1       0.359  -1.313   0.615  0.00  0.00     0.057 A 
ATOM      3  C   UNL d   1      -0.297   1.439   0.344  0.00  0.00     0.050 A 
ATOM      4  C   UNL d   1       1.042   1.040   0.434  0.00  0.00     0.048 A 
ATOM      5  C   UNL d   1      -0.972  -0.900   0.485  0.00  0.00     0.032 A 
ATOM      6  C   UNL d   1      -1.297   0.456   0.350  0.00  0.00     0.018 A 
ENDROOT
BRANCH   1   7
ATOM      7  N   UNL d   1       2.706  -0.777   0.506  0.00  0.00    -0.321 N 
ATOM      8  C   UNL d   1       3.856  -0.060   0.743  0.00  0.00     0.256 C 
ATOM      9  O   UNL d   1       3.922   1.101   1.129  0.00  0.00    -0.267 OA
ATOM     10  H   UNL d   1       2.768  -1.784   0.395  0.00  0.00     0.169 HD
BRANCH   8  11
ATOM     11  C   UNL d   1       5.120  -0.825   0.564  0.00  0.00     0.032 A 
ATOM     12  C   UNL d   1       5.277  -1.740  -0.478  0.00  0.00     0.020 A 
ATOM     13  C   UNL d   1       6.505  -2.386  -0.655  0.00  0.00     0.038 A 
ATOM     14  C   UNL d   1       7.584  -2.129   0.200  0.00  0.00     0.078 A 
ATOM     15  C   UNL d   1       7.410  -1.239   1.262  0.00  0.00     0.038 A 
ATOM     16  C   UNL d   1       6.186  -0.581   1.436  0.00  0.00     0.020 A 
BRANCH  14  17
ATOM     17  O   UNL d   1       8.729  -2.789  -0.131  0.00  0.00    -0.255 OA
BRANCH  17  18
ATOM     18  C   UNL d   1       9.907  -2.502   0.608  0.00  0.00     0.530 C 
ATOM     19  F   UNL d   1      10.163  -1.179   0.645  0.00  0.00    -0.144 F 
ATOM     20  F   UNL d   1       9.802  -2.979   1.869  0.00  0.00    -0.144 F 
ATOM     21  F   UNL d   1      10.951  -3.114   0.009  0.00  0.00    -0.144 F 
ENDBRANCH  17  18
ENDBRANCH  14  17
ENDBRANCH   8  11
ENDBRANCH   1   7
BRANCH   2  22
ATOM     22  N   UNL d   1       0.727  -2.651   0.831  0.00  0.00    -0.375 N 
ATOM     23  C   UNL d   1      -0.089  -3.761   0.299  0.00  0.00     0.149 C 
ATOM     24  C   UNL d   1      -0.971  -4.415   1.373  0.00  0.00     0.187 C 
ATOM     25  O   UNL d   1      -0.206  -4.793   2.527  0.00  0.00    -0.388 OA
ATOM     26  C   UNL d   1       0.383  -3.628   3.118  0.00  0.00     0.187 C 
ATOM     27  C   UNL d   1       1.351  -2.937   2.151  0.00  0.00     0.149 C 
ENDBRANCH   2  22
BRANCH   3  28
ATOM     28  C   UNL d   1      -0.669   2.898   0.230  0.00  0.00     0.417 C 
ATOM     29  F   UNL d   1       0.394   3.747   0.236  0.00  0.00    -0.166 F 
ATOM     30  F   UNL d   1      -1.356   3.170  -0.916  0.00  0.00    -0.166 F 
ATOM     31  F   UNL d   1      -1.477   3.304   1.249  0.00  0.00    -0.166 F 
ENDBRANCH   3  28
TORSDOF 6
