REMARK  3 active torsions:
REMARK  status: ('A' for Active; 'I' for Inactive)
REMARK    1  A    between atoms: O_17  and  C_5 
REMARK    2  A    between atoms: C_12  and  C_10 
REMARK    3  A    between atoms: C_13  and  C_11 
ROOT
ATOM      1  N   UNL d   1       0.277   0.616   0.007  0.00  0.00    -0.217 N 
ATOM      2  C   UNL d   1       0.132  -0.774   0.030  0.00  0.00     0.132 A 
ATOM      3  N   UNL d   1       1.592   0.969  -0.009  0.00  0.00    -0.294 N 
ATOM      4  HN  UNL d   1       1.977   1.914  -0.012  1.00  0.00     0.187 HD
ATOM      5  C   UNL d   1      -0.860   1.456   0.006  0.00  0.00     0.167 A 
ATOM      6  N   UNL d   1      -1.083  -1.393   0.064  0.00  0.00    -0.337 N 
ATOM      7  HN  UNL d   1      -1.164  -2.409   0.086  1.00  0.00     0.167 HD
ATOM      8  C   UNL d   1       1.404  -1.294   0.017  0.00  0.00     0.077 A 
ATOM      9  C   UNL d   1      -2.078   0.881   0.029  0.00  0.00     0.092 A 
ATOM     10  C   UNL d   1      -2.140  -0.622   0.067  0.00  0.00     0.122 A 
ATOM     11  C   UNL d   1       2.276  -0.182  -0.019  0.00  0.00     0.037 A 
ENDROOT
BRANCH  10  12
ATOM     12  C   UNL d   1      -3.535  -1.252   0.117  0.00  0.00     0.432 C 
ATOM     13  F   UNL d   1      -4.531  -0.320   0.118  0.00  0.00    -0.165 F 
ATOM     14  F   UNL d   1      -3.777  -2.061  -0.950  0.00  0.00    -0.165 F 
ATOM     15  F   UNL d   1      -3.723  -2.005   1.234  0.00  0.00    -0.165 F 
ENDBRANCH  10  12
BRANCH   5  16
ATOM     16  O   UNL d   1      -0.627   2.820  -0.021  0.00  0.00    -0.339 OA
ATOM     17  C   UNL d   1      -1.744   3.700  -0.028  0.00  0.00     0.211 C 
ENDBRANCH   5  16
BRANCH  11  18
ATOM     18  C   UNL d   1       3.798  -0.188  -0.020  0.00  0.00    -0.007 C 
ATOM     19  C   UNL d   1       4.313  -0.206   1.433  0.00  0.00     0.021 C 
ATOM     20  C   UNL d   1       4.349  -1.431  -0.751  0.00  0.00     0.021 C 
ATOM     21  C   UNL d   1       4.372   1.058  -0.730  0.00  0.00     0.021 C 
ENDBRANCH  11  18
TORSDOF 3
