REMARK  0 active torsions:
REMARK  status: ('A' for Active; 'I' for Inactive)
ROOT
ATOM      1  C   UNL d   1       0.096  -1.029   0.397  0.00  0.00     0.186 A 
ATOM      2  N   UNL d   1       1.307  -1.051   1.191  0.00  0.00    -0.044 NA
ATOM      3  S   UNL d   1       2.260   0.340   0.726  0.00  0.00     0.237 S 
ATOM      4  C   UNL d   1      -0.198   0.261  -0.308  0.00  0.00     0.031 C 
ATOM      5  O   UNL d   1       1.257  -1.782  -0.017  0.00  0.00    -0.255 OA
ATOM      6  C   UNL d   1       1.065   1.086  -0.400  0.00  0.00     0.174 C 
ATOM      7  C   UNL d   1      -0.956  -0.269  -1.559  0.00  0.00    -0.031 C 
ATOM      8  C   UNL d   1      -1.116  -1.892   0.337  0.00  0.00     0.066 C 
ATOM      9  C   UNL d   1      -1.997  -1.024  -0.649  0.00  0.00    -0.002 C 
ATOM     10  C   UNL d   1      -1.328   0.963   0.519  0.00  0.00     0.016 C 
ATOM     11  O   UNL d   1       2.393   1.204   1.884  0.00  0.00    -0.209 OA
ATOM     12  O   UNL d   1       3.410  -0.087  -0.044  0.00  0.00    -0.209 OA
ATOM     13  C   UNL d   1      -2.580   0.118   0.204  0.00  0.00     0.006 C 
ATOM     14  C   UNL d   1      -1.520   0.843  -2.461  0.00  0.00     0.016 C 
ATOM     15  C   UNL d   1      -0.158  -1.213  -2.484  0.00  0.00     0.016 C 
ENDROOT
TORSDOF 0
