REMARK  4 active torsions:
REMARK  status: ('A' for Active; 'I' for Inactive)
REMARK    1  A    between atoms: C_2  and  C_1 
REMARK    2  A    between atoms: C_3  and  C_1 
REMARK    3  A    between atoms: C_4  and  C_2 
REMARK    4  A    between atoms: O_14  and  C_2 
ROOT
ATOM      1  C   UNL d   1       0.071   1.251  -0.164  0.00  0.00     0.233 C 
ENDROOT
BRANCH   1   2
ATOM      2  C   UNL d   1       0.935  -0.019  -0.011  0.00  0.00     0.199 C 
ATOM      3  O   UNL d   1       2.088   0.097   0.429  0.00  0.00    -0.289 OA
BRANCH   2   4
ATOM      4  C   UNL d   1       0.384  -1.327  -0.368  0.00  0.00     0.053 A 
ATOM      5  S   UNL d   1      -1.163  -1.529  -1.073  0.00  0.00    -0.098 SA
ATOM      6  C   UNL d   1      -1.018  -3.230  -1.098  0.00  0.00     0.050 A 
ATOM      7  C   UNL d   1       0.196  -3.648  -0.610  0.00  0.00     0.009 A 
ATOM      8  C   UNL d   1       1.011  -2.552  -0.205  0.00  0.00     0.023 A 
ENDBRANCH   2   4
ENDBRANCH   1   2
BRANCH   1   9
ATOM      9  C   UNL d   1      -0.752   1.453   1.080  0.00  0.00     0.018 A 
ATOM     10  S   UNL d   1      -2.464   1.522   0.972  0.00  0.00    -0.103 SA
ATOM     11  C   UNL d   1      -2.630   1.755   2.656  0.00  0.00     0.050 A 
ATOM     12  C   UNL d   1      -1.413   1.791   3.296  0.00  0.00     0.008 A 
ATOM     13  C   UNL d   1      -0.329   1.616   2.388  0.00  0.00     0.018 A 
ENDBRANCH   1   9
BRANCH   1  14
ATOM     14  O   UNL d   1       0.895   2.415  -0.290  0.00  0.00    -0.382 OA
ATOM     15  H   UNL d   1       1.653   2.270   0.307  0.00  0.00     0.211 HD
ENDBRANCH   1  14
TORSDOF 4
