REMARK  6 active torsions:
REMARK  status: ('A' for Active; 'I' for Inactive)
REMARK    1  A    between atoms: C_5  and  C_1 
REMARK    2  A    between atoms: C_7  and  N_3 
REMARK    3  A    between atoms: C_15  and  C_7 
REMARK    4  A    between atoms: C_16  and  C_7 
REMARK    5  A    between atoms: O_14  and  C_8 
REMARK    6  A    between atoms: C_17  and  O_14 
ROOT
ATOM      1  C   UNL d   1       4.687  -4.770   0.239  0.00  0.00    -0.086 C 
ATOM      2  C   UNL d   1       5.866  -4.599   0.422  0.00  0.00     0.015 C 
ATOM      3  C   UNL d   1       3.237  -4.962  -0.012  0.00  0.00     0.092 C 
ENDROOT
BRANCH   3   4
ATOM      4  N   UNL d   1       2.515  -3.685   0.182  0.00  0.00    -0.378 N 
ATOM      5  C   UNL d   1       3.037  -2.602  -0.288  0.00  0.00     0.099 C 
ATOM      6  HN  UNL d   1       1.623  -3.661   0.676  1.00  0.00     0.160 HD
BRANCH   5   7
ATOM      7  C   UNL d   1       2.365  -1.288  -0.199  0.00  0.00     0.014 A 
ATOM      8  C   UNL d   1       2.660  -0.204  -1.044  0.00  0.00     0.080 A 
ATOM      9  C   UNL d   1       2.026   1.028  -0.802  0.00  0.00     0.039 A 
ATOM     10  C   UNL d   1       1.103   1.182   0.235  0.00  0.00     0.022 A 
ATOM     11  C   UNL d   1       0.808   0.097   1.052  0.00  0.00     0.011 A 
ATOM     12  C   UNL d   1       1.430  -1.132   0.841  0.00  0.00     0.034 A 
ATOM     13 BR   UNL d   1      -0.421   0.297   2.473  0.00  0.00    -0.051 Br
BRANCH   8  14
ATOM     14  O   UNL d   1       3.534  -0.132  -2.097  0.00  0.00    -0.351 OA
BRANCH  14  15
ATOM     15  C   UNL d   1       3.767  -1.295  -2.886  0.00  0.00     0.171 C 
ATOM     16  C   UNL d   1       4.088  -0.880  -4.311  0.00  0.00     0.034 C 
ENDBRANCH  14  15
ENDBRANCH   8  14
ENDBRANCH   5   7
ENDBRANCH   3   4
BRANCH   3  17
ATOM     17  C   UNL d   1       2.675  -6.002   0.990  0.00  0.00     0.040 C 
ATOM     18  C   UNL d   1       2.804  -5.627   2.464  0.00  0.00     0.009 C 
ENDBRANCH   3  17
BRANCH   3  19
ATOM     19  C   UNL d   1       3.041  -5.457  -1.472  0.00  0.00     0.040 C 
ATOM     20  C   UNL d   1       1.599  -5.729  -1.891  0.00  0.00     0.009 C 
ENDBRANCH   3  19
TORSDOF 6
