REMARK  4 active torsions:
REMARK  status: ('A' for Active; 'I' for Inactive)
REMARK    1  A    between atoms: C_2  and  S_1 
REMARK    2  A    between atoms: C_3  and  S_1 
REMARK    3  A    between atoms: N_12  and  C_4 
REMARK    4  A    between atoms: C_11  and  N_12 
ROOT
ATOM      1  C   UNL d   1       0.520  -0.429   1.639  0.00  0.00     0.160 C 
ATOM      2  C   UNL d   1      -0.229   0.391   2.401  0.00  0.00     0.125 C 
ATOM      3  C   UNL d   1       0.970  -0.100   0.334  0.00  0.00     0.113 C 
ATOM      4  N   UNL d   1       1.320   0.194  -0.737  0.00  0.00    -0.191 NA
ENDROOT
BRANCH   1   5
ATOM      5  S   UNL d   1       0.891  -2.000   2.283  0.00  0.00     0.233 S 
ATOM      6  O   UNL d   1      -0.098  -2.944   1.784  0.00  0.00    -0.215 OA
ATOM      7  O   UNL d   1       1.118  -1.918   3.718  0.00  0.00    -0.215 OA
BRANCH   5   8
ATOM      8  C   UNL d   1       2.454  -2.443   1.541  0.00  0.00     0.134 A 
ATOM      9  N   UNL d   1       3.450  -1.550   1.780  0.00  0.00    -0.356 N 
ATOM     10  C   UNL d   1       4.653  -1.866   1.256  0.00  0.00     0.089 A 
ATOM     11  HN  UNL d   1       3.298  -0.698   2.320  1.00  0.00     0.166 HD
ATOM     12  C   UNL d   1       4.891  -3.007   0.502  0.00  0.00     0.017 A 
ATOM     13  C   UNL d   1       3.836  -3.885   0.264  0.00  0.00     0.004 A 
ATOM     14  C   UNL d   1       2.583  -3.606   0.796  0.00  0.00     0.042 A 
ENDBRANCH   5   8
ENDBRANCH   1   5
BRANCH   2  15
ATOM     15  N   UNL d   1      -0.719   1.638   2.088  0.00  0.00    -0.350 N 
ATOM     16  H   UNL d   1      -0.846   1.864   1.104  0.00  0.00     0.166 HD
BRANCH  15  17
ATOM     17  C   UNL d   1      -1.465   2.511   2.880  0.00  0.00     0.104 A 
ATOM     18  N   UNL d   1      -2.266   3.365   2.207  0.00  0.00    -0.351 N 
ATOM     19  C   UNL d   1      -3.033   4.219   2.931  0.00  0.00     0.113 A 
ATOM     20  HN  UNL d   1      -2.294   3.367   1.188  1.00  0.00     0.166 HD
ATOM     21  C   UNL d   1      -3.024   4.280   4.313  0.00  0.00     0.049 A 
ATOM     22  C   UNL d   1      -2.172   3.427   4.997  0.00  0.00     0.029 A 
ATOM     23 CL   UNL d   1      -4.036   5.374   5.161  0.00  0.00    -0.083 Cl
ATOM     24  C   UNL d   1      -1.384   2.530   4.272  0.00  0.00     0.050 A 
ENDBRANCH  15  17
ENDBRANCH   2  15
TORSDOF 4
