REMARK  1 active torsions:
REMARK  status: ('A' for Active; 'I' for Inactive)
REMARK    1  A    between atoms: N_13  and  C_15 
ROOT
ATOM      1  C   UNL d   1       2.722  -0.742  -0.001  0.00  0.00     0.134 A 
ATOM      2  C   UNL d   1       1.775   0.250  -0.004  0.00  0.00     0.104 A 
ATOM      3  N   UNL d   1       4.085  -0.343   0.001  0.00  0.00    -0.288 N 
ATOM      4  N   UNL d   1       3.529   1.964  -0.000  0.00  0.00    -0.270 N 
ATOM      5  N   UNL d   1       2.251  -2.096  -0.001  0.00  0.00    -0.303 N 
ATOM      6  C   UNL d   1       4.497   1.005   0.003  0.00  0.00     0.332 A 
ATOM      7  C   UNL d   1       2.187   1.693  -0.009  0.00  0.00     0.267 A 
ATOM      8  C   UNL d   1      -0.102  -1.361  -0.004  0.00  0.00     0.061 A 
ATOM      9  C   UNL d   1       0.318  -0.061  -0.003  0.00  0.00     0.068 A 
ATOM     10  C   UNL d   1       0.876  -2.426  -0.004  0.00  0.00     0.261 A 
ATOM     11  N   UNL d   1      -0.601   0.943  -0.001  0.00  0.00    -0.354 N 
ATOM     12  HN  UNL d   1      -0.287   1.913   0.001  1.00  0.00     0.166 HD
ATOM     13  C   UNL d   1      -1.465  -1.673  -0.005  0.00  0.00     0.033 A 
ATOM     14  C   UNL d   1      -4.697   0.102  -0.006  0.00  0.00     0.103 A 
ATOM     15  C   UNL d   1      -2.402  -0.651  -0.005  0.00  0.00    -0.006 A 
ATOM     16  C   UNL d   1      -1.925   0.671  -0.003  0.00  0.00     0.043 A 
ATOM     17  C   UNL d   1      -3.776  -0.941  -0.007  0.00  0.00     0.049 A 
ATOM     18  O   UNL d   1       5.693   1.320   0.006  0.00  0.00    -0.246 OA
ATOM     19  O   UNL d   1       1.376   2.618  -0.021  0.00  0.00    -0.267 OA
ATOM     20  O   UNL d   1       0.443  -3.580  -0.005  0.00  0.00    -0.267 OA
ATOM     21  C   UNL d   1       5.279  -1.163  -0.001  0.00  0.00     0.163 C 
ATOM     22  C   UNL d   1      -4.253   1.428  -0.004  0.00  0.00     0.038 A 
ATOM     23  C   UNL d   1      -2.873   1.692  -0.003  0.00  0.00     0.033 A 
ATOM     24  C   UNL d   1       3.930   3.365  -0.003  0.00  0.00     0.164 C 
ATOM     25  C   UNL d   1       2.978  -3.349  -0.001  0.00  0.00     0.161 C 
ENDROOT
BRANCH  14  26
ATOM     26  N   UNL d   1      -6.134  -0.203  -0.006  0.00  0.00    -0.116 N 
ATOM     27  O   UNL d   1      -6.470  -1.395  -0.008  0.00  0.00    -0.532 OA
ATOM     28  O   UNL d   1      -6.923   0.752  -0.005  0.00  0.00    -0.532 OA
ENDBRANCH  14  26
TORSDOF 1
