REMARK  5 active torsions:
REMARK  status: ('A' for Active; 'I' for Inactive)
REMARK    1  A    between atoms: C_16  and  N_1 
REMARK    2  A    between atoms: C_14  and  C_3 
REMARK    3  A    between atoms: S_19  and  C_8 
REMARK    4  A    between atoms: C_11  and  S_15 
REMARK    5  A    between atoms: S_15  and  C_16 
ROOT
ATOM      1  C   UNL d   1      -0.035  -7.344   0.024  0.00  0.00     0.135 A 
ATOM      2  N   UNL d   1      -0.351  -6.032  -0.238  0.00  0.00    -0.320 N 
ATOM      3  N   UNL d   1       1.270  -7.405   0.240  0.00  0.00    -0.283 N 
ATOM      4  HN  UNL d   1       1.792  -8.246   0.490  1.00  0.00     0.188 HD
ATOM      5  C   UNL d   1       0.818  -5.341  -0.231  0.00  0.00     0.162 A 
ATOM      6  N   UNL d   1       1.808  -6.143   0.072  0.00  0.00    -0.278 N 
ATOM      7  HN  UNL d   1       2.790  -5.884   0.167  1.00  0.00     0.189 HD
ATOM      8  H   UNL d   1      -1.266  -5.666  -0.449  0.00  0.00     0.169 HD
ENDROOT
BRANCH   5   9
ATOM      9  S   UNL d   1       0.844  -3.666  -0.613  0.00  0.00    -0.071 SA
BRANCH   9  10
ATOM     10  C   UNL d   1       2.599  -3.428  -1.022  0.00  0.00     0.233 C 
BRANCH  10  11
ATOM     11  N   UNL d   1       2.820  -2.076  -1.551  0.00  0.00    -0.264 N 
ATOM     12  C   UNL d   1       3.206  -0.968  -0.812  0.00  0.00     0.162 A 
ATOM     13  S   UNL d   1       3.277   0.423  -1.875  0.00  0.00    -0.033 SA
ATOM     14  S   UNL d   1       3.562  -0.876   0.812  0.00  0.00    -0.051 SA
ATOM     15  C   UNL d   1       2.753  -0.600  -3.174  0.00  0.00     0.129 A 
ATOM     16  N   UNL d   1       2.555  -1.848  -2.897  0.00  0.00    -0.284 N 
ATOM     17  HN  UNL d   1       2.250  -2.557  -3.565  1.00  0.00     0.188 HD
BRANCH  15  18
ATOM     18  S   UNL d   1       2.538   0.130  -4.730  0.00  0.00    -0.108 SA
ATOM     19  C   UNL d   1       1.939  -1.264  -5.698  0.00  0.00     0.097 C 
ENDBRANCH  15  18
ENDBRANCH  10  11
ENDBRANCH   9  10
ENDBRANCH   5   9
BRANCH   1  20
ATOM     20  C   UNL d   1      -0.995  -8.450   0.014  0.00  0.00     0.048 A 
ATOM     21  C   UNL d   1      -2.361  -8.251  -0.231  0.00  0.00     0.130 A 
ATOM     22  F   UNL d   1      -2.837  -7.010  -0.441  0.00  0.00    -0.205 F 
ATOM     23  C   UNL d   1      -3.262  -9.314  -0.277  0.00  0.00     0.043 A 
ATOM     24  C   UNL d   1      -2.805 -10.615  -0.075  0.00  0.00     0.003 A 
ATOM     25  C   UNL d   1      -1.454 -10.839   0.178  0.00  0.00     0.001 A 
ATOM     26  C   UNL d   1      -0.555  -9.765   0.224  0.00  0.00     0.018 A 
ENDBRANCH   1  20
TORSDOF 5
