REMARK  2 active torsions:
REMARK  status: ('A' for Active; 'I' for Inactive)
REMARK    1  A    between atoms: C_6  and  C_1 
REMARK    2  A    between atoms: C_2  and  C_3 
REMARK       I    between atoms: N_12  and  C_6 
ROOT
ATOM      1  C   UNL d   1       0.955  -0.783   0.335  0.00  0.00     0.112 C 
ATOM      2  C   UNL d   1       0.491   0.083   1.259  0.00  0.00     0.042 C 
ATOM      3  C   UNL d   1       2.114  -1.572   0.561  0.00  0.00     0.105 C 
ATOM      4  N   UNL d   1       3.048  -2.252   0.695  0.00  0.00    -0.191 NA
ENDROOT
BRANCH   1   5
ATOM      5  C   UNL d   1       0.217  -0.910  -0.956  0.00  0.00     0.260 C 
ATOM      6  O   UNL d   1      -0.784  -0.252  -1.220  0.00  0.00    -0.267 OA
ATOM      7  N   UNL d   1       0.703  -1.803  -1.867  0.00  0.00    -0.365 N 
ATOM      8  H   UNL d   1       1.523  -2.384  -1.740  0.00  0.00     0.159 HD
ATOM      9  H   UNL d   1       0.207  -1.886  -2.746  0.00  0.00     0.159 HD
ENDBRANCH   1   5
BRANCH   2  10
ATOM     10  C   UNL d   1       1.114   0.307   2.524  0.00  0.00    -0.007 A 
ATOM     11  C   UNL d   1       0.851  -0.430   3.655  0.00  0.00     0.100 A 
ATOM     12  N   UNL d   1       1.733  -0.027   4.625  0.00  0.00    -0.364 N 
ATOM     13  C   UNL d   1       2.561   0.960   4.137  0.00  0.00     0.043 A 
ATOM     14  H   UNL d   1       1.800  -0.420   5.553  0.00  0.00     0.165 HD
ATOM     15  C   UNL d   1       2.160   1.228   2.827  0.00  0.00     0.002 A 
ATOM     16  C   UNL d   1       3.636   1.616   4.750  0.00  0.00     0.030 A 
ATOM     17  C   UNL d   1       2.841   2.231   2.107  0.00  0.00     0.014 A 
ATOM     18  C   UNL d   1       3.919   2.897   2.705  0.00  0.00     0.001 A 
ATOM     19  C   UNL d   1       4.316   2.583   4.003  0.00  0.00     0.002 A 
ENDBRANCH   2  10
TORSDOF 2
