REMARK  8 active torsions:
REMARK  status: ('A' for Active; 'I' for Inactive)
REMARK    1  A    between atoms: S_11  and  C_3 
REMARK    2  A    between atoms: C_6  and  C_5 
REMARK    3  A    between atoms: C_13  and  C_6 
REMARK       I    between atoms: N_9  and  C_14 
REMARK    4  A    between atoms: C_10  and  N_9 
REMARK    5  A    between atoms: C_19  and  S_11 
REMARK    6  A    between atoms: O_23  and  C_13 
REMARK    7  A    between atoms: C_14  and  C_19 
REMARK    8  A    between atoms: C_27  and  O_23 
ROOT
ATOM      1  N   UNL d   1       1.296  -1.232   0.182  0.00  0.00    -0.352 N 
ATOM      2  HN  UNL d   1       1.335  -2.245   0.298  1.00  0.00     0.166 HD
ATOM      3  C   UNL d   1       2.391  -0.553   0.283  0.00  0.00     0.062 C 
ATOM      4  S   UNL d   1       1.216   1.817  -0.670  0.00  0.00    -0.116 SA
ATOM      5  C   UNL d   1       2.612   0.944   0.117  0.00  0.00     0.118 C 
ATOM      6  C   UNL d   1       0.057  -0.634  -0.081  0.00  0.00     0.049 A 
ATOM      7  C   UNL d   1      -0.137   0.728  -0.320  0.00  0.00     0.028 A 
ATOM      8  C   UNL d   1      -1.066  -1.470   0.014  0.00  0.00     0.031 A 
ATOM      9  C   UNL d   1      -1.438   1.251  -0.347  0.00  0.00     0.021 A 
ATOM     10  C   UNL d   1      -2.361  -0.950  -0.027  0.00  0.00     0.002 A 
ATOM     11  C   UNL d   1      -2.546   0.419  -0.178  0.00  0.00     0.002 A 
ENDROOT
BRANCH   3  12
ATOM     12  S   UNL d   1       3.802  -1.439   0.887  0.00  0.00    -0.106 SA
BRANCH  12  13
ATOM     13  C   UNL d   1       3.167  -3.088   1.242  0.00  0.00     0.183 C 
BRANCH  13  14
ATOM     14  C   UNL d   1       2.165  -3.294   2.374  0.00  0.00     0.231 C 
ATOM     15  N   UNL d   1       1.520  -2.191   2.912  0.00  0.00    -0.325 N 
ATOM     16  H   UNL d   1       1.395  -1.457   2.227  0.00  0.00     0.169 HD
ATOM     17  O   UNL d   1       1.894  -4.456   2.699  0.00  0.00    -0.272 OA
BRANCH  15  18
ATOM     18  C   UNL d   1       0.430  -2.361   3.812  0.00  0.00     0.056 C 
ATOM     19  C   UNL d   1       0.470  -3.170   4.961  0.00  0.00     0.062 C 
ATOM     20  C   UNL d   1      -0.711  -3.467   5.654  0.00  0.00     0.050 C 
ATOM     21 CL   UNL d   1       1.954  -3.718   5.660  0.00  0.00    -0.082 Cl
ATOM     22  C   UNL d   1      -1.922  -2.935   5.217  0.00  0.00     0.035 C 
ATOM     23  C   UNL d   1      -1.955  -2.046   4.148  0.00  0.00     0.026 C 
ATOM     24 CL   UNL d   1      -3.386  -3.368   6.008  0.00  0.00    -0.084 Cl
ATOM     25  C   UNL d   1      -0.774  -1.731   3.474  0.00  0.00     0.033 C 
ENDBRANCH  15  18
ENDBRANCH  13  14
ENDBRANCH  12  13
ENDBRANCH   3  12
BRANCH   5  26
ATOM     26  C   UNL d   1       2.908   1.560   1.481  0.00  0.00     0.133 C 
BRANCH  26  27
ATOM     27  C   UNL d   1       3.261   3.015   1.440  0.00  0.00     0.260 C 
ATOM     28  O   UNL d   1       4.170   3.494   0.773  0.00  0.00    -0.265 OA
BRANCH  27  29
ATOM     29  O   UNL d   1       2.512   3.670   2.367  0.00  0.00    -0.322 OA
BRANCH  29  30
ATOM     30  C   UNL d   1       3.029   4.923   2.823  0.00  0.00     0.174 C 
ATOM     31  C   UNL d   1       4.031   4.635   3.928  0.00  0.00     0.034 C 
ENDBRANCH  29  30
ENDBRANCH  27  29
ENDBRANCH  26  27
ENDBRANCH   5  26
TORSDOF 8
