REMARK  7 active torsions:
REMARK  status: ('A' for Active; 'I' for Inactive)
REMARK    1  A    between atoms: S_7  and  C_1 
REMARK    2  A    between atoms: C_15  and  C_4 
REMARK    3  A    between atoms: S_17  and  C_5 
REMARK    4  A    between atoms: C_6  and  S_7 
REMARK    5  A    between atoms: C_16  and  C_19 
REMARK    6  A    between atoms: C_18  and  C_16 
REMARK    7  A    between atoms: C_19  and  S_17 
ROOT
ATOM      1  C   UNL d   1      -0.052  -1.499   0.080  0.00  0.00     0.051 A 
ATOM      2  N   UNL d   1       1.239   0.527   0.171  0.00  0.00    -0.335 N 
ATOM      3  HN  UNL d   1       2.141   1.002   0.167  1.00  0.00     0.168 HD
ATOM      4  C   UNL d   1       1.171  -0.831   0.058  0.00  0.00     0.063 A 
ATOM      5  C   UNL d   1       0.104   1.228   0.287  0.00  0.00     0.145 A 
ATOM      6  N   UNL d   1      -1.113   0.682   0.296  0.00  0.00    -0.345 N 
ATOM      7  HN  UNL d   1      -1.958   1.246   0.380  1.00  0.00     0.167 HD
ATOM      8  C   UNL d   1      -1.156  -0.663   0.185  0.00  0.00     0.111 A 
ENDROOT
BRANCH   5   9
ATOM      9  S   UNL d   1       0.209   2.986   0.504  0.00  0.00    -0.086 SA
BRANCH   9  10
ATOM     10  C   UNL d   1       2.012   3.166   0.596  0.00  0.00     0.166 C 
BRANCH  10  11
ATOM     11  C   UNL d   1       2.397   4.604   0.859  0.00  0.00     0.169 C 
ATOM     12  O   UNL d   1       2.554   5.412  -0.057  0.00  0.00    -0.291 OA
BRANCH  11  13
ATOM     13  C   UNL d   1       2.661   5.048   2.260  0.00  0.00     0.011 A 
ATOM     14  C   UNL d   1       3.571   6.096   2.460  0.00  0.00     0.017 A 
ATOM     15  C   UNL d   1       3.831   6.572   3.748  0.00  0.00     0.025 A 
ATOM     16  C   UNL d   1       3.172   6.008   4.838  0.00  0.00     0.034 A 
ATOM     17  C   UNL d   1       2.270   4.962   4.651  0.00  0.00     0.025 A 
ATOM     18 CL   UNL d   1       3.463   6.614   6.421  0.00  0.00    -0.084 Cl
ATOM     19  C   UNL d   1       2.016   4.476   3.363  0.00  0.00     0.017 A 
ENDBRANCH  11  13
ENDBRANCH  10  11
ENDBRANCH   9  10
ENDBRANCH   5   9
BRANCH   4  20
ATOM     20  C   UNL d   1       2.525  -1.441  -0.059  0.00  0.00    -0.008 A 
ATOM     21  C   UNL d   1       3.616  -0.843   0.615  0.00  0.00     0.015 A 
ATOM     22  C   UNL d   1       4.910  -1.367   0.549  0.00  0.00     0.024 A 
ATOM     23  C   UNL d   1       5.143  -2.519  -0.190  0.00  0.00     0.034 A 
ATOM     24  C   UNL d   1       4.101  -3.124  -0.885  0.00  0.00     0.024 A 
ATOM     25 CL   UNL d   1       6.723  -3.193  -0.248  0.00  0.00    -0.084 Cl
ATOM     26  C   UNL d   1       2.812  -2.575  -0.838  0.00  0.00     0.015 A 
ENDBRANCH   4  20
BRANCH   1  27
ATOM     27  S   UNL d   1      -0.383  -3.236  -0.054  0.00  0.00    -0.050 SA
BRANCH  27  28
ATOM     28  C   UNL d   1       0.350  -3.951   1.395  0.00  0.00     0.149 A 
ATOM     29  N   UNL d   1       1.022  -3.175   2.262  0.00  0.00    -0.346 N 
ATOM     30  C   UNL d   1       1.600  -3.805   3.307  0.00  0.00     0.091 A 
ATOM     31  HN  UNL d   1       1.092  -2.165   2.138  1.00  0.00     0.167 HD
ATOM     32  C   UNL d   1       1.505  -5.161   3.522  0.00  0.00     0.034 A 
ATOM     33  C   UNL d   1       0.781  -5.859   2.592  0.00  0.00     0.091 A 
ATOM     34  N   UNL d   1       0.200  -5.283   1.523  0.00  0.00    -0.346 N 
ATOM     35  HN  UNL d   1      -0.329  -5.829   0.843  1.00  0.00     0.167 HD
ENDBRANCH  27  28
ENDBRANCH   1  27
TORSDOF 7
