REMARK  2 active torsions:
REMARK  status: ('A' for Active; 'I' for Inactive)
REMARK    1  A    between atoms: C_3  and  C_1 
REMARK       I    between atoms: N_5  and  C_3 
REMARK    2  A    between atoms: C_8  and  C_4 
ROOT
ATOM      1  C   UNL d   1       0.061   1.260  -0.124  0.00  0.00     0.073 C 
ATOM      2  S   UNL d   1      -0.840  -0.015  -0.823  0.00  0.00    -0.083 SA
ATOM      3  C   UNL d   1       0.232  -1.224  -0.239  0.00  0.00     0.032 C 
ATOM      4  C   UNL d   1       1.265   0.790   0.365  0.00  0.00     0.026 C 
ATOM      5  C   UNL d   1       1.350  -0.634   0.326  0.00  0.00     0.023 C 
ENDROOT
BRANCH   1   6
ATOM      6  C   UNL d   1      -0.344   2.659  -0.235  0.00  0.00     0.260 C 
ATOM      7  N   UNL d   1      -1.672   3.039   0.013  0.00  0.00    -0.347 N 
ATOM      8  C   UNL d   1      -2.093   4.389  -0.351  0.00  0.00     0.126 C 
ATOM      9  C   UNL d   1      -2.702   2.217   0.656  0.00  0.00     0.126 C 
ATOM     10  C   UNL d   1      -2.670   5.135   0.848  0.00  0.00     0.020 C 
ATOM     11  C   UNL d   1      -3.801   4.338   1.491  0.00  0.00     0.003 C 
ATOM     12  C   UNL d   1      -3.327   2.934   1.852  0.00  0.00     0.020 C 
ATOM     13  O   UNL d   1       0.495   3.512  -0.525  0.00  0.00    -0.267 OA
ENDBRANCH   1   6
BRANCH   3  14
ATOM     14  C   UNL d   1      -0.081  -2.657  -0.365  0.00  0.00     0.049 A 
ATOM     15  N   UNL d   1       0.631  -3.456   0.475  0.00  0.00    -0.365 N 
ATOM     16  C   UNL d   1       0.361  -4.780   0.451  0.00  0.00     0.088 A 
ATOM     17  HN  UNL d   1       1.341  -3.071   1.098  1.00  0.00     0.165 HD
ATOM     18  C   UNL d   1      -0.587  -5.362  -0.373  0.00  0.00     0.017 A 
ATOM     19  C   UNL d   1      -1.298  -4.538  -1.233  0.00  0.00     0.004 A 
ATOM     20  C   UNL d   1      -1.043  -3.167  -1.231  0.00  0.00     0.031 A 
ENDBRANCH   3  14
TORSDOF 2
