REMARK  7 active torsions:
REMARK  status: ('A' for Active; 'I' for Inactive)
REMARK    1  A    between atoms: N_6  and  S_1 
REMARK    2  A    between atoms: C_12  and  S_1 
REMARK    3  A    between atoms: C_2  and  C_8 
REMARK    4  A    between atoms: C_10  and  N_6 
REMARK    5  A    between atoms: C_21  and  N_6 
REMARK    6  A    between atoms: C_18  and  C_11 
REMARK    7  A    between atoms: C_19  and  C_21 
ROOT
ATOM      1  C   UNL d   1      -2.088   0.970  -0.666  0.00  0.00     0.043 A 
ATOM      2  C   UNL d   1      -3.205   0.465  -1.374  0.00  0.00     0.060 A 
ATOM      3  C   UNL d   1      -1.330   2.012  -1.236  0.00  0.00     0.018 A 
ATOM      4  C   UNL d   1      -3.574   1.081  -2.582  0.00  0.00     0.031 A 
ATOM      5  C   UNL d   1      -1.709   2.603  -2.441  0.00  0.00     0.001 A 
ATOM      6  C   UNL d   1      -2.847   2.156  -3.099  0.00  0.00     0.002 A 
ENDROOT
BRANCH   1   7
ATOM      7  C   UNL d   1      -1.648   0.535   0.680  0.00  0.00     0.165 A 
ATOM      8  N   UNL d   1      -0.705   1.087   1.397  0.00  0.00    -0.331 N 
ATOM      9  C   UNL d   1      -0.769   0.385   2.572  0.00  0.00     0.111 A 
ATOM     10  HN  UNL d   1      -0.078   1.850   1.144  1.00  0.00     0.168 HD
ATOM     11  C   UNL d   1      -0.099   0.545   3.725  0.00  0.00     0.047 C 
ATOM     12  C   UNL d   1      -1.802  -0.683   2.470  0.00  0.00     0.316 A 
ATOM     13  O   UNL d   1      -2.308  -0.507   1.226  0.00  0.00    -0.255 OA
ATOM     14  O   UNL d   1      -2.113  -1.530   3.286  0.00  0.00    -0.257 OA
BRANCH  11  15
ATOM     15  C   UNL d   1       0.980   1.468   4.128  0.00  0.00    -0.034 A 
ATOM     16  C   UNL d   1       1.687   2.300   3.252  0.00  0.00     0.013 A 
ATOM     17  C   UNL d   1       2.780   3.057   3.704  0.00  0.00     0.024 A 
ATOM     18  C   UNL d   1       3.172   2.988   5.042  0.00  0.00     0.034 A 
ATOM     19  C   UNL d   1       2.462   2.197   5.937  0.00  0.00     0.024 A 
ATOM     20 CL   UNL d   1       4.547   3.868   5.585  0.00  0.00    -0.084 Cl
ATOM     21  C   UNL d   1       1.375   1.447   5.481  0.00  0.00     0.013 A 
ENDBRANCH  11  15
ENDBRANCH   1   7
BRANCH   2  22
ATOM     22  N   UNL d   1      -3.977  -0.668  -0.901  0.00  0.00    -0.267 N 
BRANCH  22  23
ATOM     23  S   UNL d   1      -5.411  -0.328  -0.016  0.00  0.00     0.265 S 
ATOM     24  O   UNL d   1      -5.279   0.959   0.627  0.00  0.00    -0.200 OA
ATOM     25  O   UNL d   1      -5.756  -1.514   0.747  0.00  0.00    -0.200 OA
BRANCH  23  26
ATOM     26  C   UNL d   1      -6.656  -0.178  -1.293  0.00  0.00     0.080 A 
ATOM     27  C   UNL d   1      -7.383  -1.310  -1.686  0.00  0.00     0.026 A 
ATOM     28  C   UNL d   1      -8.228  -1.238  -2.794  0.00  0.00     0.008 A 
ATOM     29  C   UNL d   1      -8.353  -0.039  -3.509  0.00  0.00    -0.062 A 
ATOM     30  C   UNL d   1      -7.718   1.113  -3.027  0.00  0.00     0.008 A 
ATOM     31  C   UNL d   1      -9.178   0.009  -4.762  0.00  0.00     0.048 C 
ATOM     32  C   UNL d   1      -6.878   1.053  -1.913  0.00  0.00     0.026 A 
ENDBRANCH  23  26
ENDBRANCH  22  23
BRANCH  22  33
ATOM     33  C   UNL d   1      -4.057  -1.871  -1.762  0.00  0.00     0.168 C 
BRANCH  33  34
ATOM     34  C   UNL d   1      -2.691  -2.410  -2.063  0.00  0.00    -0.016 C 
ATOM     35  C   UNL d   1      -2.032  -3.261  -1.264  0.00  0.00     0.008 C 
ENDBRANCH  33  34
ENDBRANCH  22  33
ENDBRANCH   2  22
TORSDOF 7
