REMARK  7 active torsions:
REMARK  status: ('A' for Active; 'I' for Inactive)
REMARK    1  A    between atoms: C_2  and  C_1 
REMARK    2  A    between atoms: C_4  and  C_1 
REMARK    3  A    between atoms: C_5  and  C_1 
REMARK    4  A    between atoms: O_13  and  C_1 
REMARK       I    between atoms: C_3  and  N_6 
REMARK       I    between atoms: N_7  and  C_3 
REMARK    5  A    between atoms: O_18  and  C_4 
REMARK    6  A    between atoms: N_6  and  C_16 
REMARK    7  A    between atoms: C_17  and  N_7 
ROOT
ATOM      1  C   UNL d   1       0.496  -1.035  -0.982  0.00  0.00    -0.005 A 
ATOM      2  C   UNL d   1       1.462  -2.012  -1.284  0.00  0.00     0.013 A 
ATOM      3  C   UNL d   1      -0.829  -1.314  -1.341  0.00  0.00     0.013 A 
ATOM      4  C   UNL d   1      -0.248  -3.558  -2.068  0.00  0.00     0.036 A 
ATOM      5  C   UNL d   1      -1.194  -2.552  -1.878  0.00  0.00     0.030 A 
ATOM      6  C   UNL d   1       1.092  -3.259  -1.814  0.00  0.00     0.030 A 
ENDROOT
BRANCH   4   7
ATOM      7  N   UNL d   1      -0.579  -4.886  -2.432  0.00  0.00    -0.309 N 
ATOM      8  C   UNL d   1      -1.864  -5.406  -2.547  0.00  0.00     0.325 C 
ATOM      9  N   UNL d   1      -1.851  -6.788  -2.629  0.00  0.00    -0.309 N 
ATOM     10  O   UNL d   1      -2.885  -4.727  -2.535  0.00  0.00    -0.247 OA
ATOM     11  H   UNL d   1      -0.950  -7.242  -2.640  0.00  0.00     0.170 HD
ATOM     12  H   UNL d   1       0.192  -5.532  -2.500  0.00  0.00     0.170 HD
BRANCH   9  13
ATOM     13  C   UNL d   1      -2.980  -7.643  -2.601  0.00  0.00     0.036 A 
ATOM     14  C   UNL d   1      -4.305  -7.188  -2.557  0.00  0.00     0.031 A 
ATOM     15  C   UNL d   1      -5.373  -8.086  -2.482  0.00  0.00     0.026 A 
ATOM     16  C   UNL d   1      -5.125  -9.452  -2.453  0.00  0.00     0.034 A 
ATOM     17  C   UNL d   1      -3.818  -9.928  -2.511  0.00  0.00     0.026 A 
ATOM     18 CL   UNL d   1      -6.439 -10.557  -2.339  0.00  0.00    -0.084 Cl
ATOM     19  C   UNL d   1      -2.750  -9.025  -2.587  0.00  0.00     0.031 A 
ENDBRANCH   9  13
ENDBRANCH   4   7
BRANCH   1  20
ATOM     20  C   UNL d   1       0.852   0.256  -0.227  0.00  0.00     0.271 C 
BRANCH  20  21
ATOM     21  C   UNL d   1       1.881   1.157  -0.944  0.00  0.00     0.432 C 
ATOM     22  F   UNL d   1       3.082   1.207  -0.320  0.00  0.00    -0.167 F 
ATOM     23  F   UNL d   1       2.121   0.792  -2.224  0.00  0.00    -0.167 F 
ATOM     24  F   UNL d   1       1.430   2.442  -0.986  0.00  0.00    -0.167 F 
ENDBRANCH  20  21
BRANCH  20  25
ATOM     25  C   UNL d   1       1.481  -0.058   1.143  0.00  0.00     0.307 C 
ATOM     26  O   UNL d   1       2.201  -1.015   1.403  0.00  0.00    -0.261 OA
BRANCH  25  27
ATOM     27  O   UNL d   1       1.160   0.915   2.057  0.00  0.00    -0.324 OA
ATOM     28  C   UNL d   1       1.688   0.664   3.363  0.00  0.00     0.213 C 
ENDBRANCH  25  27
ENDBRANCH  20  25
BRANCH  20  29
ATOM     29  O   UNL d   1      -0.392   0.982   0.013  0.00  0.00    -0.368 OA
ATOM     30  H   UNL d   1      -0.151   1.794   0.499  0.00  0.00     0.212 HD
ENDBRANCH  20  29
ENDBRANCH   1  20
TORSDOF 7
