REMARK  6 active torsions:
REMARK  status: ('A' for Active; 'I' for Inactive)
REMARK    1  A    between atoms: C_7  and  C_1 
REMARK    2  A    between atoms: N_10  and  C_2 
REMARK    3  A    between atoms: C_4  and  C_3 
REMARK    4  A    between atoms: C_8  and  C_4 
REMARK    5  A    between atoms: N_5  and  N_10 
REMARK    6  A    between atoms: O_21  and  C_7 
ROOT
ATOM      1  C   UNL d   1       3.532   3.860   0.496  0.00  0.00     0.181 C 
ATOM      2  N   UNL d   1       2.547   3.076   0.154  0.00  0.00    -0.287 N 
ATOM      3  HN  UNL d   1       2.750   2.134  -0.182  1.00  0.00     0.188 HD
ATOM      4  C   UNL d   1       3.238   5.172   1.006  0.00  0.00     0.123 C 
ATOM      5  N   UNL d   1       2.977   6.237   1.399  0.00  0.00    -0.190 NA
ENDROOT
BRANCH   1   6
ATOM      6  C   UNL d   1       4.955   3.409   0.309  0.00  0.00     0.244 C 
ATOM      7  O   UNL d   1       5.315   3.053  -0.808  0.00  0.00    -0.282 OA
BRANCH   6   8
ATOM      8  C   UNL d   1       5.821   3.522   1.455  0.00  0.00     0.128 A 
ATOM      9  O   UNL d   1       5.289   3.712   2.701  0.00  0.00    -0.319 OA
ATOM     10  C   UNL d   1       6.327   3.810   3.572  0.00  0.00     0.142 A 
ATOM     11  C   UNL d   1       7.526   3.694   2.909  0.00  0.00     0.027 A 
ATOM     12  C   UNL d   1       7.200   3.489   1.546  0.00  0.00     0.043 A 
ENDBRANCH   6   8
ENDBRANCH   1   6
BRANCH   2  13
ATOM     13  N   UNL d   1       1.239   3.496   0.238  0.00  0.00    -0.298 N 
ATOM     14  H   UNL d   1       1.013   4.498   0.220  0.00  0.00     0.187 HD
BRANCH  13  15
ATOM     15  C   UNL d   1       0.203   2.617   0.113  0.00  0.00     0.071 A 
ATOM     16  C   UNL d   1      -1.141   2.955   0.061  0.00  0.00     0.108 A 
ATOM     17  S   UNL d   1      -2.125   1.540  -0.052  0.00  0.00    -0.094 SA
ATOM     18  C   UNL d   1      -0.775   0.503  -0.055  0.00  0.00     0.053 A 
ATOM     19  C   UNL d   1       0.404   1.203   0.032  0.00  0.00     0.039 A 
BRANCH  16  20
ATOM     20  C   UNL d   1      -1.829   4.234   0.087  0.00  0.00     0.302 C 
ATOM     21  O   UNL d   1      -3.045   4.401   0.110  0.00  0.00    -0.259 OA
BRANCH  20  22
ATOM     22  O   UNL d   1      -0.932   5.270   0.069  0.00  0.00    -0.322 OA
ATOM     23  C   UNL d   1      -1.564   6.556   0.063  0.00  0.00     0.213 C 
ENDBRANCH  20  22
ENDBRANCH  16  20
ENDBRANCH  13  15
ENDBRANCH   2  13
TORSDOF 6
