REMARK  4 active torsions:
REMARK  status: ('A' for Active; 'I' for Inactive)
REMARK    1  A    between atoms: N_2  and  S_1 
REMARK    2  A    between atoms: C_3  and  S_1 
REMARK    3  A    between atoms: C_20  and  N_5 
REMARK    4  A    between atoms: C_19  and  C_20 
ROOT
ATOM      1  N   UNL d   1       0.602  -0.722  -1.119  0.00  0.00    -0.303 N 
ATOM      2  N   UNL d   1      -1.417  -2.870  -0.718  0.00  0.00     0.095 N 
ATOM      3  C   UNL d   1      -0.855  -0.436  -1.241  0.00  0.00     0.165 C 
ATOM      4  C   UNL d   1       0.914  -2.136  -1.462  0.00  0.00     0.165 C 
ATOM      5  C   UNL d   1       0.043  -3.119  -0.656  0.00  0.00     0.293 C 
ATOM      6  C   UNL d   1      -1.686  -1.446  -0.417  0.00  0.00     0.293 C 
ENDROOT
BRANCH   1   7
ATOM      7  S   UNL d   1       1.414  -0.034   0.205  0.00  0.00     0.261 S 
ATOM      8  O   UNL d   1       2.596  -0.819   0.501  0.00  0.00    -0.200 OA
ATOM      9  O   UNL d   1       0.455   0.308   1.231  0.00  0.00    -0.200 OA
BRANCH   7  10
ATOM     10  C   UNL d   1       1.981   1.496  -0.521  0.00  0.00     0.081 A 
ATOM     11  C   UNL d   1       1.163   2.631  -0.480  0.00  0.00     0.052 A 
ATOM     12  C   UNL d   1       1.593   3.800  -1.109  0.00  0.00     0.074 A 
ATOM     13 CL   UNL d   1       0.561   5.178  -1.125  0.00  0.00    -0.081 Cl
ATOM     14  C   UNL d   1       2.838   3.840  -1.737  0.00  0.00     0.138 A 
ATOM     15  C   UNL d   1       3.674   2.725  -1.731  0.00  0.00     0.045 A 
ATOM     16  F   UNL d   1       3.253   4.950  -2.366  0.00  0.00    -0.204 F 
ATOM     17  C   UNL d   1       3.246   1.546  -1.120  0.00  0.00     0.028 A 
ENDBRANCH   7  10
ENDBRANCH   1   7
BRANCH   2  18
ATOM     18  C   UNL d   1      -2.037  -3.286  -1.987  0.00  0.00     0.311 C 
BRANCH  18  19
ATOM     19  C   UNL d   1      -1.927  -4.779  -2.232  0.00  0.00    -0.027 A 
ATOM     20  C   UNL d   1      -1.281  -5.259  -3.383  0.00  0.00     0.048 A 
ATOM     21  C   UNL d   1      -1.132  -6.623  -3.523  0.00  0.00     0.105 A 
ATOM     22  O   UNL d   1      -0.506  -7.248  -4.556  0.00  0.00    -0.323 OA
ATOM     23  C   UNL d   1      -1.602  -7.507  -2.581  0.00  0.00     0.105 A 
ATOM     24  C   UNL d   1      -0.651  -8.629  -4.164  0.00  0.00     0.352 A 
ATOM     25  O   UNL d   1      -1.324  -8.799  -2.899  0.00  0.00    -0.323 OA
ATOM     26  C   UNL d   1      -2.266  -7.079  -1.453  0.00  0.00     0.040 A 
ATOM     27  C   UNL d   1      -2.436  -5.700  -1.284  0.00  0.00     0.012 A 
ENDBRANCH  18  19
ENDBRANCH   2  18
TORSDOF 4
