REMARK  3 active torsions:
REMARK  status: ('A' for Active; 'I' for Inactive)
REMARK    1  A    between atoms: C_11  and  C_3 
REMARK    2  A    between atoms: C_14  and  C_4 
REMARK    3  A    between atoms: C_13  and  C_10 
ROOT
ATOM      1  C   UNL d   1       0.213  -0.784   0.007  0.00  0.00     0.142 A 
ATOM      2  N   UNL d   1       0.344   0.617   0.005  0.00  0.00    -0.234 N 
ATOM      3  C   UNL d   1      -0.785   1.429   0.015  0.00  0.00     0.144 A 
ATOM      4  C   UNL d   1       1.500  -1.312  -0.021  0.00  0.00     0.064 A 
ATOM      5  N   UNL d   1      -1.014  -1.401   0.035  0.00  0.00    -0.336 N 
ATOM      6  HN  UNL d   1      -1.094  -2.418   0.042  1.00  0.00     0.167 HD
ATOM      7  C   UNL d   1      -2.009   0.864   0.032  0.00  0.00     0.071 A 
ATOM      8  N   UNL d   1       1.642   0.979  -0.007  0.00  0.00    -0.302 N 
ATOM      9  HN  UNL d   1       2.021   1.926  -0.004  1.00  0.00     0.186 HD
ATOM     10  C   UNL d   1      -2.076  -0.636   0.054  0.00  0.00     0.120 A 
ATOM     11  C   UNL d   1       2.323  -0.163  -0.025  0.00  0.00     0.126 A 
ENDROOT
BRANCH   4  12
ATOM     12  C   UNL d   1       1.863  -2.715  -0.039  0.00  0.00     0.109 C 
ATOM     13  S   UNL d   1       3.455  -3.186  -0.065  0.00  0.00    -0.060 SA
ATOM     14  N   UNL d   1       0.860  -3.637  -0.036  0.00  0.00    -0.389 N 
ATOM     15  H   UNL d   1      -0.114  -3.345  -0.017  0.00  0.00     0.157 HD
ATOM     16  H   UNL d   1       1.075  -4.625  -0.049  0.00  0.00     0.157 HD
ENDBRANCH   4  12
BRANCH   3  17
ATOM     17  C   UNL d   1      -0.617   2.906   0.007  0.00  0.00     0.434 C 
ATOM     18  F   UNL d   1       0.646   3.382  -0.047  0.00  0.00    -0.165 F 
ATOM     19  F   UNL d   1      -1.278   3.450  -1.052  0.00  0.00    -0.165 F 
ATOM     20  F   UNL d   1      -1.189   3.451   1.116  0.00  0.00    -0.165 F 
ENDBRANCH   3  17
BRANCH  10  21
ATOM     21  C   UNL d   1      -3.474  -1.267   0.111  0.00  0.00     0.432 C 
ATOM     22  F   UNL d   1      -4.469  -0.338   0.123  0.00  0.00    -0.165 F 
ATOM     23  F   UNL d   1      -3.716  -2.074  -0.956  0.00  0.00    -0.165 F 
ATOM     24  F   UNL d   1      -3.646  -2.026   1.225  0.00  0.00    -0.165 F 
ENDBRANCH  10  21
TORSDOF 3
