REMARK  4 active torsions:
REMARK  status: ('A' for Active; 'I' for Inactive)
REMARK    1  A    between atoms: S_2  and  C_6 
REMARK    2  A    between atoms: O_12  and  S_2 
REMARK    3  A    between atoms: S_23  and  C_8 
REMARK    4  A    between atoms: C_15  and  O_12 
ROOT
ATOM      1  C   UNL d   1       0.072   1.197   0.168  0.00  0.00     0.141 A 
ATOM      2  N   UNL d   1      -1.054   0.729   0.812  0.00  0.00    -0.315 N 
ATOM      3  N   UNL d   1       0.712   0.164  -0.353  0.00  0.00    -0.282 N 
ATOM      4  HN  UNL d   1       1.545   0.214  -0.939  1.00  0.00     0.188 HD
ATOM      5  C   UNL d   1       1.021   4.976   0.282  0.00  0.00     0.128 C 
ATOM      6  C   UNL d   1       0.527   2.554   0.021  0.00  0.00     0.052 C 
ATOM      7  C   UNL d   1      -0.978  -0.641   0.742  0.00  0.00     0.162 A 
ATOM      8  N   UNL d   1       0.065  -0.990   0.028  0.00  0.00    -0.278 N 
ATOM      9  HN  UNL d   1       0.346  -1.942  -0.203  1.00  0.00     0.189 HD
ATOM     10  S   UNL d   1       0.410   3.722   1.271  0.00  0.00    -0.072 SA
ATOM     11  C   UNL d   1       1.480   4.475  -0.920  0.00  0.00     0.035 C 
ATOM     12  C   UNL d   1       1.194   3.085  -1.071  0.00  0.00     0.025 C 
ATOM     13  C   UNL d   1      -2.136   1.489   1.384  0.00  0.00     0.160 C 
ENDROOT
BRANCH   5  14
ATOM     14  S   UNL d   1       0.913   6.624   0.937  0.00  0.00     0.309 S 
ATOM     15  O   UNL d   1       1.077   7.491  -0.217  0.00  0.00    -0.192 OA
ATOM     16  O   UNL d   1      -0.282   6.648   1.754  0.00  0.00    -0.192 OA
BRANCH  14  17
ATOM     17  O   UNL d   1       2.252   6.713   1.874  0.00  0.00    -0.229 OA
BRANCH  17  18
ATOM     18  C   UNL d   1       2.532   7.854   2.589  0.00  0.00     0.092 A 
ATOM     19  C   UNL d   1       1.569   8.767   3.020  0.00  0.00     0.062 A 
ATOM     20  C   UNL d   1       1.941   9.886   3.768  0.00  0.00     0.038 A 
ATOM     21 CL   UNL d   1       0.733  10.996   4.284  0.00  0.00    -0.084 Cl
ATOM     22  C   UNL d   1       3.271  10.103   4.104  0.00  0.00     0.048 A 
ATOM     23  C   UNL d   1       4.232   9.188   3.683  0.00  0.00     0.038 A 
ATOM     24  C   UNL d   1       3.874   8.068   2.928  0.00  0.00     0.062 A 
ATOM     25 CL   UNL d   1       5.880   9.443   4.111  0.00  0.00    -0.084 Cl
ENDBRANCH  17  18
ENDBRANCH  14  17
ENDBRANCH   5  14
BRANCH   7  26
ATOM     26  S   UNL d   1      -2.116  -1.699   1.506  0.00  0.00    -0.097 SA
ATOM     27  C   UNL d   1      -1.441  -3.333   1.120  0.00  0.00     0.099 C 
ENDBRANCH   7  26
TORSDOF 4
