REMARK  3 active torsions:
REMARK  status: ('A' for Active; 'I' for Inactive)
REMARK    1  A    between atoms: N_7  and  C_1 
REMARK    2  A    between atoms: C_8  and  C_2 
REMARK    3  A    between atoms: N_12  and  C_9 
ROOT
ATOM      1  C   UNL d   1      -0.619  -1.400   0.022  0.00  0.00     0.154 A 
ATOM      2  C   UNL d   1      -1.673  -0.450   0.035  0.00  0.00     0.084 A 
ATOM      3  N   UNL d   1      -1.174   0.796   0.027  0.00  0.00    -0.296 N 
ATOM      4  HN  UNL d   1      -1.694   1.673   0.031  1.00  0.00     0.187 HD
ATOM      5  C   UNL d   1       0.563  -0.675   0.002  0.00  0.00     0.059 A 
ATOM      6  N   UNL d   1       0.164   0.636   0.010  0.00  0.00    -0.298 N 
ATOM      7  C   UNL d   1       1.984  -1.106  -0.008  0.00  0.00     0.072 C 
ATOM      8  C   UNL d   1       0.991   1.822   0.011  0.00  0.00     0.177 C 
ENDROOT
BRANCH   2   9
ATOM      9  C   UNL d   1      -3.078  -0.760   0.029  0.00  0.00     0.050 C 
ATOM     10  C   UNL d   1      -4.083   0.130   0.013  0.00  0.00     0.087 C 
BRANCH  10  11
ATOM     11  N   UNL d   1      -5.457  -0.084  -0.000  0.00  0.00    -0.398 N 
ATOM     12  C   UNL d   1      -6.097  -1.399   0.009  0.00  0.00     0.148 C 
ATOM     13  C   UNL d   1      -6.405   1.032   0.003  0.00  0.00     0.148 C 
ENDBRANCH  10  11
ENDBRANCH   2   9
BRANCH   1  14
ATOM     14  N   UNL d   1      -0.729  -2.823   0.028  0.00  0.00    -0.111 N 
ATOM     15  O   UNL d   1      -1.406  -3.332   0.928  0.00  0.00    -0.532 OA
ATOM     16  O   UNL d   1      -0.132  -3.432  -0.870  0.00  0.00    -0.532 OA
ENDBRANCH   1  14
TORSDOF 3
