REMARK  3 active torsions:
REMARK  status: ('A' for Active; 'I' for Inactive)
REMARK    1  A    between atoms: N_4  and  N_1 
REMARK    2  A    between atoms: C_8  and  C_9 
REMARK    3  A    between atoms: O_18  and  C_12 
ROOT
ATOM      1  N   UNL d   1       3.299   0.016  -0.282  0.00  0.00    -0.298 N 
ATOM      2  HN  UNL d   1       3.741  -0.869  -0.530  1.00  0.00     0.186 HD
ATOM      3  C   UNL d   1       4.020   1.073  -0.087  0.00  0.00     0.122 C 
ENDROOT
BRANCH   1   4
ATOM      4  N   UNL d   1       1.935   0.094  -0.153  0.00  0.00    -0.182 N 
ATOM      5  C   UNL d   1       1.167   1.182   0.214  0.00  0.00     0.280 A 
ATOM      6  C   UNL d   1      -0.221   0.741   0.130  0.00  0.00     0.050 A 
ATOM      7  O   UNL d   1       1.464   2.315   0.550  0.00  0.00    -0.265 OA
ATOM      8  C   UNL d   1      -1.384   1.454   0.355  0.00  0.00     0.018 A 
ATOM      9  C   UNL d   1      -0.233  -0.583  -0.262  0.00  0.00     0.050 A 
ATOM     10  C   UNL d   1      -2.592   0.779   0.167  0.00  0.00     0.001 A 
ATOM     11  C   UNL d   1      -2.607  -0.574  -0.230  0.00  0.00     0.001 A 
ATOM     12  C   UNL d   1      -1.415  -1.274  -0.448  0.00  0.00     0.018 A 
ATOM     13  C   UNL d   1       1.155  -1.009  -0.438  0.00  0.00     0.280 A 
ATOM     14  O   UNL d   1       1.471  -2.135  -0.785  0.00  0.00    -0.265 OA
ENDBRANCH   1   4
BRANCH   3  15
ATOM     15  C   UNL d   1       5.489   1.036  -0.248  0.00  0.00     0.015 A 
ATOM     16  C   UNL d   1       6.178  -0.122  -0.623  0.00  0.00     0.077 A 
ATOM     17  C   UNL d   1       7.564  -0.094  -0.775  0.00  0.00     0.039 A 
ATOM     18  C   UNL d   1       8.269   1.087  -0.536  0.00  0.00     0.022 A 
ATOM     19  C   UNL d   1       7.581   2.238  -0.155  0.00  0.00     0.011 A 
ATOM     20  C   UNL d   1       6.193   2.224  -0.017  0.00  0.00     0.034 A 
ATOM     21 BR   UNL d   1       8.538   3.832   0.188  0.00  0.00    -0.051 Br
BRANCH  16  22
ATOM     22  O   UNL d   1       5.569  -1.324  -0.852  0.00  0.00    -0.360 OA
ATOM     23  H   UNL d   1       4.607  -1.224  -0.680  0.00  0.00     0.217 HD
ENDBRANCH  16  22
ENDBRANCH   3  15
TORSDOF 3
