REMARK  2 active torsions:
REMARK  status: ('A' for Active; 'I' for Inactive)
REMARK    1  A    between atoms: C_2  and  C_1 
REMARK       I    between atoms: N_4  and  C_2 
REMARK    2  A    between atoms: C_7  and  C_3 
ROOT
ATOM      1  C   UNL d   1       0.994   0.078   0.217  0.00  0.00     0.113 C 
ATOM      2  C   UNL d   1       0.291  -1.062   0.387  0.00  0.00     0.047 C 
ATOM      3  C   UNL d   1       0.457   1.372   0.430  0.00  0.00     0.105 C 
ATOM      4  N   UNL d   1       0.014   2.438   0.566  0.00  0.00    -0.191 NA
ENDROOT
BRANCH   1   5
ATOM      5  C   UNL d   1       2.448  -0.084  -0.101  0.00  0.00     0.264 C 
ATOM      6  N   UNL d   1       3.079   0.832  -0.917  0.00  0.00    -0.347 N 
ATOM      7  C   UNL d   1       2.524   1.945  -1.675  0.00  0.00     0.126 C 
ATOM      8  C   UNL d   1       4.501   0.688  -1.198  0.00  0.00     0.126 C 
ATOM      9  C   UNL d   1       3.453   2.067  -2.870  0.00  0.00     0.021 C 
ATOM     10  C   UNL d   1       4.814   1.697  -2.298  0.00  0.00     0.021 C 
ATOM     11  O   UNL d   1       3.060  -1.053   0.356  0.00  0.00    -0.267 OA
ENDBRANCH   1   5
BRANCH   2  12
ATOM     12  C   UNL d   1      -1.095  -1.119   0.725  0.00  0.00     0.006 A 
ATOM     13  S   UNL d   1      -1.637  -2.328   1.832  0.00  0.00    -0.102 SA
ATOM     14  C   UNL d   1      -3.257  -1.797   1.750  0.00  0.00     0.050 A 
ATOM     15  C   UNL d   1      -3.409  -0.747   0.876  0.00  0.00     0.008 A 
ATOM     16  C   UNL d   1      -2.172  -0.364   0.281  0.00  0.00     0.019 A 
ENDBRANCH   2  12
TORSDOF 2
