REMARK  7 active torsions:
REMARK  status: ('A' for Active; 'I' for Inactive)
REMARK    1  A    between atoms: C_1  and  C_6 
REMARK    2  A    between atoms: C_7  and  C_4 
REMARK       I    between atoms: N_8  and  C_6 
REMARK    3  A    between atoms: C_14  and  N_8 
REMARK    4  A    between atoms: C_9  and  C_14 
REMARK    5  A    between atoms: O_15  and  C_9 
REMARK    6  A    between atoms: O_16  and  C_11 
REMARK    7  A    between atoms: C_19  and  O_15 
ROOT
ATOM      1  C   UNL d   1       0.412   1.415  -0.311  0.00  0.00     0.180 A 
ATOM      2  C   UNL d   1      -0.594   0.316  -0.287  0.00  0.00     0.273 A 
ATOM      3  O   UNL d   1      -0.012  -0.905  -0.324  0.00  0.00    -0.310 OA
ATOM      4  C   UNL d   1       1.419  -0.794  -0.367  0.00  0.00     0.169 A 
ATOM      5  C   UNL d   1       1.746   0.687  -0.249  0.00  0.00     0.061 A 
ATOM      6  O   UNL d   1      -1.806   0.483  -0.259  0.00  0.00    -0.264 OA
ENDROOT
BRANCH   1   7
ATOM      7  C   UNL d   1       0.227   2.452   0.784  0.00  0.00     0.232 C 
ATOM      8  N   UNL d   1      -1.075   2.795   1.065  0.00  0.00    -0.351 N 
ATOM      9  H   UNL d   1      -1.832   2.348   0.551  0.00  0.00     0.163 HD
ATOM     10  O   UNL d   1       1.179   3.008   1.329  0.00  0.00    -0.273 OA
BRANCH   8  11
ATOM     11  C   UNL d   1      -1.437   3.782   2.075  0.00  0.00     0.233 C 
BRANCH  11  12
ATOM     12  C   UNL d   1      -1.719   5.195   1.572  0.00  0.00     0.276 C 
ATOM     13  O   UNL d   1      -2.084   6.106   2.309  0.00  0.00    -0.263 OA
BRANCH  12  14
ATOM     14  O   UNL d   1      -1.540   5.314   0.226  0.00  0.00    -0.321 OA
BRANCH  14  15
ATOM     15  C   UNL d   1      -1.781   6.620  -0.322  0.00  0.00     0.174 C 
ATOM     16  C   UNL d   1      -0.575   7.518  -0.117  0.00  0.00     0.034 C 
ENDBRANCH  14  15
ENDBRANCH  12  14
ENDBRANCH  11  12
ENDBRANCH   8  11
ENDBRANCH   1   7
BRANCH   4  17
ATOM     17  C   UNL d   1       2.049  -1.661   0.709  0.00  0.00     0.005 A 
ATOM     18  C   UNL d   1       3.262  -2.369   0.608  0.00  0.00     0.077 A 
ATOM     19  C   UNL d   1       3.714  -3.125   1.711  0.00  0.00     0.037 A 
ATOM     20  C   UNL d   1       3.007  -3.191   2.908  0.00  0.00     0.003 A 
ATOM     21  C   UNL d   1       1.826  -2.483   3.030  0.00  0.00     0.001 A 
ATOM     22  C   UNL d   1       1.360  -1.730   1.951  0.00  0.00     0.012 A 
BRANCH  18  23
ATOM     23  O   UNL d   1       4.176  -2.457  -0.402  0.00  0.00    -0.355 OA
ATOM     24  C   UNL d   1       3.907  -2.023  -1.716  0.00  0.00     0.210 C 
ENDBRANCH  18  23
ENDBRANCH   4  17
TORSDOF 7
