REMARK  2 active torsions:
REMARK  status: ('A' for Active; 'I' for Inactive)
REMARK    1  A    between atoms: N_15  and  C_1 
REMARK    2  A    between atoms: C_2  and  N_13 
ROOT
ATOM      1  N   UNL d   1      -2.022   3.007   0.141  0.00  0.00    -0.296 N 
ATOM      2  HN  UNL d   1      -2.754   2.298   0.193  1.00  0.00     0.187 HD
ATOM      3  N   UNL d   1      -0.815   2.726   0.014  0.00  0.00    -0.296 N 
ATOM      4  HN  UNL d   1      -0.089   3.438  -0.065  1.00  0.00     0.187 HD
ENDROOT
BRANCH   1   5
ATOM      5  C   UNL d   1      -2.285   4.380   0.206  0.00  0.00     0.095 A 
ATOM      6  C   UNL d   1      -3.310   4.940   0.938  0.00  0.00     0.054 A 
ATOM      7  N   UNL d   1      -3.220   6.288   0.697  0.00  0.00    -0.299 N 
ATOM      8  C   UNL d   1      -4.337   4.324   1.811  0.00  0.00     0.072 C 
ATOM      9  C   UNL d   1      -4.048   7.349   1.223  0.00  0.00     0.177 C 
ATOM     10  N   UNL d   1      -2.236   6.620  -0.164  0.00  0.00    -0.301 N 
ATOM     11  C   UNL d   1      -1.664   5.450  -0.480  0.00  0.00     0.052 A 
ATOM     12  HN  UNL d   1      -1.984   7.551  -0.497  1.00  0.00     0.187 HD
ATOM     13  C   UNL d   1      -0.557   5.415  -1.465  0.00  0.00     0.072 C 
ENDBRANCH   1   5
BRANCH   3  14
ATOM     14  C   UNL d   1      -0.534   1.351  -0.011  0.00  0.00     0.095 A 
ATOM     15  C   UNL d   1       0.737   0.834  -0.163  0.00  0.00     0.054 A 
ATOM     16  N   UNL d   1       0.574  -0.527  -0.113  0.00  0.00    -0.299 N 
ATOM     17  C   UNL d   1       2.048   1.500  -0.342  0.00  0.00     0.072 C 
ATOM     18  C   UNL d   1       1.585  -1.556  -0.203  0.00  0.00     0.177 C 
ATOM     19  N   UNL d   1      -0.706  -0.915   0.040  0.00  0.00    -0.301 N 
ATOM     20  C   UNL d   1      -1.397   0.233   0.102  0.00  0.00     0.052 A 
ATOM     21  HN  UNL d   1      -1.069  -1.867   0.096  1.00  0.00     0.187 HD
ATOM     22  C   UNL d   1      -2.869   0.186   0.266  0.00  0.00     0.072 C 
ENDBRANCH   3  14
TORSDOF 2
