REMARK  6 active torsions:
REMARK  status: ('A' for Active; 'I' for Inactive)
REMARK    1  A    between atoms: C_3  and  N_2 
REMARK    2  A    between atoms: C_6  and  C_3 
REMARK    3  A    between atoms: C_11  and  C_3 
REMARK    4  A    between atoms: O_14  and  C_6 
REMARK    5  A    between atoms: C_13  and  C_11 
REMARK    6  A    between atoms: O_20  and  C_15 
ROOT
ATOM      1  C   UNL d   1      -2.503   0.166   1.664  0.00  0.00     0.323 C 
ENDROOT
BRANCH   1   2
ATOM      2  N   UNL d   1      -2.112   0.068   0.217  0.00  0.00     0.105 N 
ATOM      3  C   UNL d   1      -1.508   1.280  -0.370  0.00  0.00     0.288 C 
ATOM      4  C   UNL d   1      -0.128   1.623   0.156  0.00  0.00     0.170 C 
ATOM      5  S   UNL d   1       1.000   0.281  -0.117  0.00  0.00     0.147 S 
ATOM      6  C   UNL d   1       0.082  -1.141   0.416  0.00  0.00     0.170 C 
ATOM      7  O   UNL d   1       2.109   0.448   0.803  0.00  0.00    -0.228 OA
ATOM      8  O   UNL d   1       1.235   0.160  -1.543  0.00  0.00    -0.228 OA
ATOM      9  C   UNL d   1      -1.322  -1.117  -0.159  0.00  0.00     0.288 C 
ENDBRANCH   1   2
BRANCH   1  10
ATOM     10  C   UNL d   1      -3.489   1.337   1.951  0.00  0.00     0.174 C 
ATOM     11  O   UNL d   1      -4.025   2.048   1.113  0.00  0.00    -0.648 OA
BRANCH  10  12
ATOM     12  O   UNL d   1      -3.691   1.575   3.272  0.00  0.00    -0.775 OA
ATOM     13  H   UNL d   1      -3.247   0.978   3.900  0.00  0.00     0.167 HD
ENDBRANCH  10  12
ENDBRANCH   1  10
BRANCH   1  14
ATOM     14  C   UNL d   1      -3.096  -1.145   2.258  0.00  0.00     0.085 C 
BRANCH  14  15
ATOM     15  C   UNL d   1      -4.367  -1.730   1.676  0.00  0.00    -0.055 A 
ATOM     16  C   UNL d   1      -5.068  -1.160   0.606  0.00  0.00     0.010 A 
ATOM     17  C   UNL d   1      -6.243  -1.744   0.126  0.00  0.00     0.037 A 
ATOM     18  C   UNL d   1      -6.720  -2.910   0.706  0.00  0.00     0.065 A 
ATOM     19  C   UNL d   1      -6.045  -3.502   1.765  0.00  0.00     0.037 A 
ATOM     20  C   UNL d   1      -4.873  -2.912   2.248  0.00  0.00     0.010 A 
BRANCH  18  21
ATOM     21  O   UNL d   1      -7.865  -3.446   0.197  0.00  0.00    -0.361 OA
ATOM     22  H   UNL d   1      -8.071  -4.258   0.684  0.00  0.00     0.217 HD
ENDBRANCH  18  21
ENDBRANCH  14  15
ENDBRANCH   1  14
TORSDOF 6
