REMARK  6 active torsions:
REMARK  status: ('A' for Active; 'I' for Inactive)
REMARK    1  A    between atoms: N_3  and  S_1 
REMARK    2  A    between atoms: C_4  and  S_1 
REMARK    3  A    between atoms: C_2  and  C_5 
REMARK    4  A    between atoms: C_10  and  N_3 
REMARK    5  A    between atoms: C_14  and  N_6 
REMARK    6  A    between atoms: C_19  and  C_14 
ROOT
ATOM      1  N   UNL d   1       0.607   0.305   1.317  0.00  0.00    -0.311 N 
ATOM      2  H   UNL d   1       0.390  -0.095   0.408  0.00  0.00     0.172 HD
ENDROOT
BRANCH   1   3
ATOM      3  S   UNL d   1       0.834   1.961   1.259  0.00  0.00     0.259 S 
ATOM      4  O   UNL d   1       0.280   2.393  -0.006  0.00  0.00    -0.201 OA
ATOM      5  O   UNL d   1       2.199   2.253   1.627  0.00  0.00    -0.201 OA
BRANCH   3   6
ATOM      6  C   UNL d   1      -0.241   2.558   2.533  0.00  0.00     0.080 A 
ATOM      7  C   UNL d   1       0.285   3.313   3.586  0.00  0.00     0.041 A 
ATOM      8  C   UNL d   1      -0.550   3.735   4.630  0.00  0.00     0.049 A 
ATOM      9  C   UNL d   1      -1.913   3.397   4.586  0.00  0.00     0.016 A 
ATOM     10  C   UNL d   1      -2.438   2.668   3.515  0.00  0.00     0.002 A 
ATOM     11  C   UNL d   1      -1.603   2.248   2.483  0.00  0.00     0.025 A 
BRANCH   8  12
ATOM     12  C   UNL d   1       0.001   4.509   5.804  0.00  0.00     0.417 C 
ATOM     13  F   UNL d   1       1.315   4.840   5.670  0.00  0.00    -0.166 F 
ATOM     14  F   UNL d   1      -0.661   5.679   6.018  0.00  0.00    -0.166 F 
ATOM     15  F   UNL d   1      -0.090   3.808   6.968  0.00  0.00    -0.166 F 
ENDBRANCH   8  12
ENDBRANCH   3   6
ENDBRANCH   1   3
BRANCH   1  16
ATOM     16  C   UNL d   1       1.127  -0.556   2.395  0.00  0.00     0.096 C 
ATOM     17  C   UNL d   1       2.632  -0.774   2.319  0.00  0.00     0.056 C 
ATOM     18  C   UNL d   1       3.031  -1.500   1.040  0.00  0.00     0.275 C 
ATOM     19  N   UNL d   1       2.317  -2.768   0.807  0.00  0.00     0.092 N 
ATOM     20  C   UNL d   1       0.867  -2.692   1.042  0.00  0.00     0.275 C 
ATOM     21  C   UNL d   1       0.460  -1.930   2.309  0.00  0.00     0.056 C 
BRANCH  19  22
ATOM     22  C   UNL d   1       2.611  -3.197  -0.585  0.00  0.00     0.311 C 
BRANCH  22  23
ATOM     23  C   UNL d   1       2.022  -4.529  -0.989  0.00  0.00    -0.030 A 
ATOM     24  C   UNL d   1       1.036  -4.598  -1.988  0.00  0.00     0.009 A 
ATOM     25  C   UNL d   1       0.497  -5.827  -2.370  0.00  0.00     0.001 A 
ATOM     26  C   UNL d   1       0.942  -6.999  -1.763  0.00  0.00     0.000 A 
ATOM     27  C   UNL d   1       1.926  -6.944  -0.776  0.00  0.00     0.001 A 
ATOM     28  C   UNL d   1       2.464  -5.716  -0.391  0.00  0.00     0.009 A 
ENDBRANCH  22  23
ENDBRANCH  19  22
ENDBRANCH   1  16
TORSDOF 6
