REMARK  8 active torsions:
REMARK  status: ('A' for Active; 'I' for Inactive)
REMARK    1  A    between atoms: S_8  and  C_3 
REMARK    2  A    between atoms: O_20  and  C_4 
REMARK    3  A    between atoms: C_13  and  S_8 
REMARK    4  A    between atoms: C_9  and  C_13 
REMARK    5  A    between atoms: C_11  and  C_9 
REMARK    6  A    between atoms: C_22  and  C_10 
REMARK    7  A    between atoms: C_19  and  C_12 
REMARK    8  A    between atoms: O_21  and  C_22 
ROOT
ATOM      1  C   UNL d   1       3.533  -2.400   0.107  0.00  0.00     0.166 C 
ENDROOT
BRANCH   1   2
ATOM      2  C   UNL d   1       4.341  -3.681   0.193  0.00  0.00     0.169 C 
ATOM      3  O   UNL d   1       5.561  -3.657   0.362  0.00  0.00    -0.291 OA
BRANCH   2   4
ATOM      4  C   UNL d   1       3.662  -5.002   0.060  0.00  0.00     0.011 A 
ATOM      5  C   UNL d   1       2.476  -5.168  -0.655  0.00  0.00     0.016 A 
ATOM      6  C   UNL d   1       1.836  -6.415  -0.672  0.00  0.00     0.013 A 
ATOM      7  C   UNL d   1       2.364  -7.530   0.007  0.00  0.00    -0.026 A 
ATOM      8  C   UNL d   1       3.592  -7.349   0.668  0.00  0.00     0.013 A 
ATOM      9  C   UNL d   1       4.232  -6.105   0.700  0.00  0.00     0.016 A 
BRANCH   7  10
ATOM     10  C   UNL d   1       1.639  -8.825   0.057  0.00  0.00    -0.026 A 
ATOM     11  C   UNL d   1       1.694  -9.648   1.198  0.00  0.00     0.012 A 
ATOM     12  C   UNL d   1       0.988 -10.854   1.271  0.00  0.00     0.001 A 
ATOM     13  C   UNL d   1       0.197 -11.263   0.203  0.00  0.00     0.000 A 
ATOM     14  C   UNL d   1       0.122 -10.472  -0.938  0.00  0.00     0.001 A 
ATOM     15  C   UNL d   1       0.840  -9.273  -1.012  0.00  0.00     0.012 A 
ENDBRANCH   7  10
ENDBRANCH   2   4
ENDBRANCH   1   2
BRANCH   1  16
ATOM     16  S   UNL d   1       2.229  -2.308   1.370  0.00  0.00    -0.086 SA
BRANCH  16  17
ATOM     17  C   UNL d   1       3.237  -2.504   2.815  0.00  0.00     0.146 A 
ATOM     18  N   UNL d   1       2.941  -3.529   3.623  0.00  0.00    -0.318 N 
ATOM     19  C   UNL d   1       3.756  -3.665   4.672  0.00  0.00     0.143 A 
ATOM     20  HN  UNL d   1       2.155  -4.156   3.451  1.00  0.00     0.170 HD
ATOM     21  C   UNL d   1       4.825  -2.866   4.961  0.00  0.00     0.083 A 
ATOM     22  C   UNL d   1       5.045  -1.843   4.066  0.00  0.00     0.039 A 
ATOM     23  N   UNL d   1       4.251  -1.643   2.987  0.00  0.00    -0.338 N 
ATOM     24  HN  UNL d   1       4.416  -0.874   2.337  1.00  0.00     0.168 HD
BRANCH  19  25
ATOM     25  O   UNL d   1       3.462  -4.724   5.470  0.00  0.00    -0.346 OA
ATOM     26  H   UNL d   1       2.687  -5.091   5.007  0.00  0.00     0.219 HD
ENDBRANCH  19  25
BRANCH  22  27
ATOM     27  C   UNL d   1       6.258  -0.956   4.210  0.00  0.00     0.224 C 
BRANCH  27  28
ATOM     28  O   UNL d   1       7.481  -1.698   4.140  0.00  0.00    -0.390 OA
ATOM     29  C   UNL d   1       7.710  -2.246   2.844  0.00  0.00     0.201 C 
ENDBRANCH  27  28
ENDBRANCH  22  27
ENDBRANCH  16  17
ENDBRANCH   1  16
TORSDOF 8
