REMARK  4 active torsions:
REMARK  status: ('A' for Active; 'I' for Inactive)
REMARK    1  A    between atoms: C_3  and  C_1 
REMARK    2  A    between atoms: C_2  and  O_4 
REMARK    3  A    between atoms: C_5  and  C_2 
REMARK    4  A    between atoms: O_4  and  C_3 
ROOT
ATOM      1  O   UNL d   1      -1.256   3.160  -0.064  0.00  0.00    -0.313 OA
ENDROOT
BRANCH   1   2
ATOM      2  C   UNL d   1      -1.140   4.492   0.135  0.00  0.00     0.293 C 
ATOM      3  O   UNL d   1      -0.136   5.097   0.470  0.00  0.00    -0.259 OA
BRANCH   2   4
ATOM      4  C   UNL d   1      -2.453   5.154  -0.088  0.00  0.00     0.039 A 
ATOM      5  C   UNL d   1      -3.455   4.575  -0.880  0.00  0.00     0.019 A 
ATOM      6  C   UNL d   1      -4.666   5.247  -1.077  0.00  0.00     0.025 A 
ATOM      7  C   UNL d   1      -4.877   6.490  -0.482  0.00  0.00     0.034 A 
ATOM      8  C   UNL d   1      -3.885   7.075   0.303  0.00  0.00     0.025 A 
ATOM      9 CL   UNL d   1      -6.370   7.310  -0.722  0.00  0.00    -0.084 Cl
ATOM     10  C   UNL d   1      -2.670   6.410   0.496  0.00  0.00     0.019 A 
ENDBRANCH   2   4
ENDBRANCH   1   2
BRANCH   1  11
ATOM     11  C   UNL d   1      -0.061   2.378   0.076  0.00  0.00     0.222 C 
BRANCH  11  12
ATOM     12  C   UNL d   1      -0.218   1.366   1.180  0.00  0.00     0.026 A 
ATOM     13  C   UNL d   1      -1.198   0.362   1.170  0.00  0.00     0.045 A 
ATOM     14 CL   UNL d   1      -2.331   0.204  -0.127  0.00  0.00    -0.084 Cl
ATOM     15  C   UNL d   1      -1.279  -0.573   2.211  0.00  0.00     0.024 A 
ATOM     16  C   UNL d   1      -0.378  -0.526   3.275  0.00  0.00     0.005 A 
ATOM     17  C   UNL d   1       0.603   0.459   3.296  0.00  0.00     0.043 A 
ATOM     18  C   UNL d   1       0.673   1.388   2.260  0.00  0.00     0.126 A 
ATOM     19  F   UNL d   1       1.644   2.312   2.307  0.00  0.00    -0.205 F 
ENDBRANCH  11  12
ENDBRANCH   1  11
TORSDOF 4
