REMARK  1 active torsions:
REMARK  status: ('A' for Active; 'I' for Inactive)
REMARK    1  A    between atoms: N_11  and  N_6 
ROOT
ATOM      1  C   UNL d   1      -1.171  -1.563   0.057  0.00  0.00     0.124 A 
ATOM      2  C   UNL d   1      -0.182  -0.386   0.027  0.00  0.00     0.274 A 
ATOM      3  C   UNL d   1      -2.498  -0.960   0.014  0.00  0.00     0.024 A 
ATOM      4  N   UNL d   1      -0.967   0.752   0.023  0.00  0.00    -0.321 N 
ATOM      5  C   UNL d   1      -2.319   0.420   0.010  0.00  0.00     0.047 A 
ATOM      6  N   UNL d   1      -0.953  -2.841   0.118  0.00  0.00    -0.318 N 
ATOM      7  HN  UNL d   1      -1.718  -3.514   0.075  1.00  0.00     0.180 HD
ATOM      8  C   UNL d   1      -3.744  -1.553   0.005  0.00  0.00     0.023 A 
ATOM      9  O   UNL d   1       1.025  -0.464  -0.034  0.00  0.00    -0.266 OA
ATOM     10  C   UNL d   1      -3.398   1.276  -0.007  0.00  0.00     0.031 A 
ATOM     11  C   UNL d   1      -4.859  -0.706  -0.006  0.00  0.00    -0.061 A 
ATOM     12  C   UNL d   1      -4.678   0.699  -0.013  0.00  0.00     0.009 A 
ATOM     13  C   UNL d   1      -6.244  -1.285   0.001  0.00  0.00     0.048 C 
ATOM     14  H   UNL d   1      -0.584   1.685  -0.001  0.00  0.00     0.169 HD
ENDROOT
BRANCH   6  15
ATOM     15  N   UNL d   1       0.327  -3.240   0.242  0.00  0.00    -0.249 NA
ATOM     16  H   UNL d   1       0.458  -4.184  -0.120  0.00  0.00     0.143 HD
ATOM     17  H   UNL d   1       1.018  -2.620  -0.193  0.00  0.00     0.143 HD
ENDBRANCH   6  15
TORSDOF 1
