REMARK  5 active torsions:
REMARK  status: ('A' for Active; 'I' for Inactive)
REMARK    1  A    between atoms: N_2  and  S_1 
REMARK    2  A    between atoms: C_3  and  S_1 
REMARK    3  A    between atoms: C_18  and  N_6 
REMARK    4  A    between atoms: C_19  and  C_18 
REMARK    5  A    between atoms: C_20  and  C_19 
ROOT
ATOM      1  N   UNL d   1       0.626  -0.486   1.191  0.00  0.00    -0.203 NA
ATOM      2  N   UNL d   1       2.311  -2.690   2.302  0.00  0.00     0.091 N 
ATOM      3  C   UNL d   1       1.619  -0.207   2.278  0.00  0.00     0.138 C 
ATOM      4  C   UNL d   1       0.139  -1.894   1.285  0.00  0.00     0.138 C 
ATOM      5  C   UNL d   1       2.749  -1.272   2.324  0.00  0.00     0.287 C 
ATOM      6  C   UNL d   1       1.321  -2.875   1.217  0.00  0.00     0.287 C 
ENDROOT
BRANCH   1   7
ATOM      7  S   UNL d   1       1.069   0.007  -0.383  0.00  0.00     0.243 S 
ATOM      8  O   UNL d   1       0.279  -0.739  -1.339  0.00  0.00    -0.206 OA
ATOM      9  O   UNL d   1       2.513   0.044  -0.480  0.00  0.00    -0.206 OA
BRANCH   7  10
ATOM     10  C   UNL d   1       0.488   1.686  -0.442  0.00  0.00     0.077 A 
ATOM     11  C   UNL d   1      -0.819   1.926  -0.877  0.00  0.00     0.064 A 
ATOM     12  C   UNL d   1      -1.225   3.235  -1.122  0.00  0.00     0.103 A 
ATOM     13  O   UNL d   1      -2.494   3.401  -1.613  0.00  0.00    -0.346 OA
ATOM     14  C   UNL d   1      -0.348   4.300  -0.892  0.00  0.00     0.102 A 
ATOM     15  C   UNL d   1      -2.634   4.680  -2.242  0.00  0.00     0.202 C 
ATOM     16  C   UNL d   1      -2.087   5.774  -1.340  0.00  0.00     0.202 C 
ATOM     17  O   UNL d   1      -0.680   5.610  -1.123  0.00  0.00    -0.346 OA
ATOM     18  C   UNL d   1       0.950   4.055  -0.442  0.00  0.00     0.041 A 
ATOM     19  C   UNL d   1       1.377   2.743  -0.225  0.00  0.00     0.028 A 
ENDBRANCH   7  10
ENDBRANCH   1   7
BRANCH   2  20
ATOM     20  C   UNL d   1       1.832  -3.131   3.626  0.00  0.00     0.277 C 
BRANCH  20  21
ATOM     21  C   UNL d   1       1.542  -4.641   3.686  0.00  0.00     0.068 C 
BRANCH  21  22
ATOM     22  C   UNL d   1       1.072  -5.089   5.047  0.00  0.00    -0.057 A 
ATOM     23  C   UNL d   1      -0.288  -5.015   5.384  0.00  0.00     0.007 A 
ATOM     24  C   UNL d   1      -0.732  -5.465   6.627  0.00  0.00     0.001 A 
ATOM     25  C   UNL d   1       0.177  -5.985   7.545  0.00  0.00     0.000 A 
ATOM     26  C   UNL d   1       1.533  -6.047   7.226  0.00  0.00     0.001 A 
ATOM     27  C   UNL d   1       1.980  -5.597   5.983  0.00  0.00     0.007 A 
ENDBRANCH  21  22
ENDBRANCH  20  21
ENDBRANCH   2  20
TORSDOF 5
