REMARK  5 active torsions:
REMARK  status: ('A' for Active; 'I' for Inactive)
REMARK    1  A    between atoms: O_9  and  N_1 
REMARK    2  A    between atoms: C_19  and  O_9 
REMARK    3  A    between atoms: C_10  and  O_15 
REMARK    4  A    between atoms: O_15  and  C_20 
REMARK    5  A    between atoms: C_21  and  C_19 
ROOT
ATOM      1  O   UNL d   1      -3.568  -0.075  -0.410  0.00  0.00    -0.263 OA
ENDROOT
BRANCH   1   2
ATOM      2  N   UNL d   1      -2.207  -0.265  -0.192  0.00  0.00    -0.153 N 
ATOM      3  C   UNL d   1      -1.266  -0.217  -1.216  0.00  0.00     0.258 C 
ATOM      4  C   UNL d   1      -0.070  -0.740  -0.502  0.00  0.00     0.129 C 
ATOM      5  O   UNL d   1      -1.383   0.018  -2.399  0.00  0.00    -0.270 OA
ATOM      6  C   UNL d   1       1.424  -0.795  -0.631  0.00  0.00     0.159 C 
ATOM      7  C   UNL d   1      -0.228  -0.016   0.837  0.00  0.00     0.129 C 
ATOM      8  C   UNL d   1       2.225   0.420  -0.245  0.00  0.00     0.004 C 
ATOM      9  O   UNL d   1       1.567  -1.508   0.675  0.00  0.00    -0.371 OA
ATOM     10  C   UNL d   1       2.070   0.597   1.081  0.00  0.00     0.004 C 
ATOM     11  C   UNL d   1       1.060  -0.429   1.528  0.00  0.00     0.159 C 
ATOM     12  C   UNL d   1      -1.672  -0.300   1.086  0.00  0.00     0.258 C 
ATOM     13  O   UNL d   1      -2.225  -0.377   2.165  0.00  0.00    -0.270 OA
ENDBRANCH   1   2
BRANCH   1  14
ATOM     14  C   UNL d   1      -4.204  -1.357  -0.479  0.00  0.00     0.240 C 
BRANCH  14  15
ATOM     15  C   UNL d   1      -5.700  -1.200  -0.603  0.00  0.00    -0.032 A 
ATOM     16  C   UNL d   1      -6.261  -0.150  -1.337  0.00  0.00     0.012 A 
ATOM     17  C   UNL d   1      -7.647  -0.035  -1.460  0.00  0.00     0.037 A 
ATOM     18  C   UNL d   1      -8.498  -0.979  -0.880  0.00  0.00     0.078 A 
ATOM     19  C   UNL d   1      -7.950  -2.018  -0.134  0.00  0.00     0.037 A 
ATOM     20  C   UNL d   1      -6.559  -2.140  -0.015  0.00  0.00     0.012 A 
BRANCH  18  21
ATOM     21  O   UNL d   1      -9.823  -0.730  -1.059  0.00  0.00    -0.255 OA
BRANCH  21  22
ATOM     22  C   UNL d   1     -10.741  -1.810  -1.136  0.00  0.00     0.530 C 
ATOM     23  F   UNL d   1     -10.169  -3.033  -1.134  0.00  0.00    -0.144 F 
ATOM     24  F   UNL d   1     -11.605  -1.734  -0.101  0.00  0.00    -0.144 F 
ATOM     25  F   UNL d   1     -11.448  -1.688  -2.283  0.00  0.00    -0.144 F 
ENDBRANCH  21  22
ENDBRANCH  18  21
ENDBRANCH  14  15
ENDBRANCH   1  14
TORSDOF 5
