REMARK  4 active torsions:
REMARK  status: ('A' for Active; 'I' for Inactive)
REMARK    1  A    between atoms: C_11  and  C_1 
REMARK    2  A    between atoms: C_14  and  N_3 
REMARK    3  A    between atoms: O_17  and  C_4 
REMARK    4  A    between atoms: C_15  and  N_5 
ROOT
ATOM      1  C   UNL d   1      -0.247  -1.349  -0.089  0.00  0.00     0.041 A 
ATOM      2  N   UNL d   1       0.875   0.499  -0.542  0.00  0.00    -0.233 N 
ATOM      3  C   UNL d   1       0.863  -0.879  -0.753  0.00  0.00     0.174 A 
ATOM      4  N   UNL d   1      -0.169   0.902   0.227  0.00  0.00    -0.295 N 
ATOM      5  HN  UNL d   1      -0.374   1.849   0.548  1.00  0.00     0.187 HD
ATOM      6  C   UNL d   1      -0.872  -0.213   0.472  0.00  0.00     0.037 A 
ATOM      7  C   UNL d   1      -2.101  -0.148   1.300  0.00  0.00     0.070 C 
ENDROOT
BRANCH   1   8
ATOM      8  C   UNL d   1      -0.493  -2.744   0.103  0.00  0.00     0.037 C 
ATOM      9  C   UNL d   1      -0.010  -3.430   1.149  0.00  0.00     0.058 A 
ATOM     10  C   UNL d   1       0.698  -2.873   2.327  0.00  0.00     0.279 A 
ATOM     11  C   UNL d   1       0.047  -4.887   1.342  0.00  0.00     0.038 A 
ATOM     12  N   UNL d   1       1.109  -4.022   3.013  0.00  0.00    -0.220 N 
ATOM     13  O   UNL d   1       0.849  -1.692   2.587  0.00  0.00    -0.265 OA
ATOM     14  N   UNL d   1       0.721  -5.220   2.411  0.00  0.00    -0.294 N 
ATOM     15  HN  UNL d   1       0.923  -6.164   2.739  1.00  0.00     0.187 HD
ATOM     16  C   UNL d   1      -0.566  -5.878   0.411  0.00  0.00     0.071 C 
BRANCH  12  17
ATOM     17  C   UNL d   1       1.809  -4.059   4.243  0.00  0.00     0.060 A 
ATOM     18  C   UNL d   1       1.960  -2.908   5.031  0.00  0.00     0.031 A 
ATOM     19  C   UNL d   1       2.637  -2.950   6.252  0.00  0.00     0.002 A 
ATOM     20  C   UNL d   1       3.191  -4.145   6.696  0.00  0.00     0.000 A 
ATOM     21  C   UNL d   1       3.063  -5.296   5.923  0.00  0.00     0.002 A 
ATOM     22  C   UNL d   1       2.370  -5.256   4.710  0.00  0.00     0.031 A 
ENDBRANCH  12  17
ENDBRANCH   1   8
BRANCH   3  23
ATOM     23  O   UNL d   1       1.832  -1.581  -1.351  0.00  0.00    -0.344 OA
ATOM     24  H   UNL d   1       2.663  -1.069  -1.291  0.00  0.00     0.219 HD
ENDBRANCH   3  23
BRANCH   2  25
ATOM     25  C   UNL d   1       1.837   1.431  -1.011  0.00  0.00     0.059 A 
ATOM     26  C   UNL d   1       2.460   1.242  -2.253  0.00  0.00     0.031 A 
ATOM     27  C   UNL d   1       3.448   2.128  -2.679  0.00  0.00     0.002 A 
ATOM     28  C   UNL d   1       3.823   3.198  -1.868  0.00  0.00     0.000 A 
ATOM     29  C   UNL d   1       3.190   3.401  -0.640  0.00  0.00     0.002 A 
ATOM     30  C   UNL d   1       2.181   2.532  -0.217  0.00  0.00     0.031 A 
ENDBRANCH   2  25
TORSDOF 4
