REMARK  5 active torsions:
REMARK  status: ('A' for Active; 'I' for Inactive)
REMARK    1  A    between atoms: C_2  and  S_1 
REMARK    2  A    between atoms: N_3  and  S_1 
REMARK    3  A    between atoms: N_8  and  N_3 
REMARK    4  A    between atoms: C_4  and  C_6 
REMARK    5  A    between atoms: C_7  and  N_8 
ROOT
ATOM      1  N   UNL d   1       1.045  -1.627  -2.007  0.00  0.00    -0.276 N 
ATOM      2  H   UNL d   1       1.967  -1.226  -2.183  0.00  0.00     0.189 HD
ENDROOT
BRANCH   1   3
ATOM      3  C   UNL d   1       0.649  -2.535  -2.984  0.00  0.00     0.121 A 
ATOM      4  N   UNL d   1       1.512  -2.748  -3.999  0.00  0.00    -0.345 N 
ATOM      5  C   UNL d   1       1.177  -3.623  -4.977  0.00  0.00     0.007 A 
ATOM      6  HN  UNL d   1       2.406  -2.257  -4.029  1.00  0.00     0.167 HD
ATOM      7  C   UNL d   1       2.171  -3.834  -6.080  0.00  0.00     0.068 C 
ATOM      8  C   UNL d   1      -0.028  -4.312  -4.978  0.00  0.00     0.041 A 
ATOM      9  C   UNL d   1      -0.927  -4.095  -3.931  0.00  0.00     0.053 A 
ATOM     10  C   UNL d   1      -0.570  -3.194  -2.921  0.00  0.00     0.066 A 
BRANCH   9  11
ATOM     11  C   UNL d   1      -2.249  -4.809  -3.893  0.00  0.00     0.417 C 
ATOM     12  F   UNL d   1      -3.002  -4.491  -2.803  0.00  0.00    -0.166 F 
ATOM     13  F   UNL d   1      -3.023  -4.528  -4.976  0.00  0.00    -0.166 F 
ATOM     14  F   UNL d   1      -2.111  -6.162  -3.868  0.00  0.00    -0.166 F 
ENDBRANCH   9  11
ENDBRANCH   1   3
BRANCH   1  15
ATOM     15  N   UNL d   1       0.322  -1.192  -0.817  0.00  0.00    -0.221 N 
ATOM     16  H   UNL d   1      -0.631  -1.493  -0.620  0.00  0.00     0.200 HD
BRANCH  15  17
ATOM     17  S   UNL d   1       1.015   0.003   0.164  0.00  0.00     0.277 S 
ATOM     18  O   UNL d   1       2.267  -0.536   0.649  0.00  0.00    -0.199 OA
ATOM     19  O   UNL d   1       0.983   1.263  -0.545  0.00  0.00    -0.199 OA
BRANCH  17  20
ATOM     20  C   UNL d   1      -0.088   0.138   1.546  0.00  0.00     0.102 A 
ATOM     21  C   UNL d   1      -1.412   0.564   1.404  0.00  0.00     0.059 A 
ATOM     22  C   UNL d   1      -2.190   0.797   2.546  0.00  0.00     0.049 A 
ATOM     23 CL   UNL d   1      -2.187   0.775  -0.123  0.00  0.00    -0.083 Cl
ATOM     24  C   UNL d   1      -1.655   0.581   3.815  0.00  0.00     0.035 A 
ATOM     25  C   UNL d   1      -0.350   0.121   3.960  0.00  0.00     0.025 A 
ATOM     26 CL   UNL d   1      -2.610   0.887   5.213  0.00  0.00    -0.084 Cl
ATOM     27  C   UNL d   1       0.438  -0.095   2.828  0.00  0.00     0.029 A 
ENDBRANCH  17  20
ENDBRANCH  15  17
ENDBRANCH   1  15
TORSDOF 5
