REMARK  4 active torsions:
REMARK  status: ('A' for Active; 'I' for Inactive)
REMARK    1  A    between atoms: N_7  and  C_1 
REMARK       I    between atoms: C_4  and  N_9 
REMARK    2  A    between atoms: C_6  and  C_4 
REMARK    3  A    between atoms: O_24  and  C_12 
REMARK    4  A    between atoms: O_25  and  C_13 
ROOT
ATOM      1  C   UNL d   1      -8.405   1.545   0.465  0.00  0.00     0.259 C 
ATOM      2  N   UNL d   1      -4.514   0.154   0.091  0.00  0.00    -0.360 N 
ATOM      3  N   UNL d   1      -7.026   1.714   0.716  0.00  0.00    -0.346 N 
ATOM      4  O   UNL d   1      -8.850   1.577  -0.686  0.00  0.00    -0.267 OA
ATOM      5  C   UNL d   1      -5.327   0.786  -0.954  0.00  0.00     0.145 C 
ATOM      6  C   UNL d   1      -6.129   1.996  -0.428  0.00  0.00     0.146 C 
ATOM      7  C   UNL d   1      -5.501   0.456   2.320  0.00  0.00     0.040 C 
ATOM      8  C   UNL d   1      -5.260  -0.498   1.160  0.00  0.00     0.126 C 
ATOM      9  C   UNL d   1      -6.376   1.688   2.025  0.00  0.00     0.127 C 
ENDROOT
BRANCH   1  10
ATOM     10  C   UNL d   1      -9.396   1.309   1.573  0.00  0.00     0.098 A 
ATOM     11  C   UNL d   1     -10.550   2.131   1.679  0.00  0.00     0.086 A 
ATOM     12  C   UNL d   1     -11.520   1.840   2.656  0.00  0.00     0.038 A 
ATOM     13  C   UNL d   1     -11.341   0.789   3.545  0.00  0.00     0.005 A 
ATOM     14  C   UNL d   1     -10.221  -0.023   3.440  0.00  0.00     0.038 A 
ATOM     15  C   UNL d   1      -9.271   0.193   2.430  0.00  0.00     0.086 A 
BRANCH  11  16
ATOM     16  O   UNL d   1     -10.681   3.187   0.811  0.00  0.00    -0.355 OA
ATOM     17  C   UNL d   1     -11.807   4.050   0.992  0.00  0.00     0.210 C 
ENDBRANCH  11  16
BRANCH  15  18
ATOM     18  O   UNL d   1      -8.227  -0.663   2.209  0.00  0.00    -0.355 OA
ATOM     19  C   UNL d   1      -8.146  -1.840   3.003  0.00  0.00     0.210 C 
ENDBRANCH  15  18
ENDBRANCH   1  10
BRANCH   2  20
ATOM     20  C   UNL d   1      -3.146   0.223   0.066  0.00  0.00     0.147 A 
ATOM     21  N   UNL d   1      -2.458   0.856  -0.863  0.00  0.00    -0.336 N 
ATOM     22  C   UNL d   1      -1.089   0.739  -0.654  0.00  0.00     0.051 A 
ATOM     23  HN  UNL d   1      -2.878   1.368  -1.639  1.00  0.00     0.168 HD
ATOM     24  C   UNL d   1      -0.074   1.280  -1.466  0.00  0.00     0.032 A 
ATOM     25  C   UNL d   1      -0.721   0.009   0.476  0.00  0.00     0.036 A 
ATOM     26  C   UNL d   1       1.271   1.083  -1.126  0.00  0.00     0.026 A 
ATOM     27  C   UNL d   1       1.605   0.356   0.010  0.00  0.00     0.035 A 
ATOM     28  C   UNL d   1       0.623  -0.197   0.831  0.00  0.00     0.045 A 
ATOM     29 CL   UNL d   1       3.265   0.128   0.414  0.00  0.00    -0.084 Cl
ATOM     30  S   UNL d   1      -2.138  -0.533   1.267  0.00  0.00    -0.052 SA
ENDBRANCH   2  20
TORSDOF 4
