REMARK  6 active torsions:
REMARK  status: ('A' for Active; 'I' for Inactive)
REMARK    1  A    between atoms: N_3  and  S_1 
REMARK    2  A    between atoms: C_6  and  S_1 
REMARK    3  A    between atoms: C_11  and  N_3 
REMARK    4  A    between atoms: C_4  and  O_10 
REMARK    5  A    between atoms: O_10  and  C_16 
REMARK    6  A    between atoms: C_13  and  C_11 
ROOT
ATOM      1  C   UNL d   1      -0.444   6.030  -5.269  0.00  0.00     0.100 A 
ATOM      2  C   UNL d   1      -0.217   5.372  -4.053  0.00  0.00     0.098 A 
ATOM      3  C   UNL d   1      -1.627   5.745  -6.026  0.00  0.00     0.104 C 
ATOM      4  N   UNL d   1      -2.595   5.515  -6.626  0.00  0.00    -0.191 NA
ATOM      5  C   UNL d   1       0.504   6.958  -5.721  0.00  0.00     0.057 A 
ATOM      6 CL   UNL d   1       0.319   7.804  -7.218  0.00  0.00    -0.083 Cl
ATOM      7  C   UNL d   1       0.894   5.710  -3.263  0.00  0.00     0.039 A 
ATOM      8  C   UNL d   1       1.843   6.612  -3.733  0.00  0.00     0.005 A 
ATOM      9  C   UNL d   1       1.652   7.229  -4.967  0.00  0.00     0.025 A 
ENDROOT
BRANCH   2  10
ATOM     10  O   UNL d   1      -1.130   4.408  -3.663  0.00  0.00    -0.309 OA
BRANCH  10  11
ATOM     11  C   UNL d   1      -0.650   3.303  -2.999  0.00  0.00     0.076 C 
ATOM     12  C   UNL d   1      -1.444   2.795  -1.971  0.00  0.00     0.039 C 
ATOM     13  C   UNL d   1      -0.968   1.757  -1.171  0.00  0.00     0.028 C 
ATOM     14  C   UNL d   1       0.312   1.250  -1.395  0.00  0.00     0.079 C 
ATOM     15  C   UNL d   1       1.067   1.694  -2.482  0.00  0.00     0.028 C 
ATOM     16  C   UNL d   1       0.570   2.694  -3.308  0.00  0.00     0.039 C 
BRANCH  14  17
ATOM     17  S   UNL d   1       1.038   0.002  -0.365  0.00  0.00     0.259 S 
ATOM     18  O   UNL d   1       0.457  -1.246  -0.801  0.00  0.00    -0.201 OA
ATOM     19  O   UNL d   1       2.470   0.230  -0.426  0.00  0.00    -0.201 OA
BRANCH  17  20
ATOM     20  N   UNL d   1       0.639   0.382   1.216  0.00  0.00    -0.310 N 
ATOM     21  H   UNL d   1       1.163   1.207   1.514  0.00  0.00     0.172 HD
BRANCH  20  22
ATOM     22  C   UNL d   1      -0.618   0.109   1.945  0.00  0.00     0.096 C 
ATOM     23  C   UNL d   1      -0.630   1.119   3.120  0.00  0.00     0.033 C 
BRANCH  22  24
ATOM     24  C   UNL d   1      -0.766  -1.371   2.456  0.00  0.00    -0.031 C 
ATOM     25  C   UNL d   1       0.423  -1.800   3.335  0.00  0.00     0.016 C 
ATOM     26  C   UNL d   1      -2.071  -1.516   3.278  0.00  0.00     0.016 C 
ATOM     27  C   UNL d   1      -0.903  -2.383   1.304  0.00  0.00     0.016 C 
ENDBRANCH  22  24
ENDBRANCH  20  22
ENDBRANCH  17  20
ENDBRANCH  14  17
ENDBRANCH  10  11
ENDBRANCH   2  10
TORSDOF 6
