REMARK  5 active torsions:
REMARK  status: ('A' for Active; 'I' for Inactive)
REMARK    1  A    between atoms: S_4  and  C_1 
REMARK    2  A    between atoms: C_3  and  C_2 
REMARK       I    between atoms: N_6  and  C_3 
REMARK    3  A    between atoms: C_12  and  S_4 
REMARK    4  A    between atoms: C_11  and  N_6 
REMARK    5  A    between atoms: C_7  and  C_11 
ROOT
ATOM      1  C   UNL d   1      -0.260   1.222  -0.859  0.00  0.00     0.090 A 
ATOM      2  C   UNL d   1       0.510   1.341   0.300  0.00  0.00     0.065 A 
ATOM      3  N   UNL d   1      -0.580   0.006  -1.379  0.00  0.00    -0.359 N 
ATOM      4  HN  UNL d   1      -1.184  -0.071  -2.197  1.00  0.00     0.166 HD
ATOM      5  C   UNL d   1       1.046   0.181   0.874  0.00  0.00     0.021 A 
ATOM      6  C   UNL d   1      -0.078  -1.097  -0.783  0.00  0.00     0.089 A 
ATOM      7  C   UNL d   1       0.748  -1.060   0.324  0.00  0.00     0.018 A 
ENDROOT
BRANCH   2   8
ATOM      8  C   UNL d   1       0.719   2.607   1.031  0.00  0.00     0.254 C 
ATOM      9  N   UNL d   1      -0.441   3.247   1.402  0.00  0.00    -0.352 N 
ATOM     10  H   UNL d   1      -1.308   2.940   0.978  0.00  0.00     0.163 HD
ATOM     11  O   UNL d   1       1.845   2.970   1.343  0.00  0.00    -0.268 OA
BRANCH   9  12
ATOM     12  C   UNL d   1      -0.473   4.521   2.079  0.00  0.00     0.163 C 
BRANCH  12  13
ATOM     13  C   UNL d   1      -1.712   4.705   2.934  0.00  0.00    -0.019 A 
ATOM     14  C   UNL d   1      -3.018   4.357   2.534  0.00  0.00     0.043 A 
ATOM     15  C   UNL d   1      -4.112   4.556   3.383  0.00  0.00     0.048 A 
ATOM     16 CL   UNL d   1      -3.376   3.685   0.981  0.00  0.00    -0.084 Cl
ATOM     17  C   UNL d   1      -3.925   5.145   4.626  0.00  0.00     0.035 A 
ATOM     18  C   UNL d   1      -2.655   5.539   5.032  0.00  0.00     0.024 A 
ATOM     19 CL   UNL d   1      -5.275   5.400   5.662  0.00  0.00    -0.084 Cl
ATOM     20  C   UNL d   1      -1.558   5.319   4.192  0.00  0.00     0.012 A 
ENDBRANCH  12  13
ENDBRANCH   9  12
ENDBRANCH   2   8
BRANCH   1  21
ATOM     21  S   UNL d   1      -0.948   2.625  -1.727  0.00  0.00    -0.072 SA
BRANCH  21  22
ATOM     22  C   UNL d   1      -0.211   2.522  -3.351  0.00  0.00     0.008 A 
ATOM     23  C   UNL d   1       0.395   3.663  -3.889  0.00  0.00     0.042 A 
ATOM     24  C   UNL d   1       0.934   3.630  -5.176  0.00  0.00     0.035 A 
ATOM     25 CL   UNL d   1       1.661   5.044  -5.836  0.00  0.00    -0.084 Cl
ATOM     26  C   UNL d   1       0.879   2.466  -5.941  0.00  0.00     0.024 A 
ATOM     27  C   UNL d   1       0.265   1.331  -5.419  0.00  0.00     0.003 A 
ATOM     28  C   UNL d   1      -0.290   1.367  -4.137  0.00  0.00     0.019 A 
ENDBRANCH  21  22
ENDBRANCH   1  21
TORSDOF 5
