REMARK  4 active torsions:
REMARK  status: ('A' for Active; 'I' for Inactive)
REMARK    1  A    between atoms: N_4  and  S_1 
REMARK       I    between atoms: C_2  and  N_4 
REMARK       I    between atoms: N_9  and  C_2 
REMARK    2  A    between atoms: C_6  and  O_12 
REMARK    3  A    between atoms: C_18  and  N_9 
REMARK    4  A    between atoms: O_12  and  C_19 
ROOT
ATOM      1  C   UNL d   1       3.969   0.462  -1.938  0.00  0.00     0.330 C 
ATOM      2  N   UNL d   1       2.716   0.565  -1.471  0.00  0.00    -0.292 N 
ATOM      3  HN  UNL d   1       1.956   0.543  -2.150  1.00  0.00     0.178 HD
ATOM      4  N   UNL d   1       5.011   0.592  -1.026  0.00  0.00    -0.308 N 
ATOM      5  O   UNL d   1       4.176   0.234  -3.134  0.00  0.00    -0.246 OA
ATOM      6  H   UNL d   1       4.692   0.676  -0.069  0.00  0.00     0.170 HD
ENDROOT
BRANCH   2   7
ATOM      7  S   UNL d   1       2.348   0.710  -0.011  0.00  0.00    -0.118 SA
ATOM      8  C   UNL d   1       0.634   1.386  -0.339  0.00  0.00     0.153 C 
ATOM      9  C   UNL d   1      -0.395   0.246  -0.290  0.00  0.00     0.173 C 
ATOM     10  O   UNL d   1      -1.028   0.165   1.009  0.00  0.00    -0.352 OA
ATOM     11  O   UNL d   1      -1.419   0.435  -1.292  0.00  0.00    -0.352 OA
ATOM     12  C   UNL d   1       0.344  -1.059  -0.561  0.00  0.00     0.080 C 
ATOM     13  C   UNL d   1      -2.397   0.484   0.770  0.00  0.00     0.197 C 
ATOM     14  C   UNL d   1      -2.623   0.043  -0.648  0.00  0.00     0.197 C 
ATOM     15  C   UNL d   1       1.649  -0.978   0.210  0.00  0.00     0.090 C 
ENDBRANCH   2   7
BRANCH   4  16
ATOM     16  C   UNL d   1       6.388   0.446  -1.277  0.00  0.00     0.036 A 
ATOM     17  C   UNL d   1       6.946   0.456  -2.558  0.00  0.00     0.032 A 
ATOM     18  C   UNL d   1       8.307   0.203  -2.768  0.00  0.00     0.039 A 
ATOM     19  C   UNL d   1       9.148  -0.031  -1.684  0.00  0.00     0.078 A 
ATOM     20  C   UNL d   1       8.607   0.005  -0.395  0.00  0.00     0.039 A 
ATOM     21  C   UNL d   1       7.243   0.257  -0.191  0.00  0.00     0.032 A 
BRANCH  19  22
ATOM     22  O   UNL d   1      10.490  -0.282  -1.729  0.00  0.00    -0.255 OA
BRANCH  22  23
ATOM     23  C   UNL d   1      11.140  -0.304  -2.986  0.00  0.00     0.530 C 
ATOM     24  F   UNL d   1      10.843   0.773  -3.745  0.00  0.00    -0.144 F 
ATOM     25  F   UNL d   1      12.478  -0.286  -2.769  0.00  0.00    -0.144 F 
ATOM     26  F   UNL d   1      10.850  -1.433  -3.667  0.00  0.00    -0.144 F 
ENDBRANCH  22  23
ENDBRANCH  19  22
ENDBRANCH   4  16
TORSDOF 4
