REMARK  4 active torsions:
REMARK  status: ('A' for Active; 'I' for Inactive)
REMARK    1  A    between atoms: C_3  and  C_1 
REMARK    2  A    between atoms: C_10  and  C_2 
REMARK    3  A    between atoms: C_9  and  C_15 
REMARK       I    between atoms: N_16  and  C_10 
REMARK       I    between atoms: C_15  and  N_17 
REMARK    4  A    between atoms: N_17  and  N_16 
ROOT
ATOM      1  C   UNL d   1       0.336  -2.726   0.024  0.00  0.00     0.275 C 
ATOM      2  N   UNL d   1       1.530  -3.081   0.619  0.00  0.00    -0.263 N 
ATOM      3  O   UNL d   1      -0.410  -3.566  -0.473  0.00  0.00    -0.266 OA
ATOM      4  H   UNL d   1       2.052  -2.452   1.228  0.00  0.00     0.190 HD
ENDROOT
BRANCH   1   5
ATOM      5  C   UNL d   1       0.030  -1.307   0.033  0.00  0.00     0.094 C 
ATOM      6  C   UNL d   1      -1.234  -0.729   0.075  0.00  0.00     0.131 C 
ATOM      7  O   UNL d   1      -1.100   0.608  -0.169  0.00  0.00    -0.236 OA
ATOM      8  N   UNL d   1       0.225   0.955  -0.226  0.00  0.00    -0.264 N 
ATOM      9  C   UNL d   1       0.909  -0.184  -0.104  0.00  0.00     0.047 C 
ATOM     10  HN  UNL d   1       0.609   1.893  -0.338  1.00  0.00     0.194 HD
ATOM     11  C   UNL d   1       2.390  -0.106  -0.165  0.00  0.00     0.071 C 
BRANCH   6  12
ATOM     12  C   UNL d   1      -2.571  -1.321   0.350  0.00  0.00     0.056 A 
ATOM     13  C   UNL d   1      -2.894  -2.384   1.164  0.00  0.00     0.087 A 
ATOM     14  O   UNL d   1      -4.246  -2.555   1.150  0.00  0.00    -0.242 OA
ATOM     15  C   UNL d   1      -2.188  -3.265   2.112  0.00  0.00     0.080 C 
ATOM     16  N   UNL d   1      -4.836  -1.571   0.388  0.00  0.00    -0.265 N 
ATOM     17  C   UNL d   1      -3.834  -0.803  -0.055  0.00  0.00     0.044 A 
ATOM     18  HN  UNL d   1      -5.832  -1.453   0.200  1.00  0.00     0.194 HD
ATOM     19  C   UNL d   1      -4.149   0.396  -0.869  0.00  0.00     0.071 C 
ENDBRANCH   6  12
ENDBRANCH   1   5
BRANCH   2  20
ATOM     20  N   UNL d   1       1.868  -4.442   0.748  0.00  0.00    -0.263 N 
ATOM     21  C   UNL d   1       2.788  -4.765   1.731  0.00  0.00     0.274 C 
ATOM     22  O   UNL d   1       3.282  -3.877   2.423  0.00  0.00    -0.266 OA
ATOM     23  H   UNL d   1       1.293  -5.121   0.246  0.00  0.00     0.190 HD
BRANCH  21  24
ATOM     24  C   UNL d   1       3.134  -6.197   1.933  0.00  0.00     0.093 A 
ATOM     25  C   UNL d   1       2.205  -7.193   1.611  0.00  0.00     0.133 A 
ATOM     26  F   UNL d   1       1.019  -6.875   1.069  0.00  0.00    -0.205 F 
ATOM     27  C   UNL d   1       2.467  -8.543   1.843  0.00  0.00     0.043 A 
ATOM     28  C   UNL d   1       3.675  -8.930   2.415  0.00  0.00     0.005 A 
ATOM     29  C   UNL d   1       4.622  -7.958   2.728  0.00  0.00     0.025 A 
ATOM     30  C   UNL d   1       4.362  -6.598   2.487  0.00  0.00     0.052 A 
ATOM     31 CL   UNL d   1       5.656  -5.511   2.855  0.00  0.00    -0.083 Cl
ENDBRANCH  21  24
ENDBRANCH   2  20
TORSDOF 4
