REMARK  4 active torsions:
REMARK  status: ('A' for Active; 'I' for Inactive)
REMARK    1  A    between atoms: C_2  and  S_1 
REMARK    2  A    between atoms: O_9  and  S_1 
REMARK    3  A    between atoms: S_16  and  C_15 
REMARK    4  A    between atoms: N_20  and  S_16 
ROOT
ATOM      1  C   UNL d   2       3.030  -0.837  -1.502  0.00  0.00     0.012 A 
ATOM      2  C   UNL d   2       3.143  -2.097  -2.171  0.00  0.00     0.026 A 
ATOM      3  S   UNL d   2       0.729  -1.338  -2.568  0.00  0.00    -0.112 SA
ATOM      4  C   UNL d   2       1.761  -0.328  -1.644  0.00  0.00     0.068 A 
ATOM      5  C   UNL d   2       1.966  -2.499  -2.763  0.00  0.00     0.051 A 
ENDROOT
BRANCH   1   6
ATOM      6  S   UNL d   2       4.282  -0.204  -0.466  0.00  0.00    -0.105 SA
ATOM      7  C   UNL d   2       4.273   1.567  -0.778  0.00  0.00     0.102 C 
BRANCH   6   8
ATOM      8  N   UNL d   2       5.444  -0.592  -1.347  0.00  0.00    -0.197 NA
ATOM      9  H   UNL d   2       5.231  -0.397  -2.336  0.00  0.00     0.155 HD
ENDBRANCH   6   8
ENDBRANCH   1   6
TORSDOF 4
