REMARK  3 active torsions:
REMARK  status: ('A' for Active; 'I' for Inactive)
REMARK    1  A    between atoms: C_2  and  N_1 
REMARK    2  A    between atoms: C_5  and  O_8 
REMARK    3  A    between atoms: O_8  and  C_7 
ROOT
ATOM      1  C   UNL d   1       0.434   0.640  -1.223  0.00  0.00     0.118 A 
ATOM      2  N   UNL d   1      -0.721   1.431  -3.185  0.00  0.00    -0.344 N 
ATOM      3  HN  UNL d   1      -1.065   1.278  -4.133  1.00  0.00     0.167 HD
ATOM      4  C   UNL d   1      -0.955   2.591  -2.523  0.00  0.00     0.148 A 
ATOM      5  C   UNL d   1      -0.008   0.484  -2.528  0.00  0.00     0.126 A 
ATOM      6  C   UNL d   1       0.123   1.816  -0.536  0.00  0.00     0.041 A 
ATOM      7  C   UNL d   1      -0.591   2.812  -1.201  0.00  0.00     0.059 A 
ENDROOT
BRANCH   4   8
ATOM      8  O   UNL d   1      -1.602   3.631  -3.175  0.00  0.00    -0.291 OA
BRANCH   8   9
ATOM      9  C   UNL d   1      -1.405   3.734  -4.534  0.00  0.00     0.116 A 
ATOM     10  C   UNL d   1      -0.158   3.591  -5.155  0.00  0.00     0.153 A 
ATOM     11  C   UNL d   1      -0.029   3.711  -6.534  0.00  0.00     0.087 A 
ATOM     12  F   UNL d   1       0.951   3.364  -4.433  0.00  0.00    -0.203 F 
ATOM     13  C   UNL d   1      -1.152   4.021  -7.288  0.00  0.00     0.119 A 
ATOM     14  C   UNL d   1      -2.393   4.217  -6.687  0.00  0.00     0.045 A 
ATOM     15  F   UNL d   1      -1.038   4.150  -8.616  0.00  0.00    -0.206 F 
ATOM     16  C   UNL d   1      -2.522   4.075  -5.303  0.00  0.00     0.043 A 
ENDBRANCH   8   9
ENDBRANCH   4   8
BRANCH   1  17
ATOM     17  N   UNL d   1       1.224  -0.412  -0.598  0.00  0.00    -0.114 N 
ATOM     18  O   UNL d   1       1.496  -1.410  -1.277  0.00  0.00    -0.532 OA
ATOM     19  O   UNL d   1       1.577  -0.240   0.578  0.00  0.00    -0.532 OA
ENDBRANCH   1  17
TORSDOF 3
