REMARK  4 active torsions:
REMARK  status: ('A' for Active; 'I' for Inactive)
REMARK    1  A    between atoms: S_19  and  C_9 
REMARK    2  A    between atoms: C_18  and  C_21 
REMARK    3  A    between atoms: C_20  and  C_18 
REMARK    4  A    between atoms: C_21  and  S_19 
ROOT
ATOM      1  S   UNL d   1       0.413   2.393   0.041  0.00  0.00     0.268 S 
ATOM      2  C   UNL d   1       1.286   0.894   0.037  0.00  0.00     0.123 A 
ATOM      3  N   UNL d   1      -1.235   1.991  -0.053  0.00  0.00    -0.275 N 
ATOM      4  C   UNL d   1      -1.666   0.650  -0.015  0.00  0.00     0.064 A 
ATOM      5  C   UNL d   1       0.658  -0.320   0.065  0.00  0.00     0.078 A 
ATOM      6  C   UNL d   1      -0.796  -0.421   0.035  0.00  0.00     0.060 A 
ATOM      7  N   UNL d   1       1.342  -1.482   0.150  0.00  0.00    -0.334 N 
ATOM      8  HN  UNL d   1       0.860  -2.381   0.176  1.00  0.00     0.168 HD
ATOM      9  C   UNL d   1       2.680  -1.406   0.198  0.00  0.00     0.145 A 
ATOM     10  S   UNL d   1      -1.619  -1.920   0.057  0.00  0.00    -0.097 SA
ATOM     11  C   UNL d   1       2.656   0.885   0.062  0.00  0.00     0.118 A 
ATOM     12  O   UNL d   1       0.641   2.995   1.337  0.00  0.00    -0.200 OA
ATOM     13  O   UNL d   1       0.766   3.087  -1.180  0.00  0.00    -0.200 OA
ATOM     14  C   UNL d   1      -3.027   0.218  -0.024  0.00  0.00     0.039 A 
ATOM     15  N   UNL d   1       3.373  -0.256   0.146  0.00  0.00    -0.345 N 
ATOM     16  HN  UNL d   1       4.393  -0.246   0.168  1.00  0.00     0.167 HD
ATOM     17  C   UNL d   1      -3.143  -1.155   0.011  0.00  0.00     0.053 A 
ATOM     18  C   UNL d   1      -2.174   3.124  -0.021  0.00  0.00     0.170 C 
ENDROOT
BRANCH   9  19
ATOM     19  S   UNL d   1       3.598  -2.901   0.457  0.00  0.00    -0.086 SA
BRANCH  19  20
ATOM     20  C   UNL d   1       2.236  -4.105   0.415  0.00  0.00     0.166 C 
BRANCH  20  21
ATOM     21  C   UNL d   1       2.767  -5.495   0.690  0.00  0.00     0.169 C 
ATOM     22  O   UNL d   1       3.107  -6.236  -0.236  0.00  0.00    -0.291 OA
BRANCH  21  23
ATOM     23  C   UNL d   1       2.886  -5.996   2.098  0.00  0.00     0.011 A 
ATOM     24  C   UNL d   1       2.527  -5.234   3.219  0.00  0.00     0.017 A 
ATOM     25  C   UNL d   1       2.697  -5.753   4.509  0.00  0.00     0.025 A 
ATOM     26  C   UNL d   1       3.227  -7.030   4.685  0.00  0.00     0.034 A 
ATOM     27  C   UNL d   1       3.571  -7.805   3.582  0.00  0.00     0.025 A 
ATOM     28 CL   UNL d   1       3.470  -7.645   6.273  0.00  0.00    -0.084 Cl
ATOM     29  C   UNL d   1       3.398  -7.290   2.293  0.00  0.00     0.017 A 
ENDBRANCH  21  23
ENDBRANCH  20  21
ENDBRANCH  19  20
ENDBRANCH   9  19
TORSDOF 4
