REMARK WARNING: 32 MAX_TORS EXCEEDED!!!
REMARK  36 active torsions:
REMARK  status: ('A' for Active; 'I' for Inactive)
REMARK    1  A    between atoms: N_2  and  S_1 
REMARK    2  A    between atoms: C_3  and  S_1 
REMARK       I    between atoms: C_6  and  N_2 
REMARK       I    between atoms: N_18  and  C_6 
REMARK    3  A    between atoms: C_7  and  C_14 
REMARK       I    between atoms: N_92  and  C_7 
REMARK       I    between atoms: C_80  and  N_9 
REMARK    4  A    between atoms: N_9  and  C_14 
REMARK    5  A    between atoms: O_19  and  C_10 
REMARK    6  A    between atoms: C_14  and  C_23 
REMARK    7  A    between atoms: C_24  and  N_18 
REMARK    8  A    between atoms: C_23  and  C_26 
REMARK    9  A    between atoms: C_26  and  C_24 
REMARK   10  A    between atoms: C_31  and  C_32 
REMARK   11  A    between atoms: N_33  and  C_31 
REMARK   12  A    between atoms: C_38  and  C_31 
REMARK       I    between atoms: C_32  and  N_81 
REMARK       I    between atoms: C_34  and  N_33 
REMARK   13  A    between atoms: C_39  and  C_34 
REMARK       I    between atoms: C_35  and  N_36 
REMARK   14  A    between atoms: C_40  and  C_35 
REMARK   15  A    between atoms: N_36  and  C_39 
REMARK       I    between atoms: C17_68  and  N_37 
REMARK   16  A    between atoms: N_37  and  C_40 
REMARK   17  A    between atoms: O_41  and  C_38 
REMARK   18  A    between atoms: C_50  and  C_39 
REMARK   19  A    between atoms: C_47  and  O_41 
REMARK   20  A    between atoms: C_42  and  C_51 
REMARK   21  A    between atoms: O_46  and  C_42 
REMARK   22  A    between atoms: C_49  and  O_46 
REMARK   23  A    between atoms: C_51  and  C_50 
REMARK   24  A    between atoms: C5_63  and  C25_69 
REMARK   25  A    between atoms: O5_70  and  C17_68 
REMARK   26  A    between atoms: C25_69  and  O5_70 
REMARK   27  A    between atoms: CA_82  and  C_80 
REMARK   28  A    between atoms: N_81  and  CA_82 
REMARK   29  A    between atoms: CB_86  and  CA_82 
REMARK   30  A    between atoms: CD_83  and  CG_87 
REMARK       I    between atoms: NE2_88  and  CD_83 
REMARK   31  A    between atoms: CG_87  and  CB_86 
REMARK   32  A    between atoms: CA_93  and  N_92 
REMARK   33  A    between atoms: C_94  and  CA_93 
REMARK   34  A    between atoms: CB_95  and  CA_93 
REMARK   35  A    between atoms: OXT_97  and  C_94 
REMARK   36  A    between atoms: CG_98  and  CB_95 
ROOT
ATOM      1  CA  GLN d   2      -4.800  14.231  -2.284  0.00  0.00     0.177 C 
ENDROOT
BRANCH   1   2
ATOM      2  N   GLN d   2      -3.660  14.705  -1.489  0.00  0.00    -0.346 N 
ATOM      3  C   UNK d   1      -2.405  14.142  -1.526  0.00  0.00     0.243 C 
ATOM      4  O   UNK d   1      -2.181  13.125  -2.180  0.00  0.00    -0.271 OA
ATOM      5  H   GLN d   2      -3.784  15.530  -0.921  0.00  0.00     0.163 HD
BRANCH   3   6
ATOM      6  C   UNK d   1      -1.323  14.823  -0.629  0.00  0.00     0.205 C 
BRANCH   6   7
ATOM      7  N   UNK d   1      -1.764  16.144  -0.082  0.00  0.00    -0.344 N 
ATOM      8  C   UNK d   1      -1.605  17.321  -0.813  0.00  0.00     0.241 C 
ATOM      9  O   UNK d   1      -1.137  17.304  -1.948  0.00  0.00    -0.271 OA
ATOM     10  H   UNK d   1      -2.264  16.159   0.798  0.00  0.00     0.163 HD
BRANCH   8  11
ATOM     11  C   UNK d   1      -1.986  18.645  -0.073  0.00  0.00     0.177 C 
BRANCH  11  12
ATOM     12  N   UNK d   1      -0.782  19.307   0.498  0.00  0.00    -0.346 N 
ATOM     13  C   UNK d   1       0.052  20.163  -0.210  0.00  0.00     0.240 C 
ATOM     14  O   UNK d   1      -0.135  20.457  -1.389  0.00  0.00    -0.271 OA
ATOM     15  H   UNK d   1      -0.442  18.939   1.375  0.00  0.00     0.163 HD
BRANCH  13  16
ATOM     16  C   UNK d   1       1.128  20.933   0.591  0.00  0.00     0.174 C 
ATOM     17  C   UNK d   1       1.713  20.189   1.780  0.00  0.00     0.042 C 
BRANCH  16  18
ATOM     18  N   UNK d   1       0.584  22.231   0.984  0.00  0.00    -0.324 N 
ATOM     19  C17 <1> d   1       0.972  23.401   0.397  0.00  0.00     0.361 C 
ATOM     20  O11 <1> d   1       1.892  23.519  -0.396  0.00  0.00    -0.239 OA
ATOM     21  H   UNK d   1      -0.242  22.286   1.563  0.00  0.00     0.165 HD
BRANCH  19  22
ATOM     22  O5  <1> d   1       0.220  24.422   0.884  0.00  0.00    -0.303 OA
BRANCH  22  23
ATOM     23  C25 <1> d   1       0.726  25.756   0.653  0.00  0.00     0.194 C 
BRANCH  23  24
ATOM     24  C5  <1> d   1      -0.310  26.689   0.003  0.00  0.00     0.078 A 
ATOM     25  C8  <1> d   1       0.292  28.085  -0.185  0.00  0.00    -0.036 A 
ATOM     26  C6  <1> d   1      -0.390  29.027   0.616  0.00  0.00    -0.018 A 
ATOM     27  C41 <1> d   1       1.369  28.461  -0.974  0.00  0.00     0.009 A 
ATOM     28  C40 <1> d   1       0.027  30.348   0.661  0.00  0.00     0.013 A 
ATOM     29  C7  <1> d   1      -1.492  28.367   1.278  0.00  0.00    -0.018 A 
ATOM     30  C61 <1> d   1       1.127  30.727  -0.114  0.00  0.00     0.001 A 
ATOM     31  C62 <1> d   1       1.785  29.794  -0.932  0.00  0.00     0.001 A 
ATOM     32  C9  <1> d   1      -1.494  27.001   0.917  0.00  0.00    -0.036 A 
ATOM     33  C39 <1> d   1      -2.474  28.879   2.112  0.00  0.00     0.013 A 
ATOM     34  C42 <1> d   1      -2.494  26.147   1.353  0.00  0.00     0.009 A 
ATOM     35  C59 <1> d   1      -3.490  26.666   2.185  0.00  0.00     0.001 A 
ATOM     36  C60 <1> d   1      -3.475  28.017   2.568  0.00  0.00     0.001 A 
ENDBRANCH  23  24
ENDBRANCH  22  23
ENDBRANCH  19  22
ENDBRANCH  16  18
ENDBRANCH  13  16
ENDBRANCH  11  12
BRANCH  11  37
ATOM     37  C   UNK d   1      -2.796  19.629  -0.943  0.00  0.00     0.044 C 
BRANCH  37  38
ATOM     38  C   UNK d   1      -4.066  19.113  -1.587  0.00  0.00     0.113 C 
BRANCH  38  39
ATOM     39  C   UNK d   1      -5.272  19.093  -0.689  0.00  0.00     0.259 C 
ATOM     40  O   UNK d   1      -5.313  18.534   0.397  0.00  0.00    -0.265 OA
BRANCH  39  41
ATOM     41  O   UNK d   1      -6.324  19.606  -1.379  0.00  0.00    -0.311 OA
BRANCH  41  42
ATOM     42  C   UNK d   1      -7.551  18.848  -1.492  0.00  0.00     0.060 C 
ATOM     43  C   UNK d   1      -8.444  19.056  -0.272  0.00  0.00     0.045 C 
ATOM     44  C   UNK d   1      -8.241  19.420  -2.740  0.00  0.00     0.045 C 
ATOM     45  C   UNK d   1      -7.258  17.362  -1.740  0.00  0.00     0.045 C 
ENDBRANCH  41  42
ENDBRANCH  39  41
ENDBRANCH  38  39
ENDBRANCH  37  38
ENDBRANCH  11  37
ENDBRANCH   8  11
ENDBRANCH   6   7
BRANCH   6  46
ATOM     46  C   UNK d   1      -0.912  13.785   0.460  0.00  0.00     0.150 C 
ATOM     47  C   UNK d   1      -0.251  14.369   1.707  0.00  0.00     0.042 C 
BRANCH  46  48
ATOM     48  O   UNK d   1      -0.237  12.602   0.011  0.00  0.00    -0.374 OA
BRANCH  48  49
ATOM     49  C   UNK d   1       1.061  12.507  -0.586  0.00  0.00     0.050 C 
ATOM     50  C   UNK d   1       2.196  13.025   0.300  0.00  0.00     0.045 C 
ATOM     51  C   UNK d   1       1.269  10.985  -0.758  0.00  0.00     0.045 C 
ATOM     52  C   UNK d   1       1.160  13.132  -1.980  0.00  0.00     0.045 C 
ENDBRANCH  48  49
ENDBRANCH  46  48
ENDBRANCH   6  46
ENDBRANCH   3   6
ENDBRANCH   1   2
BRANCH   1  53
ATOM     53  C   GLN d   2      -5.338  12.829  -1.857  0.00  0.00     0.241 C 
ATOM     54  N   UNK d   3      -6.242  12.226  -2.709  0.00  0.00    -0.346 N 
ATOM     55  H   UNK d   3      -6.244  12.435  -3.708  0.00  0.00     0.163 HD
ATOM     56  O   GLN d   2      -5.137  12.381  -0.726  0.00  0.00    -0.271 OA
BRANCH  54  57
ATOM     57  C   UNK d   3      -7.064  11.098  -2.282  0.00  0.00     0.176 C 
BRANCH  57  58
ATOM     58  C   UNK d   3      -7.267  10.115  -3.457  0.00  0.00     0.241 C 
ATOM     59  N   PHE d   4      -6.564   8.924  -3.343  0.00  0.00    -0.345 N 
ATOM     60  H   PHE d   4      -5.736   8.947  -2.751  0.00  0.00     0.163 HD
ATOM     61  O   UNK d   3      -7.963  10.378  -4.436  0.00  0.00    -0.271 OA
BRANCH  59  62
ATOM     62  CA  PHE d   4      -6.449   8.056  -4.514  0.00  0.00     0.186 C 
BRANCH  62  63
ATOM     63  C   PHE d   4      -5.200   8.525  -5.291  0.00  0.00     0.163 C 
ATOM     64  O   PHE d   4      -4.178   8.929  -4.744  0.00  0.00    -0.648 OA
BRANCH  63  65
ATOM     65  OXT PHE d   4      -5.272   8.346  -6.630  0.00  0.00    -0.775 OA
ATOM     66  HXT PHE d   4      -6.153   8.098  -6.967  0.00  0.00     0.167 HD
ENDBRANCH  63  65
ENDBRANCH  62  63
BRANCH  62  67
ATOM     67  CB  PHE d   4      -6.204   6.574  -4.183  0.00  0.00     0.074 C 
BRANCH  67  68
ATOM     68  CG  PHE d   4      -7.027   5.808  -3.148  0.00  0.00    -0.056 C 
ATOM     69  CD1 PHE d   4      -8.751   6.099  -2.623  0.00  0.00     0.007 C 
ATOM     70  CE1 PHE d   4      -9.481   5.084  -1.303  0.00  0.00     0.001 C 
ATOM     71  CZ  PHE d   4      -8.457   3.923  -0.423  0.00  0.00     0.000 C 
ATOM     72  CE2 PHE d   4      -6.716   3.746  -0.896  0.00  0.00     0.001 C 
ATOM     73  CD2 PHE d   4      -6.058   4.552  -2.319  0.00  0.00     0.007 C 
ENDBRANCH  67  68
ENDBRANCH  62  67
ENDBRANCH  59  62
ENDBRANCH  57  58
BRANCH  57  74
ATOM     74  C   UNK d   3      -8.416  11.640  -1.774  0.00  0.00     0.036 C 
BRANCH  74  75
ATOM     75  C   UNK d   3      -9.231  10.604  -0.998  0.00  0.00     0.017 C 
BRANCH  75  76
ATOM     76  C   UNK d   3      -8.597  10.255   0.365  0.00  0.00     0.095 C 
BRANCH  76  77
ATOM     77  N   UNK d   3      -8.852   8.892   0.827  0.00  0.00    -0.269 NA
ATOM     78  C   UNK d   3      -9.235   7.931  -0.041  0.00  0.00     0.138 C 
ATOM     79  N   UNK d   3      -8.241   7.505  -0.927  0.00  0.00    -0.157 NA
ATOM     80  N   UNK d   3     -10.480   7.693  -0.246  0.00  0.00    -0.380 N 
ATOM     81  H   UNK d   3      -7.419   8.105  -0.952  0.00  0.00     0.148 HD
ATOM     82  H   UNK d   3     -10.566   7.148  -1.096  0.00  0.00     0.158 HD
ATOM     83  HN  UNK d   3     -11.251   8.000   0.347  1.00  0.00     0.158 HD
ATOM     84  H   UNK d   3      -8.108   8.568   1.437  0.00  0.00     0.130 HD
BRANCH  79  85
ATOM     85  S   UNK d   3      -7.379   5.895  -0.879  0.00  0.00     0.248 S 
ATOM     86  O   UNK d   3      -7.547   5.630   0.572  0.00  0.00    -0.205 OA
ATOM     87  O   UNK d   3      -6.035   6.486  -1.129  0.00  0.00    -0.205 OA
BRANCH  85  88
ATOM     88  C   UNK d   3      -8.120   4.082  -2.528  0.00  0.00     0.087 C 
ATOM     89  C   UNK d   3      -8.336   2.457  -2.280  0.00  0.00    -0.030 C 
ATOM     90  C   UNK d   3      -9.408   1.639  -2.900  0.00  0.00    -0.021 C 
ATOM     91  C   UNK d   3      -7.480   1.442  -1.452  0.00  0.00     0.050 C 
ATOM     92  C   UNK d   3      -9.860   0.274  -2.376  0.00  0.00     0.052 C 
ATOM     93  C   UNK d   3     -10.153   2.106  -3.968  0.00  0.00     0.075 C 
ATOM     94  C   UNK d   3      -9.790   3.290  -4.548  0.00  0.00     0.045 C 
ATOM     95  C   UNK d   3      -8.884   4.258  -3.975  0.00  0.00    -0.036 C 
ATOM     96  C   UNK d   3      -8.999   5.404  -5.045  0.00  0.00     0.050 C 
BRANCH  93  97
ATOM     97  O   UNK d   3     -11.152   1.313  -4.471  0.00  0.00    -0.355 OA
ATOM     98  C   UNK d   3     -12.240   1.997  -5.090  0.00  0.00     0.210 C 
ENDBRANCH  93  97
ENDBRANCH  85  88
ENDBRANCH  79  85
ENDBRANCH  76  77
ENDBRANCH  75  76
ENDBRANCH  74  75
ENDBRANCH  57  74
ENDBRANCH  54  57
ENDBRANCH   1  53
BRANCH   1  99
ATOM     99  CB  GLN d   2      -4.706  14.598  -3.775  0.00  0.00     0.044 C 
BRANCH  99 100
ATOM    100  CG  GLN d   2      -3.671  13.886  -4.644  0.00  0.00     0.105 C 
BRANCH 100 101
ATOM    101  CD  GLN d   2      -3.984  12.422  -4.806  0.00  0.00     0.215 C 
ATOM    102  OE1 GLN d   2      -5.062  12.036  -5.251  0.00  0.00    -0.274 OA
ATOM    103  NE2 GLN d   2      -3.024  11.563  -4.381  0.00  0.00    -0.370 N 
ATOM    104 1HE2 GLN d   2      -2.398  11.860  -3.631  0.00  0.00     0.159 HD
ATOM    105 2HE2 GLN d   2      -3.260  10.570  -4.402  0.00  0.00     0.159 HD
ENDBRANCH 100 101
ENDBRANCH  99 100
ENDBRANCH   1  99
TORSDOF 36
