REMARK  6 active torsions:
REMARK  status: ('A' for Active; 'I' for Inactive)
REMARK    1  A    between atoms: N_3  and  C_1 
REMARK    2  A    between atoms: C_6  and  C_2 
REMARK    3  A    between atoms: N_8  and  C_6 
REMARK    4  A    between atoms: O_14  and  N_8 
REMARK    5  A    between atoms: C_10  and  O_14 
REMARK       I    between atoms: N_12  and  C_10 
REMARK    6  A    between atoms: C_17  and  N_12 
ROOT
ATOM      1  N   UNL d   1       2.456  -2.850  -0.349  0.00  0.00    -0.240 N 
ATOM      2  HN  UNL d   1       3.335  -3.338  -0.519  1.00  0.00     0.196 HD
ENDROOT
BRANCH   1   3
ATOM      3  C   UNL d   1       2.374  -1.557  -0.359  0.00  0.00     0.130 C 
ATOM      4  N   UNL d   1       3.510  -0.824  -0.540  0.00  0.00    -0.383 N 
ATOM      5  H   UNL d   1       3.577   0.104  -0.149  0.00  0.00     0.157 HD
ATOM      6  H   UNL d   1       4.351  -1.380  -0.419  0.00  0.00     0.157 HD
BRANCH   3   7
ATOM      7  C   UNL d   1       1.157  -0.760  -0.213  0.00  0.00     0.019 A 
ATOM      8  C   UNL d   1      -0.142  -1.084  -0.747  0.00  0.00     0.059 A 
ATOM      9  C   UNL d   1      -1.088  -0.122  -0.463  0.00  0.00     0.144 A 
ATOM     10  S   UNL d   1      -0.454   1.178   0.419  0.00  0.00    -0.077 SA
ATOM     11  C   UNL d   1       1.102   0.462   0.444  0.00  0.00     0.067 A 
BRANCH   9  12
ATOM     12  N   UNL d   1      -2.478  -0.149  -0.836  0.00  0.00    -0.108 N 
ATOM     13  O   UNL d   1      -2.875  -1.184  -1.389  0.00  0.00    -0.531 OA
ATOM     14  O   UNL d   1      -3.177   0.839  -0.579  0.00  0.00    -0.531 OA
ENDBRANCH   9  12
ENDBRANCH   3   7
ENDBRANCH   1   3
BRANCH   1  15
ATOM     15  O   UNL d   1       1.257  -3.540  -0.091  0.00  0.00    -0.179 OA
BRANCH  15  16
ATOM     16  C   UNL d   1       1.545  -4.885   0.058  0.00  0.00     0.387 C 
ATOM     17  N   UNL d   1       0.383  -5.591   0.296  0.00  0.00    -0.301 N 
ATOM     18  H   UNL d   1      -0.464  -5.043   0.251  0.00  0.00     0.171 HD
ATOM     19  O   UNL d   1       2.672  -5.359  -0.013  0.00  0.00    -0.236 OA
BRANCH  17  20
ATOM     20  C   UNL d   1       0.270  -6.967   0.582  0.00  0.00     0.037 A 
ATOM     21  C   UNL d   1       1.368  -7.816   0.757  0.00  0.00     0.031 A 
ATOM     22  C   UNL d   1       1.188  -9.169   1.068  0.00  0.00     0.026 A 
ATOM     23  C   UNL d   1      -0.096  -9.684   1.201  0.00  0.00     0.034 A 
ATOM     24  C   UNL d   1      -1.202  -8.856   1.024  0.00  0.00     0.026 A 
ATOM     25 CL   UNL d   1      -0.316 -11.344   1.593  0.00  0.00    -0.084 Cl
ATOM     26  C   UNL d   1      -1.019  -7.502   0.718  0.00  0.00     0.031 A 
ENDBRANCH  17  20
ENDBRANCH  15  16
ENDBRANCH   1  15
TORSDOF 6
