REMARK  0 active torsions:
REMARK  status: ('A' for Active; 'I' for Inactive)
ROOT
ATOM      1  C   UNL d   1       0.223  -0.706  -0.003  0.00  0.00     0.071 A 
ATOM      2  C   UNL d   1       0.231   0.699  -0.002  0.00  0.00     0.071 A 
ATOM      3  N   UNL d   1       1.324  -1.463  -0.003  0.00  0.00    -0.352 N 
ATOM      4  HN  UNL d   1       1.304  -2.483  -0.004  1.00  0.00     0.166 HD
ATOM      5  N   UNL d   1       1.346   1.438   0.000  0.00  0.00    -0.352 N 
ATOM      6  HN  UNL d   1       1.343   2.458   0.001  1.00  0.00     0.166 HD
ATOM      7  C   UNL d   1      -1.151   1.144  -0.002  0.00  0.00     0.005 A 
ATOM      8  C   UNL d   1      -1.159  -1.141  -0.002  0.00  0.00     0.005 A 
ATOM      9  C   UNL d   1      -1.948   0.003  -0.001  0.00  0.00    -0.001 A 
ATOM     10  C   UNL d   1       2.468  -0.744  -0.001  0.00  0.00     0.060 A 
ATOM     11  C   UNL d   1       2.481   0.697   0.001  0.00  0.00     0.059 A 
ATOM     12  C   UNL d   1       3.675  -1.429  -0.000  0.00  0.00     0.038 A 
ATOM     13  C   UNL d   1      -3.339   0.003   0.001  0.00  0.00    -0.024 A 
ATOM     14  C   UNL d   1       3.707   1.345   0.005  0.00  0.00     0.032 A 
ATOM     15  C   UNL d   1      -1.759  -2.385  -0.000  0.00  0.00     0.014 A 
ATOM     16  C   UNL d   1      -1.752   2.388  -0.001  0.00  0.00     0.014 A 
ATOM     17  C   UNL d   1       4.905  -0.760   0.003  0.00  0.00    -0.060 A 
ATOM     18  C   UNL d   1       4.911   0.635   0.006  0.00  0.00     0.009 A 
ATOM     19  C   UNL d   1      -3.159   2.447   0.000  0.00  0.00     0.002 A 
ATOM     20  C   UNL d   1      -3.164  -2.443   0.002  0.00  0.00     0.002 A 
ATOM     21  C   UNL d   1      -3.951  -1.268   0.003  0.00  0.00     0.012 A 
ATOM     22  C   UNL d   1      -3.949   1.274   0.002  0.00  0.00     0.012 A 
ATOM     23  C   UNL d   1       6.195  -1.524   0.003  0.00  0.00     0.048 C 
ENDROOT
TORSDOF 0
