REMARK  2 active torsions:
REMARK  status: ('A' for Active; 'I' for Inactive)
REMARK    1  A    between atoms: C_2  and  C_1 
REMARK    2  A    between atoms: C_14  and  C_8 
ROOT
ATOM      1  C   UNL d   1      -0.269  -1.046   0.021  0.00  0.00     0.193 A 
ATOM      2  O   UNL d   1      -1.074   0.041  -0.224  0.00  0.00    -0.271 OA
ATOM      3  N   UNL d   1       0.955  -0.685   0.362  0.00  0.00    -0.276 N 
ATOM      4  HN  UNL d   1       1.732  -1.306   0.587  1.00  0.00     0.189 HD
ATOM      5  N   UNL d   1       0.982   0.695   0.357  0.00  0.00    -0.277 N 
ATOM      6  HN  UNL d   1       1.781   1.291   0.571  1.00  0.00     0.189 HD
ATOM      7  C   UNL d   1      -0.229   1.089   0.020  0.00  0.00     0.174 A 
ENDROOT
BRANCH   1   8
ATOM      8  C   UNL d   1      -0.728  -2.462  -0.060  0.00  0.00     0.110 A 
ATOM      9  N   UNL d   1      -1.968  -2.804  -0.434  0.00  0.00    -0.257 N 
ATOM     10  O   UNL d   1      -2.015  -4.186  -0.349  0.00  0.00    -0.242 OA
ATOM     11  HN  UNL d   1      -2.720  -2.177  -0.721  1.00  0.00     0.195 HD
ATOM     12  C   UNL d   1      -0.813  -4.655   0.080  0.00  0.00     0.075 A 
ATOM     13  C   UNL d   1       0.046  -3.600   0.261  0.00  0.00     0.070 A 
ATOM     14  C   UNL d   1      -0.703  -6.113   0.257  0.00  0.00     0.079 C 
ENDBRANCH   1   8
BRANCH   7  15
ATOM     15  C   UNL d   1      -0.778   2.433  -0.110  0.00  0.00     0.017 A 
ATOM     16  C   UNL d   1      -2.131   2.652  -0.407  0.00  0.00     0.016 A 
ATOM     17  C   UNL d   1      -2.637   3.951  -0.522  0.00  0.00     0.007 A 
ATOM     18  C   UNL d   1      -1.800   5.057  -0.346  0.00  0.00    -0.062 A 
ATOM     19  C   UNL d   1      -0.451   4.846  -0.043  0.00  0.00     0.007 A 
ATOM     20  C   UNL d   1      -2.356   6.444  -0.481  0.00  0.00     0.048 C 
ATOM     21  C   UNL d   1       0.053   3.547   0.073  0.00  0.00     0.016 A 
ENDBRANCH   7  15
TORSDOF 2
