REMARK  5 active torsions:
REMARK  status: ('A' for Active; 'I' for Inactive)
REMARK    1  A    between atoms: C_2  and  C_1 
REMARK       I    between atoms: N_4  and  C_1 
REMARK    2  A    between atoms: N_3  and  C_7 
REMARK       I    between atoms: C_6  and  N_4 
REMARK    3  A    between atoms: C_5  and  N_11 
REMARK       I    between atoms: N_11  and  C_6 
REMARK    4  A    between atoms: O_24  and  C_8 
REMARK    5  A    between atoms: O_26  and  C_14 
ROOT
ATOM      1  C   UNL d   1       1.000  -0.242   0.290  0.00  0.00     0.265 C 
ATOM      2  N   UNL d   1       0.142  -1.285  -0.113  0.00  0.00    -0.275 N 
ATOM      3  C   UNL d   1       0.096  -2.653  -0.161  0.00  0.00     0.327 C 
ATOM      4  N   UNL d   1       1.147  -3.410   0.289  0.00  0.00    -0.305 N 
ATOM      5  O   UNL d   1       2.112  -0.444   0.755  0.00  0.00    -0.267 OA
ATOM      6  O   UNL d   1      -0.968  -3.124  -0.580  0.00  0.00    -0.247 OA
ATOM      7  H   UNL d   1      -0.713  -0.961  -0.535  0.00  0.00     0.173 HD
ATOM      8  H   UNL d   1       1.652  -2.973   1.055  0.00  0.00     0.171 HD
ENDROOT
BRANCH   1   9
ATOM      9  C   UNL d   1       0.348   1.158   0.124  0.00  0.00     0.100 A 
ATOM     10  C   UNL d   1      -0.626   1.401  -0.912  0.00  0.00     0.104 A 
ATOM     11  C   UNL d   1      -1.365   2.602  -0.898  0.00  0.00     0.045 A 
ATOM     12 BR   UNL d   1      -2.857   3.051  -1.998  0.00  0.00    -0.048 Br
ATOM     13  C   UNL d   1      -1.086   3.580   0.056  0.00  0.00     0.025 A 
ATOM     14  C   UNL d   1      -0.091   3.382   1.006  0.00  0.00     0.039 A 
ATOM     15  C   UNL d   1       0.626   2.179   1.065  0.00  0.00     0.086 A 
BRANCH  10  16
ATOM     16  O   UNL d   1      -0.736   0.372  -1.810  0.00  0.00    -0.353 OA
ATOM     17  C   UNL d   1      -1.477   0.469  -3.015  0.00  0.00     0.210 C 
ENDBRANCH  10  16
BRANCH  15  18
ATOM     18  O   UNL d   1       1.560   1.942   2.042  0.00  0.00    -0.355 OA
ATOM     19  C   UNL d   1       1.865   3.014   2.934  0.00  0.00     0.210 C 
ENDBRANCH  15  18
ENDBRANCH   1   9
BRANCH   4  20
ATOM     20  C   UNL d   1       0.908  -4.834   0.380  0.00  0.00     0.080 C 
ATOM     21  C   UNL d   1       0.518  -5.595  -0.750  0.00  0.00     0.065 C 
ATOM     22  C   UNL d   1      -0.023  -6.879  -0.612  0.00  0.00     0.062 C 
ATOM     23 CL   UNL d   1       0.771  -5.026  -2.369  0.00  0.00    -0.082 Cl
ATOM     24  C   UNL d   1      -0.134  -7.428   0.665  0.00  0.00     0.106 C 
ATOM     25  C   UNL d   1       0.359  -6.754   1.787  0.00  0.00     0.062 C 
ATOM     26  C   UNL d   1       0.893  -5.464   1.635  0.00  0.00     0.065 C 
ATOM     27 CL   UNL d   1       1.447  -4.646   3.050  0.00  0.00    -0.082 Cl
BRANCH  24  28
ATOM     28  N   UNL d   1      -0.776  -8.730   0.825  0.00  0.00    -0.116 N 
ATOM     29  O   UNL d   1      -0.316  -9.488   1.687  0.00  0.00    -0.532 OA
ATOM     30  O   UNL d   1      -1.742  -8.983   0.091  0.00  0.00    -0.532 OA
ENDBRANCH  24  28
ENDBRANCH   4  20
TORSDOF 5
