REMARK  7 active torsions:
REMARK  status: ('A' for Active; 'I' for Inactive)
REMARK    1  A    between atoms: C_4  and  C_1 
REMARK    2  A    between atoms: N_3  and  C_2 
REMARK       I    between atoms: N_6  and  C_4 
REMARK       I    between atoms: C_8  and  N_6 
REMARK       I    between atoms: N_12  and  C_8 
REMARK    3  A    between atoms: C_10  and  N_13 
REMARK    4  A    between atoms: N_14  and  C_10 
REMARK    5  A    between atoms: N_13  and  N_12 
REMARK    6  A    between atoms: C_22  and  N_14 
REMARK    7  A    between atoms: C_23  and  C_19 
ROOT
ATOM      1  C   UNL d   1       3.287  -1.432  -2.167  0.00  0.00     0.260 C 
ATOM      2  N   UNL d   1       2.736  -1.329  -0.892  0.00  0.00    -0.274 N 
ATOM      3  C   UNL d   1       1.560  -1.569  -0.216  0.00  0.00     0.341 C 
ATOM      4  N   UNL d   1       0.422  -1.746  -0.946  0.00  0.00    -0.249 N 
ATOM      5  O   UNL d   1       4.506  -1.612  -2.217  0.00  0.00    -0.267 OA
ATOM      6  O   UNL d   1       1.584  -1.642   1.016  0.00  0.00    -0.245 OA
ATOM      7  H   UNL d   1       3.490  -1.338  -0.217  0.00  0.00     0.173 HD
ATOM      8  H   UNL d   1       0.515  -2.258  -1.813  0.00  0.00     0.192 HD
ENDROOT
BRANCH   4   9
ATOM      9  N   UNL d   1      -0.752  -2.062  -0.252  0.00  0.00    -0.272 N 
ATOM     10  H   UNL d   1      -0.637  -2.684   0.551  0.00  0.00     0.189 HD
BRANCH   9  11
ATOM     11  C   UNL d   1      -1.837  -1.208  -0.176  0.00  0.00     0.191 C 
ATOM     12  S   UNL d   1      -1.868   0.388  -0.661  0.00  0.00    -0.039 SA
BRANCH  11  13
ATOM     13  N   UNL d   1      -2.964  -1.776   0.384  0.00  0.00    -0.332 N 
ATOM     14  H   UNL d   1      -3.657  -1.129   0.743  0.00  0.00     0.168 HD
BRANCH  13  15
ATOM     15  C   UNL d   1      -3.333  -3.138   0.312  0.00  0.00     0.034 A 
ATOM     16  C   UNL d   1      -4.269  -3.640   1.215  0.00  0.00     0.030 A 
ATOM     17  C   UNL d   1      -4.617  -4.997   1.180  0.00  0.00     0.010 A 
ATOM     18  C   UNL d   1      -4.064  -5.861   0.219  0.00  0.00    -0.055 A 
ATOM     19  C   UNL d   1      -3.174  -5.330  -0.717  0.00  0.00     0.010 A 
ATOM     20  C   UNL d   1      -2.822  -3.986  -0.676  0.00  0.00     0.030 A 
BRANCH  18  21
ATOM     21  C   UNL d   1      -4.397  -7.338   0.156  0.00  0.00     0.010 C 
ATOM     22  C   UNL d   1      -3.883  -8.079   1.391  0.00  0.00     0.015 C 
ATOM     23  C   UNL d   1      -5.891  -7.574  -0.059  0.00  0.00     0.015 C 
ENDBRANCH  18  21
ENDBRANCH  13  15
ENDBRANCH  11  13
ENDBRANCH   9  11
ENDBRANCH   4   9
BRANCH   1  24
ATOM     24  C   UNL d   1       2.499  -1.399  -3.405  0.00  0.00     0.042 A 
ATOM     25  C   UNL d   1       1.205  -0.840  -3.702  0.00  0.00     0.061 A 
ATOM     26  C   UNL d   1       0.817  -1.065  -5.011  0.00  0.00     0.144 A 
ATOM     27  S   UNL d   1       2.026  -1.812  -5.932  0.00  0.00    -0.077 SA
ATOM     28  C   UNL d   1       3.062  -1.894  -4.578  0.00  0.00     0.069 A 
BRANCH  26  29
ATOM     29  N   UNL d   1      -0.451  -0.735  -5.611  0.00  0.00    -0.108 N 
ATOM     30  O   UNL d   1      -1.314  -0.284  -4.847  0.00  0.00    -0.531 OA
ATOM     31  O   UNL d   1      -0.605  -0.948  -6.821  0.00  0.00    -0.531 OA
ENDBRANCH  26  29
ENDBRANCH   1  24
TORSDOF 7
