REMARK  3 active torsions:
REMARK  status: ('A' for Active; 'I' for Inactive)
REMARK    1  A    between atoms: C_4  and  C_1 
REMARK       I    between atoms: N_8  and  C_4 
REMARK       I    between atoms: C_6  and  N_10 
REMARK       I    between atoms: N_11  and  C_6 
REMARK    2  A    between atoms: N_10  and  N_8 
REMARK    3  A    between atoms: C_14  and  N_11 
ROOT
ATOM      1  C   UNL d   1      -2.564  -1.397  -0.026  0.00  0.00     0.288 C 
ATOM      2  N   UNL d   1      -3.758  -0.826  -0.425  0.00  0.00    -0.261 N 
ATOM      3  O   UNL d   1      -1.689  -0.755   0.560  0.00  0.00    -0.264 OA
ATOM      4  H   UNL d   1      -4.526  -1.390  -0.792  0.00  0.00     0.190 HD
ENDROOT
BRANCH   2   5
ATOM      5  N   UNL d   1      -4.042   0.482  -0.007  0.00  0.00    -0.249 N 
ATOM      6  C   UNL d   1      -5.340   0.945  -0.069  0.00  0.00     0.335 C 
ATOM      7  N   UNL d   1      -5.415   2.265   0.305  0.00  0.00    -0.338 N 
ATOM      8  O   UNL d   1      -6.287   0.248  -0.409  0.00  0.00    -0.246 OA
ATOM      9  H   UNL d   1      -4.637   2.601   0.853  0.00  0.00     0.164 HD
ATOM     10  H   UNL d   1      -3.264   1.131  -0.037  0.00  0.00     0.192 HD
BRANCH   7  11
ATOM     11  C   UNL d   1      -6.655   3.023   0.420  0.00  0.00     0.078 C 
ATOM     12  C   UNL d   1      -7.417   3.115  -0.899  0.00  0.00     0.032 C 
ATOM     13  C   UNL d   1      -7.546   2.508   1.547  0.00  0.00     0.032 C 
ENDBRANCH   7  11
ENDBRANCH   2   5
BRANCH   1  14
ATOM     14  C   UNL d   1      -2.407  -2.814  -0.345  0.00  0.00     0.126 A 
ATOM     15  N   UNL d   1      -3.289  -3.492  -1.100  0.00  0.00    -0.256 N 
ATOM     16  O   UNL d   1      -2.800  -4.785  -1.187  0.00  0.00    -0.242 OA
ATOM     17  HN  UNL d   1      -4.144  -3.128  -1.523  1.00  0.00     0.195 HD
ATOM     18  C   UNL d   1      -1.643  -4.884  -0.480  0.00  0.00     0.075 A 
ATOM     19  C   UNL d   1      -1.347  -3.663   0.068  0.00  0.00     0.071 A 
ATOM     20  C   UNL d   1      -0.994  -6.207  -0.451  0.00  0.00     0.079 C 
ENDBRANCH   1  14
TORSDOF 3
