REMARK  8 active torsions:
REMARK  status: ('A' for Active; 'I' for Inactive)
REMARK    1  A    between atoms: C_8  and  N_1 
REMARK    2  A    between atoms: C_10  and  C_2 
REMARK    3  A    between atoms: S_9  and  C_5 
REMARK    4  A    between atoms: C_11  and  C_8 
REMARK    5  A    between atoms: C_14  and  S_9 
REMARK    6  A    between atoms: O_25  and  C_11 
REMARK    7  A    between atoms: O_26  and  C_11 
REMARK    8  A    between atoms: C_16  and  C_14 
ROOT
ATOM      1  N   UNL d   1      -0.266  -1.094  -0.306  0.00  0.00    -0.306 N 
ATOM      2  C   UNL d   1       0.921  -0.389  -0.494  0.00  0.00     0.134 C 
ATOM      3  N   UNL d   1       0.607   0.881  -0.711  0.00  0.00    -0.283 N 
ATOM      4  HN  UNL d   1       1.266   1.620  -0.956  1.00  0.00     0.188 HD
ATOM      5  C   UNL d   1      -1.244  -0.131  -0.272  0.00  0.00     0.163 C 
ATOM      6  N   UNL d   1      -0.734   1.040  -0.556  0.00  0.00    -0.278 N 
ATOM      7  HN  UNL d   1      -1.250   1.916  -0.646  1.00  0.00     0.189 HD
ENDROOT
BRANCH   5   8
ATOM      8  S   UNL d   1      -2.902  -0.364   0.159  0.00  0.00    -0.088 SA
BRANCH   8   9
ATOM      9  C   UNL d   1      -3.640   1.113  -0.607  0.00  0.00     0.121 C 
BRANCH   9  10
ATOM     10  C   UNL d   1      -5.147   1.069  -0.545  0.00  0.00    -0.049 A 
ATOM     11  C   UNL d   1      -5.831   1.600   0.557  0.00  0.00     0.008 A 
ATOM     12  C   UNL d   1      -7.226   1.562   0.613  0.00  0.00     0.007 A 
ATOM     13  C   UNL d   1      -7.965   0.989  -0.429  0.00  0.00    -0.062 A 
ATOM     14  C   UNL d   1      -7.284   0.448  -1.525  0.00  0.00     0.007 A 
ATOM     15  C   UNL d   1      -9.463   0.962  -0.358  0.00  0.00     0.048 C 
ATOM     16  C   UNL d   1      -5.888   0.485  -1.582  0.00  0.00     0.008 A 
ENDBRANCH   9  10
ENDBRANCH   8   9
ENDBRANCH   5   8
BRANCH   1  17
ATOM     17  C   UNL d   1      -0.368  -2.530  -0.129  0.00  0.00     0.193 C 
BRANCH  17  18
ATOM     18  C   UNL d   1      -1.623  -3.280  -0.613  0.00  0.00     0.276 C 
BRANCH  18  19
ATOM     19  O   UNL d   1      -1.764  -3.063  -2.020  0.00  0.00    -0.364 OA
ATOM     20  C   UNL d   1      -3.019  -3.528  -2.505  0.00  0.00     0.204 C 
ENDBRANCH  18  19
BRANCH  18  21
ATOM     21  O   UNL d   1      -1.482  -4.689  -0.370  0.00  0.00    -0.364 OA
ATOM     22  C   UNL d   1      -1.565  -5.041   1.004  0.00  0.00     0.204 C 
ENDBRANCH  18  21
ENDBRANCH  17  18
ENDBRANCH   1  17
BRANCH   2  23
ATOM     23  C   UNL d   1       2.318  -0.859  -0.465  0.00  0.00     0.010 A 
ATOM     24  C   UNL d   1       3.272  -0.139  -1.209  0.00  0.00     0.017 A 
ATOM     25  C   UNL d   1       4.633  -0.456  -1.156  0.00  0.00     0.025 A 
ATOM     26  C   UNL d   1       5.062  -1.508  -0.355  0.00  0.00     0.034 A 
ATOM     27  C   UNL d   1       4.141  -2.241   0.389  0.00  0.00     0.025 A 
ATOM     28 CL   UNL d   1       6.735  -1.888  -0.261  0.00  0.00    -0.084 Cl
ATOM     29  C   UNL d   1       2.777  -1.908   0.343  0.00  0.00     0.017 A 
ENDBRANCH   2  23
TORSDOF 8
