REMARK  7 active torsions:
REMARK  status: ('A' for Active; 'I' for Inactive)
REMARK    1  A    between atoms: C_3  and  C_1 
REMARK    2  A    between atoms: S_7  and  C_2 
REMARK    3  A    between atoms: N_15  and  C_3 
REMARK    4  A    between atoms: O_13  and  N_4 
REMARK    5  A    between atoms: C_6  and  O_13 
REMARK       I    between atoms: N_12  and  C_6 
REMARK    6  A    between atoms: C_16  and  S_7 
REMARK    7  A    between atoms: C_18  and  N_12 
ROOT
ATOM      1  C   UNL d   1      -1.512  -1.831   0.271  0.00  0.00     0.149 C 
ATOM      2  N   UNL d   1      -1.054  -3.029   0.525  0.00  0.00    -0.238 N 
ATOM      3  HN  UNL d   1      -1.618  -3.877   0.472  1.00  0.00     0.197 HD
ENDROOT
BRANCH   1   4
ATOM      4  C   UNL d   1      -2.982  -1.738  -0.115  0.00  0.00     0.112 A 
ATOM      5  C   UNL d   1      -3.682  -0.559  -0.398  0.00  0.00     0.105 A 
ATOM      6  N   UNL d   1      -5.010  -0.593  -0.713  0.00  0.00    -0.357 N 
ATOM      7  C   UNL d   1      -5.607  -1.806  -0.732  0.00  0.00     0.106 A 
ATOM      8  HN  UNL d   1      -5.529   0.259  -0.924  1.00  0.00     0.166 HD
ATOM      9  C   UNL d   1      -4.917  -2.967  -0.463  0.00  0.00     0.105 A 
ATOM     10  N   UNL d   1      -3.606  -2.959  -0.152  0.00  0.00    -0.359 N 
ATOM     11  HN  UNL d   1      -3.100  -3.822   0.047  1.00  0.00     0.165 HD
BRANCH   5  12
ATOM     12  S   UNL d   1      -3.019   1.086  -0.335  0.00  0.00    -0.070 SA
BRANCH  12  13
ATOM     13  C   UNL d   1      -2.560   1.467  -2.018  0.00  0.00     0.007 A 
ATOM     14  C   UNL d   1      -2.497   0.540  -3.063  0.00  0.00     0.020 A 
ATOM     15  C   UNL d   1      -2.080   0.935  -4.342  0.00  0.00     0.025 A 
ATOM     16  C   UNL d   1      -1.724   2.261  -4.580  0.00  0.00     0.034 A 
ATOM     17  C   UNL d   1      -1.783   3.195  -3.552  0.00  0.00     0.025 A 
ATOM     18 CL   UNL d   1      -1.206   2.743  -6.147  0.00  0.00    -0.084 Cl
ATOM     19  C   UNL d   1      -2.197   2.799  -2.279  0.00  0.00     0.020 A 
ENDBRANCH  12  13
ENDBRANCH   5  12
ENDBRANCH   1   4
BRANCH   1  20
ATOM     20  N   UNL d   1      -0.701  -0.729   0.394  0.00  0.00    -0.382 N 
ATOM     21  H   UNL d   1      -0.941   0.134  -0.082  0.00  0.00     0.157 HD
ATOM     22  H   UNL d   1       0.294  -0.933   0.418  0.00  0.00     0.157 HD
ENDBRANCH   1  20
BRANCH   2  23
ATOM     23  O   UNL d   1       0.322  -3.013   0.882  0.00  0.00    -0.179 OA
BRANCH  23  24
ATOM     24  C   UNL d   1       0.548  -3.727   2.050  0.00  0.00     0.387 C 
ATOM     25  N   UNL d   1      -0.613  -3.984   2.735  0.00  0.00    -0.301 N 
ATOM     26  H   UNL d   1      -1.418  -3.632   2.228  0.00  0.00     0.171 HD
ATOM     27  O   UNL d   1       1.689  -3.999   2.403  0.00  0.00    -0.236 OA
BRANCH  25  28
ATOM     28  C   UNL d   1      -0.814  -4.634   3.954  0.00  0.00     0.036 A 
ATOM     29  C   UNL d   1       0.194  -5.293   4.654  0.00  0.00     0.029 A 
ATOM     30  C   UNL d   1      -0.102  -5.959   5.847  0.00  0.00     0.002 A 
ATOM     31  C   UNL d   1      -1.401  -5.953   6.353  0.00  0.00     0.000 A 
ATOM     32  C   UNL d   1      -2.409  -5.278   5.668  0.00  0.00     0.002 A 
ATOM     33  C   UNL d   1      -2.116  -4.625   4.470  0.00  0.00     0.029 A 
ENDBRANCH  25  28
ENDBRANCH  23  24
ENDBRANCH   2  23
TORSDOF 7
