REMARK  5 active torsions:
REMARK  status: ('A' for Active; 'I' for Inactive)
REMARK    1  A    between atoms: C_10  and  C_3 
REMARK    2  A    between atoms: C_13  and  C_7 
REMARK    3  A    between atoms: C_8  and  C_9 
REMARK    4  A    between atoms: O_11  and  C_13 
REMARK    5  A    between atoms: C_12  and  O_11 
ROOT
ATOM      1  N   UNL d   1       1.021  -0.668   0.413  0.00  0.00    -0.277 N 
ATOM      2  HN  UNL d   1       1.841  -1.257   0.560  1.00  0.00     0.189 HD
ATOM      3  C   UNL d   1      -0.205  -1.080   0.152  0.00  0.00     0.174 A 
ATOM      4  O   UNL d   1      -1.085  -0.041   0.007  0.00  0.00    -0.275 OA
ATOM      5  N   UNL d   1       0.983   0.711   0.449  0.00  0.00    -0.279 N 
ATOM      6  HN  UNL d   1       1.764   1.341   0.627  1.00  0.00     0.189 HD
ATOM      7  C   UNL d   1      -0.267   1.049   0.206  0.00  0.00     0.165 A 
ENDROOT
BRANCH   3   8
ATOM      8  C   UNL d   1      -0.706  -2.440  -0.029  0.00  0.00     0.017 A 
ATOM      9  C   UNL d   1       0.176  -3.515   0.157  0.00  0.00     0.017 A 
ATOM     10  C   UNL d   1      -0.244  -4.838  -0.010  0.00  0.00     0.017 A 
ATOM     11  C   UNL d   1      -1.568  -5.121  -0.372  0.00  0.00     0.048 A 
ATOM     12  C   UNL d   1      -2.455  -4.051  -0.560  0.00  0.00     0.017 A 
ATOM     13  C   UNL d   1      -2.030  -2.725  -0.392  0.00  0.00     0.017 A 
BRANCH  11  14
ATOM     14  C   UNL d   1      -2.027  -6.550  -0.557  0.00  0.00     0.417 C 
ATOM     15  F   UNL d   1      -1.048  -7.472  -0.345  0.00  0.00    -0.166 F 
ATOM     16  F   UNL d   1      -3.043  -6.882   0.287  0.00  0.00    -0.166 F 
ATOM     17  F   UNL d   1      -2.495  -6.785  -1.815  0.00  0.00    -0.166 F 
ENDBRANCH  11  14
ENDBRANCH   3   8
BRANCH   7  18
ATOM     18  C   UNL d   1      -0.867   2.391  -0.022  0.00  0.00     0.261 C 
BRANCH  18  19
ATOM     19  O   UNL d   1      -1.300   2.915   1.231  0.00  0.00    -0.342 OA
BRANCH  19  20
ATOM     20  C   UNL d   1      -1.775   4.203   1.268  0.00  0.00     0.091 A 
ATOM     21  C   UNL d   1      -2.445   4.938   0.277  0.00  0.00     0.067 A 
ATOM     22 CL   UNL d   1      -2.828   4.370  -1.310  0.00  0.00    -0.081 Cl
ATOM     23  C   UNL d   1      -2.912   6.234   0.554  0.00  0.00     0.026 A 
ATOM     24  C   UNL d   1      -2.726   6.809   1.809  0.00  0.00     0.002 A 
ATOM     25  C   UNL d   1      -2.067   6.093   2.798  0.00  0.00     0.003 A 
ATOM     26  C   UNL d   1      -1.600   4.802   2.529  0.00  0.00     0.038 A 
ENDBRANCH  19  20
ENDBRANCH  18  19
ENDBRANCH   7  18
TORSDOF 5
