REMARK  12 active torsions:
REMARK  status: ('A' for Active; 'I' for Inactive)
REMARK    1  A    between atoms: C_7  and  C_3 
REMARK    2  A    between atoms: C_9  and  C_4 
REMARK    3  A    between atoms: C_8  and  C_5 
REMARK    4  A    between atoms: C_14  and  C_6 
REMARK    5  A    between atoms: C_17  and  C_7 
REMARK    6  A    between atoms: O_19  and  C_8 
REMARK    7  A    between atoms: O_20  and  C_9 
REMARK    8  A    between atoms: N_18  and  C_17 
REMARK    9  A    between atoms: C_23  and  N_18 
REMARK   10  A    between atoms: C_24  and  N_18 
REMARK   11  A    between atoms: C_25  and  O_19 
REMARK   12  A    between atoms: C_26  and  O_20 
ROOT
ATOM      1  S   UNL d   1       0.759   1.479  -0.572  0.00  0.00     0.176 S 
ATOM      2  S   UNL d   1       0.722  -1.413  -0.330  0.00  0.00     0.176 S 
ATOM      3  C   UNL d   1       1.623   0.066   0.102  0.00  0.00     0.233 C 
ATOM      4  C   UNL d   1      -0.911  -1.227   0.367  0.00  0.00     0.219 C 
ATOM      5  C   UNL d   1      -0.876   1.373   0.131  0.00  0.00     0.219 C 
ATOM      6  C   UNL d   1      -1.610   0.059  -0.160  0.00  0.00     0.075 C 
ATOM      7  O   UNL d   1       1.384   2.667  -0.005  0.00  0.00    -0.226 OA
ATOM      8  O   UNL d   1       0.539  -1.446  -1.768  0.00  0.00    -0.226 OA
ATOM      9  O   UNL d   1       1.381  -2.552   0.277  0.00  0.00    -0.226 OA
ATOM     10  O   UNL d   1       0.690   1.347  -2.009  0.00  0.00    -0.226 OA
ENDROOT
BRANCH   3  11
ATOM     11  C   UNL d   1       1.865   0.284   1.602  0.00  0.00     0.066 C 
BRANCH  11  12
ATOM     12  C   UNL d   1       2.762  -0.724   2.316  0.00  0.00     0.274 C 
BRANCH  12  13
ATOM     13  N   UNL d   1       4.147  -0.779   1.827  0.00  0.00     0.087 N 
BRANCH  13  14
ATOM     14  C   UNL d   1       4.857   0.511   1.890  0.00  0.00     0.268 C 
ATOM     15  C   UNL d   1       5.069   1.105   3.281  0.00  0.00     0.037 C 
ENDBRANCH  13  14
BRANCH  13  16
ATOM     16  C   UNL d   1       4.844  -1.868   2.547  0.00  0.00     0.268 C 
ATOM     17  C   UNL d   1       6.288  -2.108   2.127  0.00  0.00     0.037 C 
ENDBRANCH  13  16
ENDBRANCH  12  13
ENDBRANCH  11  12
ENDBRANCH   3  11
BRANCH   4  18
ATOM     18  C   UNL d   1      -0.880  -1.552   1.846  0.00  0.00     0.278 C 
ATOM     19  O   UNL d   1      -0.578  -2.640   2.305  0.00  0.00    -0.264 OA
BRANCH  18  20
ATOM     20  O   UNL d   1      -1.261  -0.508   2.628  0.00  0.00    -0.321 OA
BRANCH  20  21
ATOM     21  C   UNL d   1      -1.704  -0.860   3.954  0.00  0.00     0.174 C 
ATOM     22  C   UNL d   1      -0.559  -0.887   4.944  0.00  0.00     0.034 C 
ENDBRANCH  20  21
ENDBRANCH  18  20
ENDBRANCH   4  18
BRANCH   5  23
ATOM     23  C   UNL d   1      -1.604   2.565  -0.443  0.00  0.00     0.278 C 
ATOM     24  O   UNL d   1      -1.939   2.703  -1.607  0.00  0.00    -0.264 OA
BRANCH  23  25
ATOM     25  O   UNL d   1      -1.798   3.483   0.547  0.00  0.00    -0.321 OA
BRANCH  25  26
ATOM     26  C   UNL d   1      -2.012   4.829   0.103  0.00  0.00     0.174 C 
ATOM     27  C   UNL d   1      -0.653   5.500   0.050  0.00  0.00     0.034 C 
ENDBRANCH  25  26
ENDBRANCH  23  25
ENDBRANCH   5  23
BRANCH   6  28
ATOM     28  C   UNL d   1      -3.091   0.102   0.244  0.00  0.00    -0.051 A 
ATOM     29  C   UNL d   1      -3.549   0.717   1.422  0.00  0.00     0.007 A 
ATOM     30  C   UNL d   1      -4.903   0.722   1.760  0.00  0.00     0.001 A 
ATOM     31  C   UNL d   1      -5.832   0.151   0.900  0.00  0.00     0.000 A 
ATOM     32  C   UNL d   1      -5.406  -0.430  -0.291  0.00  0.00     0.001 A 
ATOM     33  C   UNL d   1      -4.047  -0.466  -0.613  0.00  0.00     0.007 A 
ENDBRANCH   6  28
TORSDOF 12
