REMARK  7 active torsions:
REMARK  status: ('A' for Active; 'I' for Inactive)
REMARK    1  A    between atoms: C_4  and  C_1 
REMARK    2  A    between atoms: O_6  and  C_1 
REMARK    3  A    between atoms: C_2  and  C_7 
REMARK    4  A    between atoms: C_3  and  C_8 
REMARK    5  A    between atoms: N_5  and  O_6 
REMARK    6  A    between atoms: C_7  and  N_5 
REMARK    7  A    between atoms: C_8  and  N_5 
ROOT
ATOM      1  N   UNL d   1      -0.941   0.151   1.138  0.00  0.00    -0.179 NA
ENDROOT
BRANCH   1   2
ATOM      2  O   UNL d   1       0.529   0.029   1.104  0.00  0.00    -0.219 OA
BRANCH   2   3
ATOM      3  C   UNL d   1       1.046   0.232  -0.162  0.00  0.00     0.317 C 
ATOM      4  O   UNL d   1       0.385   0.327  -1.194  0.00  0.00    -0.257 OA
BRANCH   3   5
ATOM      5  C   UNL d   1       2.501   0.233  -0.139  0.00  0.00     0.081 A 
ATOM      6  S   UNL d   1       3.407   0.449   1.300  0.00  0.00    -0.096 SA
ATOM      7  C   UNL d   1       4.896   0.369   0.464  0.00  0.00     0.050 A 
ATOM      8  C   UNL d   1       4.719   0.165  -0.885  0.00  0.00     0.009 A 
ATOM      9  C   UNL d   1       3.339   0.094  -1.233  0.00  0.00     0.026 A 
ENDBRANCH   3   5
ENDBRANCH   2   3
ENDBRANCH   1   2
BRANCH   1  10
ATOM     10  C   UNL d   1      -1.433  -1.238   1.017  0.00  0.00     0.165 C 
BRANCH  10  11
ATOM     11  C   UNL d   1      -2.932  -1.362   1.111  0.00  0.00     0.017 A 
ATOM     12  C   UNL d   1      -3.724  -0.776   0.113  0.00  0.00     0.125 A 
ATOM     13  F   UNL d   1      -3.146  -0.188  -0.944  0.00  0.00    -0.205 F 
ATOM     14  C   UNL d   1      -5.116  -0.777   0.180  0.00  0.00     0.043 A 
ATOM     15  C   UNL d   1      -5.753  -1.390   1.254  0.00  0.00     0.005 A 
ATOM     16  C   UNL d   1      -4.990  -2.013   2.242  0.00  0.00     0.024 A 
ATOM     17  C   UNL d   1      -3.591  -2.002   2.171  0.00  0.00     0.044 A 
ATOM     18 CL   UNL d   1      -2.736  -2.792   3.447  0.00  0.00    -0.084 Cl
ENDBRANCH  10  11
ENDBRANCH   1  10
BRANCH   1  19
ATOM     19  C   UNL d   1      -1.260   0.730   2.458  0.00  0.00     0.165 C 
BRANCH  19  20
ATOM     20  C   UNL d   1      -0.720   2.128   2.649  0.00  0.00     0.017 A 
ATOM     21  C   UNL d   1       0.514   2.292   3.288  0.00  0.00     0.125 A 
ATOM     22  F   UNL d   1       1.172   1.215   3.745  0.00  0.00    -0.205 F 
ATOM     23  C   UNL d   1       1.091   3.544   3.476  0.00  0.00     0.043 A 
ATOM     24  C   UNL d   1       0.424   4.680   3.032  0.00  0.00     0.005 A 
ATOM     25  C   UNL d   1      -0.816   4.550   2.407  0.00  0.00     0.024 A 
ATOM     26  C   UNL d   1      -1.385   3.283   2.212  0.00  0.00     0.044 A 
ATOM     27 CL   UNL d   1      -2.934   3.219   1.450  0.00  0.00    -0.084 Cl
ENDBRANCH  19  20
ENDBRANCH   1  19
TORSDOF 7
