REMARK  3 active torsions:
REMARK  status: ('A' for Active; 'I' for Inactive)
REMARK    1  A    between atoms: C_5  and  C_1 
REMARK    2  A    between atoms: O_9  and  C_5 
REMARK    3  A    between atoms: C_11  and  O_9 
ROOT
ATOM      1  C   UNL d   1      -1.319  -0.713  -0.033  0.00  0.00     0.132 A 
ATOM      2  N   UNL d   1      -1.272   0.619   0.145  0.00  0.00    -0.255 N 
ATOM      3  HN  UNL d   1      -2.066   1.257   0.204  1.00  0.00     0.195 HD
ATOM      4  C   UNL d   1      -0.007  -1.258  -0.036  0.00  0.00     0.072 A 
ATOM      5  O   UNL d   1       0.066   0.949   0.233  0.00  0.00    -0.242 OA
ATOM      6  C   UNL d   1       0.821  -0.174   0.112  0.00  0.00     0.075 A 
ATOM      7  C   UNL d   1       2.281   0.011   0.142  0.00  0.00     0.079 C 
ENDROOT
BRANCH   1   8
ATOM      8  C   UNL d   1      -2.567  -1.445  -0.236  0.00  0.00     0.311 C 
ATOM      9  O   UNL d   1      -2.601  -2.660  -0.406  0.00  0.00    -0.258 OA
BRANCH   8  10
ATOM     10  O   UNL d   1      -3.667  -0.635  -0.262  0.00  0.00    -0.317 OA
BRANCH  10  11
ATOM     11  C   UNL d   1      -4.899  -1.257  -0.648  0.00  0.00     0.175 C 
ATOM     12  C   UNL d   1      -5.020  -1.234  -2.161  0.00  0.00     0.034 C 
ENDBRANCH  10  11
ENDBRANCH   8  10
ENDBRANCH   1   8
TORSDOF 3
