REMARK  4 active torsions:
REMARK  status: ('A' for Active; 'I' for Inactive)
REMARK    1  A    between atoms: S_15  and  C_2 
REMARK    2  A    between atoms: C_7  and  C_4 
REMARK       I    between atoms: N_10  and  C_7 
REMARK    3  A    between atoms: C_8  and  C_9 
REMARK       I    between atoms: C_9  and  N_11 
REMARK    4  A    between atoms: N_11  and  N_10 
ROOT
ATOM      1  C   UNL d   1       0.244   0.869   0.180  0.00  0.00     0.002 C 
ATOM      2  C   UNL d   1       1.594   1.108  -0.056  0.00  0.00     0.051 C 
ATOM      3  C   UNL d   1      -0.041  -0.549   0.002  0.00  0.00    -0.025 C 
ATOM      4  C   UNL d   1       1.106  -1.328  -0.066  0.00  0.00     0.082 C 
ATOM      5  S   UNL d   1       2.483  -0.344  -0.261  0.00  0.00    -0.076 SA
ATOM      6  C   UNL d   1      -0.861   1.838   0.619  0.00  0.00     0.085 C 
ATOM      7  S   UNL d   1      -0.976   3.348  -0.411  0.00  0.00    -0.142 SA
ATOM      8  S   UNL d   1      -0.520   2.342   2.375  0.00  0.00    -0.142 SA
ATOM      9  C   UNL d   1      -1.446  -1.079   0.015  0.00  0.00     0.041 C 
ATOM     10  C   UNL d   1      -2.283   1.190   0.634  0.00  0.00     0.037 C 
ATOM     11  C   UNL d   1      -2.437   0.025  -0.346  0.00  0.00     0.007 C 
ATOM     12  C   UNL d   1      -0.472   4.129   2.116  0.00  0.00     0.086 C 
ATOM     13  C   UNL d   1      -1.374   4.476   0.951  0.00  0.00     0.086 C 
ENDROOT
BRANCH   4  14
ATOM     14  C   UNL d   1       1.190  -2.787   0.018  0.00  0.00     0.277 C 
ATOM     15  N   UNL d   1       2.457  -3.350   0.041  0.00  0.00    -0.263 N 
ATOM     16  H   UNL d   1       3.309  -2.796   0.077  0.00  0.00     0.190 HD
ATOM     17  O   UNL d   1       0.200  -3.515   0.116  0.00  0.00    -0.265 OA
BRANCH  15  18
ATOM     18  N   UNL d   1       2.569  -4.725   0.311  0.00  0.00    -0.263 N 
ATOM     19  C   UNL d   1       3.816  -5.275   0.478  0.00  0.00     0.271 C 
ATOM     20  O   UNL d   1       4.835  -4.591   0.406  0.00  0.00    -0.266 OA
ATOM     21  H   UNL d   1       1.693  -5.245   0.380  0.00  0.00     0.190 HD
BRANCH  19  22
ATOM     22  C   UNL d   1       3.915  -6.741   0.796  0.00  0.00     0.055 A 
ATOM     23  C   UNL d   1       2.907  -7.700   0.615  0.00  0.00     0.049 A 
ATOM     24 CL   UNL d   1       1.348  -7.362  -0.051  0.00  0.00    -0.083 Cl
ATOM     25  C   UNL d   1       3.144  -9.044   0.957  0.00  0.00     0.025 A 
ATOM     26  C   UNL d   1       4.373  -9.445   1.471  0.00  0.00     0.002 A 
ATOM     27  C   UNL d   1       5.383  -8.507   1.648  0.00  0.00     0.001 A 
ATOM     28  C   UNL d   1       5.155  -7.168   1.313  0.00  0.00     0.019 A 
ENDBRANCH  19  22
ENDBRANCH  15  18
ENDBRANCH   4  14
BRANCH   2  29
ATOM     29  S   UNL d   1       2.464   2.645  -0.058  0.00  0.00    -0.126 SA
ATOM     30  C   UNL d   1       2.464   3.032  -1.829  0.00  0.00     0.096 C 
ENDBRANCH   2  29
TORSDOF 4
