REMARK  9 active torsions:
REMARK  status: ('A' for Active; 'I' for Inactive)
REMARK    1  A    between atoms: N_2  and  C_1 
REMARK    2  A    between atoms: C_3  and  C_1 
REMARK    3  A    between atoms: C_5  and  C_1 
REMARK    4  A    between atoms: N_6  and  C_1 
REMARK       I    between atoms: C_4  and  N_2 
REMARK    5  A    between atoms: C_7  and  C_4 
REMARK    6  A    between atoms: O_22  and  C_5 
REMARK    7  A    between atoms: C_11  and  N_6 
REMARK    8  A    between atoms: C_10  and  C_9 
REMARK    9  A    between atoms: C_27  and  O_22 
ROOT
ATOM      1  C   UNL d   1       0.923  -0.070   0.046  0.00  0.00     0.297 C 
ENDROOT
BRANCH   1   2
ATOM      2  N   UNL d   1       0.542   1.204   0.632  0.00  0.00    -0.313 N 
ATOM      3  C   UNL d   1      -0.755   1.613   0.781  0.00  0.00     0.277 C 
ATOM      4  O   UNL d   1      -1.696   0.918   0.410  0.00  0.00    -0.265 OA
ATOM      5  H   UNL d   1       1.283   1.766   1.028  0.00  0.00     0.166 HD
BRANCH   3   6
ATOM      6  C   UNL d   1      -0.888   2.902   1.419  0.00  0.00     0.142 A 
ATOM      7  O   UNL d   1       0.232   3.672   1.603  0.00  0.00    -0.317 OA
ATOM      8  C   UNL d   1      -0.169   4.829   2.190  0.00  0.00     0.143 A 
ATOM      9  C   UNL d   1      -1.526   4.811   2.409  0.00  0.00     0.027 A 
ATOM     10  C   UNL d   1      -1.992   3.571   1.909  0.00  0.00     0.045 A 
ENDBRANCH   3   6
ENDBRANCH   1   2
BRANCH   1  11
ATOM     11  C   UNL d   1       0.214  -0.492  -1.290  0.00  0.00     0.442 C 
ATOM     12  F   UNL d   1      -0.197   0.589  -2.007  0.00  0.00    -0.166 F 
ATOM     13  F   UNL d   1       1.062  -1.177  -2.102  0.00  0.00    -0.166 F 
ATOM     14  F   UNL d   1      -0.872  -1.280  -1.113  0.00  0.00    -0.166 F 
ENDBRANCH   1  11
BRANCH   1  15
ATOM     15  C   UNL d   1       0.623  -1.272   0.992  0.00  0.00     0.318 C 
ATOM     16  O   UNL d   1       1.029  -2.411   0.784  0.00  0.00    -0.260 OA
BRANCH  15  17
ATOM     17  O   UNL d   1      -0.115  -0.908   2.081  0.00  0.00    -0.318 OA
BRANCH  17  18
ATOM     18  C   UNL d   1      -0.608  -1.965   2.915  0.00  0.00     0.174 C 
ATOM     19  C   UNL d   1      -1.906  -2.500   2.339  0.00  0.00     0.034 C 
ENDBRANCH  17  18
ENDBRANCH  15  17
ENDBRANCH   1  15
BRANCH   1  20
ATOM     20  N   UNL d   1       2.415   0.048  -0.030  0.00  0.00    -0.348 N 
ATOM     21  H   UNL d   1       2.842  -0.884  -0.022  0.00  0.00     0.163 HD
BRANCH  20  22
ATOM     22  C   UNL d   1       3.118   0.906  -0.872  0.00  0.00     0.031 A 
ATOM     23  C   UNL d   1       2.542   1.938  -1.622  0.00  0.00     0.044 A 
ATOM     24  C   UNL d   1       3.331   2.806  -2.392  0.00  0.00     0.011 A 
ATOM     25  C   UNL d   1       4.723   2.701  -2.354  0.00  0.00     0.015 A 
ATOM     26  C   UNL d   1       5.318   1.710  -1.582  0.00  0.00     0.003 A 
ATOM     27  C   UNL d   1       4.520   0.823  -0.855  0.00  0.00     0.029 A 
BRANCH  24  28
ATOM     28  C   UNL d   1       2.724   3.864  -3.246  0.00  0.00     0.155 C 
ATOM     29  O   UNL d   1       3.364   4.887  -3.483  0.00  0.00    -0.293 OA
ATOM     30  C   UNL d   1       1.351   3.650  -3.831  0.00  0.00     0.096 C 
ENDBRANCH  24  28
ENDBRANCH  20  22
ENDBRANCH   1  20
TORSDOF 9
