REMARK  8 active torsions:
REMARK  status: ('A' for Active; 'I' for Inactive)
REMARK    1  A    between atoms: C_3  and  C_1 
REMARK    2  A    between atoms: C_6  and  C_1 
REMARK    3  A    between atoms: C_2  and  C_9 
REMARK    4  A    between atoms: O_11  and  C_2 
REMARK    5  A    between atoms: C_9  and  C_6 
REMARK    6  A    between atoms: O_14  and  C_10 
REMARK    7  A    between atoms: C_15  and  O_14 
REMARK    8  A    between atoms: C_16  and  C_15 
ROOT
ATOM      1  C   UNL d   1       0.269  -1.043  -0.491  0.00  0.00     0.010 A 
ATOM      2  C   UNL d   1       0.594  -2.294   0.052  0.00  0.00     0.018 A 
ATOM      3  C   UNL d   1      -0.778  -0.951  -1.407  0.00  0.00     0.018 A 
ATOM      4  C   UNL d   1      -1.198  -3.335  -1.220  0.00  0.00     0.068 A 
ATOM      5  C   UNL d   1      -1.510  -2.086  -1.760  0.00  0.00     0.037 A 
ATOM      6  C   UNL d   1      -0.143  -3.432  -0.309  0.00  0.00     0.037 A 
ENDROOT
BRANCH   1   7
ATOM      7  C   UNL d   1       1.072   0.154  -0.125  0.00  0.00     0.160 C 
ATOM      8  O   UNL d   1       2.266   0.033   0.155  0.00  0.00    -0.292 OA
BRANCH   7   9
ATOM      9  C   UNL d   1       0.403   1.519  -0.100  0.00  0.00     0.094 C 
BRANCH   9  10
ATOM     10  C   UNL d   1       1.396   2.618  -0.451  0.00  0.00     0.117 C 
BRANCH  10  11
ATOM     11  C   UNL d   1       1.918   2.437  -1.854  0.00  0.00     0.139 C 
ATOM     12  O   UNL d   1       1.384   2.920  -2.840  0.00  0.00    -0.650 OA
BRANCH  11  13
ATOM     13  O   UNL d   1       3.002   1.635  -1.927  0.00  0.00    -0.776 OA
ATOM     14  H   UNL d   1       3.222   1.188  -1.075  0.00  0.00     0.167 HD
ENDBRANCH  11  13
ENDBRANCH  10  11
ENDBRANCH   9  10
ENDBRANCH   7   9
ENDBRANCH   1   7
BRANCH   4  15
ATOM     15  O   UNL d   1      -1.844  -4.507  -1.530  0.00  0.00    -0.351 OA
BRANCH  15  16
ATOM     16  C   UNL d   1      -2.869  -4.383  -2.520  0.00  0.00     0.175 C 
BRANCH  16  17
ATOM     17  C   UNL d   1      -3.464  -5.744  -2.858  0.00  0.00     0.022 C 
ATOM     18  C   UNL d   1      -4.565  -5.587  -3.897  0.00  0.00     0.007 C 
ENDBRANCH  16  17
ENDBRANCH  15  16
ENDBRANCH   4  15
TORSDOF 8
