REMARK  6 active torsions:
REMARK  status: ('A' for Active; 'I' for Inactive)
REMARK    1  A    between atoms: S_3  and  N_1 
REMARK    2  A    between atoms: C_2  and  C_4 
REMARK    3  A    between atoms: C_14  and  S_3 
REMARK    4  A    between atoms: C_12  and  C_5 
REMARK    5  A    between atoms: O_21  and  C_12 
REMARK    6  A    between atoms: C_26  and  O_21 
ROOT
ATOM      1  N   UNL d   1       1.025  -0.776   0.016  0.00  0.00    -0.176 N 
ATOM      2  C   UNL d   1      -0.283  -1.271  -0.006  0.00  0.00     0.089 A 
ATOM      3  N   UNL d   1       1.061   0.595   0.063  0.00  0.00    -0.295 N 
ATOM      4  HN  UNL d   1       1.884   1.198   0.087  1.00  0.00     0.187 HD
ATOM      5  C   UNL d   1      -1.082  -0.135   0.041  0.00  0.00     0.052 A 
ATOM      6  C   UNL d   1      -0.216   0.963   0.070  0.00  0.00     0.111 A 
ENDROOT
BRANCH   2   7
ATOM      7  C   UNL d   1      -0.767  -2.636  -0.055  0.00  0.00     0.069 A 
ATOM      8  C   UNL d   1      -0.380  -3.750  -0.796  0.00  0.00     0.128 A 
ATOM      9  N   UNL d   1      -1.127  -4.909  -0.562  0.00  0.00    -0.348 N 
ATOM     10  C   UNL d   1      -2.090  -4.675   0.292  0.00  0.00     0.048 A 
ATOM     11  HN  UNL d   1      -0.946  -5.813  -0.998  1.00  0.00     0.166 HD
ATOM     12  S   UNL d   1      -2.139  -3.086   0.915  0.00  0.00    -0.072 SA
ATOM     13  C   UNL d   1      -3.086  -5.707   0.687  0.00  0.00     0.076 C 
BRANCH   8  14
ATOM     14  C   UNL d   1       0.687  -3.793  -1.787  0.00  0.00     0.311 C 
ATOM     15  O   UNL d   1       0.972  -2.845  -2.507  0.00  0.00    -0.258 OA
BRANCH  14  16
ATOM     16  O   UNL d   1       1.311  -5.005  -1.783  0.00  0.00    -0.317 OA
BRANCH  16  17
ATOM     17  C   UNL d   1       2.260  -5.233  -2.824  0.00  0.00     0.175 C 
ATOM     18  C   UNL d   1       1.501  -5.837  -3.987  0.00  0.00     0.034 C 
ENDBRANCH  16  17
ENDBRANCH  14  16
ENDBRANCH   8  14
ENDBRANCH   2   7
BRANCH   1  19
ATOM     19  S   UNL d   1       2.483  -1.709   0.143  0.00  0.00     0.282 S 
ATOM     20  O   UNL d   1       2.107  -3.084   0.431  0.00  0.00    -0.198 OA
ATOM     21  O   UNL d   1       3.298  -1.357  -1.001  0.00  0.00    -0.198 OA
BRANCH  19  22
ATOM     22  C   UNL d   1       3.269  -1.103   1.606  0.00  0.00     0.081 A 
ATOM     23  C   UNL d   1       3.068  -1.791   2.807  0.00  0.00     0.026 A 
ATOM     24  C   UNL d   1       3.762  -1.399   3.947  0.00  0.00     0.008 A 
ATOM     25  C   UNL d   1       4.661  -0.326   3.892  0.00  0.00    -0.062 A 
ATOM     26  C   UNL d   1       4.857   0.352   2.679  0.00  0.00     0.008 A 
ATOM     27  C   UNL d   1       5.411   0.066   5.129  0.00  0.00     0.048 C 
ATOM     28  C   UNL d   1       4.167  -0.038   1.530  0.00  0.00     0.026 A 
ENDBRANCH  19  22
ENDBRANCH   1  19
TORSDOF 6
