REMARK  4 active torsions:
REMARK  status: ('A' for Active; 'I' for Inactive)
REMARK    1  A    between atoms: S_9  and  C_1 
REMARK    2  A    between atoms: N_3  and  C_10 
REMARK    3  A    between atoms: N_18  and  C_6 
REMARK    4  A    between atoms: C_13  and  S_9 
ROOT
ATOM      1  S   UNL d   1       3.270  -0.788  -0.021  0.00  0.00    -0.046 SA
ENDROOT
BRANCH   1   2
ATOM      2  C   UNL d   1       1.887  -0.279  -0.959  0.00  0.00     0.136 A 
ATOM      3  S   UNL d   1       0.957  -1.393  -1.874  0.00  0.00    -0.026 SA
ATOM      4  C   UNL d   1      -0.104  -0.096  -2.245  0.00  0.00     0.159 A 
ATOM      5  N   UNL d   1       0.262   1.055  -1.723  0.00  0.00    -0.279 N 
ATOM      6  N   UNL d   1       1.417   0.949  -0.965  0.00  0.00    -0.286 N 
ATOM      7  HN  UNL d   1      -0.247   1.927  -1.861  1.00  0.00     0.189 HD
ATOM      8  HN  UNL d   1       1.850   1.729  -0.471  1.00  0.00     0.188 HD
BRANCH   4   9
ATOM      9  N   UNL d   1      -1.199  -0.280  -3.004  0.00  0.00    -0.379 N 
ATOM     10  H   UNL d   1      -1.248  -1.096  -3.603  0.00  0.00     0.158 HD
ATOM     11  H   UNL d   1      -1.641   0.550  -3.382  0.00  0.00     0.158 HD
ENDBRANCH   4   9
ENDBRANCH   1   2
BRANCH   1  12
ATOM     12  C   UNL d   1       4.238   0.699  -0.099  0.00  0.00     0.076 A 
ATOM     13  N   UNL d   1       5.079   0.828  -1.155  0.00  0.00    -0.358 N 
ATOM     14  C   UNL d   1       5.909   1.902  -1.170  0.00  0.00     0.124 A 
ATOM     15  HN  UNL d   1       5.087   0.143  -1.911  1.00  0.00     0.166 HD
ATOM     16  C   UNL d   1       5.945   2.847  -0.157  0.00  0.00     0.118 A 
ATOM     17  C   UNL d   1       5.079   2.705   0.927  0.00  0.00     0.040 A 
ATOM     18  C   UNL d   1       4.212   1.610   0.955  0.00  0.00     0.040 A 
BRANCH  16  19
ATOM     19  N   UNL d   1       6.891   3.952  -0.225  0.00  0.00    -0.114 N 
ATOM     20  O   UNL d   1       7.637   4.012  -1.212  0.00  0.00    -0.532 OA
ATOM     21  O   UNL d   1       6.899   4.759   0.715  0.00  0.00    -0.532 OA
ENDBRANCH  16  19
ENDBRANCH   1  12
TORSDOF 4
