REMARK  4 active torsions:
REMARK  status: ('A' for Active; 'I' for Inactive)
REMARK    1  A    between atoms: C_3  and  C_1 
REMARK    2  A    between atoms: C_9  and  C_2 
REMARK    3  A    between atoms: C_15  and  C_8 
REMARK       I    between atoms: N_16  and  C_9 
REMARK    4  A    between atoms: N_17  and  N_16 
ROOT
ATOM      1  C   UNL d   1      -0.024  -1.303  -0.021  0.00  0.00     0.057 A 
ATOM      2  C   UNL d   1      -0.176  -0.333  -1.054  0.00  0.00     0.138 A 
ATOM      3  N   UNL d   1      -0.613   0.834  -0.535  0.00  0.00    -0.255 N 
ATOM      4  HN  UNL d   1      -0.831   1.688  -1.048  1.00  0.00     0.195 HD
ATOM      5  O   UNL d   1      -0.705   0.642   0.827  0.00  0.00    -0.241 OA
ATOM      6  C   UNL d   1      -0.344  -0.629   1.136  0.00  0.00     0.087 A 
ATOM      7  C   UNL d   1      -0.396  -0.994   2.565  0.00  0.00     0.080 C 
ENDROOT
BRANCH   1   8
ATOM      8  C   UNL d   1       0.381  -2.704  -0.131  0.00  0.00     0.055 A 
ATOM      9  N   UNL d   1       1.089  -3.267   0.921  0.00  0.00    -0.349 N 
ATOM     10  C   UNL d   1       1.393  -4.525   0.650  0.00  0.00     0.084 A 
ATOM     11  HN  UNL d   1       1.339  -2.780   1.781  1.00  0.00     0.166 HD
ATOM     12  S   UNL d   1       0.756  -5.108  -0.845  0.00  0.00    -0.081 SA
ATOM     13  C   UNL d   1       0.074  -3.574  -1.153  0.00  0.00     0.082 A 
BRANCH  10  14
ATOM     14  C   UNL d   1       2.138  -5.433   1.544  0.00  0.00    -0.002 A 
ATOM     15  C   UNL d   1       2.053  -5.268   2.934  0.00  0.00     0.014 A 
ATOM     16  C   UNL d   1       2.699  -6.154   3.803  0.00  0.00     0.001 A 
ATOM     17  C   UNL d   1       3.450  -7.211   3.294  0.00  0.00     0.000 A 
ATOM     18  C   UNL d   1       3.574  -7.372   1.917  0.00  0.00     0.001 A 
ATOM     19  C   UNL d   1       2.928  -6.486   1.050  0.00  0.00     0.014 A 
ENDBRANCH  10  14
ENDBRANCH   1   8
BRANCH   2  20
ATOM     20  C   UNL d   1       0.085  -0.428  -2.494  0.00  0.00     0.285 C 
ATOM     21  O   UNL d   1       0.562  -1.417  -3.048  0.00  0.00    -0.265 OA
ATOM     22  N   UNL d   1      -0.254   0.719  -3.213  0.00  0.00    -0.288 N 
ATOM     23  H   UNL d   1      -0.712   1.484  -2.714  0.00  0.00     0.183 HD
BRANCH  22  24
ATOM     24  N   UNL d   1      -0.157   0.740  -4.625  0.00  0.00    -0.247 NA
ATOM     25  H   UNL d   1       0.165  -0.193  -4.920  0.00  0.00     0.143 HD
ATOM     26  H   UNL d   1       0.611   1.366  -4.881  0.00  0.00     0.143 HD
ENDBRANCH  22  24
ENDBRANCH   2  20
TORSDOF 4
