REMARK  4 active torsions:
REMARK  status: ('A' for Active; 'I' for Inactive)
REMARK    1  A    between atoms: C_3  and  C_1 
REMARK    2  A    between atoms: C_6  and  C_1 
REMARK    3  A    between atoms: C_4  and  C_2 
REMARK       I    between atoms: N_5  and  C_3 
REMARK    4  A    between atoms: N_7  and  C_6 
ROOT
ATOM      1  C   UNL d   1       0.984   0.072   0.068  0.00  0.00     0.095 C 
ATOM      2  C   UNL d   1       0.311  -0.951   0.635  0.00  0.00     0.042 C 
ENDROOT
BRANCH   1   3
ATOM      3  C   UNL d   1       0.236   1.269  -0.437  0.00  0.00     0.263 C 
ATOM      4  N   UNL d   1       0.847   2.214  -1.240  0.00  0.00    -0.347 N 
ATOM      5  C   UNL d   1       2.044   2.162  -2.074  0.00  0.00     0.126 C 
ATOM      6  C   UNL d   1       0.184   3.496  -1.448  0.00  0.00     0.126 C 
ATOM      7  C   UNL d   1       2.495   3.611  -2.113  0.00  0.00     0.021 C 
ATOM      8  C   UNL d   1       1.175   4.357  -2.232  0.00  0.00     0.021 C 
ATOM      9  O   UNL d   1      -0.932   1.432  -0.064  0.00  0.00    -0.267 OA
ENDBRANCH   1   3
BRANCH   1  10
ATOM     10  C   UNL d   1       2.504   0.072   0.068  0.00  0.00    -0.031 C 
BRANCH  10  11
ATOM     11  N   UNL d   1       3.765   0.072   0.068  0.00  0.00    -0.365 N 
ATOM     12  HN2 UNL d   1       2.745   0.072   0.068  1.00  0.00     0.165 HD
ATOM     13  HN1 UNL d   1       4.785   0.072   0.068  1.00  0.00     0.165 HD
ENDBRANCH  10  11
ENDBRANCH   1  10
BRANCH   2  14
ATOM     14  C   UNL d   1       0.995  -2.112   1.238  0.00  0.00     0.009 A 
ATOM     15  C   UNL d   1       1.422  -2.084   2.581  0.00  0.00     0.046 A 
ATOM     16 CL   UNL d   1       1.067  -0.745   3.621  0.00  0.00    -0.083 Cl
ATOM     17  C   UNL d   1       2.175  -3.132   3.119  0.00  0.00     0.025 A 
ATOM     18  C   UNL d   1       2.510  -4.230   2.330  0.00  0.00     0.003 A 
ATOM     19  C   UNL d   1       2.081  -4.287   1.005  0.00  0.00     0.025 A 
ATOM     20  C   UNL d   1       1.330  -3.239   0.462  0.00  0.00     0.046 A 
ATOM     21 CL   UNL d   1       0.859  -3.369  -1.198  0.00  0.00    -0.083 Cl
ENDBRANCH   2  14
TORSDOF 4
