REMARK  8 active torsions:
REMARK  status: ('A' for Active; 'I' for Inactive)
REMARK    1  A    between atoms: N_5  and  C_1 
REMARK    2  A    between atoms: C_7  and  C_3 
REMARK    3  A    between atoms: C_9  and  C_7 
REMARK    4  A    between atoms: C_10  and  C_7 
REMARK    5  A    between atoms: O_17  and  C_9 
REMARK    6  A    between atoms: O_18  and  C_10 
REMARK    7  A    between atoms: C_22  and  O_17 
REMARK    8  A    between atoms: C_21  and  O_18 
ROOT
ATOM      1  C   UNL d   1      -1.491  -1.553   0.498  0.00  0.00     0.179 A 
ATOM      2  C   UNL d   1      -1.943  -0.144   0.509  0.00  0.00     0.281 A 
ATOM      3  C   UNL d   1      -0.280  -1.991   0.080  0.00  0.00     0.016 A 
ATOM      4  N   UNL d   1      -1.016   0.799   0.077  0.00  0.00    -0.316 N 
ATOM      5  C   UNL d   1       0.698  -0.923  -0.320  0.00  0.00     0.001 A 
ATOM      6  C   UNL d   1       0.319   0.439  -0.276  0.00  0.00     0.048 A 
ATOM      7  O   UNL d   1      -3.069   0.170   0.891  0.00  0.00    -0.265 OA
ATOM      8  C   UNL d   1      -1.436   2.194   0.018  0.00  0.00     0.159 C 
ATOM      9  C   UNL d   1       2.023  -1.218  -0.706  0.00  0.00     0.014 A 
ATOM     10  C   UNL d   1       1.269   1.439  -0.566  0.00  0.00     0.030 A 
ATOM     11  C   UNL d   1       2.946  -0.214  -1.010  0.00  0.00     0.001 A 
ATOM     12  C   UNL d   1       2.575   1.116  -0.923  0.00  0.00     0.002 A 
ENDROOT
BRANCH   3  13
ATOM     13  C   UNL d   1       0.180  -3.465   0.025  0.00  0.00     0.221 C 
BRANCH  13  14
ATOM     14  C   UNL d   1       0.840  -3.872   1.335  0.00  0.00     0.277 C 
ATOM     15  O   UNL d   1       0.951  -3.148   2.314  0.00  0.00    -0.264 OA
BRANCH  14  16
ATOM     16  O   UNL d   1       1.417  -5.103   1.223  0.00  0.00    -0.321 OA
BRANCH  16  17
ATOM     17  C   UNL d   1       2.074  -5.614   2.392  0.00  0.00     0.174 C 
ATOM     18  C   UNL d   1       3.522  -5.168   2.397  0.00  0.00     0.034 C 
ENDBRANCH  16  17
ENDBRANCH  14  16
ENDBRANCH  13  14
BRANCH  13  19
ATOM     19  C   UNL d   1      -0.870  -4.408  -0.547  0.00  0.00     0.277 C 
ATOM     20  O   UNL d   1      -1.619  -4.071  -1.459  0.00  0.00    -0.264 OA
BRANCH  19  21
ATOM     21  O   UNL d   1      -0.815  -5.658  -0.029  0.00  0.00    -0.321 OA
BRANCH  21  22
ATOM     22  C   UNL d   1      -1.718  -6.628  -0.583  0.00  0.00     0.174 C 
ATOM     23  C   UNL d   1      -1.196  -7.156  -1.908  0.00  0.00     0.034 C 
ENDBRANCH  21  22
ENDBRANCH  19  21
ENDBRANCH  13  19
ENDBRANCH   3  13
BRANCH   1  24
ATOM     24  N   UNL d   1      -2.440  -2.489   1.059  0.00  0.00    -0.109 N 
ATOM     25  O   UNL d   1      -2.063  -3.156   2.034  0.00  0.00    -0.532 OA
ATOM     26  O   UNL d   1      -3.528  -2.624   0.489  0.00  0.00    -0.532 OA
ENDBRANCH   1  24
TORSDOF 8
