REMARK  4 active torsions:
REMARK  status: ('A' for Active; 'I' for Inactive)
REMARK    1  A    between atoms: C_10  and  C_1 
REMARK    2  A    between atoms: N_8  and  C_2 
REMARK    3  A    between atoms: C_9  and  C_4 
REMARK    4  A    between atoms: C_6  and  C_7 
REMARK       I    between atoms: C_7  and  N_8 
REMARK       I    between atoms: N_20  and  C_10 
ROOT
ATOM      1  C   UNL d   1       0.082   1.310  -0.111  0.00  0.00     0.100 A 
ATOM      2  C   UNL d   1       1.388   0.848   0.063  0.00  0.00     0.059 A 
ATOM      3  S   UNL d   1      -1.005  -0.027  -0.361  0.00  0.00    -0.082 SA
ATOM      4  C   UNL d   1       0.186  -1.197  -0.086  0.00  0.00     0.018 A 
ATOM      5  C   UNL d   1       1.406  -0.602   0.125  0.00  0.00     0.051 A 
ENDROOT
BRANCH   2   6
ATOM      6  N   UNL d   1       2.617   1.485   0.272  0.00  0.00    -0.318 N 
ATOM      7  C   UNL d   1       3.067   2.725  -0.164  0.00  0.00     0.330 C 
ATOM      8  O   UNL d   1       2.417   3.518  -0.841  0.00  0.00    -0.263 OA
ATOM      9  H   UNL d   1       3.359   0.868   0.593  0.00  0.00     0.169 HD
BRANCH   7  10
ATOM     10  C   UNL d   1       4.539   2.991   0.222  0.00  0.00     0.472 C 
ATOM     11  F   UNL d   1       5.105   1.897   0.815  0.00  0.00    -0.162 F 
ATOM     12  F   UNL d   1       5.313   3.277  -0.859  0.00  0.00    -0.162 F 
ATOM     13  F   UNL d   1       4.679   4.020   1.097  0.00  0.00    -0.162 F 
ENDBRANCH   7  10
ENDBRANCH   2   6
BRANCH   1  14
ATOM     14  C   UNL d   1      -0.626   2.585  -0.053  0.00  0.00     0.258 C 
ATOM     15  O   UNL d   1      -1.758   2.725   0.411  0.00  0.00    -0.267 OA
ATOM     16  N   UNL d   1      -0.051   3.691  -0.585  0.00  0.00    -0.365 N 
ATOM     17  H   UNL d   1       0.889   3.698  -0.968  0.00  0.00     0.159 HD
ATOM     18  H   UNL d   1      -0.561   4.559  -0.546  0.00  0.00     0.159 HD
ENDBRANCH   1  14
BRANCH   4  19
ATOM     19  C   UNL d   1      -0.085  -2.679  -0.075  0.00  0.00    -0.012 A 
ATOM     20  C   UNL d   1       0.879  -3.636   0.165  0.00  0.00     0.062 A 
ATOM     21  S   UNL d   1       0.248  -5.230   0.123  0.00  0.00    -0.113 SA
ATOM     22  C   UNL d   1      -1.324  -4.655  -0.218  0.00  0.00     0.050 A 
ATOM     23  C   UNL d   1      -1.365  -3.281  -0.298  0.00  0.00     0.020 A 
ENDBRANCH   4  19
TORSDOF 4
