REMARK  10 active torsions:
REMARK  status: ('A' for Active; 'I' for Inactive)
REMARK    1  A    between atoms: C_15  and  N_1 
REMARK    2  A    between atoms: C_11  and  C_2 
REMARK    3  A    between atoms: S_9  and  C_5 
REMARK    4  A    between atoms: C_8  and  C_12 
REMARK    5  A    between atoms: C_16  and  S_9 
REMARK    6  A    between atoms: C_10  and  C_16 
REMARK       I    between atoms: N_14  and  C_10 
REMARK    7  A    between atoms: N_24  and  N_14 
REMARK    8  A    between atoms: C_25  and  C_15 
REMARK    9  A    between atoms: C_27  and  C_25 
REMARK   10  A    between atoms: O_26  and  C_27 
ROOT
ATOM      1  N   UNL d   1      -0.202  -1.264  -0.007  0.00  0.00    -0.311 N 
ATOM      2  C   UNL d   1       1.000  -0.579  -0.149  0.00  0.00     0.134 A 
ATOM      3  N   UNL d   1       0.731   0.719  -0.147  0.00  0.00    -0.283 N 
ATOM      4  HN  UNL d   1       1.427   1.465  -0.161  1.00  0.00     0.188 HD
ATOM      5  C   UNL d   1      -1.176  -0.283  -0.049  0.00  0.00     0.163 A 
ATOM      6  N   UNL d   1      -0.623   0.902  -0.122  0.00  0.00    -0.278 N 
ATOM      7  HN  UNL d   1      -1.113   1.797  -0.155  1.00  0.00     0.189 HD
ENDROOT
BRANCH   2   8
ATOM      8  C   UNL d   1       2.368  -1.112  -0.219  0.00  0.00     0.009 C 
ATOM      9  C   UNL d   1       2.697  -2.268  -0.933  0.00  0.00     0.016 C 
ATOM     10  C   UNL d   1       3.964  -2.854  -0.813  0.00  0.00     0.017 C 
ATOM     11  C   UNL d   1       4.978  -2.223  -0.080  0.00  0.00     0.048 C 
ATOM     12  C   UNL d   1       4.696  -0.989   0.517  0.00  0.00     0.017 C 
ATOM     13  C   UNL d   1       3.404  -0.449   0.456  0.00  0.00     0.016 C 
BRANCH  11  14
ATOM     14  C   UNL d   1       6.328  -2.885   0.063  0.00  0.00     0.417 C 
ATOM     15  F   UNL d   1       7.247  -2.122   0.717  0.00  0.00    -0.166 F 
ATOM     16  F   UNL d   1       6.253  -4.055   0.756  0.00  0.00    -0.166 F 
ATOM     17  F   UNL d   1       6.886  -3.199  -1.139  0.00  0.00    -0.166 F 
ENDBRANCH  11  14
ENDBRANCH   2   8
BRANCH   1  18
ATOM     18  C   UNL d   1      -0.472  -2.689   0.046  0.00  0.00     0.135 C 
BRANCH  18  19
ATOM     19  C   UNL d   1       0.458  -3.664   0.784  0.00  0.00     0.046 C 
BRANCH  19  20
ATOM     20  C   UNL d   1       0.709  -3.327   2.240  0.00  0.00     0.168 C 
BRANCH  20  21
ATOM     21  O   UNL d   1      -0.530  -3.475   2.921  0.00  0.00    -0.396 OA
ATOM     22  C   UNL d   1      -0.387  -3.304   4.321  0.00  0.00     0.201 C 
ENDBRANCH  20  21
ENDBRANCH  19  20
ENDBRANCH  18  19
ENDBRANCH   1  18
BRANCH   5  23
ATOM     23  S   UNL d   1      -2.887  -0.563  -0.008  0.00  0.00    -0.083 SA
BRANCH  23  24
ATOM     24  C   UNL d   1      -3.477   0.539  -1.332  0.00  0.00     0.186 C 
BRANCH  24  25
ATOM     25  C   UNL d   1      -3.039  -0.001  -2.676  0.00  0.00     0.241 C 
ATOM     26  O   UNL d   1      -3.579  -0.973  -3.220  0.00  0.00    -0.271 OA
ATOM     27  N   UNL d   1      -1.938   0.642  -3.227  0.00  0.00    -0.293 N 
ATOM     28  H   UNL d   1      -1.520   1.454  -2.768  0.00  0.00     0.183 HD
BRANCH  27  29
ATOM     29  N   UNL d   1      -1.394   0.175  -4.441  0.00  0.00    -0.247 NA
ATOM     30  H   UNL d   1      -2.034  -0.550  -4.797  0.00  0.00     0.143 HD
ATOM     31  H   UNL d   1      -0.530  -0.331  -4.227  0.00  0.00     0.143 HD
ENDBRANCH  27  29
ENDBRANCH  24  25
ENDBRANCH  23  24
ENDBRANCH   5  23
TORSDOF 10
