REMARK  6 active torsions:
REMARK  status: ('A' for Active; 'I' for Inactive)
REMARK    1  A    between atoms: C_3  and  S_1 
REMARK    2  A    between atoms: C_8  and  S_1 
REMARK    3  A    between atoms: S_2  and  N_5 
REMARK    4  A    between atoms: C_4  and  S_2 
REMARK    5  A    between atoms: N_5  and  N_16 
REMARK    6  A    between atoms: N_16  and  C_9 
ROOT
ATOM      1  C   UNL d   1       0.426  -1.778   0.317  0.00  0.00     0.156 C 
ATOM      2  C   UNL d   1      -0.354  -2.007   1.477  0.00  0.00     0.113 C 
ATOM      3  C   UNL d   1       0.606  -2.746  -0.603  0.00  0.00     0.142 C 
ATOM      4  N   UNL d   1      -1.000  -2.322   2.385  0.00  0.00    -0.191 NA
ENDROOT
BRANCH   1   5
ATOM      5  S   UNL d   1       1.035  -0.179   0.030  0.00  0.00     0.194 S 
ATOM      6  O   UNL d   1       0.233   0.763   0.785  0.00  0.00    -0.221 OA
ATOM      7  O   UNL d   1       1.171   0.014  -1.405  0.00  0.00    -0.221 OA
BRANCH   5   8
ATOM      8  C   UNL d   1       2.719  -0.157   0.742  0.00  0.00     0.058 C 
ATOM      9  C   UNL d   1       3.636  -1.152   0.018  0.00  0.00     0.031 C 
ATOM     10  C   UNL d   1       3.296   1.260   0.553  0.00  0.00     0.031 C 
ATOM     11  C   UNL d   1       2.685  -0.476   2.243  0.00  0.00     0.031 C 
ENDBRANCH   5   8
ENDBRANCH   1   5
BRANCH   3  12
ATOM     12  N   UNL d   1       0.161  -4.039  -0.513  0.00  0.00    -0.300 N 
ATOM     13  H   UNL d   1      -0.287  -4.347   0.359  0.00  0.00     0.186 HD
BRANCH  12  14
ATOM     14  N   UNL d   1       0.230  -5.033  -1.556  0.00  0.00    -0.223 N 
ATOM     15  H   UNL d   1       0.661  -4.893  -2.473  0.00  0.00     0.200 HD
BRANCH  14  16
ATOM     16  S   UNL d   1      -0.497  -6.555  -1.303  0.00  0.00     0.276 S 
ATOM     17  O   UNL d   1      -0.271  -7.359  -2.482  0.00  0.00    -0.199 OA
ATOM     18  O   UNL d   1      -0.126  -6.987   0.028  0.00  0.00    -0.199 OA
BRANCH  16  19
ATOM     19  C   UNL d   1      -2.221  -6.115  -1.268  0.00  0.00     0.082 A 
ATOM     20  C   UNL d   1      -2.986  -6.369  -0.123  0.00  0.00     0.050 A 
ATOM     21  C   UNL d   1      -4.326  -5.970  -0.090  0.00  0.00     0.057 A 
ATOM     22 CL   UNL d   1      -5.226  -6.302   1.347  0.00  0.00    -0.083 Cl
ATOM     23  C   UNL d   1      -4.894  -5.322  -1.195  0.00  0.00     0.055 A 
ATOM     24  C   UNL d   1      -4.122  -5.085  -2.338  0.00  0.00     0.027 A 
ATOM     25 CL   UNL d   1      -6.535  -4.783  -1.212  0.00  0.00    -0.083 Cl
ATOM     26  C   UNL d   1      -2.785  -5.484  -2.380  0.00  0.00     0.027 A 
ENDBRANCH  16  19
ENDBRANCH  14  16
ENDBRANCH  12  14
ENDBRANCH   3  12
TORSDOF 6
