REMARK  3 active torsions:
REMARK  status: ('A' for Active; 'I' for Inactive)
REMARK    1  A    between atoms: C_16  and  C_9 
REMARK    2  A    between atoms: S_17  and  C_10 
REMARK    3  A    between atoms: S_18  and  C_11 
ROOT
ATOM      1  C   UNL d   1       0.062  -0.853  -0.004  0.00  0.00     0.152 A 
ATOM      2  N   UNL d   1      -0.271   0.508  -0.034  0.00  0.00    -0.235 N 
ATOM      3  N   UNL d   1       1.348  -1.293   0.023  0.00  0.00    -0.333 N 
ATOM      4  HN  UNL d   1       1.570  -2.289   0.029  1.00  0.00     0.168 HD
ATOM      5  C   UNL d   1      -1.121  -1.550  -0.002  0.00  0.00     0.125 A 
ATOM      6  N   UNL d   1      -1.627   0.671  -0.061  0.00  0.00    -0.284 N 
ATOM      7  HN  UNL d   1      -2.148   1.547  -0.096  1.00  0.00     0.188 HD
ATOM      8  C   UNL d   1       2.050   1.091   0.031  0.00  0.00     0.107 A 
ATOM      9  C   UNL d   1       0.751   1.484  -0.020  0.00  0.00     0.092 A 
ATOM     10  C   UNL d   1       2.280  -0.393   0.040  0.00  0.00     0.094 A 
ATOM     11  C   UNL d   1      -2.122  -0.572  -0.033  0.00  0.00     0.109 A 
ATOM     12  C   UNL d   1      -1.234  -2.968   0.031  0.00  0.00     0.106 C 
ATOM     13  C   UNL d   1       3.139   2.005   0.082  0.00  0.00     0.104 C 
ATOM     14  N   UNL d   1       4.009   2.772   0.135  0.00  0.00    -0.191 NA
ATOM     15  N   UNL d   1      -1.304  -4.127   0.059  0.00  0.00    -0.191 NA
ENDROOT
BRANCH  11  16
ATOM     16  S   UNL d   1      -3.832  -0.937  -0.031  0.00  0.00    -0.114 SA
ATOM     17  C   UNL d   1      -4.601   0.687  -0.054  0.00  0.00     0.097 C 
ENDBRANCH  11  16
BRANCH   9  18
ATOM     18  C   UNL d   1       0.442   2.933  -0.064  0.00  0.00    -0.006 A 
ATOM     19  C   UNL d   1       0.358   3.596  -1.299  0.00  0.00     0.015 A 
ATOM     20  C   UNL d   1       0.272   4.992  -1.349  0.00  0.00     0.024 A 
ATOM     21  C   UNL d   1       0.265   5.730  -0.168  0.00  0.00     0.034 A 
ATOM     22  C   UNL d   1       0.320   5.084   1.065  0.00  0.00     0.024 A 
ATOM     23 CL   UNL d   1       0.212   7.449  -0.232  0.00  0.00    -0.084 Cl
ATOM     24  C   UNL d   1       0.406   3.688   1.119  0.00  0.00     0.015 A 
ENDBRANCH   9  18
BRANCH  10  25
ATOM     25  S   UNL d   1       3.949  -0.945   0.068  0.00  0.00    -0.115 SA
ATOM     26  C   UNL d   1       3.723  -2.742   0.037  0.00  0.00     0.097 C 
ENDBRANCH  10  25
TORSDOF 3
