REMARK  10 active torsions:
REMARK  status: ('A' for Active; 'I' for Inactive)
REMARK    1  A    between atoms: C_3  and  S_1 
REMARK    2  A    between atoms: N_14  and  S_1 
REMARK    3  A    between atoms: N_5  and  C_2 
REMARK       I    between atoms: C_6  and  N_5 
REMARK    4  A    between atoms: C_11  and  C_6 
REMARK       I    between atoms: C_12  and  N_13 
REMARK    5  A    between atoms: N_13  and  C_16 
REMARK    6  A    between atoms: C_30  and  N_14 
REMARK    7  A    between atoms: C_22  and  O_28 
REMARK    8  A    between atoms: C_27  and  C_30 
REMARK    9  A    between atoms: C_33  and  C_27 
REMARK   10  A    between atoms: O_28  and  C_33 
ROOT
ATOM      1  S   UNL d   1       1.017  -0.245   0.064  0.00  0.00     0.248 S 
ATOM      2  O   UNL d   1       0.580   0.808  -0.819  0.00  0.00    -0.205 OA
ATOM      3  O   UNL d   1       0.641  -1.627  -0.140  0.00  0.00    -0.205 OA
ENDROOT
BRANCH   1   4
ATOM      4  C   UNL d   1       0.344   0.162   1.662  0.00  0.00     0.117 A 
ATOM      5  S   UNL d   1       0.828   1.634   2.388  0.00  0.00    -0.059 SA
ATOM      6  C   UNL d   1      -0.136   1.369   3.779  0.00  0.00     0.080 A 
ATOM      7  C   UNL d   1      -0.799   0.157   3.678  0.00  0.00     0.039 A 
ATOM      8  C   UNL d   1      -0.525  -0.533   2.469  0.00  0.00     0.035 A 
BRANCH   6   9
ATOM      9  N   UNL d   1      -0.283   2.321   4.822  0.00  0.00    -0.312 N 
ATOM     10  C   UNL d   1       0.710   3.308   5.064  0.00  0.00     0.258 C 
ATOM     11  O   UNL d   1       1.725   3.484   4.388  0.00  0.00    -0.267 OA
ATOM     12  C   UNL d   1      -1.485   2.211   5.658  0.00  0.00     0.160 C 
BRANCH  10  13
ATOM     13  C   UNL d   1       0.594   4.243   6.241  0.00  0.00     0.032 A 
ATOM     14  C   UNL d   1       0.169   3.840   7.515  0.00  0.00     0.018 A 
ATOM     15  C   UNL d   1       0.055   4.764   8.561  0.00  0.00     0.025 A 
ATOM     16  C   UNL d   1       0.457   6.082   8.370  0.00  0.00     0.034 A 
ATOM     17  C   UNL d   1       0.968   6.484   7.140  0.00  0.00     0.025 A 
ATOM     18 CL   UNL d   1       0.347   7.203   9.670  0.00  0.00    -0.084 Cl
ATOM     19  C   UNL d   1       1.029   5.571   6.078  0.00  0.00     0.018 A 
ENDBRANCH  10  13
ENDBRANCH   6   9
ENDBRANCH   1   4
BRANCH   1  20
ATOM     20  N   UNL d   1       2.699  -0.169   0.158  0.00  0.00    -0.215 NA
ATOM     21  H   UNL d   1       2.965   0.818   0.131  0.00  0.00     0.139 HD
BRANCH  20  22
ATOM     22  C   UNL d   1       3.363  -1.023   1.168  0.00  0.00     0.106 C 
BRANCH  22  23
ATOM     23  C   UNL d   1       4.891  -0.907   1.087  0.00  0.00     0.042 C 
BRANCH  23  24
ATOM     24  C   UNL d   1       5.312   0.546   1.229  0.00  0.00     0.176 C 
BRANCH  24  25
ATOM     25  O   UNL d   1       6.726   0.729   1.328  0.00  0.00    -0.351 OA
BRANCH  25  26
ATOM     26  C   UNL d   1       7.092   2.060   1.315  0.00  0.00     0.070 A 
ATOM     27  C   UNL d   1       6.296   3.090   0.796  0.00  0.00     0.066 A 
ATOM     28  C   UNL d   1       6.702   4.421   0.793  0.00  0.00     0.037 A 
ATOM     29  C   UNL d   1       7.943   4.731   1.352  0.00  0.00     0.029 A 
ATOM     30  C   UNL d   1       8.759   3.713   1.868  0.00  0.00     0.005 A 
ATOM     31  C   UNL d   1       8.340   2.379   1.834  0.00  0.00     0.037 A 
BRANCH  28  32
ATOM     32  N   UNL d   1       5.912   5.454   0.231  0.00  0.00    -0.327 N 
ATOM     33  C   UNL d   1       4.678   5.308  -0.393  0.00  0.00     0.218 C 
ATOM     34  O   UNL d   1       4.033   4.276  -0.529  0.00  0.00    -0.274 OA
ATOM     35  C   UNL d   1       4.129   6.598  -0.949  0.00  0.00     0.117 C 
ATOM     36  H   UNL d   1       6.307   6.383   0.272  0.00  0.00     0.169 HD
ENDBRANCH  28  32
ENDBRANCH  25  26
ENDBRANCH  24  25
ENDBRANCH  23  24
ENDBRANCH  22  23
ENDBRANCH  20  22
ENDBRANCH   1  20
TORSDOF 10
