REMARK  2 active torsions:
REMARK  status: ('A' for Active; 'I' for Inactive)
REMARK    1  A    between atoms: C_4  and  C_1 
REMARK       I    between atoms: N_7  and  C_4 
REMARK    2  A    between atoms: C_13  and  N_7 
ROOT
ATOM      1  C   UNL d   1       1.432  -2.792  -0.077  0.00  0.00     0.258 C 
ATOM      2  N   UNL d   1       0.753  -3.981   0.084  0.00  0.00    -0.322 N 
ATOM      3  O   UNL d   1       0.911  -1.733  -0.412  0.00  0.00    -0.267 OA
ATOM      4  H   UNL d   1       1.282  -4.777   0.418  0.00  0.00     0.169 HD
ENDROOT
BRANCH   1   5
ATOM      5  C   UNL d   1       2.887  -2.847   0.122  0.00  0.00     0.063 A 
ATOM      6  C   UNL d   1       3.640  -3.825   0.743  0.00  0.00     0.091 A 
ATOM      7  S   UNL d   1       5.316  -3.530   0.720  0.00  0.00    -0.065 SA
ATOM      8 CL   UNL d   1       3.116  -5.271   1.525  0.00  0.00    -0.075 Cl
ATOM      9  C   UNL d   1       5.086  -2.073  -0.100  0.00  0.00     0.077 A 
ATOM     10  C   UNL d   1       3.768  -1.798  -0.349  0.00  0.00     0.050 A 
ATOM     11 CL   UNL d   1       6.436  -1.111  -0.540  0.00  0.00    -0.076 Cl
ENDBRANCH   1   5
BRANCH   2  12
ATOM     12  C   UNL d   1      -0.603  -4.229  -0.222  0.00  0.00     0.050 A 
ATOM     13  C   UNL d   1      -1.488  -3.305  -0.773  0.00  0.00     0.117 A 
ATOM     14  N   UNL d   1      -2.776  -3.586  -1.103  0.00  0.00    -0.373 N 
ATOM     15  C   UNL d   1      -3.206  -4.841  -0.871  0.00  0.00     0.088 A 
ATOM     16  HN  UNL d   1      -3.388  -2.878  -1.507  1.00  0.00     0.164 HD
ATOM     17  C   UNL d   1      -2.413  -5.831  -0.318  0.00  0.00     0.019 A 
ATOM     18  C   UNL d   1      -1.094  -5.517   0.010  0.00  0.00     0.032 A 
ENDBRANCH   2  12
TORSDOF 2
