REMARK  3 active torsions:
REMARK  status: ('A' for Active; 'I' for Inactive)
REMARK    1  A    between atoms: C_11  and  C_7 
REMARK    2  A    between atoms: O_17  and  C_12 
REMARK    3  A    between atoms: C_18  and  O_17 
ROOT
ATOM      1  C   UNL d   1       1.332   0.047  -0.626  0.00  0.00     0.101 A 
ATOM      2  N   UNL d   1      -0.606  -1.325  -1.054  0.00  0.00    -0.275 N 
ATOM      3  N   UNL d   1      -0.591   0.855  -1.830  0.00  0.00    -0.275 N 
ATOM      4  C   UNL d   1       0.635  -1.259  -0.489  0.00  0.00     0.265 A 
ATOM      5  C   UNL d   1       0.667   1.143  -1.378  0.00  0.00     0.265 A 
ATOM      6  C   UNL d   1      -1.252  -0.326  -1.714  0.00  0.00     0.329 A 
ATOM      7  C   UNL d   1       2.535   0.152  -0.027  0.00  0.00     0.034 C 
ATOM      8  O   UNL d   1       1.168   2.235  -1.617  0.00  0.00    -0.267 OA
ATOM      9  O   UNL d   1       1.112  -2.227   0.096  0.00  0.00    -0.267 OA
ATOM     10  O   UNL d   1      -2.371  -0.489  -2.187  0.00  0.00    -0.246 OA
ATOM     11  H   UNL d   1      -1.099  -2.202  -0.967  0.00  0.00     0.173 HD
ATOM     12  H   UNL d   1      -1.061   1.587  -2.343  0.00  0.00     0.173 HD
ENDROOT
BRANCH   7  13
ATOM     13  C   UNL d   1       3.377   1.348   0.035  0.00  0.00    -0.035 A 
ATOM     14  C   UNL d   1       3.216   2.253   1.088  0.00  0.00     0.014 A 
ATOM     15  C   UNL d   1       3.998   3.410   1.152  0.00  0.00     0.037 A 
ATOM     16  C   UNL d   1       4.947   3.670   0.163  0.00  0.00     0.068 A 
ATOM     17  C   UNL d   1       5.135   2.746  -0.867  0.00  0.00     0.037 A 
ATOM     18  C   UNL d   1       4.349   1.592  -0.939  0.00  0.00     0.014 A 
BRANCH  16  19
ATOM     19  O   UNL d   1       5.770   4.764   0.136  0.00  0.00    -0.352 OA
BRANCH  19  20
ATOM     20  C   UNL d   1       5.221   5.957   0.701  0.00  0.00     0.171 C 
ATOM     21  C   UNL d   1       6.221   7.082   0.502  0.00  0.00     0.034 C 
ENDBRANCH  19  20
ENDBRANCH  16  19
ENDBRANCH   7  13
TORSDOF 3
