REMARK  6 active torsions:
REMARK  status: ('A' for Active; 'I' for Inactive)
REMARK    1  A    between atoms: N_7  and  S_1 
REMARK    2  A    between atoms: C_14  and  S_1 
REMARK    3  A    between atoms: N_2  and  C_15 
REMARK    4  A    between atoms: C_11  and  C_6 
REMARK    5  A    between atoms: N_12  and  C_10 
REMARK    6  A    between atoms: S_23  and  C_10 
ROOT
ATOM      1  C   UNL d   1      -0.767   1.838   1.755  0.00  0.00     0.080 A 
ATOM      2  C   UNL d   1      -1.017   4.235   0.341  0.00  0.00     0.057 A 
ATOM      3  C   UNL d   1      -2.038   2.318   1.422  0.00  0.00     0.027 A 
ATOM      4  C   UNL d   1       0.379   2.563   1.421  0.00  0.00     0.027 A 
ATOM      5  C   UNL d   1       0.252   3.765   0.718  0.00  0.00     0.033 A 
ATOM      6  C   UNL d   1      -2.163   3.526   0.730  0.00  0.00     0.033 A 
ENDROOT
BRANCH   1   7
ATOM      7  S   UNL d   1      -0.598   0.322   2.692  0.00  0.00     0.264 S 
ATOM      8  O   UNL d   1       0.088   0.719   3.907  0.00  0.00    -0.200 OA
ATOM      9  O   UNL d   1      -1.925  -0.262   2.736  0.00  0.00    -0.200 OA
BRANCH   7  10
ATOM     10  N   UNL d   1       0.375  -0.593   1.778  0.00  0.00    -0.260 N 
ATOM     11  C   UNL d   1       0.709  -1.812   2.088  0.00  0.00     0.151 C 
ATOM     12  HN  UNL d   1       0.746  -0.194   0.915  1.00  0.00     0.181 HD
BRANCH  11  13
ATOM     13  N   UNL d   1       1.521  -2.571   1.236  0.00  0.00    -0.361 N 
ATOM     14  C   UNL d   1       2.042  -3.917   1.515  0.00  0.00     0.125 C 
ATOM     15  C   UNL d   1       1.678  -4.868   0.375  0.00  0.00     0.024 C 
ATOM     16  C   UNL d   1       2.209  -4.349  -0.966  0.00  0.00    -0.015 C 
ATOM     17  C   UNL d   1       1.708  -2.918  -1.199  0.00  0.00     0.024 C 
ATOM     18  C   UNL d   1       1.797  -5.275  -2.109  0.00  0.00     0.010 C 
ATOM     19  C   UNL d   1       2.042  -2.003  -0.017  0.00  0.00     0.125 C 
ENDBRANCH  11  13
BRANCH  11  20
ATOM     20  S   UNL d   1       0.141  -2.607   3.567  0.00  0.00    -0.098 SA
ATOM     21  C   UNL d   1       1.481  -2.135   4.683  0.00  0.00     0.099 C 
ENDBRANCH  11  20
ENDBRANCH   7  10
ENDBRANCH   1   7
BRANCH   2  22
ATOM     22  N   UNL d   1      -1.163   5.434  -0.414  0.00  0.00    -0.255 N 
ATOM     23  C   UNL d   1      -0.291   6.015  -1.333  0.00  0.00     0.076 C 
ATOM     24  C   UNL d   1      -0.788   7.285  -1.561  0.00  0.00     0.069 C 
ATOM     25  C   UNL d   1       0.837   5.378  -1.962  0.00  0.00     0.033 A 
ATOM     26  C   UNL d   1      -2.022   7.355  -0.871  0.00  0.00     0.135 C 
ATOM     27  N   UNL d   1      -2.288   6.187  -0.258  0.00  0.00    -0.289 N 
ATOM     28  HN  UNL d   1      -3.149   5.922   0.222  1.00  0.00     0.187 HD
ATOM     29  S   UNL d   1       2.260   6.257  -2.348  0.00  0.00    -0.100 SA
ATOM     30  C   UNL d   1       0.947   4.059  -2.366  0.00  0.00     0.021 A 
ATOM     31  C   UNL d   1       3.031   4.868  -2.979  0.00  0.00     0.050 A 
ATOM     32  C   UNL d   1       2.224   3.756  -2.919  0.00  0.00     0.008 A 
BRANCH  26  33
ATOM     33  C   UNL d   1      -2.950   8.542  -0.845  0.00  0.00     0.434 C 
ATOM     34  F   UNL d   1      -4.069   8.349  -0.101  0.00  0.00    -0.165 F 
ATOM     35  F   UNL d   1      -2.329   9.643  -0.338  0.00  0.00    -0.165 F 
ATOM     36  F   UNL d   1      -3.363   8.880  -2.096  0.00  0.00    -0.165 F 
ENDBRANCH  26  33
ENDBRANCH   2  22
TORSDOF 6
