REMARK  1 active torsions:
REMARK  status: ('A' for Active; 'I' for Inactive)
REMARK    1  A    between atoms: O_14  and  C_6 
ROOT
ATOM      1  C   UNL d   1       1.647   0.992  -0.029  0.00  0.00     0.100 A 
ATOM      2  C   UNL d   1       0.497   1.942  -0.083  0.00  0.00     0.264 A 
ATOM      3  C   UNL d   1       1.419  -0.328   0.021  0.00  0.00     0.110 A 
ATOM      4  N   UNL d   1      -0.783   1.414  -0.032  0.00  0.00    -0.312 N 
ATOM      5  C   UNL d   1       0.059  -0.876   0.013  0.00  0.00     0.026 A 
ATOM      6  C   UNL d   1       3.022   1.449  -0.032  0.00  0.00     0.090 A 
ATOM      7  C   UNL d   1      -1.028   0.013  -0.029  0.00  0.00     0.057 A 
ATOM      8  C   UNL d   1       4.034   0.580   0.016  0.00  0.00     0.120 A 
ATOM      9  O   UNL d   1       2.474  -1.271   0.071  0.00  0.00    -0.273 OA
ATOM     10  C   UNL d   1       3.780  -0.866   0.071  0.00  0.00     0.290 A 
ATOM     11  O   UNL d   1       0.729   3.151  -0.165  0.00  0.00    -0.267 OA
ATOM     12  C   UNL d   1      -2.346  -0.481  -0.060  0.00  0.00    -0.030 A 
ATOM     13  O   UNL d   1       4.713  -1.660   0.115  0.00  0.00    -0.260 OA
ATOM     14  C   UNL d   1      -1.908   2.340  -0.103  0.00  0.00     0.133 C 
ATOM     15  C   UNL d   1      -0.187  -2.257   0.040  0.00  0.00     0.017 A 
ATOM     16  C   UNL d   1      -3.186   1.783   0.499  0.00  0.00     0.025 C 
ATOM     17  C   UNL d   1      -1.492  -2.748   0.010  0.00  0.00     0.002 A 
ATOM     18  C   UNL d   1      -2.567  -1.865  -0.050  0.00  0.00     0.009 A 
ATOM     19  C   UNL d   1      -3.521   0.454  -0.156  0.00  0.00     0.042 C 
ENDROOT
BRANCH   6  20
ATOM     20  O   UNL d   1       3.285   2.805  -0.086  0.00  0.00    -0.359 OA
ATOM     21  H   UNL d   1       2.436   3.298  -0.133  0.00  0.00     0.217 HD
ENDBRANCH   6  20
TORSDOF 1
