REMARK  3 active torsions:
REMARK  status: ('A' for Active; 'I' for Inactive)
REMARK    1  A    between atoms: C_11  and  C_7 
REMARK    2  A    between atoms: O_17  and  C_12 
REMARK    3  A    between atoms: C_18  and  O_17 
ROOT
ATOM      1  C   UNL d   1       1.605  -0.001   0.666  0.00  0.00     0.101 A 
ATOM      2  N   UNL d   1      -0.427   1.293   0.866  0.00  0.00    -0.299 N 
ATOM      3  N   UNL d   1      -0.406  -0.888   1.660  0.00  0.00    -0.299 N 
ATOM      4  C   UNL d   1       0.872   1.273   0.433  0.00  0.00     0.263 A 
ATOM      5  C   UNL d   1       0.886  -1.148   1.282  0.00  0.00     0.263 A 
ATOM      6  C   UNL d   1      -1.087   0.274   1.477  0.00  0.00     0.181 A 
ATOM      7  C   UNL d   1       2.898  -0.027   0.285  0.00  0.00     0.034 C 
ATOM      8  S   UNL d   1      -2.664   0.441   1.974  0.00  0.00    -0.040 SA
ATOM      9  O   UNL d   1       1.365   2.253  -0.115  0.00  0.00    -0.267 OA
ATOM     10  O   UNL d   1       1.361  -2.264   1.462  0.00  0.00    -0.267 OA
ATOM     11  H   UNL d   1      -0.929   2.158   0.709  0.00  0.00     0.171 HD
ATOM     12  H   UNL d   1      -0.893  -1.661   2.095  0.00  0.00     0.171 HD
ENDROOT
BRANCH   7  13
ATOM     13  C   UNL d   1       3.800  -1.178   0.356  0.00  0.00    -0.035 A 
ATOM     14  C   UNL d   1       3.880  -2.051  -0.733  0.00  0.00     0.014 A 
ATOM     15  C   UNL d   1       4.703  -3.178  -0.676  0.00  0.00     0.037 A 
ATOM     16  C   UNL d   1       5.452  -3.443   0.470  0.00  0.00     0.068 A 
ATOM     17  C   UNL d   1       5.406  -2.548   1.541  0.00  0.00     0.037 A 
ATOM     18  C   UNL d   1       4.577  -1.422   1.491  0.00  0.00     0.014 A 
BRANCH  16  19
ATOM     19  O   UNL d   1       6.287  -4.517   0.626  0.00  0.00    -0.352 OA
BRANCH  19  20
ATOM     20  C   UNL d   1       5.890  -5.703  -0.067  0.00  0.00     0.171 C 
ATOM     21  C   UNL d   1       6.869  -6.811   0.276  0.00  0.00     0.034 C 
ENDBRANCH  19  20
ENDBRANCH  16  19
ENDBRANCH   7  13
TORSDOF 3
