REMARK  2 active torsions:
REMARK  status: ('A' for Active; 'I' for Inactive)
REMARK    1  A    between atoms: C_4  and  C_3 
REMARK    2  A    between atoms: C_6  and  C_4 
ROOT
ATOM      1  N   UNL d   1      -1.183   1.349   0.037  0.00  0.00    -0.352 N 
ATOM      2  HN  UNL d   1      -1.190   2.367   0.090  1.00  0.00     0.166 HD
ATOM      3  C   UNL d   1      -2.340   0.645  -0.023  0.00  0.00     0.085 A 
ATOM      4  C   UNL d   1      -0.029   0.668   0.026  0.00  0.00     0.043 A 
ATOM      5  C   UNL d   1      -2.395  -0.741  -0.034  0.00  0.00     0.034 A 
ATOM      6  C   UNL d   1       0.021  -0.742   0.002  0.00  0.00    -0.009 A 
ATOM      7  C   UNL d   1      -1.193  -1.442  -0.023  0.00  0.00     0.016 A 
ATOM      8  C   UNL d   1       1.166   1.372   0.032  0.00  0.00     0.030 A 
ATOM      9  C   UNL d   1       1.263  -1.401   0.000  0.00  0.00     0.013 A 
ATOM     10  C   UNL d   1       2.401   0.720   0.021  0.00  0.00     0.002 A 
ATOM     11  C   UNL d   1       2.450  -0.670   0.010  0.00  0.00     0.001 A 
ENDROOT
BRANCH   3  12
ATOM     12  C   UNL d   1      -3.604   1.426  -0.020  0.00  0.00     0.225 C 
ATOM     13  O   UNL d   1      -4.618   0.961   0.502  0.00  0.00    -0.283 OA
BRANCH  12  14
ATOM     14  C   UNL d   1      -3.635   2.770  -0.656  0.00  0.00     0.085 A 
ATOM     15  N   UNL d   1      -2.800   2.981  -1.704  0.00  0.00    -0.363 N 
ATOM     16  C   UNL d   1      -2.840   4.198  -2.284  0.00  0.00     0.088 A 
ATOM     17  HN  UNL d   1      -2.170   2.252  -2.039  1.00  0.00     0.165 HD
ATOM     18  C   UNL d   1      -3.700   5.209  -1.891  0.00  0.00     0.017 A 
ATOM     19  C   UNL d   1      -4.572   4.961  -0.835  0.00  0.00     0.004 A 
ATOM     20  C   UNL d   1      -4.545   3.720  -0.203  0.00  0.00     0.034 A 
ENDBRANCH  12  14
ENDBRANCH   3  12
TORSDOF 2
