REMARK  3 active torsions:
REMARK  status: ('A' for Active; 'I' for Inactive)
REMARK    1  A    between atoms: C_4  and  N_1 
REMARK    2  A    between atoms: C_5  and  C_4 
REMARK    3  A    between atoms: C_6  and  C_5 
ROOT
ATOM      1  C   UNL d   1      -1.476   2.905  -0.451  0.00  0.00     0.177 C 
ATOM      2  O   UNL d   1      -2.420   2.283  -0.938  0.00  0.00    -0.291 OA
ENDROOT
BRANCH   1   3
ATOM      3  C   UNL d   1      -0.132   2.240  -0.153  0.00  0.00     0.218 C 
BRANCH   3   4
ATOM      4  N   UNL d   1      -0.060   1.619   1.161  0.00  0.00    -0.281 N 
ATOM      5  C   UNL d   1      -0.530   0.368   1.431  0.00  0.00     0.227 C 
ATOM      6  C   UNL d   1      -0.137  -0.017   2.828  0.00  0.00     0.112 C 
ATOM      7  O   UNL d   1      -1.108  -0.384   0.659  0.00  0.00    -0.273 OA
ATOM      8  C   UNL d   1       0.584   1.204   3.365  0.00  0.00     0.112 C 
ATOM      9  C   UNL d   1       0.751   2.074   2.159  0.00  0.00     0.227 C 
ATOM     10  O   UNL d   1       1.499   3.038   2.109  0.00  0.00    -0.273 OA
ENDBRANCH   3   4
ENDBRANCH   1   3
BRANCH   1  11
ATOM     11  C   UNL d   1      -1.669   4.348  -0.140  0.00  0.00     0.011 A 
ATOM     12  C   UNL d   1      -2.519   5.116  -0.946  0.00  0.00     0.016 A 
ATOM     13  C   UNL d   1      -2.793   6.449  -0.614  0.00  0.00     0.007 A 
ATOM     14  C   UNL d   1      -2.236   7.022   0.536  0.00  0.00    -0.062 A 
ATOM     15  C   UNL d   1      -1.367   6.260   1.320  0.00  0.00     0.007 A 
ATOM     16  C   UNL d   1      -2.593   8.422   0.943  0.00  0.00     0.048 C 
ATOM     17  C   UNL d   1      -1.084   4.935   0.983  0.00  0.00     0.016 A 
ENDBRANCH   1  11
TORSDOF 3
