REMARK  5 active torsions:
REMARK  status: ('A' for Active; 'I' for Inactive)
REMARK    1  A    between atoms: N_7  and  C_1 
REMARK    2  A    between atoms: C_8  and  C_2 
REMARK    3  A    between atoms: C_19  and  N_3 
REMARK       I    between atoms: N_10  and  C_8 
REMARK       I    between atoms: C_9  and  N_11 
REMARK    4  A    between atoms: C_14  and  C_9 
REMARK    5  A    between atoms: N_11  and  N_10 
ROOT
ATOM      1  C   UNL d   1       2.476  -1.306   0.705  0.00  0.00     0.290 C 
ATOM      2  N   UNL d   1       3.562  -0.602   1.177  0.00  0.00    -0.262 N 
ATOM      3  O   UNL d   1       2.590  -2.490   0.386  0.00  0.00    -0.264 OA
ATOM      4  H   UNL d   1       3.542   0.399   1.374  0.00  0.00     0.190 HD
ENDROOT
BRANCH   1   5
ATOM      5  C   UNL d   1       1.203  -0.615   0.651  0.00  0.00     0.155 A 
ATOM      6  C   UNL d   1       0.811   0.679   0.287  0.00  0.00     0.160 A 
ATOM      7  C   UNL d   1      -0.610   0.675   0.317  0.00  0.00     0.057 A 
ATOM      8  N   UNL d   1      -1.081  -0.504   0.725  0.00  0.00    -0.300 N 
ATOM      9  C   UNL d   1      -1.577   1.758  -0.006  0.00  0.00     0.072 C 
ATOM     10  N   UNL d   1       0.015  -1.241   0.981  0.00  0.00    -0.285 N 
ATOM     11  HN  UNL d   1      -2.057  -0.786   0.822  1.00  0.00     0.187 HD
BRANCH   6  12
ATOM     12  N   UNL d   1       1.641   1.794  -0.076  0.00  0.00    -0.111 N 
ATOM     13  O   UNL d   1       2.861   1.662   0.055  0.00  0.00    -0.532 OA
ATOM     14  O   UNL d   1       1.076   2.826  -0.459  0.00  0.00    -0.532 OA
ENDBRANCH   6  12
BRANCH  10  15
ATOM     15  C   UNL d   1      -0.167  -2.452   1.767  0.00  0.00     0.145 C 
ATOM     16  C   UNL d   1      -0.900  -3.559   1.032  0.00  0.00     0.028 C 
ENDBRANCH  10  15
ENDBRANCH   1   5
BRANCH   2  17
ATOM     17  N   UNL d   1       4.830  -1.212   1.212  0.00  0.00    -0.263 N 
ATOM     18  C   UNL d   1       5.732  -0.769   2.160  0.00  0.00     0.270 C 
ATOM     19  O   UNL d   1       5.469   0.123   2.966  0.00  0.00    -0.266 OA
ATOM     20  H   UNL d   1       4.928  -2.091   0.708  0.00  0.00     0.190 HD
BRANCH  18  21
ATOM     21  C   UNL d   1       7.074  -1.420   2.182  0.00  0.00     0.033 A 
ATOM     22  C   UNL d   1       7.661  -1.954   1.027  0.00  0.00     0.019 A 
ATOM     23  C   UNL d   1       8.960  -2.478   1.078  0.00  0.00     0.025 A 
ATOM     24  C   UNL d   1       9.671  -2.469   2.279  0.00  0.00     0.034 A 
ATOM     25  C   UNL d   1       9.094  -1.946   3.432  0.00  0.00     0.025 A 
ATOM     26 CL   UNL d   1      11.276  -3.086   2.326  0.00  0.00    -0.084 Cl
ATOM     27  C   UNL d   1       7.800  -1.417   3.383  0.00  0.00     0.019 A 
ENDBRANCH  18  21
ENDBRANCH   2  17
TORSDOF 5
