REMARK  3 active torsions:
REMARK  status: ('A' for Active; 'I' for Inactive)
REMARK    1  A    between atoms: N_7  and  C_2 
REMARK    2  A    between atoms: C_19  and  N_7 
REMARK    3  A    between atoms: C_13  and  C_19 
ROOT
ATOM      1  C   UNL d   1       0.089  -0.699  -0.033  0.00  0.00     0.052 A 
ATOM      2  C   UNL d   1       1.248  -1.464  -0.008  0.00  0.00     0.086 A 
ATOM      3  C   UNL d   1       0.356   0.723  -0.025  0.00  0.00    -0.013 A 
ATOM      4  C   UNL d   1       1.711   0.983  -0.015  0.00  0.00     0.094 A 
ATOM      5  S   UNL d   1       2.630  -0.442   0.076  0.00  0.00    -0.060 SA
ATOM      6  C   UNL d   1      -1.286  -1.208  -0.052  0.00  0.00     0.163 C 
ATOM      7  C   UNL d   1       2.311   2.269  -0.071  0.00  0.00     0.107 C 
ATOM      8  N   UNL d   1       2.778   3.337  -0.120  0.00  0.00    -0.191 NA
ATOM      9  C   UNL d   1      -0.746   1.756  -0.056  0.00  0.00     0.050 C 
ATOM     10  C   UNL d   1      -2.127   1.170   0.344  0.00  0.00    -0.037 C 
ATOM     11  C   UNL d   1      -2.355  -0.174  -0.390  0.00  0.00     0.093 C 
ATOM     12  O   UNL d   1      -1.573  -2.383   0.163  0.00  0.00    -0.292 OA
ATOM     13  C   UNL d   1      -3.235   2.160  -0.062  0.00  0.00     0.015 C 
ATOM     14  C   UNL d   1      -2.208   0.973   1.872  0.00  0.00     0.015 C 
ENDROOT
BRANCH   2  15
ATOM     15  N   UNL d   1       1.357  -2.820  -0.084  0.00  0.00    -0.377 N 
ATOM     16  H   UNL d   1       0.511  -3.383  -0.197  0.00  0.00     0.160 HD
BRANCH  15  17
ATOM     17  C   UNL d   1       2.478  -3.533   0.524  0.00  0.00     0.185 C 
BRANCH  17  18
ATOM     18  C   UNL d   1       2.432  -5.017   0.389  0.00  0.00     0.070 A 
ATOM     19  O   UNL d   1       3.089  -5.548  -0.682  0.00  0.00    -0.325 OA
ATOM     20  C   UNL d   1       2.963  -6.896  -0.599  0.00  0.00     0.142 A 
ATOM     21  C   UNL d   1       2.229  -7.243   0.511  0.00  0.00     0.027 A 
ATOM     22  C   UNL d   1       1.883  -6.028   1.152  0.00  0.00     0.036 A 
ENDBRANCH  17  18
ENDBRANCH  15  17
ENDBRANCH   2  15
TORSDOF 3
