REMARK  4 active torsions:
REMARK  status: ('A' for Active; 'I' for Inactive)
REMARK    1  A    between atoms: S_4  and  C_1 
REMARK    2  A    between atoms: C_7  and  C_2 
REMARK    3  A    between atoms: N_10  and  C_3 
REMARK    4  A    between atoms: O_13  and  C_7 
ROOT
ATOM      1  C   UNL d   1      -0.661  -1.238   0.009  0.00  0.00     0.093 A 
ATOM      2  C   UNL d   1      -0.292   1.075   0.070  0.00  0.00     0.107 A 
ATOM      3  C   UNL d   1      -1.246   0.066   0.087  0.00  0.00     0.071 A 
ATOM      4  S   UNL d   1       1.298   0.413   0.040  0.00  0.00    -0.092 SA
ATOM      5  C   UNL d   1       0.716  -1.188  -0.005  0.00  0.00     0.076 A 
ENDROOT
BRANCH   1   6
ATOM      6  S   UNL d   1      -1.535  -2.736  -0.056  0.00  0.00     0.174 S 
ATOM      7  O   UNL d   1      -2.833  -2.405  -0.612  0.00  0.00    -0.223 OA
ATOM      8  O   UNL d   1      -0.632  -3.662  -0.710  0.00  0.00    -0.223 OA
ATOM      9  C   UNL d   1      -1.727  -3.215   1.637  0.00  0.00     0.167 C 
ENDBRANCH   1   6
BRANCH   3  10
ATOM     10  N   UNL d   1      -2.580   0.289   0.150  0.00  0.00    -0.397 N 
ATOM     11  H   UNL d   1      -2.942   1.229  -0.016  0.00  0.00     0.156 HD
ATOM     12  H   UNL d   1      -3.225  -0.428  -0.200  0.00  0.00     0.156 HD
ENDBRANCH   3  10
BRANCH   2  13
ATOM     13  C   UNL d   1      -0.416   2.527   0.065  0.00  0.00     0.302 C 
ATOM     14  O   UNL d   1       0.507   3.334   0.082  0.00  0.00    -0.259 OA
BRANCH  13  15
ATOM     15  O   UNL d   1      -1.735   2.896   0.019  0.00  0.00    -0.322 OA
ATOM     16  C   UNL d   1      -1.946   4.309   0.011  0.00  0.00     0.213 C 
ENDBRANCH  13  15
ENDBRANCH   2  13
TORSDOF 4
