REMARK  4 active torsions:
REMARK  status: ('A' for Active; 'I' for Inactive)
REMARK    1  A    between atoms: C_3  and  C_1 
REMARK       I    between atoms: N_7  and  C_1 
REMARK    2  A    between atoms: C_2  and  C_4 
REMARK    3  A    between atoms: O_13  and  C_2 
REMARK    4  A    between atoms: N_12  and  N_7 
ROOT
ATOM      1  C   UNL d   1       0.253   0.310  -1.294  0.00  0.00     0.033 A 
ATOM      2  C   UNL d   1      -1.217   0.839  -3.646  0.00  0.00     0.039 A 
ATOM      3  C   UNL d   1      -1.577   1.440  -2.433  0.00  0.00     0.018 A 
ATOM      4  C   UNL d   1       0.599  -0.316  -2.499  0.00  0.00     0.018 A 
ATOM      5  C   UNL d   1      -0.839   1.188  -1.269  0.00  0.00     0.018 A 
ATOM      6  C   UNL d   1      -0.129  -0.047  -3.670  0.00  0.00     0.018 A 
ENDROOT
BRANCH   1   7
ATOM      7  C   UNL d   1       1.053   0.122  -0.037  0.00  0.00     0.265 C 
ATOM      8  O   UNL d   1       1.154   1.042   0.778  0.00  0.00    -0.266 OA
ATOM      9  N   UNL d   1       1.640  -1.129   0.143  0.00  0.00    -0.290 N 
ATOM     10  H   UNL d   1       1.217  -1.914  -0.351  0.00  0.00     0.183 HD
BRANCH   9  11
ATOM     11  N   UNL d   1       2.366  -1.428   1.322  0.00  0.00    -0.247 NA
ATOM     12  H   UNL d   1       2.375  -0.588   1.917  0.00  0.00     0.143 HD
ATOM     13  H   UNL d   1       3.345  -1.576   1.067  0.00  0.00     0.143 HD
ENDBRANCH   9  11
ENDBRANCH   1   7
BRANCH   2  14
ATOM     14  C   UNL d   1      -2.009   1.185  -4.863  0.00  0.00     0.292 C 
ATOM     15  O   UNL d   1      -2.963   1.946  -4.853  0.00  0.00    -0.259 OA
BRANCH  14  16
ATOM     16  O   UNL d   1      -1.512   0.550  -5.956  0.00  0.00    -0.323 OA
ATOM     17  C   UNL d   1      -2.204   0.860  -7.168  0.00  0.00     0.213 C 
ENDBRANCH  14  16
ENDBRANCH   2  14
TORSDOF 4
