REMARK  4 active torsions:
REMARK  status: ('A' for Active; 'I' for Inactive)
REMARK       I    between atoms: N_3  and  C_1 
REMARK       I    between atoms: N_4  and  C_1 
REMARK    1  A    between atoms: C_2  and  C_5 
REMARK    2  A    between atoms: O_11  and  C_2 
REMARK    3  A    between atoms: C_10  and  N_3 
REMARK    4  A    between atoms: C_8  and  N_4 
ROOT
ATOM      1  C   UNL d   1      -3.340   0.523  -0.235  0.00  0.00     0.041 A 
ATOM      2  C   UNL d   1      -1.939   0.558  -0.233  0.00  0.00     0.047 A 
ATOM      3  C   UNL d   1      -1.201  -0.150  -1.185  0.00  0.00     0.037 A 
ATOM      4  C   UNL d   1      -4.006  -0.195  -1.234  0.00  0.00     0.018 A 
ATOM      5  C   UNL d   1      -3.277  -0.862  -2.220  0.00  0.00     0.003 A 
ATOM      6  C   UNL d   1      -1.879  -0.833  -2.200  0.00  0.00     0.029 A 
ENDROOT
BRANCH   3   7
ATOM      7  N   UNL d   1       0.212  -0.218  -1.156  0.00  0.00    -0.309 N 
ATOM      8  C   UNL d   1       0.983   0.002  -0.034  0.00  0.00     0.321 C 
ATOM      9  N   UNL d   1       2.332  -0.061  -0.318  0.00  0.00    -0.335 N 
ATOM     10  O   UNL d   1       0.552   0.211   1.093  0.00  0.00    -0.247 OA
ATOM     11  H   UNL d   1       2.568   0.151  -1.277  0.00  0.00     0.165 HD
ATOM     12  H   UNL d   1       0.663  -0.728  -1.901  0.00  0.00     0.170 HD
BRANCH   9  13
ATOM     13  C   UNL d   1       3.364   0.252   0.690  0.00  0.00     0.023 C 
ATOM     14  C   UNL d   1       3.303  -0.722   1.882  0.00  0.00     0.037 C 
ATOM     15  C   UNL d   1       4.746   0.109   0.028  0.00  0.00     0.037 C 
ATOM     16  C   UNL d   1       3.218   1.701   1.188  0.00  0.00     0.037 C 
ENDBRANCH   9  13
ENDBRANCH   3   7
BRANCH   1  17
ATOM     17  C   UNL d   1      -4.142   1.204   0.817  0.00  0.00     0.293 C 
ATOM     18  O   UNL d   1      -5.363   1.210   0.837  0.00  0.00    -0.259 OA
BRANCH  17  19
ATOM     19  O   UNL d   1      -3.330   1.775   1.741  0.00  0.00    -0.323 OA
ATOM     20  C   UNL d   1      -4.004   2.383   2.840  0.00  0.00     0.213 C 
ENDBRANCH  17  19
ENDBRANCH   1  17
TORSDOF 4
