REMARK  7 active torsions:
REMARK  status: ('A' for Active; 'I' for Inactive)
REMARK    1  A    between atoms: C_3  and  N_1 
REMARK    2  A    between atoms: N_2  and  C_4 
REMARK    3  A    between atoms: O_9  and  C_5 
REMARK    4  A    between atoms: C_6  and  O_10 
REMARK    5  A    between atoms: C_17  and  C_7 
REMARK    6  A    between atoms: C_8  and  O_9 
REMARK    7  A    between atoms: O_10  and  C_21 
ROOT
ATOM      1  C   UNL d   1       0.980   1.334   1.589  0.00  0.00    -0.014 C 
ATOM      2  C   UNL d   1      -0.410   1.079   1.496  0.00  0.00     0.085 C 
ATOM      3  C   UNL d   1       1.690   0.589   2.568  0.00  0.00     0.048 C 
ATOM      4  C   UNL d   1       1.037  -0.264   3.470  0.00  0.00     0.078 C 
ATOM      5  C   UNL d   1      -1.059   0.272   2.448  0.00  0.00     0.040 C 
ATOM      6  C   UNL d   1      -0.349  -0.330   3.472  0.00  0.00     0.040 C 
ENDROOT
BRANCH   2   7
ATOM      7  O   UNL d   1      -1.130   1.512   0.397  0.00  0.00    -0.291 OA
BRANCH   7   8
ATOM      8  C   UNL d   1      -2.427   1.941   0.628  0.00  0.00     0.181 A 
ATOM      9  C   UNL d   1      -3.457   1.571  -0.218  0.00  0.00     0.154 A 
ATOM     10  C   UNL d   1      -4.747   2.065  -0.009  0.00  0.00     0.042 A 
ATOM     11  C   UNL d   1      -4.963   2.907   1.082  0.00  0.00     0.020 A 
ATOM     12  C   UNL d   1      -3.885   3.221   1.894  0.00  0.00     0.090 A 
ATOM     13  N   UNL d   1      -2.626   2.780   1.678  0.00  0.00    -0.345 N 
ATOM     14  HN  UNL d   1      -1.855   3.065   2.281  1.00  0.00     0.167 HD
BRANCH   9  15
ATOM     15  N   UNL d   1      -3.244   0.601  -1.256  0.00  0.00    -0.111 N 
ATOM     16  O   UNL d   1      -2.905  -0.537  -0.906  0.00  0.00    -0.532 OA
ATOM     17  O   UNL d   1      -3.500   0.953  -2.414  0.00  0.00    -0.532 OA
ENDBRANCH   9  15
ENDBRANCH   7   8
ENDBRANCH   2   7
BRANCH   1  18
ATOM     18  C   UNL d   1       1.732   2.366   0.711  0.00  0.00    -0.021 C 
ATOM     19  C   UNL d   1       0.849   3.553   0.253  0.00  0.00     0.019 C 
ATOM     20  C   UNL d   1       2.910   3.026   1.484  0.00  0.00     0.019 C 
ATOM     21  C   UNL d   1       2.316   1.680  -0.539  0.00  0.00     0.019 C 
ENDBRANCH   1  18
BRANCH   4  22
ATOM     22  O   UNL d   1       1.806  -1.004   4.349  0.00  0.00    -0.291 OA
BRANCH  22  23
ATOM     23  C   UNL d   1       1.386  -2.308   4.604  0.00  0.00     0.181 A 
ATOM     24  C   UNL d   1       1.708  -2.929   5.793  0.00  0.00     0.154 A 
ATOM     25  C   UNL d   1       1.250  -4.226   6.057  0.00  0.00     0.042 A 
ATOM     26  C   UNL d   1       0.460  -4.864   5.104  0.00  0.00     0.020 A 
ATOM     27  C   UNL d   1       0.196  -4.191   3.924  0.00  0.00     0.090 A 
ATOM     28  N   UNL d   1       0.661  -2.954   3.647  0.00  0.00    -0.345 N 
ATOM     29  HN  UNL d   1       0.475  -2.515   2.746  1.00  0.00     0.167 HD
BRANCH  24  30
ATOM     30  N   UNL d   1       2.485  -2.240   6.793  0.00  0.00    -0.111 N 
ATOM     31  O   UNL d   1       2.030  -1.178   7.232  0.00  0.00    -0.532 OA
ATOM     32  O   UNL d   1       3.514  -2.802   7.181  0.00  0.00    -0.532 OA
ENDBRANCH  24  30
ENDBRANCH  22  23
ENDBRANCH   4  22
TORSDOF 7
