REMARK  7 active torsions:
REMARK  status: ('A' for Active; 'I' for Inactive)
REMARK    1  A    between atoms: C_3  and  S_1 
REMARK    2  A    between atoms: C_8  and  S_1 
REMARK    3  A    between atoms: C_2  and  C_4 
REMARK    4  A    between atoms: C_7  and  O_21 
REMARK    5  A    between atoms: C_12  and  C_7 
REMARK    6  A    between atoms: C_23  and  C_8 
REMARK    7  A    between atoms: O_21  and  C_23 
ROOT
ATOM      1  S   UNL d   1       0.933  -0.153  -0.030  0.00  0.00     0.193 S 
ATOM      2  O   UNL d   1       2.356  -0.434   0.037  0.00  0.00    -0.221 OA
ATOM      3  O   UNL d   1       0.449   1.216  -0.059  0.00  0.00    -0.221 OA
ENDROOT
BRANCH   1   4
ATOM      4  C   UNL d   1       0.193  -0.932   1.393  0.00  0.00     0.128 A 
ATOM      5  N   UNL d   1      -0.640  -1.966   1.109  0.00  0.00    -0.356 N 
ATOM      6  C   UNL d   1      -1.193  -2.591   2.174  0.00  0.00     0.105 A 
ATOM      7  HN  UNL d   1      -0.836  -2.255   0.151  1.00  0.00     0.166 HD
ATOM      8  C   UNL d   1      -0.950  -2.238   3.497  0.00  0.00     0.063 A 
ATOM      9  C   UNL d   1      -0.086  -1.159   3.738  0.00  0.00     0.020 A 
ATOM     10  C   UNL d   1       0.501  -0.487   2.668  0.00  0.00     0.042 A 
BRANCH   8  11
ATOM     11  C   UNL d   1      -1.588  -3.003   4.618  0.00  0.00     0.418 C 
ATOM     12  F   UNL d   1      -2.391  -4.019   4.194  0.00  0.00    -0.166 F 
ATOM     13  F   UNL d   1      -0.670  -3.575   5.444  0.00  0.00    -0.166 F 
ATOM     14  F   UNL d   1      -2.367  -2.217   5.410  0.00  0.00    -0.166 F 
ENDBRANCH   8  11
ENDBRANCH   1   4
BRANCH   1  15
ATOM     15  C   UNL d   1       0.268  -1.018  -1.432  0.00  0.00     0.174 C 
BRANCH  15  16
ATOM     16  C   UNL d   1       0.831  -0.457  -2.725  0.00  0.00     0.194 C 
BRANCH  16  17
ATOM     17  O   UNL d   1       0.326  -1.184  -3.869  0.00  0.00    -0.317 OA
BRANCH  17  18
ATOM     18  C   UNL d   1      -0.904  -0.805  -4.297  0.00  0.00     0.293 C 
ATOM     19  O   UNL d   1      -1.614   0.026  -3.752  0.00  0.00    -0.259 OA
BRANCH  18  20
ATOM     20  C   UNL d   1      -1.305  -1.521  -5.540  0.00  0.00     0.039 A 
ATOM     21  C   UNL d   1      -2.531  -1.173  -6.130  0.00  0.00     0.019 A 
ATOM     22  C   UNL d   1      -2.957  -1.795  -7.307  0.00  0.00     0.025 A 
ATOM     23  C   UNL d   1      -2.157  -2.769  -7.900  0.00  0.00     0.034 A 
ATOM     24  C   UNL d   1      -0.940  -3.130  -7.322  0.00  0.00     0.025 A 
ATOM     25 CL   UNL d   1      -2.673  -3.527  -9.355  0.00  0.00    -0.084 Cl
ATOM     26  C   UNL d   1      -0.512  -2.507  -6.142  0.00  0.00     0.019 A 
ENDBRANCH  18  20
ENDBRANCH  17  18
ENDBRANCH  16  17
ENDBRANCH  15  16
ENDBRANCH   1  15
TORSDOF 7
