REMARK  6 active torsions:
REMARK  status: ('A' for Active; 'I' for Inactive)
REMARK    1  A    between atoms: C_2  and  C_1 
REMARK       I    between atoms: N_5  and  C_2 
REMARK    2  A    between atoms: C_3  and  C_7 
REMARK    3  A    between atoms: C_20  and  C_8 
REMARK    4  A    between atoms: C_11  and  C_12 
REMARK    5  A    between atoms: N_13  and  O_19 
REMARK    6  A    between atoms: O_19  and  C_20 
ROOT
ATOM      1  O   UNL d   1      -2.247  -4.215   1.356  0.00  0.00    -0.274 OA
ENDROOT
BRANCH   1   2
ATOM      2  N   UNL d   1      -1.050  -3.494   1.528  0.00  0.00    -0.270 N 
ATOM      3  C   UNL d   1      -0.750  -3.378   2.791  0.00  0.00     0.038 C 
ATOM      4  C   UNL d   1      -1.631  -3.938   3.895  0.00  0.00     0.071 C 
ATOM      5  HN  UNL d   1      -0.491  -3.113   0.765  1.00  0.00     0.194 HD
BRANCH   3   6
ATOM      6  C   UNL d   1       0.503  -2.658   3.179  0.00  0.00    -0.011 A 
ATOM      7  C   UNL d   1       0.982  -1.630   2.355  0.00  0.00     0.029 A 
ATOM      8  C   UNL d   1       2.151  -0.926   2.689  0.00  0.00     0.048 A 
ATOM      9  C   UNL d   1       2.839  -1.269   3.864  0.00  0.00     0.016 A 
ATOM     10  C   UNL d   1       2.373  -2.303   4.679  0.00  0.00     0.002 A 
ATOM     11  C   UNL d   1       1.214  -2.998   4.335  0.00  0.00     0.013 A 
BRANCH   8  12
ATOM     12  C   UNL d   1       2.677   0.185   1.813  0.00  0.00     0.417 C 
ATOM     13  F   UNL d   1       1.925   0.409   0.700  0.00  0.00    -0.166 F 
ATOM     14  F   UNL d   1       2.737   1.377   2.469  0.00  0.00    -0.166 F 
ATOM     15  F   UNL d   1       3.941  -0.059   1.368  0.00  0.00    -0.166 F 
ENDBRANCH   8  12
ENDBRANCH   3   6
ENDBRANCH   1   2
BRANCH   1  16
ATOM     16  C   UNL d   1      -2.530  -4.353  -0.040  0.00  0.00     0.266 C 
BRANCH  16  17
ATOM     17  C   UNL d   1      -3.743  -5.206  -0.134  0.00  0.00     0.080 C 
ATOM     18  O   UNL d   1      -4.946  -4.564  -0.112  0.00  0.00    -0.307 OA
ATOM     19  C   UNL d   1      -5.925  -5.518  -0.030  0.00  0.00     0.143 C 
ATOM     20  C   UNL d   1      -5.346  -6.766  -0.167  0.00  0.00     0.045 C 
ATOM     21  C   UNL d   1      -3.945  -6.569  -0.198  0.00  0.00     0.038 C 
BRANCH  19  22
ATOM     22  C   UNL d   1      -7.319  -5.150   0.158  0.00  0.00     0.277 C 
ATOM     23  N   UNL d   1      -7.630  -4.058   0.986  0.00  0.00    -0.346 N 
ATOM     24  C   UNL d   1      -9.035  -3.751   1.260  0.00  0.00     0.126 C 
ATOM     25  C   UNL d   1      -6.685  -3.347   1.852  0.00  0.00     0.126 C 
ATOM     26  C   UNL d   1      -9.378  -4.030   2.726  0.00  0.00     0.020 C 
ATOM     27  C   UNL d   1      -8.408  -3.320   3.671  0.00  0.00     0.003 C 
ATOM     28  C   UNL d   1      -6.963  -3.660   3.317  0.00  0.00     0.020 C 
ATOM     29  O   UNL d   1      -8.217  -5.825  -0.353  0.00  0.00    -0.265 OA
ENDBRANCH  19  22
ENDBRANCH  16  17
ENDBRANCH   1  16
TORSDOF 6
