REMARK  3 active torsions:
REMARK  status: ('A' for Active; 'I' for Inactive)
REMARK    1  A    between atoms: C_2  and  S_1 
REMARK    2  A    between atoms: N_3  and  S_1 
REMARK    3  A    between atoms: C_4  and  N_3 
ROOT
ATOM      1  S   UNL d   1       0.780   0.050   0.113  0.00  0.00     0.261 S 
ATOM      2  O   UNL d   1       0.170  -0.705  -0.960  0.00  0.00    -0.200 OA
ATOM      3  O   UNL d   1       2.210   0.075   0.292  0.00  0.00    -0.200 OA
ENDROOT
BRANCH   1   4
ATOM      4  C   UNL d   1       0.069  -0.501   1.642  0.00  0.00     0.101 A 
ATOM      5  C   UNL d   1       0.392   0.094   2.866  0.00  0.00     0.060 A 
ATOM      6  C   UNL d   1      -0.039  -0.503   4.058  0.00  0.00     0.067 A 
ATOM      7 CL   UNL d   1       1.286   1.562   3.017  0.00  0.00    -0.083 Cl
ATOM      8  C   UNL d   1      -0.799  -1.667   4.017  0.00  0.00     0.118 A 
ATOM      9  C   UNL d   1      -1.168  -2.237   2.806  0.00  0.00     0.044 A 
ATOM     10  F   UNL d   1      -1.174  -2.252   5.162  0.00  0.00    -0.206 F 
ATOM     11  C   UNL d   1      -0.735  -1.655   1.615  0.00  0.00     0.030 A 
ENDBRANCH   1   4
BRANCH   1  12
ATOM     12  N   UNL d   1       0.277   1.636  -0.064  0.00  0.00    -0.302 N 
ATOM     13  H   UNL d   1       1.071   2.268  -0.223  0.00  0.00     0.173 HD
BRANCH  12  14
ATOM     14  C   UNL d   1      -0.943   1.933  -0.840  0.00  0.00     0.174 C 
ATOM     15  C   UNL d   1      -1.052   3.438  -1.006  0.00  0.00     0.209 C 
ATOM     16  S   UNL d   1      -2.634   4.037  -0.536  0.00  0.00    -0.090 SA
ATOM     17  O   UNL d   1      -0.156   4.168  -1.420  0.00  0.00    -0.283 OA
ATOM     18  C   UNL d   1      -3.347   2.379  -0.477  0.00  0.00     0.085 C 
ATOM     19  C   UNL d   1      -2.189   1.481  -0.088  0.00  0.00     0.045 C 
ENDBRANCH  12  14
ENDBRANCH   1  12
TORSDOF 3
