REMARK  3 active torsions:
REMARK  status: ('A' for Active; 'I' for Inactive)
REMARK    1  A    between atoms: C_2  and  S_1 
REMARK    2  A    between atoms: N_5  and  S_1 
REMARK    3  A    between atoms: C_8  and  N_5 
ROOT
ATOM      1  S   UNL d   1       1.418  -1.359   1.977  0.00  0.00     0.245 S 
ATOM      2  O   UNL d   1       2.692  -0.916   1.458  0.00  0.00    -0.206 OA
ATOM      3  O   UNL d   1       1.194  -1.462   3.406  0.00  0.00    -0.206 OA
ENDROOT
BRANCH   1   4
ATOM      4  C   UNL d   1       1.283  -2.979   1.412  0.00  0.00     0.105 A 
ATOM      5  C   UNL d   1       1.377  -3.373   0.099  0.00  0.00     0.099 A 
ATOM      6  S   UNL d   1       1.146  -5.047  -0.106  0.00  0.00    -0.064 SA
ATOM      7 CL   UNL d   1       1.622  -2.412  -1.307  0.00  0.00    -0.075 Cl
ATOM      8  C   UNL d   1       0.957  -5.263   1.562  0.00  0.00     0.077 A 
ATOM      9  C   UNL d   1       1.065  -4.100   2.279  0.00  0.00     0.058 A 
ATOM     10 CL   UNL d   1       0.651  -6.828   2.194  0.00  0.00    -0.076 Cl
ENDBRANCH   1   4
BRANCH   1  11
ATOM     11  N   UNL d   1       0.174  -0.348   1.345  0.00  0.00    -0.205 NA
ATOM     12  C   UNL d   1       0.468   1.074   1.694  0.00  0.00     0.130 C 
BRANCH  11  13
ATOM     13  C   UNL d   1      -1.237  -0.741   1.709  0.00  0.00     0.082 C 
ATOM     14  C   UNL d   1      -2.332   0.300   1.307  0.00  0.00     0.027 C 
ATOM     15  C   UNL d   1      -2.283   0.558  -0.185  0.00  0.00    -0.024 C 
ATOM     16  C   UNL d   1      -3.590  -0.579   1.344  0.00  0.00     0.018 C 
ATOM     17  C   UNL d   1      -2.709  -0.559  -0.793  0.00  0.00    -0.026 C 
ATOM     18  C   UNL d   1      -3.057  -1.548   0.292  0.00  0.00     0.010 C 
ATOM     19  C   UNL d   1      -1.735  -2.006   0.941  0.00  0.00     0.030 C 
ENDBRANCH  11  13
ENDBRANCH   1  11
TORSDOF 3
