REMARK  5 active torsions:
REMARK  status: ('A' for Active; 'I' for Inactive)
REMARK    1  A    between atoms: C_4  and  S_1 
REMARK    2  A    between atoms: C_9  and  S_1 
REMARK       I    between atoms: C_2  and  N_3 
REMARK    3  A    between atoms: C_6  and  C_2 
REMARK       I    between atoms: N_3  and  C_5 
REMARK       I    between atoms: C_5  and  N_15 
REMARK    4  A    between atoms: C_20  and  C_9 
REMARK    5  A    between atoms: N_15  and  C_19 
ROOT
ATOM      1  C   UNL d   1       2.601   3.264   3.941  0.00  0.00     0.036 A 
ATOM      2  C   UNL d   1       1.342   2.286   1.577  0.00  0.00    -0.044 A 
ATOM      3  C   UNL d   1       2.356   1.901   3.777  0.00  0.00     0.030 A 
ATOM      4  C   UNL d   1       2.109   4.138   2.972  0.00  0.00     0.030 A 
ATOM      5  C   UNL d   1       1.471   3.657   1.818  0.00  0.00     0.010 A 
ATOM      6  C   UNL d   1       1.735   1.419   2.612  0.00  0.00     0.010 A 
ENDROOT
BRANCH   1   7
ATOM      7  N   UNL d   1       3.374   3.672   5.051  0.00  0.00    -0.309 N 
ATOM      8  C   UNL d   1       3.808   4.939   5.338  0.00  0.00     0.327 C 
ATOM      9  N   UNL d   1       4.739   5.055   6.344  0.00  0.00    -0.275 N 
ATOM     10  O   UNL d   1       3.479   5.975   4.761  0.00  0.00    -0.247 OA
ATOM     11  C   UNL d   1       5.642   4.102   6.781  0.00  0.00     0.261 C 
ATOM     12  H   UNL d   1       5.020   6.024   6.420  0.00  0.00     0.173 HD
ATOM     13  O   UNL d   1       5.390   2.899   6.729  0.00  0.00    -0.267 OA
ATOM     14  H   UNL d   1       3.749   2.946   5.658  0.00  0.00     0.170 HD
BRANCH  11  15
ATOM     15  C   UNL d   1       6.912   4.581   7.437  0.00  0.00     0.054 A 
ATOM     16  C   UNL d   1       7.431   5.888   7.393  0.00  0.00     0.049 A 
ATOM     17 CL   UNL d   1       6.701   7.200   6.535  0.00  0.00    -0.083 Cl
ATOM     18  C   UNL d   1       8.632   6.202   8.053  0.00  0.00     0.025 A 
ATOM     19  C   UNL d   1       9.338   5.224   8.753  0.00  0.00     0.002 A 
ATOM     20  C   UNL d   1       8.847   3.926   8.794  0.00  0.00     0.001 A 
ATOM     21  C   UNL d   1       7.649   3.608   8.144  0.00  0.00     0.019 A 
ENDBRANCH  11  15
ENDBRANCH   1   7
BRANCH   2  22
ATOM     22  C   UNL d   1       0.678   1.704   0.348  0.00  0.00     0.184 C 
BRANCH  22  23
ATOM     23  S   UNL d   1       1.112   2.451  -1.221  0.00  0.00     0.180 S 
ATOM     24  O   UNL d   1       0.437   1.685  -2.257  0.00  0.00    -0.222 OA
ATOM     25  O   UNL d   1       0.869   3.880  -1.170  0.00  0.00    -0.222 OA
BRANCH  23  26
ATOM     26  C   UNL d   1       2.880   2.219  -1.453  0.00  0.00     0.066 A 
ATOM     27  C   UNL d   1       3.708   3.285  -1.045  0.00  0.00     0.032 A 
ATOM     28  C   UNL d   1       5.087   3.293  -1.313  0.00  0.00    -0.039 A 
ATOM     29  C   UNL d   1       5.913   4.487  -0.923  0.00  0.00     0.050 C 
ATOM     30  C   UNL d   1       5.642   2.199  -1.984  0.00  0.00     0.040 A 
ATOM     31  C   UNL d   1       4.828   1.143  -2.400  0.00  0.00     0.032 A 
ATOM     32 CL   UNL d   1       7.326   2.123  -2.360  0.00  0.00    -0.084 Cl
ATOM     33  C   UNL d   1       3.439   1.133  -2.157  0.00  0.00    -0.039 A 
ATOM     34  C   UNL d   1       2.656   0.008  -2.775  0.00  0.00     0.050 C 
ENDBRANCH  23  26
ENDBRANCH  22  23
ENDBRANCH   2  22
TORSDOF 5
