REMARK  4 active torsions:
REMARK  status: ('A' for Active; 'I' for Inactive)
REMARK    1  A    between atoms: C_7  and  C_1 
REMARK    2  A    between atoms: C_10  and  C_6 
REMARK       I    between atoms: N_9  and  C_7 
REMARK    3  A    between atoms: C_19  and  N_9 
REMARK    4  A    between atoms: C_18  and  C_19 
ROOT
ATOM      1  C   UNL d   1      -0.293  -2.614   0.041  0.00  0.00     0.270 C 
ATOM      2  N   UNL d   1       0.695  -3.573   0.117  0.00  0.00    -0.351 N 
ATOM      3  O   UNL d   1      -1.478  -2.933  -0.013  0.00  0.00    -0.266 OA
ATOM      4  H   UNL d   1       1.663  -3.299   0.159  0.00  0.00     0.163 HD
ENDROOT
BRANCH   1   5
ATOM      5  C   UNL d   1       0.168  -1.238   0.021  0.00  0.00     0.119 A 
ATOM      6  N   UNL d   1      -0.634  -0.117  -0.022  0.00  0.00    -0.291 N 
ATOM      7  N   UNL d   1       0.056   1.045  -0.049  0.00  0.00    -0.302 N 
ATOM      8  C   UNL d   1      -2.075  -0.008  -0.054  0.00  0.00     0.178 C 
ATOM      9  C   UNL d   1       1.341   0.686  -0.024  0.00  0.00     0.036 A 
ATOM     10  HN  UNL d   1      -0.323   1.991  -0.082  1.00  0.00     0.186 HD
ATOM     11  C   UNL d   1       1.458  -0.726   0.021  0.00  0.00     0.064 A 
BRANCH   9  12
ATOM     12  C   UNL d   1       2.463   1.713  -0.058  0.00  0.00    -0.007 C 
ATOM     13  C   UNL d   1       3.305   1.520  -1.336  0.00  0.00     0.021 C 
ATOM     14  C   UNL d   1       1.938   3.166  -0.049  0.00  0.00     0.021 C 
ATOM     15  C   UNL d   1       3.378   1.538   1.171  0.00  0.00     0.021 C 
ENDBRANCH   9  12
ENDBRANCH   1   5
BRANCH   2  16
ATOM     16  C   UNL d   1       0.404  -4.990   0.061  0.00  0.00     0.161 C 
BRANCH  16  17
ATOM     17  C   UNL d   1       0.936  -5.727   1.266  0.00  0.00    -0.038 A 
ATOM     18  C   UNL d   1       0.468  -5.403   2.551  0.00  0.00     0.048 A 
ATOM     19  C   UNL d   1       0.928  -6.142   3.622  0.00  0.00     0.105 A 
ATOM     20  O   UNL d   1       0.563  -5.971   4.921  0.00  0.00    -0.323 OA
ATOM     21  C   UNL d   1       1.823  -7.171   3.461  0.00  0.00     0.105 A 
ATOM     22  C   UNL d   1       1.309  -7.030   5.554  0.00  0.00     0.352 A 
ATOM     23  O   UNL d   1       2.137  -7.777   4.637  0.00  0.00    -0.323 OA
ATOM     24  C   UNL d   1       2.310  -7.520   2.220  0.00  0.00     0.040 A 
ATOM     25  C   UNL d   1       1.858  -6.790   1.113  0.00  0.00     0.012 A 
ENDBRANCH  16  17
ENDBRANCH   2  16
TORSDOF 4
