REMARK  5 active torsions:
REMARK  status: ('A' for Active; 'I' for Inactive)
REMARK    1  A    between atoms: N_4  and  N_1 
REMARK    2  A    between atoms: S_2  and  N_4 
REMARK    3  A    between atoms: C_7  and  S_2 
REMARK    4  A    between atoms: C_11  and  C_14 
REMARK    5  A    between atoms: C_12  and  C_13 
ROOT
ATOM      1  S   UNL d   1       3.610  -3.192   0.074  0.00  0.00     0.278 S 
ATOM      2  O   UNL d   1       4.567  -3.469   1.125  0.00  0.00    -0.199 OA
ATOM      3  O   UNL d   1       2.327  -3.863   0.069  0.00  0.00    -0.199 OA
ENDROOT
BRANCH   1   4
ATOM      4  N   UNL d   1       3.336  -1.508  -0.081  0.00  0.00    -0.208 N 
ATOM      5  C   UNL d   1       2.332  -1.114  -1.098  0.00  0.00     0.192 C 
BRANCH   4   6
ATOM      6  N   UNL d   1       4.359  -0.480   0.394  0.00  0.00    -0.203 N 
ATOM      7  C   UNL d   1       4.476   0.761  -0.270  0.00  0.00     0.287 C 
ATOM      8  C   UNL d   1       5.545   1.562   0.262  0.00  0.00     0.101 A 
ATOM      9  O   UNL d   1       3.755   1.135  -1.193  0.00  0.00    -0.265 OA
ATOM     10  S   UNL d   1       6.079   3.029  -0.403  0.00  0.00    -0.094 SA
ATOM     11  C   UNL d   1       6.259   1.209   1.370  0.00  0.00     0.056 A 
ATOM     12  C   UNL d   1       7.289   3.191   0.810  0.00  0.00     0.053 A 
ATOM     13  C   UNL d   1       7.267   2.140   1.707  0.00  0.00     0.038 A 
ATOM     14  N   UNL d   1       5.982   0.057   2.105  0.00  0.00    -0.349 N 
ATOM     15  C   UNL d   1       5.057  -0.695   1.581  0.00  0.00     0.211 C 
ATOM     16  HN  UNL d   1       6.461  -0.175   2.975  1.00  0.00     0.166 HD
ENDBRANCH   4   6
ENDBRANCH   1   4
BRANCH   1  17
ATOM     17  C   UNL d   1       4.429  -3.620  -1.457  0.00  0.00     0.082 A 
ATOM     18  C   UNL d   1       5.827  -3.608  -1.503  0.00  0.00     0.041 A 
ATOM     19  C   UNL d   1       6.502  -4.064  -2.645  0.00  0.00     0.050 A 
ATOM     20  C   UNL d   1       5.749  -4.524  -3.740  0.00  0.00     0.032 A 
ATOM     21  C   UNL d   1       4.342  -4.554  -3.700  0.00  0.00     0.050 A 
ATOM     22  C   UNL d   1       3.686  -4.110  -2.541  0.00  0.00     0.041 A 
BRANCH  19  23
ATOM     23  C   UNL d   1       8.014  -4.091  -2.698  0.00  0.00     0.417 C 
ATOM     24  F   UNL d   1       8.603  -3.626  -1.563  0.00  0.00    -0.166 F 
ATOM     25  F   UNL d   1       8.503  -5.346  -2.889  0.00  0.00    -0.166 F 
ATOM     26  F   UNL d   1       8.507  -3.334  -3.715  0.00  0.00    -0.166 F 
ENDBRANCH  19  23
BRANCH  21  27
ATOM     27  C   UNL d   1       3.569  -5.075  -4.893  0.00  0.00     0.417 C 
ATOM     28  F   UNL d   1       2.221  -5.076  -4.706  0.00  0.00    -0.166 F 
ATOM     29  F   UNL d   1       3.792  -4.332  -6.011  0.00  0.00    -0.166 F 
ATOM     30  F   UNL d   1       3.908  -6.352  -5.216  0.00  0.00    -0.166 F 
ENDBRANCH  21  27
ENDBRANCH   1  17
TORSDOF 5
