REMARK  4 active torsions:
REMARK  status: ('A' for Active; 'I' for Inactive)
REMARK    1  A    between atoms: C_6  and  N_1 
REMARK    2  A    between atoms: C_8  and  N_3 
REMARK    3  A    between atoms: N_5  and  C_7 
REMARK    4  A    between atoms: C_9  and  N_5 
ROOT
ATOM      1  C   UNL d   1       2.246  -0.009   0.087  0.00  0.00     0.048 A 
ATOM      2  C   UNL d   1       5.084   0.058   0.205  0.00  0.00     0.032 A 
ATOM      3  C   UNL d   1       2.939   1.208   0.110  0.00  0.00     0.033 A 
ATOM      4  C   UNL d   1       2.992  -1.190   0.145  0.00  0.00     0.033 A 
ATOM      5  C   UNL d   1       4.394  -1.159   0.200  0.00  0.00     0.032 A 
ATOM      6  C   UNL d   1       4.335   1.238   0.162  0.00  0.00     0.032 A 
ENDROOT
BRANCH   1   7
ATOM      7  N   UNL d   1       0.837  -0.094   0.078  0.00  0.00    -0.300 N 
ATOM      8  N   UNL d   1       0.319   0.852  -0.553  0.00  0.00    -0.300 N 
ATOM      9  HN  UNL d   1       0.862   1.535  -1.081  1.00  0.00     0.187 HD
ATOM     10  HN  UNL d   1       0.305  -0.837   0.531  1.00  0.00     0.187 HD
BRANCH   8  11
ATOM     11  C   UNL d   1      -1.088   0.883  -0.466  0.00  0.00     0.048 A 
ATOM     12  C   UNL d   1      -1.820   0.364   0.614  0.00  0.00     0.031 A 
ATOM     13  C   UNL d   1      -3.212   0.489   0.662  0.00  0.00     0.002 A 
ATOM     14  C   UNL d   1      -3.889   1.144  -0.364  0.00  0.00     0.000 A 
ATOM     15  C   UNL d   1      -3.178   1.672  -1.439  0.00  0.00     0.002 A 
ATOM     16  C   UNL d   1      -1.787   1.542  -1.485  0.00  0.00     0.031 A 
ENDBRANCH   8  11
ENDBRANCH   1   7
BRANCH   2  17
ATOM     17  N   UNL d   1       6.489   0.072   0.215  0.00  0.00    -0.356 N 
ATOM     18  H   UNL d   1       6.935  -0.791   0.503  0.00  0.00     0.166 HD
BRANCH  17  19
ATOM     19  C   UNL d   1       7.383   1.030  -0.299  0.00  0.00     0.032 A 
ATOM     20  C   UNL d   1       8.595   1.271   0.362  0.00  0.00     0.029 A 
ATOM     21  C   UNL d   1       9.471   2.263  -0.091  0.00  0.00     0.002 A 
ATOM     22  C   UNL d   1       9.147   3.023  -1.213  0.00  0.00     0.000 A 
ATOM     23  C   UNL d   1       7.949   2.792  -1.882  0.00  0.00     0.002 A 
ATOM     24  C   UNL d   1       7.072   1.807  -1.421  0.00  0.00     0.029 A 
ENDBRANCH  17  19
ENDBRANCH   2  17
TORSDOF 4
