REMARK  3 active torsions:
REMARK  status: ('A' for Active; 'I' for Inactive)
REMARK    1  A    between atoms: C_2  and  C_1 
REMARK    2  A    between atoms: O_4  and  C_1 
REMARK    3  A    between atoms: C_9  and  O_4 
ROOT
ATOM      1  N   UNL d   1      -2.936   2.667  -0.091  0.00  0.00    -0.371 N 
ATOM      2  HN  UNL d   1      -3.276   3.624   0.001  1.00  0.00     0.164 HD
ATOM      3  C   UNL d   1      -1.109   1.089  -0.250  0.00  0.00     0.096 A 
ATOM      4  C   UNL d   1      -1.998   0.023  -0.340  0.00  0.00     0.064 A 
ATOM      5  C   UNL d   1      -3.363   0.293  -0.297  0.00  0.00     0.052 A 
ATOM      6 CL   UNL d   1      -4.509  -0.981  -0.417  0.00  0.00    -0.083 Cl
ATOM      7  C   UNL d   1      -1.615   2.379  -0.136  0.00  0.00     0.125 A 
ATOM      8  C   UNL d   1      -3.783   1.612  -0.176  0.00  0.00     0.111 A 
ENDROOT
BRANCH   3   9
ATOM      9  O   UNL d   1       0.287   0.972  -0.375  0.00  0.00    -0.273 OA
BRANCH   9  10
ATOM     10  C   UNL d   1       1.008  -0.152   0.044  0.00  0.00     0.305 C 
ATOM     11  O   UNL d   1       0.524  -1.107   0.639  0.00  0.00    -0.258 OA
BRANCH  10  12
ATOM     12  C   UNL d   1       2.414  -0.031  -0.320  0.00  0.00     0.080 A 
ATOM     13  S   UNL d   1       3.038   1.325  -1.167  0.00  0.00    -0.096 SA
ATOM     14  C   UNL d   1       4.618   0.677  -1.195  0.00  0.00     0.050 A 
ATOM     15  C   UNL d   1       4.685  -0.544  -0.565  0.00  0.00     0.009 A 
ATOM     16  C   UNL d   1       3.416  -0.951  -0.058  0.00  0.00     0.025 A 
ENDBRANCH  10  12
ENDBRANCH   9  10
ENDBRANCH   3   9
TORSDOF 3
