REMARK  5 active torsions:
REMARK  status: ('A' for Active; 'I' for Inactive)
REMARK    1  A    between atoms: C_8  and  C_1 
REMARK    2  A    between atoms: S_9  and  C_4 
REMARK    3  A    between atoms: C_10  and  N_5 
REMARK       I    between atoms: N_14  and  C_8 
REMARK    4  A    between atoms: C_15  and  S_9 
REMARK    5  A    between atoms: N_18  and  N_14 
ROOT
ATOM      1  C   UNL d   1      -0.657   1.213  -0.058  0.00  0.00     0.169 A 
ATOM      2  N   UNL d   1      -1.333   0.091  -0.067  0.00  0.00    -0.286 N 
ATOM      3  HN  UNL d   1      -2.352   0.093  -0.107  1.00  0.00     0.188 HD
ATOM      4  C   UNL d   1       1.546  -0.051  -0.043  0.00  0.00     0.075 A 
ATOM      5  N   UNL d   1      -0.630  -1.091  -0.021  0.00  0.00    -0.266 N 
ATOM      6  C   UNL d   1       0.855   1.252  -0.003  0.00  0.00     0.224 A 
ATOM      7  C   UNL d   1       0.752  -1.123  -0.032  0.00  0.00     0.139 A 
ATOM      8  O   UNL d   1       1.437   2.322   0.101  0.00  0.00    -0.284 OA
ENDROOT
BRANCH   4   9
ATOM      9  S   UNL d   1       3.267  -0.116   0.002  0.00  0.00    -0.085 SA
BRANCH   9  10
ATOM     10  C   UNL d   1       3.599  -0.152  -1.748  0.00  0.00     0.005 A 
ATOM     11  C   UNL d   1       3.695   1.034  -2.485  0.00  0.00     0.020 A 
ATOM     12  C   UNL d   1       3.975   0.990  -3.855  0.00  0.00     0.025 A 
ATOM     13  C   UNL d   1       4.163  -0.238  -4.486  0.00  0.00     0.034 A 
ATOM     14  C   UNL d   1       4.087  -1.423  -3.757  0.00  0.00     0.025 A 
ATOM     15 CL   UNL d   1       4.495  -0.295  -6.173  0.00  0.00    -0.084 Cl
ATOM     16  C   UNL d   1       3.809  -1.379  -2.388  0.00  0.00     0.020 A 
ENDBRANCH   9  10
ENDBRANCH   4   9
BRANCH   1  17
ATOM     17  C   UNL d   1      -1.467   2.498  -0.056  0.00  0.00     0.287 C 
ATOM     18  O   UNL d   1      -1.079   3.493  -0.653  0.00  0.00    -0.264 OA
ATOM     19  N   UNL d   1      -2.649   2.426   0.670  0.00  0.00    -0.288 N 
ATOM     20  H   UNL d   1      -3.006   1.507   0.937  0.00  0.00     0.183 HD
BRANCH  19  21
ATOM     21  N   UNL d   1      -3.498   3.556   0.739  0.00  0.00    -0.247 NA
ATOM     22  H   UNL d   1      -3.093   4.280   0.125  0.00  0.00     0.143 HD
ATOM     23  H   UNL d   1      -3.416   3.959   1.677  0.00  0.00     0.143 HD
ENDBRANCH  19  21
ENDBRANCH   1  17
BRANCH   5  24
ATOM     24  C   UNL d   1      -1.432  -2.279   0.047  0.00  0.00     0.057 A 
ATOM     25  C   UNL d   1      -0.978  -3.444   0.693  0.00  0.00     0.055 A 
ATOM     26  C   UNL d   1      -1.763  -4.601   0.726  0.00  0.00     0.036 A 
ATOM     27 CL   UNL d   1      -1.172  -6.006   1.525  0.00  0.00    -0.084 Cl
ATOM     28  C   UNL d   1      -3.015  -4.627   0.121  0.00  0.00     0.024 A 
ATOM     29  C   UNL d   1      -3.493  -3.482  -0.509  0.00  0.00     0.004 A 
ATOM     30  C   UNL d   1      -2.712  -2.319  -0.537  0.00  0.00     0.031 A 
ENDBRANCH   5  24
TORSDOF 5
