REMARK  2 active torsions:
REMARK  status: ('A' for Active; 'I' for Inactive)
REMARK    1  A    between atoms: N_2  and  S_1 
REMARK    2  A    between atoms: C_5  and  N_2 
ROOT
ATOM      1  C   UNL d   1       0.937   1.098   2.447  0.00  0.00     0.022 A 
ATOM      2  C   UNL d   1       1.369   0.824   5.182  0.00  0.00     0.034 A 
ATOM      3 CL   UNL d   1       1.632   0.642   6.873  0.00  0.00    -0.084 Cl
ATOM      4  C   UNL d   1      -0.134   1.215   3.332  0.00  0.00     0.026 A 
ATOM      5  C   UNL d   1       2.228   0.868   2.926  0.00  0.00     0.026 A 
ATOM      6  C   UNL d   1       0.082   1.071   4.705  0.00  0.00     0.026 A 
ATOM      7  C   UNL d   1       2.444   0.725   4.299  0.00  0.00     0.026 A 
ENDROOT
BRANCH   1   8
ATOM      8  N   UNL d   1       0.708   1.251   1.050  0.00  0.00    -0.186 NA
ATOM      9  H   UNL d   1       1.216   0.590   0.457  0.00  0.00     0.145 HD
BRANCH   8  10
ATOM     10  S   UNL d   1       0.888   2.799   0.389  0.00  0.00     0.210 S 
ATOM     11  O   UNL d   1       1.333   2.575  -0.970  0.00  0.00    -0.211 OA
ATOM     12  O   UNL d   1       1.630   3.650   1.292  0.00  0.00    -0.211 OA
ATOM     13  C   UNL d   1      -0.802   3.354   0.315  0.00  0.00     0.180 C 
ENDBRANCH   8  10
ENDBRANCH   1   8
TORSDOF 2
