REMARK  5 active torsions:
REMARK  status: ('A' for Active; 'I' for Inactive)
REMARK    1  A    between atoms: C_8  and  C_1 
REMARK    2  A    between atoms: N_7  and  C_2 
REMARK    3  A    between atoms: S_3  and  N_7 
REMARK    4  A    between atoms: C_9  and  S_3 
REMARK    5  A    between atoms: C_12  and  C_6 
REMARK       I    between atoms: N_16  and  C_8 
ROOT
ATOM      1  C   UNL d   1      -0.007   1.260  -0.013  0.00  0.00     0.100 A 
ATOM      2  C   UNL d   1       1.321   0.873  -0.012  0.00  0.00     0.066 A 
ATOM      3  S   UNL d   1      -1.052  -0.096  -0.046  0.00  0.00    -0.082 SA
ATOM      4  C   UNL d   1       1.452  -0.554   0.013  0.00  0.00     0.051 A 
ATOM      5  C   UNL d   1       0.236  -1.217   0.021  0.00  0.00     0.018 A 
ENDROOT
BRANCH   2   6
ATOM      6  N   UNL d   1       2.425   1.743   0.020  0.00  0.00    -0.279 N 
ATOM      7  H   UNL d   1       3.020   1.726   0.849  0.00  0.00     0.179 HD
BRANCH   6   8
ATOM      8  S   UNL d   1       3.403   1.988  -1.344  0.00  0.00     0.263 S 
ATOM      9  O   UNL d   1       4.569   2.715  -0.881  0.00  0.00    -0.200 OA
ATOM     10  O   UNL d   1       3.541   0.734  -2.046  0.00  0.00    -0.200 OA
BRANCH   8  11
ATOM     11  C   UNL d   1       2.444   3.102  -2.334  0.00  0.00     0.079 A 
ATOM     12  C   UNL d   1       2.020   4.316  -1.791  0.00  0.00     0.026 A 
ATOM     13  C   UNL d   1       1.235   5.177  -2.559  0.00  0.00     0.008 A 
ATOM     14  C   UNL d   1       0.884   4.839  -3.873  0.00  0.00    -0.062 A 
ATOM     15  C   UNL d   1       1.327   3.623  -4.410  0.00  0.00     0.008 A 
ATOM     16  C   UNL d   1       0.064   5.791  -4.693  0.00  0.00     0.048 C 
ATOM     17  C   UNL d   1       2.105   2.752  -3.644  0.00  0.00     0.026 A 
ENDBRANCH   8  11
ENDBRANCH   6   8
ENDBRANCH   2   6
BRANCH   1  18
ATOM     18  C   UNL d   1      -0.581   2.592   0.054  0.00  0.00     0.258 C 
ATOM     19  O   UNL d   1      -0.013   3.586   0.500  0.00  0.00    -0.267 OA
ATOM     20  N   UNL d   1      -1.865   2.713  -0.411  0.00  0.00    -0.365 N 
ATOM     21  H   UNL d   1      -2.375   1.917  -0.764  0.00  0.00     0.159 HD
ATOM     22  H   UNL d   1      -2.320   3.613  -0.348  0.00  0.00     0.159 HD
ENDBRANCH   1  18
BRANCH   5  23
ATOM     23  C   UNL d   1      -0.055  -2.660   0.040  0.00  0.00    -0.019 A 
ATOM     24  C   UNL d   1       0.783  -3.559  -0.633  0.00  0.00     0.013 A 
ATOM     25  C   UNL d   1       0.511  -4.931  -0.629  0.00  0.00     0.001 A 
ATOM     26  C   UNL d   1      -0.603  -5.424   0.047  0.00  0.00     0.000 A 
ATOM     27  C   UNL d   1      -1.448  -4.548   0.720  0.00  0.00     0.001 A 
ATOM     28  C   UNL d   1      -1.173  -3.178   0.719  0.00  0.00     0.013 A 
ENDBRANCH   5  23
TORSDOF 5
