REMARK  9 active torsions:
REMARK  status: ('A' for Active; 'I' for Inactive)
REMARK    1  A    between atoms: N_2  and  S_1 
REMARK    2  A    between atoms: C_5  and  S_1 
REMARK    3  A    between atoms: C_4  and  N_2 
REMARK    4  A    between atoms: C_17  and  N_2 
REMARK    5  A    between atoms: C_6  and  C_3 
REMARK       I    between atoms: N_9  and  C_6 
REMARK    6  A    between atoms: C_14  and  N_9 
REMARK    7  A    between atoms: C_10  and  C_14 
REMARK    8  A    between atoms: O_19  and  C_10 
REMARK    9  A    between atoms: C_15  and  C_17 
ROOT
ATOM      1  C   UNL d   1      -1.851   1.186  -1.562  0.00  0.00     0.059 A 
ATOM      2  C   UNL d   1      -0.539   1.692  -1.473  0.00  0.00     0.061 A 
ATOM      3  C   UNL d   1      -2.580   1.375  -2.751  0.00  0.00     0.019 A 
ATOM      4  C   UNL d   1       0.023   2.346  -2.584  0.00  0.00     0.031 A 
ATOM      5  C   UNL d   1      -2.021   2.054  -3.835  0.00  0.00     0.001 A 
ATOM      6  C   UNL d   1      -0.718   2.535  -3.753  0.00  0.00     0.002 A 
ENDROOT
BRANCH   2   7
ATOM      7  N   UNL d   1       0.259   1.522  -0.268  0.00  0.00    -0.267 N 
BRANCH   7   8
ATOM      8  S   UNL d   1       1.377   0.197  -0.335  0.00  0.00     0.266 S 
ATOM      9  O   UNL d   1       2.715   0.704  -0.135  0.00  0.00    -0.200 OA
ATOM     10  O   UNL d   1       1.081  -0.600  -1.513  0.00  0.00    -0.200 OA
BRANCH   8  11
ATOM     11  C   UNL d   1       0.907  -0.820   1.083  0.00  0.00     0.086 A 
ATOM     12  C   UNL d   1       1.401  -0.652   2.390  0.00  0.00    -0.039 A 
ATOM     13  C   UNL d   1       2.446   0.330   2.833  0.00  0.00     0.050 C 
ATOM     14  C   UNL d   1       0.919  -1.515   3.402  0.00  0.00     0.008 A 
ATOM     15  C   UNL d   1       0.015  -2.540   3.130  0.00  0.00     0.001 A 
ATOM     16  C   UNL d   1      -0.413  -2.745   1.828  0.00  0.00     0.002 A 
ATOM     17  C   UNL d   1       0.029  -1.891   0.811  0.00  0.00     0.026 A 
ENDBRANCH   8  11
ENDBRANCH   7   8
BRANCH   7  18
ATOM     18  C   UNL d   1       0.777   2.752   0.395  0.00  0.00     0.168 C 
BRANCH  18  19
ATOM     19  C   UNL d   1      -0.357   3.692   0.725  0.00  0.00    -0.016 C 
ATOM     20  C   UNL d   1      -0.720   4.040   1.966  0.00  0.00     0.008 C 
ENDBRANCH  18  19
ENDBRANCH   7  18
ENDBRANCH   2   7
BRANCH   1  21
ATOM     21  C   UNL d   1      -2.557   0.469  -0.457  0.00  0.00     0.254 C 
ATOM     22  N   UNL d   1      -2.124   0.717   0.820  0.00  0.00    -0.347 N 
ATOM     23  H   UNL d   1      -1.319   1.318   0.966  0.00  0.00     0.163 HD
ATOM     24  O   UNL d   1      -3.495  -0.283  -0.692  0.00  0.00    -0.268 OA
BRANCH  22  25
ATOM     25  C   UNL d   1      -2.687   0.064   1.979  0.00  0.00     0.232 C 
BRANCH  25  26
ATOM     26  C   UNL d   1      -1.929   0.446   3.250  0.00  0.00     0.158 C 
ATOM     27  O   UNL d   1      -1.036   1.281   3.312  0.00  0.00    -0.649 OA
BRANCH  26  28
ATOM     28  O   UNL d   1      -2.356  -0.226   4.346  0.00  0.00    -0.775 OA
ATOM     29  H   UNL d   1      -3.054  -0.884   4.151  0.00  0.00     0.167 HD
ENDBRANCH  26  28
ENDBRANCH  25  26
ENDBRANCH  22  25
ENDBRANCH   1  21
TORSDOF 9
