REMARK  5 active torsions:
REMARK  status: ('A' for Active; 'I' for Inactive)
REMARK    1  A    between atoms: C_6  and  C_1 
REMARK    2  A    between atoms: C_11  and  N_2 
REMARK    3  A    between atoms: N_8  and  C_6 
REMARK    4  A    between atoms: N_10  and  C_6 
REMARK    5  A    between atoms: O_12  and  N_8 
ROOT
ATOM      1  C   UNL d   1      -2.107  -2.715  -0.037  0.00  0.00     0.092 A 
ATOM      2  N   UNL d   1      -2.625  -3.989  -0.020  0.00  0.00    -0.289 N 
ATOM      3  N   UNL d   1      -3.978  -4.019  -0.007  0.00  0.00    -0.303 N 
ATOM      4  HN  UNL d   1      -4.585  -4.838   0.008  1.00  0.00     0.186 HD
ATOM      5  C   UNL d   1      -3.215  -1.885  -0.024  0.00  0.00     0.060 A 
ATOM      6  C   UNL d   1      -4.339  -2.733  -0.019  0.00  0.00     0.024 A 
ATOM      7  C   UNL d   1      -5.771  -2.354  -0.018  0.00  0.00     0.070 C 
ENDROOT
BRANCH   1   8
ATOM      8  C   UNL d   1      -0.719  -2.311  -0.060  0.00  0.00     0.126 C 
BRANCH   8   9
ATOM      9  N   UNL d   1       0.156  -3.144  -0.550  0.00  0.00    -0.256 N 
ATOM     10  HN  UNL d   1      -0.071  -4.067  -0.921  1.00  0.00     0.195 HD
BRANCH   9  11
ATOM     11  O   UNL d   1       1.454  -2.603  -0.501  0.00  0.00    -0.288 OA
ATOM     12  H   UNL d   1       1.953  -3.217  -1.072  0.00  0.00     0.244 HD
ENDBRANCH   9  11
ENDBRANCH   8   9
BRANCH   8  13
ATOM     13  N   UNL d   1      -0.339  -1.078   0.413  0.00  0.00    -0.285 NA
ATOM     14  H   UNL d   1      -0.842  -0.772   1.236  0.00  0.00     0.125 HD
ATOM     15  H   UNL d   1       0.670  -1.053   0.531  0.00  0.00     0.125 HD
ENDBRANCH   8  13
ENDBRANCH   1   8
BRANCH   2  16
ATOM     16  C   UNL d   1      -1.925  -5.256   0.114  0.00  0.00     0.145 C 
ATOM     17  C   UNL d   1      -1.756  -5.980  -1.209  0.00  0.00     0.028 C 
ENDBRANCH   2  16
TORSDOF 5
