REMARK  5 active torsions:
REMARK  status: ('A' for Active; 'I' for Inactive)
REMARK    1  A    between atoms: C_3  and  C_1 
REMARK    2  A    between atoms: C_2  and  C_4 
REMARK    3  A    between atoms: C_6  and  C_5 
REMARK       I    between atoms: N_12  and  C_6 
REMARK    4  A    between atoms: C_11  and  C_14 
REMARK    5  A    between atoms: C_14  and  N_12 
ROOT
ATOM      1  C   UNL d   1       0.667  -1.123  -0.847  0.00  0.00     0.049 A 
ATOM      2  C   UNL d   1       0.871  -3.398  -1.709  0.00  0.00     0.049 A 
ATOM      3  C   UNL d   1      -0.715  -1.830  -2.732  0.00  0.00     0.033 A 
ATOM      4  C   UNL d   1       1.251  -2.400  -0.801  0.00  0.00     0.032 A 
ATOM      5  C   UNL d   1      -0.306  -0.843  -1.827  0.00  0.00     0.033 A 
ATOM      6  C   UNL d   1      -0.115  -3.100  -2.665  0.00  0.00     0.033 A 
ENDROOT
BRANCH   3   7
ATOM      7  C   UNL d   1      -1.765  -1.615  -3.778  0.00  0.00     0.251 C 
ATOM      8  N   UNL d   1      -2.452  -0.413  -3.794  0.00  0.00    -0.353 N 
ATOM      9  H   UNL d   1      -2.404   0.213  -3.006  0.00  0.00     0.163 HD
ATOM     10  O   UNL d   1      -2.009  -2.514  -4.577  0.00  0.00    -0.268 OA
BRANCH   8  11
ATOM     11  C   UNL d   1      -3.585  -0.276  -4.693  0.00  0.00     0.164 C 
BRANCH  11  12
ATOM     12  C   UNL d   1      -4.244   1.083  -4.669  0.00  0.00    -0.002 A 
ATOM     13  C   UNL d   1      -5.618   1.166  -4.933  0.00  0.00     0.127 A 
ATOM     14  C   UNL d   1      -6.286   2.384  -4.978  0.00  0.00     0.085 A 
ATOM     15  F   UNL d   1      -6.321   0.046  -5.160  0.00  0.00    -0.205 F 
ATOM     16  C   UNL d   1      -5.565   3.548  -4.766  0.00  0.00     0.119 A 
ATOM     17  C   UNL d   1      -4.194   3.506  -4.524  0.00  0.00     0.043 A 
ATOM     18  F   UNL d   1      -6.191   4.729  -4.806  0.00  0.00    -0.206 F 
ATOM     19  C   UNL d   1      -3.529   2.277  -4.488  0.00  0.00     0.015 A 
ENDBRANCH  11  12
ENDBRANCH   8  11
ENDBRANCH   3   7
BRANCH   1  20
ATOM     20  C   UNL d   1       1.061  -0.053   0.147  0.00  0.00     0.417 C 
ATOM     21  F   UNL d   1       1.951  -0.478   1.084  0.00  0.00    -0.166 F 
ATOM     22  F   UNL d   1      -0.013   0.423   0.835  0.00  0.00    -0.166 F 
ATOM     23  F   UNL d   1       1.629   1.026  -0.455  0.00  0.00    -0.166 F 
ENDBRANCH   1  20
BRANCH   2  24
ATOM     24  C   UNL d   1       1.494  -4.775  -1.669  0.00  0.00     0.417 C 
ATOM     25  F   UNL d   1       2.414  -4.920  -0.675  0.00  0.00    -0.166 F 
ATOM     26  F   UNL d   1       0.574  -5.758  -1.472  0.00  0.00    -0.166 F 
ATOM     27  F   UNL d   1       2.142  -5.087  -2.825  0.00  0.00    -0.166 F 
ENDBRANCH   2  24
TORSDOF 5
