REMARK  2 active torsions:
REMARK  status: ('A' for Active; 'I' for Inactive)
REMARK    1  A    between atoms: C_7  and  N_1 
REMARK    2  A    between atoms: C_8  and  C_2 
ROOT
ATOM      1  N   UNL d   1      -0.135  -1.327  -0.056  0.00  0.00    -0.224 N 
ATOM      2  C   UNL d   1      -0.963  -0.317  -0.558  0.00  0.00     0.148 A 
ATOM      3  N   UNL d   1       1.016  -0.755   0.361  0.00  0.00     0.001 NA
ATOM      4  N   UNL d   1       0.938   0.522   0.028  0.00  0.00    -0.007 NA
ATOM      5  N   UNL d   1      -0.268   0.806  -0.549  0.00  0.00    -0.269 N 
ATOM      6  HN  UNL d   1      -0.572   1.712  -0.906  1.00  0.00     0.185 HD
ENDROOT
BRANCH   1   7
ATOM      7  C   UNL d   1      -0.325  -2.736  -0.029  0.00  0.00     0.062 A 
ATOM      8  C   UNL d   1       0.148  -3.536   1.034  0.00  0.00    -0.033 A 
ATOM      9  C   UNL d   1      -0.071  -4.927   0.969  0.00  0.00     0.015 A 
ATOM     10  C   UNL d   1       0.838  -3.023   2.270  0.00  0.00     0.050 C 
ATOM     11  C   UNL d   1      -0.761  -5.520  -0.094  0.00  0.00    -0.061 A 
ATOM     12  C   UNL d   1      -1.229  -4.714  -1.130  0.00  0.00     0.009 A 
ATOM     13  C   UNL d   1      -0.990  -7.003  -0.108  0.00  0.00     0.048 C 
ATOM     14  C   UNL d   1      -0.999  -3.339  -1.106  0.00  0.00     0.032 A 
ENDBRANCH   1   7
BRANCH   2  15
ATOM     15  C   UNL d   1      -2.359  -0.435  -0.990  0.00  0.00     0.012 A 
ATOM     16  C   UNL d   1      -3.273  -1.271  -0.330  0.00  0.00     0.041 A 
ATOM     17  C   UNL d   1      -4.571  -1.445  -0.825  0.00  0.00     0.056 A 
ATOM     18 CL   UNL d   1      -5.592  -2.575  -0.008  0.00  0.00    -0.083 Cl
ATOM     19  C   UNL d   1      -4.987  -0.737  -1.956  0.00  0.00     0.055 A 
ATOM     20  C   UNL d   1      -4.107   0.152  -2.576  0.00  0.00     0.026 A 
ATOM     21 CL   UNL d   1      -6.562  -0.924  -2.638  0.00  0.00    -0.083 Cl
ATOM     22  C   UNL d   1      -2.802   0.303  -2.095  0.00  0.00     0.017 A 
ENDBRANCH   2  15
TORSDOF 2
