REMARK  3 active torsions:
REMARK  status: ('A' for Active; 'I' for Inactive)
REMARK    1  A    between atoms: C_8  and  C_1 
REMARK    2  A    between atoms: N_7  and  C_2 
REMARK       I    between atoms: N_12  and  C_8 
REMARK    3  A    between atoms: N_15  and  N_12 
ROOT
ATOM      1  C   UNL d   1      -0.163  -1.088  -0.110  0.00  0.00     0.099 A 
ATOM      2  C   UNL d   1       0.636   1.189  -0.040  0.00  0.00     0.155 A 
ATOM      3  S   UNL d   1       1.379  -0.325  -0.215  0.00  0.00    -0.046 SA
ATOM      4  N   UNL d   1      -0.671   1.192   0.085  0.00  0.00    -0.339 N 
ATOM      5  HN  UNL d   1      -1.248   2.023   0.210  1.00  0.00     0.168 HD
ATOM      6  C   UNL d   1      -1.146  -0.114   0.019  0.00  0.00     0.030 A 
ATOM      7  C   UNL d   1      -2.619  -0.315   0.086  0.00  0.00     0.070 C 
ENDROOT
BRANCH   1   8
ATOM      8  C   UNL d   1      -0.301  -2.533  -0.148  0.00  0.00     0.274 C 
ATOM      9  O   UNL d   1      -1.368  -3.124   0.044  0.00  0.00    -0.266 OA
ATOM     10  N   UNL d   1       0.874  -3.241  -0.409  0.00  0.00    -0.289 N 
ATOM     11  H   UNL d   1       1.716  -2.728  -0.663  0.00  0.00     0.183 HD
BRANCH  10  12
ATOM     12  N   UNL d   1       0.876  -4.650  -0.492  0.00  0.00    -0.247 NA
ATOM     13  H   UNL d   1      -0.106  -4.958  -0.446  0.00  0.00     0.143 HD
ATOM     14  H   UNL d   1       1.297  -5.019   0.365  0.00  0.00     0.143 HD
ENDBRANCH  10  12
ENDBRANCH   1   8
BRANCH   2  15
ATOM     15  N   UNL d   1       1.409   2.359  -0.039  0.00  0.00    -0.313 N 
ATOM     16  C   UNL d   1       2.775   2.501  -0.241  0.00  0.00     0.098 A 
ATOM     17  C   UNL d   1       3.108   3.837  -0.194  0.00  0.00     0.019 A 
ATOM     18  C   UNL d   1       1.924   4.554   0.070  0.00  0.00     0.019 A 
ATOM     19  C   UNL d   1       0.905   3.634   0.164  0.00  0.00     0.098 A 
ENDBRANCH   2  15
TORSDOF 3
