REMARK  5 active torsions:
REMARK  status: ('A' for Active; 'I' for Inactive)
REMARK    1  A    between atoms: S_8  and  C_2 
REMARK    2  A    between atoms: S_9  and  C_3 
REMARK    3  A    between atoms: C_10  and  S_9 
REMARK    4  A    between atoms: C_11  and  C_10 
REMARK    5  A    between atoms: C_12  and  C_11 
ROOT
ATOM      1  S   UNL d   1       0.916  -1.013   0.671  0.00  0.00    -0.038 SA
ATOM      2  C   UNL d   1      -0.114   0.291   0.266  0.00  0.00     0.126 A 
ATOM      3  C   UNL d   1       2.210  -0.072   0.052  0.00  0.00     0.129 A 
ATOM      4  N   UNL d   1       0.492   1.318  -0.288  0.00  0.00    -0.287 N 
ATOM      5  HN  UNL d   1       0.017   2.168  -0.591  1.00  0.00     0.188 HD
ATOM      6  N   UNL d   1       1.855   1.106  -0.409  0.00  0.00    -0.287 N 
ATOM      7  HN  UNL d   1       2.506   1.783  -0.808  1.00  0.00     0.188 HD
ENDROOT
BRANCH   3   8
ATOM      8  S   UNL d   1       3.856  -0.655   0.030  0.00  0.00    -0.103 SA
BRANCH   8   9
ATOM      9  C   UNL d   1       4.780   0.910  -0.026  0.00  0.00     0.081 C 
BRANCH   9  10
ATOM     10  C   UNL d   1       6.278   0.602  -0.017  0.00  0.00     0.010 C 
BRANCH  10  11
ATOM     11  C   UNL d   1       7.118   1.880  -0.020  0.00  0.00    -0.004 C 
ATOM     12  C   UNL d   1       8.605   1.559  -0.021  0.00  0.00     0.005 C 
ENDBRANCH  10  11
ENDBRANCH   9  10
ENDBRANCH   8   9
ENDBRANCH   3   8
BRANCH   2  13
ATOM     13  S   UNL d   1      -1.832   0.276   0.562  0.00  0.00    -0.117 SA
ATOM     14  H   UNL d   1      -1.884  -0.915   1.173  0.00  0.00     0.109 HD
ENDBRANCH   2  13
TORSDOF 5
