REMARK  4 active torsions:
REMARK  status: ('A' for Active; 'I' for Inactive)
REMARK    1  A    between atoms: S_2  and  N_1 
REMARK    2  A    between atoms: C_5  and  S_2 
REMARK    3  A    between atoms: C_4  and  C_3 
REMARK       I    between atoms: N_11  and  C_4 
REMARK    4  A    between atoms: N_16  and  N_11 
ROOT
ATOM      1  N   UNL d   1      -1.120  -0.530   0.242  0.00  0.00    -0.283 N 
ATOM      2  C   UNL d   1       0.074  -1.083  -0.436  0.00  0.00     0.251 C 
ATOM      3  S   UNL d   1       1.324   0.231  -0.305  0.00  0.00    -0.132 SA
ATOM      4  C   UNL d   1      -1.266   0.921  -0.044  0.00  0.00     0.147 C 
ATOM      5  C   UNL d   1       0.096   1.548  -0.324  0.00  0.00     0.097 C 
ENDROOT
BRANCH   1   6
ATOM      6  S   UNL d   1      -1.441  -1.069   1.810  0.00  0.00     0.262 S 
ATOM      7  O   UNL d   1      -2.710  -0.500   2.208  0.00  0.00    -0.200 OA
ATOM      8  O   UNL d   1      -1.235  -2.504   1.821  0.00  0.00    -0.200 OA
BRANCH   6   9
ATOM      9  C   UNL d   1      -0.182  -0.327   2.828  0.00  0.00     0.079 A 
ATOM     10  C   UNL d   1      -0.412   0.933   3.403  0.00  0.00     0.027 A 
ATOM     11  C   UNL d   1       0.561   1.509   4.224  0.00  0.00     0.025 A 
ATOM     12  C   UNL d   1       1.743   0.820   4.488  0.00  0.00     0.034 A 
ATOM     13  C   UNL d   1       1.960  -0.446   3.944  0.00  0.00     0.025 A 
ATOM     14 CL   UNL d   1       2.937   1.531   5.502  0.00  0.00    -0.084 Cl
ATOM     15  C   UNL d   1       0.992  -1.029   3.121  0.00  0.00     0.027 A 
ENDBRANCH   6   9
ENDBRANCH   1   6
BRANCH   2  16
ATOM     16  C   UNL d   1      -0.216  -1.363  -1.933  0.00  0.00     0.265 C 
ATOM     17  O   UNL d   1       0.652  -1.429  -2.805  0.00  0.00    -0.269 OA
ATOM     18  N   UNL d   1      -1.565  -1.525  -2.243  0.00  0.00    -0.291 N 
ATOM     19  H   UNL d   1      -2.249  -1.594  -1.488  0.00  0.00     0.183 HD
BRANCH  18  20
ATOM     20  N   UNL d   1      -1.958  -1.730  -3.583  0.00  0.00    -0.247 NA
ATOM     21  H   UNL d   1      -1.104  -1.958  -4.115  0.00  0.00     0.143 HD
ATOM     22  H   UNL d   1      -2.252  -0.830  -3.972  0.00  0.00     0.143 HD
ENDBRANCH  18  20
ENDBRANCH   2  16
TORSDOF 4
