REMARK  3 active torsions:
REMARK  status: ('A' for Active; 'I' for Inactive)
REMARK    1  A    between atoms: C_3  and  C_1 
REMARK    2  A    between atoms: N_5  and  C_2 
REMARK    3  A    between atoms: O_11  and  C_3 
REMARK       I    between atoms: C_8  and  N_5 
ROOT
ATOM      1  C   UNL d   1       0.163   1.399   0.067  0.00  0.00     0.106 C 
ATOM      2  C   UNL d   1       1.457   0.909  -0.070  0.00  0.00     0.058 C 
ATOM      3  S   UNL d   1      -0.975   0.108   0.208  0.00  0.00    -0.094 SA
ATOM      4  C   UNL d   1       1.460  -0.516  -0.236  0.00  0.00     0.038 C 
ATOM      5  C   UNL d   1       0.215  -1.075  -0.074  0.00  0.00     0.053 C 
ENDROOT
BRANCH   2   6
ATOM      6  N   UNL d   1       2.660   1.613  -0.083  0.00  0.00    -0.326 N 
ATOM      7  C   UNL d   1       2.904   2.743   0.675  0.00  0.00     0.218 C 
ATOM      8  O   UNL d   1       2.111   3.283   1.442  0.00  0.00    -0.274 OA
ATOM      9  C   UNL d   1       4.303   3.277   0.501  0.00  0.00     0.117 C 
ATOM     10  H   UNL d   1       3.470   1.095  -0.400  0.00  0.00     0.169 HD
ENDBRANCH   2   6
BRANCH   1  11
ATOM     11  C   UNL d   1      -0.389   2.744   0.047  0.00  0.00     0.302 C 
ATOM     12  O   UNL d   1      -1.455   3.090   0.551  0.00  0.00    -0.259 OA
BRANCH  11  13
ATOM     13  O   UNL d   1       0.366   3.552  -0.756  0.00  0.00    -0.322 OA
ATOM     14  C   UNL d   1      -0.133   4.881  -0.915  0.00  0.00     0.213 C 
ENDBRANCH  11  13
ENDBRANCH   1  11
TORSDOF 3
