REMARK  4 active torsions:
REMARK  status: ('A' for Active; 'I' for Inactive)
REMARK       I    between atoms: N_2  and  C_1 
REMARK    1  A    between atoms: O_5  and  C_1 
REMARK    2  A    between atoms: C_4  and  N_2 
REMARK    3  A    between atoms: C_3  and  C_4 
REMARK       I    between atoms: N_9  and  C_3 
REMARK    4  A    between atoms: C_8  and  O_5 
ROOT
ATOM      1  C   UNL d   1       1.119  -0.044  -0.010  0.00  0.00     0.362 C 
ATOM      2  N   UNL d   1       0.479   0.988  -0.627  0.00  0.00    -0.324 N 
ATOM      3  O   UNL d   1       2.332  -0.150  -0.097  0.00  0.00    -0.238 OA
ATOM      4  H   UNL d   1       1.105   1.490  -1.237  0.00  0.00     0.165 HD
ENDROOT
BRANCH   2   5
ATOM      5  C   UNL d   1      -0.578   1.780   0.004  0.00  0.00     0.174 C 
ATOM      6  C   UNL d   1      -1.964   1.198  -0.228  0.00  0.00     0.042 C 
BRANCH   5   7
ATOM      7  C   UNL d   1      -0.505   3.240  -0.521  0.00  0.00     0.239 C 
ATOM      8  O   UNL d   1      -1.494   3.960  -0.633  0.00  0.00    -0.271 OA
ATOM      9  N   UNL d   1       0.782   3.710  -0.731  0.00  0.00    -0.364 N 
ATOM     10  C   UNL d   1       1.045   5.032  -1.251  0.00  0.00     0.149 C 
ATOM     11  H   UNL d   1       1.571   3.170  -0.399  0.00  0.00     0.161 HD
ENDBRANCH   5   7
ENDBRANCH   2   5
BRANCH   1  12
ATOM     12  O   UNL d   1       0.273  -0.909   0.600  0.00  0.00    -0.294 OA
BRANCH  12  13
ATOM     13  C   UNL d   1       0.762  -2.157   1.165  0.00  0.00     0.061 C 
ATOM     14  C   UNL d   1       1.349  -1.887   2.551  0.00  0.00     0.046 C 
ATOM     15  C   UNL d   1      -0.481  -3.052   1.308  0.00  0.00     0.046 C 
ATOM     16  C   UNL d   1       1.763  -2.902   0.268  0.00  0.00     0.046 C 
ENDBRANCH  12  13
ENDBRANCH   1  12
TORSDOF 4
