REMARK  3 active torsions:
REMARK  status: ('A' for Active; 'I' for Inactive)
REMARK    1  A    between atoms: N_3  and  C_1 
REMARK       I    between atoms: C_2  and  N_3 
REMARK       I    between atoms: N_7  and  C_2 
REMARK    2  A    between atoms: C_14  and  N_10 
REMARK    3  A    between atoms: C_17  and  C_14 
ROOT
ATOM      1  C   UNL d   1       1.252   3.132  -0.090  0.00  0.00     0.323 C 
ATOM      2  N   UNL d   1       0.411   2.812  -1.128  0.00  0.00    -0.305 N 
ATOM      3  N   UNL d   1       2.499   2.516  -0.081  0.00  0.00    -0.331 N 
ATOM      4  N   UNL d   1       4.955   1.024   0.670  0.00  0.00     0.095 N 
ATOM      5  O   UNL d   1       0.961   3.936   0.796  0.00  0.00    -0.247 OA
ATOM      6  C   UNL d   1       2.962   1.403  -0.913  0.00  0.00     0.158 C 
ATOM      7  C   UNL d   1       3.549   3.138   0.738  0.00  0.00     0.158 C 
ATOM      8  C   UNL d   1       3.867   0.419  -0.126  0.00  0.00     0.292 C 
ATOM      9  C   UNL d   1       4.396   2.110   1.502  0.00  0.00     0.292 C 
ATOM     10  H   UNL d   1       0.655   2.045  -1.728  0.00  0.00     0.171 HD
ENDROOT
BRANCH   2  11
ATOM     11  C   UNL d   1      -0.870   3.350  -1.333  0.00  0.00     0.092 C 
ATOM     12  C   UNL d   1      -1.496   4.448  -0.770  0.00  0.00     0.101 C 
ATOM     13  O   UNL d   1      -2.786   4.503  -1.204  0.00  0.00    -0.240 OA
ATOM     14  C   UNL d   1      -1.124   5.585   0.096  0.00  0.00     0.081 C 
ATOM     15  N   UNL d   1      -3.003   3.535  -2.155  0.00  0.00    -0.263 N 
ATOM     16  C   UNL d   1      -1.839   2.889  -2.278  0.00  0.00     0.058 C 
ATOM     17  HN  UNL d   1      -3.869   3.349  -2.660  1.00  0.00     0.194 HD
ATOM     18  C   UNL d   1      -1.708   1.877  -3.352  0.00  0.00     0.072 C 
ENDBRANCH   2  11
BRANCH   4  19
ATOM     19  C   UNL d   1       6.089   1.450  -0.167  0.00  0.00     0.311 C 
BRANCH  19  20
ATOM     20  C   UNL d   1       7.277   1.946   0.639  0.00  0.00    -0.030 A 
ATOM     21  C   UNL d   1       7.883   1.127   1.604  0.00  0.00     0.009 A 
ATOM     22  C   UNL d   1       8.935   1.609   2.387  0.00  0.00     0.001 A 
ATOM     23  C   UNL d   1       9.402   2.909   2.207  0.00  0.00     0.000 A 
ATOM     24  C   UNL d   1       8.826   3.724   1.233  0.00  0.00     0.001 A 
ATOM     25  C   UNL d   1       7.773   3.245   0.449  0.00  0.00     0.009 A 
ENDBRANCH  19  20
ENDBRANCH   4  19
TORSDOF 3
