REMARK  5 active torsions:
REMARK  status: ('A' for Active; 'I' for Inactive)
REMARK    1  A    between atoms: C_8  and  C_1 
REMARK    2  A    between atoms: N_5  and  C_2 
REMARK    3  A    between atoms: C_3  and  C_6 
REMARK       I    between atoms: C_6  and  N_5 
REMARK    4  A    between atoms: O_19  and  C_8 
REMARK    5  A    between atoms: C_17  and  C_10 
ROOT
ATOM      1  C   UNL d   1       3.421   1.098  -0.041  0.00  0.00     0.113 C 
ATOM      2  C   UNL d   1       4.763   0.975  -0.114  0.00  0.00     0.039 C 
ATOM      3  C   UNL d   1       2.786   2.362   0.098  0.00  0.00     0.105 C 
ATOM      4  N   UNL d   1       2.195   3.353   0.216  0.00  0.00    -0.191 NA
ENDROOT
BRANCH   1   5
ATOM      5  C   UNL d   1       2.587  -0.160  -0.039  0.00  0.00     0.266 C 
ATOM      6  N   UNL d   1       1.218   0.043  -0.168  0.00  0.00    -0.320 N 
ATOM      7  H   UNL d   1       0.857   0.989  -0.139  0.00  0.00     0.169 HD
ATOM      8  O   UNL d   1       3.124  -1.249   0.151  0.00  0.00    -0.267 OA
BRANCH   6   9
ATOM      9  C   UNL d   1       0.248  -0.947   0.031  0.00  0.00     0.064 C 
ATOM     10  C   UNL d   1       0.374  -2.318  -0.137  0.00  0.00     0.107 C 
ATOM     11  S   UNL d   1      -0.855  -3.136   0.749  0.00  0.00    -0.093 SA
ATOM     12  C   UNL d   1      -1.795  -1.717   0.830  0.00  0.00     0.059 C 
ATOM     13  C   UNL d   1      -1.135  -0.626   0.297  0.00  0.00    -0.027 C 
ATOM     14  C   UNL d   1      -1.782   0.693   0.036  0.00  0.00     0.051 C 
BRANCH  10  15
ATOM     15  C   UNL d   1       1.238  -3.039  -1.058  0.00  0.00     0.302 C 
ATOM     16  O   UNL d   1       1.766  -2.541  -2.048  0.00  0.00    -0.259 OA
BRANCH  15  17
ATOM     17  O   UNL d   1       1.226  -4.384  -0.805  0.00  0.00    -0.322 OA
ATOM     18  C   UNL d   1       1.700  -5.175  -1.893  0.00  0.00     0.213 C 
ENDBRANCH  15  17
ENDBRANCH  10  15
ENDBRANCH   6   9
ENDBRANCH   1   5
BRANCH   2  19
ATOM     19  C   UNL d   1       5.702   2.105  -0.070  0.00  0.00    -0.035 A 
ATOM     20  C   UNL d   1       6.222   2.542   1.154  0.00  0.00     0.013 A 
ATOM     21  C   UNL d   1       7.096   3.634   1.200  0.00  0.00     0.023 A 
ATOM     22  C   UNL d   1       7.459   4.300   0.023  0.00  0.00     0.044 A 
ATOM     23  C   UNL d   1       8.354   5.421   0.070  0.00  0.00     0.099 C 
ATOM     24  C   UNL d   1       6.939   3.858  -1.201  0.00  0.00     0.023 A 
ATOM     25  N   UNL d   1       9.078   6.324   0.111  0.00  0.00    -0.191 NA
ATOM     26  C   UNL d   1       6.066   2.768  -1.248  0.00  0.00     0.013 A 
ENDBRANCH   2  19
TORSDOF 5
