REMARK  4 active torsions:
REMARK  status: ('A' for Active; 'I' for Inactive)
REMARK    1  A    between atoms: C_12  and  C_1 
REMARK    2  A    between atoms: N_14  and  C_2 
REMARK    3  A    between atoms: C_16  and  C_8 
REMARK    4  A    between atoms: C_13  and  C_12 
ROOT
ATOM      1  C   UNL d   1      -2.407  -0.711   0.079  0.00  0.00     0.085 A 
ATOM      2  C   UNL d   1      -1.322  -1.571   0.064  0.00  0.00     0.062 A 
ATOM      3  C   UNL d   1      -0.246   0.480  -0.002  0.00  0.00     0.091 A 
ATOM      4  C   UNL d   1      -0.056  -0.893   0.020  0.00  0.00     0.048 A 
ATOM      5  S   UNL d   1      -1.895   0.919  -0.018  0.00  0.00    -0.065 SA
ATOM      6  N   UNL d   1       0.706   1.431  -0.026  0.00  0.00    -0.335 N 
ATOM      7  HN  UNL d   1       0.501   2.430  -0.032  1.00  0.00     0.168 HD
ATOM      8  C   UNL d   1       1.951   0.932  -0.041  0.00  0.00     0.116 A 
ATOM      9  N   UNL d   1       2.263  -0.380  -0.038  0.00  0.00    -0.345 N 
ATOM     10  HN  UNL d   1       3.241  -0.669  -0.059  1.00  0.00     0.167 HD
ATOM     11  C   UNL d   1       1.283  -1.316  -0.009  0.00  0.00     0.022 A 
ATOM     12  C   UNL d   1       1.735  -2.743  -0.026  0.00  0.00     0.069 C 
ENDROOT
BRANCH   1  13
ATOM     13  C   UNL d   1      -3.813  -1.100   0.068  0.00  0.00     0.201 C 
ATOM     14  O   UNL d   1      -4.186  -2.165  -0.431  0.00  0.00    -0.286 OA
BRANCH  13  15
ATOM     15  C   UNL d   1      -4.879  -0.273   0.704  0.00  0.00     0.016 A 
ATOM     16  C   UNL d   1      -4.653   0.485   1.862  0.00  0.00     0.018 A 
ATOM     17  C   UNL d   1      -5.704   1.197   2.446  0.00  0.00     0.043 A 
ATOM     18  C   UNL d   1      -6.978   1.129   1.891  0.00  0.00     0.116 A 
ATOM     19  C   UNL d   1      -7.226   0.359   0.762  0.00  0.00     0.043 A 
ATOM     20  F   UNL d   1      -7.983   1.804   2.463  0.00  0.00    -0.206 F 
ATOM     21  C   UNL d   1      -6.177  -0.345   0.169  0.00  0.00     0.018 A 
ENDBRANCH  13  15
ENDBRANCH   1  13
BRANCH   2  22
ATOM     22  N   UNL d   1      -1.478  -2.917   0.103  0.00  0.00    -0.397 N 
ATOM     23  H   UNL d   1      -2.402  -3.314  -0.097  0.00  0.00     0.156 HD
ATOM     24  H   UNL d   1      -0.733  -3.572  -0.106  0.00  0.00     0.156 HD
ENDBRANCH   2  22
BRANCH   8  25
ATOM     25  C   UNL d   1       3.090   1.878  -0.078  0.00  0.00     0.008 A 
ATOM     26  C   UNL d   1       2.912   3.271   0.023  0.00  0.00     0.015 A 
ATOM     27  C   UNL d   1       4.002   4.152  -0.023  0.00  0.00     0.001 A 
ATOM     28  C   UNL d   1       5.295   3.660  -0.172  0.00  0.00     0.000 A 
ATOM     29  C   UNL d   1       5.505   2.288  -0.269  0.00  0.00     0.001 A 
ATOM     30  C   UNL d   1       4.416   1.414  -0.220  0.00  0.00     0.015 A 
ENDBRANCH   8  25
TORSDOF 4
