REMARK  2 active torsions:
REMARK  status: ('A' for Active; 'I' for Inactive)
REMARK    1  A    between atoms: C_8  and  C_3 
REMARK    2  A    between atoms: O_11  and  C_8 
ROOT
ATOM      1  C   UNL d   1      -2.619   0.600  -0.320  0.00  0.00     0.107 C 
ATOM      2  C   UNL d   1      -1.802   1.791   0.144  0.00  0.00     0.273 C 
ATOM      3  C   UNL d   1      -3.245   0.760  -1.499  0.00  0.00     0.117 C 
ATOM      4  N   UNL d   1      -2.724  -0.487   0.528  0.00  0.00    -0.350 N 
ATOM      5  N   UNL d   1      -1.504   1.824   1.486  0.00  0.00    -0.320 N 
ATOM      6  C   UNL d   1      -2.485  -0.353   1.901  0.00  0.00     0.059 A 
ATOM      7  C   UNL d   1      -1.868   0.812   2.389  0.00  0.00     0.061 A 
ATOM      8  O   UNL d   1      -1.465   2.703  -0.607  0.00  0.00    -0.266 OA
ATOM      9  C   UNL d   1      -1.627   0.974   3.752  0.00  0.00     0.032 A 
ATOM     10  C   UNL d   1      -2.791  -1.385   2.789  0.00  0.00     0.032 A 
ATOM     11  C   UNL d   1      -2.555  -1.225   4.156  0.00  0.00     0.002 A 
ATOM     12  C   UNL d   1      -1.988  -0.044   4.637  0.00  0.00     0.002 A 
ATOM     13  H   UNL d   1      -3.377  -1.214   0.234  0.00  0.00     0.166 HD
ATOM     14  H   UNL d   1      -1.013   2.644   1.810  0.00  0.00     0.169 HD
ENDROOT
BRANCH   3  15
ATOM     15  C   UNL d   1      -4.232  -0.232  -1.955  0.00  0.00     0.284 C 
ATOM     16  O   UNL d   1      -4.424  -1.325  -1.442  0.00  0.00    -0.260 OA
BRANCH  15  17
ATOM     17  O   UNL d   1      -4.953   0.319  -2.963  0.00  0.00    -0.323 OA
ATOM     18  C   UNL d   1      -6.078  -0.465  -3.361  0.00  0.00     0.213 C 
ENDBRANCH  15  17
ENDBRANCH   3  15
TORSDOF 2
