REMARK  3 active torsions:
REMARK  status: ('A' for Active; 'I' for Inactive)
REMARK    1  A    between atoms: N_2  and  C_1 
REMARK       I    between atoms: C_3  and  N_2 
REMARK    2  A    between atoms: C_7  and  N_2 
REMARK       I    between atoms: N_8  and  C_3 
REMARK    3  A    between atoms: C_13  and  N_8 
ROOT
ATOM      1  N   UNL d   1       2.931   0.581   0.189  0.00  0.00    -0.241 N 
ATOM      2  C   UNL d   1       4.109  -0.186   0.418  0.00  0.00     0.333 C 
ATOM      3  N   UNL d   1       4.169  -1.322  -0.385  0.00  0.00    -0.308 N 
ATOM      4  O   UNL d   1       4.956   0.130   1.253  0.00  0.00    -0.246 OA
ATOM      5  H   UNL d   1       3.354  -1.491  -0.955  0.00  0.00     0.170 HD
ENDROOT
BRANCH   1   6
ATOM      6  C   UNL d   1       1.650   0.026   0.066  0.00  0.00     0.152 C 
ATOM      7  N   UNL d   1       0.649   0.637  -0.480  0.00  0.00    -0.369 N 
ATOM      8  C   UNL d   1      -0.573  -0.186  -0.403  0.00  0.00     0.142 C 
ATOM      9  HN  UNL d   1       0.698   1.562  -0.906  1.00  0.00     0.161 HD
ATOM     10  C   UNL d   1      -0.197  -1.667  -0.353  0.00  0.00     0.024 C 
ATOM     11  S   UNL d   1       1.343  -1.611   0.609  0.00  0.00    -0.083 SA
ATOM     12  C   UNL d   1       0.090  -2.224  -1.750  0.00  0.00     0.029 C 
ATOM     13  C   UNL d   1      -1.246  -2.504   0.368  0.00  0.00     0.029 C 
ENDBRANCH   1   6
BRANCH   1  14
ATOM     14  C   UNL d   1       3.064   2.028   0.230  0.00  0.00     0.084 A 
ATOM     15  C   UNL d   1       4.239   2.670  -0.195  0.00  0.00     0.143 A 
ATOM     16  F   UNL d   1       5.268   1.967  -0.692  0.00  0.00    -0.204 F 
ATOM     17  C   UNL d   1       4.353   4.064  -0.210  0.00  0.00     0.044 A 
ATOM     18  C   UNL d   1       3.283   4.857   0.194  0.00  0.00     0.003 A 
ATOM     19  C   UNL d   1       2.110   4.253   0.629  0.00  0.00     0.002 A 
ATOM     20  C   UNL d   1       2.008   2.856   0.659  0.00  0.00     0.033 A 
ENDBRANCH   1  14
BRANCH   3  21
ATOM     21  C   UNL d   1       5.188  -2.287  -0.492  0.00  0.00     0.036 A 
ATOM     22  C   UNL d   1       6.407  -2.223   0.181  0.00  0.00     0.029 A 
ATOM     23  C   UNL d   1       7.389  -3.195  -0.050  0.00  0.00     0.002 A 
ATOM     24  C   UNL d   1       7.157  -4.237  -0.944  0.00  0.00     0.000 A 
ATOM     25  C   UNL d   1       5.931  -4.327  -1.596  0.00  0.00     0.002 A 
ATOM     26  C   UNL d   1       4.952  -3.358  -1.367  0.00  0.00     0.029 A 
ENDBRANCH   3  21
TORSDOF 3
