REMARK  20 active torsions:
REMARK  status: ('A' for Active; 'I' for Inactive)
REMARK    1  A    between atoms: C_1  and  O_16 
REMARK    2  A    between atoms: C_2  and  O_15 
REMARK    3  A    between atoms: C_3  and  O_17 
REMARK    4  A    between atoms: C_4  and  O_18 
REMARK    5  A    between atoms: C_5  and  O_11 
REMARK    6  A    between atoms: C_6  and  O_14 
REMARK    7  A    between atoms: C_7  and  O_11 
REMARK    8  A    between atoms: C_8  and  O_19 
REMARK    9  A    between atoms: C_12  and  C_28 
REMARK   10  A    between atoms: C_13  and  C_29 
REMARK   11  A    between atoms: C_20  and  O_14 
REMARK   12  A    between atoms: C_21  and  O_15 
REMARK   13  A    between atoms: C_22  and  O_16 
REMARK   14  A    between atoms: C_23  and  O_17 
REMARK   15  A    between atoms: C_24  and  O_18 
REMARK   16  A    between atoms: C_25  and  O_19 
REMARK   17  A    between atoms: C_26  and  O_30 
REMARK   18  A    between atoms: C_27  and  O_31 
REMARK   19  A    between atoms: O_30  and  C_28 
REMARK   20  A    between atoms: O_31  and  C_29 
ROOT
ATOM      1  O   UNL d   1       0.114  -2.543   3.400  0.00  0.00    -0.348 OA
ENDROOT
BRANCH   1   2
ATOM      2  C   UNL d   1       0.061  -1.458   4.309  0.00  0.00     0.293 C 
ATOM      3  C   UNL d   1       0.611  -1.974   5.659  0.00  0.00     0.219 C 
ATOM      4  C   UNL d   1      -0.366  -3.021   6.238  0.00  0.00     0.198 C 
ATOM      5  C   UNL d   1      -1.791  -2.474   6.319  0.00  0.00     0.195 C 
ATOM      6  C   UNL d   1      -2.211  -1.918   4.952  0.00  0.00     0.181 C 
ATOM      7  O   UNL d   1      -1.264  -0.947   4.470  0.00  0.00    -0.348 OA
BRANCH   3   8
ATOM      8  O   UNL d   1       1.887  -2.676   5.631  0.00  0.00    -0.308 OA
BRANCH   8   9
ATOM      9  C   UNL d   1       2.761  -2.600   4.611  0.00  0.00     0.255 C 
ATOM     10  O   UNL d   1       2.854  -1.677   3.817  0.00  0.00    -0.266 OA
ATOM     11  C   UNL d   1       3.591  -3.850   4.560  0.00  0.00     0.126 C 
ENDBRANCH   8   9
ENDBRANCH   3   8
BRANCH   4  12
ATOM     12  O   UNL d   1       0.099  -3.353   7.573  0.00  0.00    -0.311 OA
BRANCH  12  13
ATOM     13  C   UNL d   1       0.954  -4.413   7.649  0.00  0.00     0.255 C 
ATOM     14  O   UNL d   1       1.047  -5.320   6.832  0.00  0.00    -0.266 OA
ATOM     15  C   UNL d   1       1.863  -4.243   8.824  0.00  0.00     0.126 C 
ENDBRANCH  12  13
ENDBRANCH   4  12
BRANCH   5  16
ATOM     16  O   UNL d   1      -2.664  -3.570   6.687  0.00  0.00    -0.311 OA
BRANCH  16  17
ATOM     17  C   UNL d   1      -3.351  -3.453   7.848  0.00  0.00     0.255 C 
ATOM     18  O   UNL d   1      -3.356  -2.463   8.572  0.00  0.00    -0.266 OA
ATOM     19  C   UNL d   1      -4.133  -4.700   8.140  0.00  0.00     0.126 C 
ENDBRANCH  16  17
ENDBRANCH   5  16
BRANCH   6  20
ATOM     20  C   UNL d   1      -3.588  -1.237   5.033  0.00  0.00     0.213 C 
BRANCH  20  21
ATOM     21  O   UNL d   1      -3.992  -0.727   3.745  0.00  0.00    -0.319 OA
BRANCH  21  22
ATOM     22  C   UNL d   1      -4.458  -1.655   2.869  0.00  0.00     0.254 C 
ATOM     23  O   UNL d   1      -4.580  -2.849   3.110  0.00  0.00    -0.266 OA
ATOM     24  C   UNL d   1      -4.801  -1.025   1.553  0.00  0.00     0.126 C 
ENDBRANCH  21  22
ENDBRANCH  20  21
ENDBRANCH   6  20
ENDBRANCH   1   2
BRANCH   1  25
ATOM     25  C   UNL d   1      -0.223  -2.327   2.024  0.00  0.00     0.188 C 
ATOM     26  C   UNL d   1       0.646  -1.257   1.312  0.00  0.00     0.198 C 
ATOM     27  C   UNL d   1       0.918  -1.466  -0.200  0.00  0.00     0.219 C 
ATOM     28  C   UNL d   1       0.966  -2.953  -0.584  0.00  0.00     0.302 C 
ATOM     29  O   UNL d   1      -0.147  -3.643  -0.023  0.00  0.00    -0.348 OA
ATOM     30  C   UNL d   1      -0.022  -3.715   1.396  0.00  0.00     0.180 C 
BRANCH  26  31
ATOM     31  O   UNL d   1       0.133   0.090   1.559  0.00  0.00    -0.311 OA
BRANCH  31  32
ATOM     32  C   UNL d   1      -1.074   0.418   1.017  0.00  0.00     0.255 C 
ATOM     33  O   UNL d   1      -1.804  -0.359   0.415  0.00  0.00    -0.266 OA
ATOM     34  C   UNL d   1      -1.389   1.869   1.204  0.00  0.00     0.126 C 
ENDBRANCH  31  32
ENDBRANCH  26  31
BRANCH  27  35
ATOM     35  O   UNL d   1       2.229  -0.905  -0.525  0.00  0.00    -0.308 OA
BRANCH  35  36
ATOM     36  C   UNL d   1       2.293   0.424  -0.799  0.00  0.00     0.255 C 
ATOM     37  O   UNL d   1       1.338   1.184  -0.856  0.00  0.00    -0.266 OA
ATOM     38  C   UNL d   1       3.712   0.828  -1.064  0.00  0.00     0.126 C 
ENDBRANCH  35  36
ENDBRANCH  27  35
BRANCH  28  39
ATOM     39  O   UNL d   1       0.902  -3.036  -2.017  0.00  0.00    -0.287 OA
BRANCH  39  40
ATOM     40  C   UNL d   1       1.346  -4.208  -2.538  0.00  0.00     0.257 C 
ATOM     41  O   UNL d   1       1.868  -5.120  -1.911  0.00  0.00    -0.266 OA
ATOM     42  C   UNL d   1       1.179  -4.208  -4.027  0.00  0.00     0.126 C 
ENDBRANCH  39  40
ENDBRANCH  28  39
BRANCH  30  43
ATOM     43  C   UNL d   1      -1.057  -4.707   1.963  0.00  0.00     0.213 C 
BRANCH  43  44
ATOM     44  O   UNL d   1      -0.846  -6.041   1.465  0.00  0.00    -0.319 OA
BRANCH  44  45
ATOM     45  C   UNL d   1       0.146  -6.745   2.072  0.00  0.00     0.254 C 
ATOM     46  O   UNL d   1       0.875  -6.322   2.958  0.00  0.00    -0.266 OA
ATOM     47  C   UNL d   1       0.215  -8.137   1.519  0.00  0.00     0.126 C 
ENDBRANCH  44  45
ENDBRANCH  43  44
ENDBRANCH  30  43
ENDBRANCH   1  25
TORSDOF 20
