REMARK  7 active torsions:
REMARK  status: ('A' for Active; 'I' for Inactive)
REMARK    1  A    between atoms: C_11  and  C_2 
REMARK    2  A    between atoms: S_16  and  C_3 
REMARK    3  A    between atoms: C_12  and  C_11 
REMARK    4  A    between atoms: C_13  and  C_17 
REMARK    5  A    between atoms: C_27  and  S_16 
REMARK    6  A    between atoms: C_18  and  C_27 
REMARK       I    between atoms: N_19  and  C_18 
REMARK    7  A    between atoms: C_22  and  N_19 
ROOT
ATOM      1  N   UNL d   1       0.819  -0.171   0.643  0.00  0.00    -0.319 N 
ATOM      2  C   UNL d   1       0.036   0.958   0.537  0.00  0.00     0.101 C 
ATOM      3  C   UNL d   1      -0.041  -1.216   0.444  0.00  0.00     0.162 C 
ATOM      4  N   UNL d   1      -1.230   0.585   0.616  0.00  0.00    -0.287 N 
ATOM      5  HN  UNL d   1      -2.032   1.207   0.718  1.00  0.00     0.188 HD
ATOM      6  N   UNL d   1      -1.277  -0.789   0.538  0.00  0.00    -0.278 N 
ATOM      7  HN  UNL d   1      -2.117  -1.367   0.552  1.00  0.00     0.189 HD
ATOM      8  C   UNL d   1       2.242  -0.243   0.856  0.00  0.00     0.159 C 
ENDROOT
BRANCH   3   9
ATOM      9  S   UNL d   1       0.483  -2.768  -0.102  0.00  0.00    -0.083 SA
BRANCH   9  10
ATOM     10  C   UNL d   1      -1.087  -3.679  -0.252  0.00  0.00     0.185 C 
BRANCH  10  11
ATOM     11  C   UNL d   1      -1.373  -4.445   1.029  0.00  0.00     0.231 C 
ATOM     12  N   UNL d   1      -2.726  -4.625   1.300  0.00  0.00    -0.327 N 
ATOM     13  H   UNL d   1      -3.393  -4.274   0.621  0.00  0.00     0.169 HD
ATOM     14  O   UNL d   1      -0.453  -4.929   1.686  0.00  0.00    -0.272 OA
BRANCH  12  15
ATOM     15  C   UNL d   1      -3.256  -5.377   2.374  0.00  0.00     0.035 A 
ATOM     16  C   UNL d   1      -2.461  -5.861   3.420  0.00  0.00     0.045 A 
ATOM     17  C   UNL d   1      -2.984  -6.709   4.410  0.00  0.00     0.050 A 
ATOM     18  C   UNL d   1      -4.350  -7.003   4.394  0.00  0.00     0.016 A 
ATOM     19  C   UNL d   1      -5.171  -6.482   3.389  0.00  0.00     0.003 A 
ATOM     20  C   UNL d   1      -4.620  -5.679   2.382  0.00  0.00     0.029 A 
BRANCH  17  21
ATOM     21  C   UNL d   1      -2.064  -7.308   5.445  0.00  0.00     0.417 C 
ATOM     22  F   UNL d   1      -0.747  -7.045   5.238  0.00  0.00    -0.166 F 
ATOM     23  F   UNL d   1      -2.339  -6.870   6.708  0.00  0.00    -0.166 F 
ATOM     24  F   UNL d   1      -2.164  -8.667   5.494  0.00  0.00    -0.166 F 
ENDBRANCH  17  21
ENDBRANCH  12  15
ENDBRANCH  10  11
ENDBRANCH   9  10
ENDBRANCH   3   9
BRANCH   2  25
ATOM     25  C   UNL d   1       0.504   2.264  -0.013  0.00  0.00     0.103 C 
BRANCH  25  26
ATOM     26  C   UNL d   1       0.318   3.522   0.841  0.00  0.00     0.151 C 
ATOM     27  C   UNL d   1      -1.049   3.696   1.496  0.00  0.00     0.236 C 
ATOM     28  N   UNL d   1      -2.126   3.975   0.696  0.00  0.00    -0.325 N 
ATOM     29  O   UNL d   1      -1.205   3.544   2.709  0.00  0.00    -0.272 OA
ATOM     30  C   UNL d   1      -2.058   4.323  -0.662  0.00  0.00     0.051 A 
ATOM     31  H   UNL d   1      -3.027   3.884   1.147  0.00  0.00     0.169 HD
ATOM     32  C   UNL d   1      -0.864   4.777  -1.250  0.00  0.00     0.028 A 
ATOM     33  C   UNL d   1      -3.209   4.177  -1.437  0.00  0.00     0.031 A 
ATOM     34  S   UNL d   1       0.619   4.972  -0.262  0.00  0.00    -0.113 SA
ATOM     35  C   UNL d   1      -0.819   5.023  -2.624  0.00  0.00     0.021 A 
ATOM     36  C   UNL d   1      -1.956   4.811  -3.407  0.00  0.00     0.002 A 
ATOM     37  C   UNL d   1      -3.150   4.397  -2.813  0.00  0.00     0.002 A 
ENDBRANCH  25  26
ENDBRANCH   2  25
TORSDOF 7
