REMARK  7 active torsions:
REMARK  status: ('A' for Active; 'I' for Inactive)
REMARK    1  A    between atoms: N_6  and  C_1 
REMARK    2  A    between atoms: S_7  and  C_1 
REMARK    3  A    between atoms: C_2  and  C_5 
REMARK    4  A    between atoms: C_5  and  C_11 
REMARK    5  A    between atoms: N_10  and  N_6 
REMARK    6  A    between atoms: C_11  and  S_7 
REMARK    7  A    between atoms: C_17  and  N_10 
ROOT
ATOM      1  C   UNL d   1       0.940  -0.132  -0.041  0.00  0.00     0.149 C 
ATOM      2  S   UNL d   1       0.417  -1.659   0.405  0.00  0.00    -0.052 SA
ENDROOT
BRANCH   1   3
ATOM      3  N   UNL d   1       2.227   0.238   0.316  0.00  0.00    -0.302 N 
ATOM      4  H   UNL d   1       2.697  -0.358   0.993  0.00  0.00     0.182 HD
BRANCH   3   5
ATOM      5  N   UNL d   1       2.619   1.583   0.361  0.00  0.00    -0.204 NA
ATOM      6  H   UNL d   1       1.918   2.225  -0.023  0.00  0.00     0.153 HD
BRANCH   5   7
ATOM      7  C   UNL d   1       3.915   1.875  -0.134  0.00  0.00     0.027 A 
ATOM      8  C   UNL d   1       4.862   0.903  -0.485  0.00  0.00     0.025 A 
ATOM      9  C   UNL d   1       6.154   1.269  -0.880  0.00  0.00     0.002 A 
ATOM     10  C   UNL d   1       6.528   2.611  -0.907  0.00  0.00     0.000 A 
ATOM     11  C   UNL d   1       5.608   3.587  -0.540  0.00  0.00     0.002 A 
ATOM     12  C   UNL d   1       4.316   3.220  -0.155  0.00  0.00     0.025 A 
ENDBRANCH   5   7
ENDBRANCH   3   5
ENDBRANCH   1   3
BRANCH   1  13
ATOM     13  S   UNL d   1       0.071   1.049  -1.014  0.00  0.00    -0.092 SA
BRANCH  13  14
ATOM     14  C   UNL d   1      -1.634   0.434  -1.071  0.00  0.00     0.165 C 
BRANCH  14  15
ATOM     15  C   UNL d   1      -2.323   0.471   0.281  0.00  0.00     0.169 C 
ATOM     16  O   UNL d   1      -1.982   1.212   1.199  0.00  0.00    -0.291 OA
BRANCH  15  17
ATOM     17  C   UNL d   1      -3.487  -0.435   0.504  0.00  0.00     0.012 A 
ATOM     18  C   UNL d   1      -4.311  -0.863  -0.544  0.00  0.00     0.040 A 
ATOM     19  C   UNL d   1      -5.412  -1.690  -0.277  0.00  0.00     0.056 A 
ATOM     20 CL   UNL d   1      -6.393  -2.162  -1.620  0.00  0.00    -0.083 Cl
ATOM     21  C   UNL d   1      -5.693  -2.091   1.032  0.00  0.00     0.055 A 
ATOM     22  C   UNL d   1      -4.867  -1.669   2.077  0.00  0.00     0.026 A 
ATOM     23 CL   UNL d   1      -7.040  -3.095   1.426  0.00  0.00    -0.083 Cl
ATOM     24  C   UNL d   1      -3.773  -0.841   1.813  0.00  0.00     0.017 A 
ENDBRANCH  15  17
ENDBRANCH  14  15
ENDBRANCH  13  14
ENDBRANCH   1  13
TORSDOF 7
