REMARK  5 active torsions:
REMARK  status: ('A' for Active; 'I' for Inactive)
REMARK    1  A    between atoms: C_4  and  C_1 
REMARK    2  A    between atoms: C_5  and  C_1 
REMARK    3  A    between atoms: C_3  and  C_2 
REMARK    4  A    between atoms: N_7  and  C_2 
REMARK    5  A    between atoms: O_10  and  C_4 
ROOT
ATOM      1  C   UNL d   1       0.920   0.038   0.168  0.00  0.00     0.106 C 
ATOM      2  C   UNL d   1       0.243  -0.854  -0.605  0.00  0.00     0.038 C 
ENDROOT
BRANCH   2   3
ATOM      3  C   UNL d   1      -1.237  -0.831  -0.723  0.00  0.00     0.008 A 
ATOM      4  C   UNL d   1      -1.905  -0.100  -1.723  0.00  0.00     0.046 A 
ATOM      5 CL   UNL d   1      -1.042   0.797  -2.927  0.00  0.00    -0.083 Cl
ATOM      6  C   UNL d   1      -3.302  -0.068  -1.763  0.00  0.00     0.024 A 
ATOM      7  C   UNL d   1      -4.044  -0.779  -0.820  0.00  0.00     0.002 A 
ATOM      8  C   UNL d   1      -3.393  -1.534   0.154  0.00  0.00     0.001 A 
ATOM      9  C   UNL d   1      -1.998  -1.564   0.202  0.00  0.00     0.015 A 
ENDBRANCH   2   3
BRANCH   2  10
ATOM     10  N   UNL d   1       0.801  -1.904  -1.322  0.00  0.00    -0.301 NA
ATOM     11  H   UNL d   1       1.828  -1.887  -1.333  0.00  0.00     0.124 HD
ATOM     12  H   UNL d   1       0.399  -2.044  -2.245  0.00  0.00     0.124 HD
ENDBRANCH   2  10
BRANCH   1  13
ATOM     13  C   UNL d   1       0.253   1.031   1.055  0.00  0.00     0.298 C 
ATOM     14  O   UNL d   1       0.673   1.301   2.173  0.00  0.00    -0.259 OA
BRANCH  13  15
ATOM     15  O   UNL d   1      -0.823   1.613   0.475  0.00  0.00    -0.322 OA
ATOM     16  C   UNL d   1      -1.583   2.478   1.322  0.00  0.00     0.213 C 
ENDBRANCH  13  15
ENDBRANCH   1  13
BRANCH   1  17
ATOM     17  C   UNL d   1       2.426  -0.033   0.185  0.00  0.00     0.163 C 
ATOM     18  O   UNL d   1       3.033  -1.040  -0.202  0.00  0.00    -0.293 OA
ATOM     19  C   UNL d   1       3.229   1.179   0.587  0.00  0.00     0.097 C 
ENDBRANCH   1  17
TORSDOF 5
