REMARK  3 active torsions:
REMARK  status: ('A' for Active; 'I' for Inactive)
REMARK    1  A    between atoms: N_6  and  C_1 
REMARK    2  A    between atoms: C_5  and  C_10 
REMARK       I    between atoms: C_7  and  N_6 
REMARK    3  A    between atoms: C_11  and  C_7 
ROOT
ATOM      1  N   UNL d   1      -3.032  -2.381   1.131  0.00  0.00    -0.307 N 
ATOM      2  C   UNL d   1      -2.493  -2.936  -0.010  0.00  0.00     0.257 C 
ATOM      3  O   UNL d   1      -2.978  -2.905  -1.135  0.00  0.00    -0.267 OA
ATOM      4  H   UNL d   1      -2.600  -2.541   2.027  0.00  0.00     0.170 HD
ENDROOT
BRANCH   2   5
ATOM      5  C   UNL d   1      -1.211  -3.681   0.157  0.00  0.00     0.032 A 
ATOM      6  C   UNL d   1      -0.943  -4.716  -0.751  0.00  0.00     0.018 A 
ATOM      7  C   UNL d   1       0.268  -5.409  -0.707  0.00  0.00     0.017 A 
ATOM      8  C   UNL d   1       1.239  -5.076   0.246  0.00  0.00     0.048 A 
ATOM      9  C   UNL d   1       0.959  -4.054   1.170  0.00  0.00     0.017 A 
ATOM     10  C   UNL d   1      -0.256  -3.356   1.126  0.00  0.00     0.018 A 
BRANCH   8  11
ATOM     11  C   UNL d   1       2.580  -5.771   0.262  0.00  0.00     0.417 C 
ATOM     12  F   UNL d   1       2.711  -6.733  -0.693  0.00  0.00    -0.166 F 
ATOM     13  F   UNL d   1       3.612  -4.905   0.063  0.00  0.00    -0.166 F 
ATOM     14  F   UNL d   1       2.833  -6.387   1.450  0.00  0.00    -0.166 F 
ENDBRANCH   8  11
ENDBRANCH   2   5
BRANCH   1  15
ATOM     15  C   UNL d   1      -4.257  -1.727   1.156  0.00  0.00     0.130 A 
ATOM     16  N   UNL d   1      -5.019  -1.455   0.090  0.00  0.00    -0.245 N 
ATOM     17  O   UNL d   1      -6.172  -0.875   0.569  0.00  0.00    -0.241 OA
ATOM     18  HN  UNL d   1      -4.789  -1.641  -0.886  1.00  0.00     0.196 HD
ATOM     19  C   UNL d   1      -6.106  -0.788   1.920  0.00  0.00     0.076 A 
ATOM     20  C   UNL d   1      -4.891  -1.276   2.340  0.00  0.00     0.084 A 
ATOM     21  C   UNL d   1      -7.296  -0.244   2.594  0.00  0.00     0.079 C 
ENDBRANCH   1  15
TORSDOF 3
