REMARK  3 active torsions:
REMARK  status: ('A' for Active; 'I' for Inactive)
REMARK    1  A    between atoms: C_16  and  C_11 
REMARK    2  A    between atoms: O_15  and  C_16 
REMARK    3  A    between atoms: C_17  and  O_15 
ROOT
ATOM      1  N   UNL d   1     -11.084  -2.613   0.360  0.00  0.00    -0.191 NA
ATOM      2  C   UNL d   1      -9.985  -2.247   0.294  0.00  0.00     0.099 C 
ATOM      3  C   UNL d   1      -8.625  -1.802   0.208  0.00  0.00     0.044 A 
ATOM      4  C   UNL d   1      -5.962  -0.938   0.033  0.00  0.00     0.069 A 
ATOM      5  C   UNL d   1      -8.269  -0.531   0.666  0.00  0.00     0.025 A 
ATOM      6  C   UNL d   1      -7.649  -2.636  -0.343  0.00  0.00     0.025 A 
ATOM      7  C   UNL d   1      -6.943  -0.100   0.569  0.00  0.00     0.038 A 
ATOM      8  C   UNL d   1      -6.321  -2.204  -0.432  0.00  0.00     0.038 A 
ENDROOT
BRANCH   4   9
ATOM      9  O   UNL d   1      -4.704  -0.402  -0.028  0.00  0.00    -0.347 OA
BRANCH   9  10
ATOM     10  C   UNL d   1      -3.629  -1.344  -0.001  0.00  0.00     0.214 C 
BRANCH  10  11
ATOM     11  C   UNL d   1      -2.284  -0.634  -0.019  0.00  0.00    -0.032 A 
ATOM     12  C   UNL d   1      -1.188  -1.319  -0.599  0.00  0.00     0.043 A 
ATOM     13  C   UNL d   1       0.038  -0.628  -0.569  0.00  0.00     0.086 A 
ATOM     14  C   UNL d   1       0.173   0.692   0.028  0.00  0.00     0.085 A 
ATOM     15  N   UNL d   1       1.233  -1.005  -1.037  0.00  0.00    -0.240 N 
ATOM     16  N   UNL d   1       1.448   1.080  -0.098  0.00  0.00    -0.240 N 
ATOM     17  C   UNL d   1      -0.912   1.363   0.618  0.00  0.00     0.034 A 
ATOM     18  O   UNL d   1       2.094   0.043  -0.750  0.00  0.00    -0.156 OA
ATOM     19  HN  UNL d   1       1.858   1.957   0.221  1.00  0.00     0.197 HD
ATOM     20  C   UNL d   1      -2.133   0.656   0.578  0.00  0.00     0.012 A 
ATOM     21  HN  UNL d   1       1.463  -1.880  -1.506  1.00  0.00     0.197 HD
ENDBRANCH  10  11
ENDBRANCH   9  10
ENDBRANCH   4   9
TORSDOF 3
