REMARK  2 active torsions:
REMARK  status: ('A' for Active; 'I' for Inactive)
REMARK    1  A    between atoms: C_2  and  C_1 
REMARK       I    between atoms: N_15  and  C_2 
REMARK    2  A    between atoms: C_9  and  C_3 
ROOT
ATOM      1  C   UNL d   1       0.898  -0.463  -0.595  0.00  0.00     0.112 C 
ATOM      2  C   UNL d   1       0.196   0.670  -0.804  0.00  0.00     0.040 C 
ATOM      3  C   UNL d   1       0.285  -1.731  -0.419  0.00  0.00     0.105 C 
ATOM      4  N   UNL d   1      -0.154  -2.797  -0.271  0.00  0.00    -0.191 NA
ENDROOT
BRANCH   1   5
ATOM      5  C   UNL d   1       2.391  -0.353  -0.539  0.00  0.00     0.260 C 
ATOM      6  O   UNL d   1       2.986   0.712  -0.672  0.00  0.00    -0.267 OA
ATOM      7  N   UNL d   1       3.096  -1.500  -0.319  0.00  0.00    -0.365 N 
ATOM      8  H   UNL d   1       2.696  -2.420  -0.188  0.00  0.00     0.159 HD
ATOM      9  H   UNL d   1       4.105  -1.422  -0.264  0.00  0.00     0.159 HD
ENDBRANCH   1   5
BRANCH   2  10
ATOM     10  C   UNL d   1      -1.270   0.755  -0.858  0.00  0.00    -0.032 A 
ATOM     11  C   UNL d   1      -1.941   0.577  -2.075  0.00  0.00     0.051 A 
ATOM     12  C   UNL d   1      -3.322   0.621  -2.064  0.00  0.00     0.105 A 
ATOM     13  O   UNL d   1      -4.131   0.454  -3.145  0.00  0.00    -0.323 OA
ATOM     14  C   UNL d   1      -4.034   0.837  -0.908  0.00  0.00     0.105 A 
ATOM     15  C   UNL d   1      -5.433   0.520  -2.524  0.00  0.00     0.352 A 
ATOM     16  O   UNL d   1      -5.378   0.822  -1.114  0.00  0.00    -0.323 OA
ATOM     17  C   UNL d   1      -3.407   1.041   0.300  0.00  0.00     0.040 A 
ATOM     18  C   UNL d   1      -2.007   1.003   0.322  0.00  0.00     0.014 A 
ENDBRANCH   2  10
TORSDOF 2
