REMARK  4 active torsions:
REMARK  status: ('A' for Active; 'I' for Inactive)
REMARK    1  A    between atoms: C_2  and  S_1 
REMARK    2  A    between atoms: N_7  and  S_1 
REMARK    3  A    between atoms: C_3  and  N_7 
REMARK    4  A    between atoms: S_17  and  C_8 
ROOT
ATOM      1  N   UNL d   1       0.594   0.900   1.208  0.00  0.00    -0.150 NA
ATOM      2  H   UNL d   1       1.183   0.278   0.659  0.00  0.00     0.149 HD
ENDROOT
BRANCH   1   3
ATOM      3  C   UNL d   1       0.826   0.736   2.553  0.00  0.00     0.188 A 
ATOM      4  N   UNL d   1       1.989   0.167   2.976  0.00  0.00    -0.310 N 
ATOM      5  C   UNL d   1       1.853   0.146   4.279  0.00  0.00     0.163 A 
ATOM      6  HN  UNL d   1       2.774  -0.163   2.415  1.00  0.00     0.170 HD
ATOM      7  N   UNL d   1       0.611   0.602   4.614  0.00  0.00    -0.273 N 
ATOM      8  N   UNL d   1      -0.038   1.044   3.516  0.00  0.00    -0.271 N 
ATOM      9  C   UNL d   1      -0.030   0.615   5.904  0.00  0.00     0.180 C 
ATOM     10  HN  UNL d   1      -0.951   1.494   3.444  1.00  0.00     0.190 HD
BRANCH   5  11
ATOM     11  S   UNL d   1       3.041  -0.355   5.426  0.00  0.00    -0.097 SA
ATOM     12  C   UNL d   1       4.473  -0.585   4.344  0.00  0.00     0.099 C 
ENDBRANCH   5  11
ENDBRANCH   1   3
BRANCH   1  13
ATOM     13  S   UNL d   1       0.783   2.447   0.588  0.00  0.00     0.250 S 
ATOM     14  O   UNL d   1       1.125   2.300  -0.811  0.00  0.00    -0.205 OA
ATOM     15  O   UNL d   1      -0.308   3.299   1.010  0.00  0.00    -0.205 OA
BRANCH  13  16
ATOM     16  C   UNL d   1       2.196   3.193   1.252  0.00  0.00     0.105 A 
ATOM     17  C   UNL d   1       3.462   2.660   1.210  0.00  0.00     0.099 A 
ATOM     18  S   UNL d   1       4.620   3.644   1.975  0.00  0.00    -0.064 SA
ATOM     19 CL   UNL d   1       3.997   1.179   0.515  0.00  0.00    -0.075 Cl
ATOM     20  C   UNL d   1       3.446   4.811   2.329  0.00  0.00     0.077 A 
ATOM     21  C   UNL d   1       2.188   4.469   1.902  0.00  0.00     0.058 A 
ATOM     22 CL   UNL d   1       3.895   6.251   3.147  0.00  0.00    -0.076 Cl
ENDBRANCH  13  16
ENDBRANCH   1  13
TORSDOF 4
