REMARK  3 active torsions:
REMARK  status: ('A' for Active; 'I' for Inactive)
REMARK       I    between atoms: C_7  and  N_1 
REMARK    1  A    between atoms: C_3  and  C_2 
REMARK    2  A    between atoms: C_6  and  C_8 
REMARK       I    between atoms: N_16  and  C_7 
REMARK    3  A    between atoms: C_22  and  N_16 
ROOT
ATOM      1  N   UNL d   1       0.856  -0.873  -0.231  0.00  0.00    -0.204 N 
ATOM      2  C   UNL d   1      -0.477  -1.208  -0.056  0.00  0.00     0.090 C 
ATOM      3  C   UNL d   1       2.023  -1.659  -0.070  0.00  0.00     0.346 C 
ATOM      4  N   UNL d   1       0.981   0.440  -0.638  0.00  0.00    -0.301 N 
ATOM      5  HN  UNL d   1       1.804   0.907  -1.017  1.00  0.00     0.186 HD
ATOM      6  N   UNL d   1       3.008  -1.210  -0.928  0.00  0.00    -0.307 N 
ATOM      7  C   UNL d   1      -1.178  -0.021  -0.052  0.00  0.00     0.052 C 
ATOM      8  C   UNL d   1      -0.232   0.953  -0.417  0.00  0.00     0.110 C 
ATOM      9  O   UNL d   1       2.046  -2.586   0.726  0.00  0.00    -0.245 OA
ATOM     10  H   UNL d   1       2.748  -0.403  -1.494  0.00  0.00     0.170 HD
ENDROOT
BRANCH   2  11
ATOM     11  C   UNL d   1      -1.030  -2.587  -0.005  0.00  0.00     0.069 A 
ATOM     12  N   UNL d   1      -0.208  -3.667  -0.223  0.00  0.00    -0.346 N 
ATOM     13  C   UNL d   1      -0.887  -4.793  -0.177  0.00  0.00     0.103 A 
ATOM     14  HN  UNL d   1       0.795  -3.604  -0.398  1.00  0.00     0.167 HD
ATOM     15  S   UNL d   1      -2.581  -4.600   0.038  0.00  0.00    -0.080 SA
ATOM     16  C   UNL d   1      -2.364  -2.898   0.146  0.00  0.00     0.083 A 
BRANCH  13  17
ATOM     17  C   UNL d   1      -0.200  -6.122  -0.310  0.00  0.00     0.091 A 
ATOM     18  N   UNL d   1      -0.845  -7.294  -0.384  0.00  0.00    -0.258 N 
ATOM     19  O   UNL d   1       0.144  -8.258  -0.492  0.00  0.00    -0.242 OA
ATOM     20  HN  UNL d   1      -1.854  -7.445  -0.365  1.00  0.00     0.195 HD
ATOM     21  C   UNL d   1       1.367  -7.661  -0.469  0.00  0.00     0.074 A 
ATOM     22  C   UNL d   1       1.203  -6.303  -0.365  0.00  0.00     0.068 A 
ATOM     23  C   UNL d   1       2.534  -8.556  -0.547  0.00  0.00     0.079 C 
ENDBRANCH  13  17
ENDBRANCH   2  11
BRANCH   6  24
ATOM     24  C   UNL d   1       4.241  -1.837  -1.180  0.00  0.00     0.038 A 
ATOM     25  C   UNL d   1       4.746  -2.882  -0.403  0.00  0.00     0.053 A 
ATOM     26  C   UNL d   1       5.968  -3.471  -0.732  0.00  0.00     0.036 A 
ATOM     27 CL   UNL d   1       6.586  -4.753   0.237  0.00  0.00    -0.084 Cl
ATOM     28  C   UNL d   1       6.691  -3.034  -1.839  0.00  0.00     0.024 A 
ATOM     29  C   UNL d   1       6.193  -1.993  -2.619  0.00  0.00     0.004 A 
ATOM     30  C   UNL d   1       4.977  -1.390  -2.285  0.00  0.00     0.029 A 
ENDBRANCH   6  24
TORSDOF 3
