REMARK  5 active torsions:
REMARK  status: ('A' for Active; 'I' for Inactive)
REMARK    1  A    between atoms: C_7  and  C_1 
REMARK    2  A    between atoms: C_12  and  C_8 
REMARK    3  A    between atoms: C_9  and  C_10 
REMARK    4  A    between atoms: C_11  and  O_13 
REMARK    5  A    between atoms: O_13  and  C_25 
ROOT
ATOM      1  C   UNL d   1      -0.151  -1.060   0.022  0.00  0.00     0.177 A 
ATOM      2  O   UNL d   1      -1.034  -0.008   0.036  0.00  0.00    -0.273 OA
ATOM      3  N   UNL d   1       1.101  -0.676   0.066  0.00  0.00    -0.277 N 
ATOM      4  HN  UNL d   1       1.924  -1.278   0.085  1.00  0.00     0.189 HD
ATOM      5  N   UNL d   1       1.085   0.706   0.082  0.00  0.00    -0.277 N 
ATOM      6  HN  UNL d   1       1.896   1.324   0.103  1.00  0.00     0.189 HD
ATOM      7  C   UNL d   1      -0.179   1.070   0.064  0.00  0.00     0.174 A 
ENDROOT
BRANCH   1   8
ATOM      8  C   UNL d   1      -0.720  -2.397   0.005  0.00  0.00     0.047 A 
ATOM      9  C   UNL d   1      -0.167  -3.481  -0.699  0.00  0.00     0.065 A 
ATOM     10  C   UNL d   1      -0.766  -4.750  -0.559  0.00  0.00     0.034 A 
ATOM     11  C   UNL d   1      -1.889  -4.890   0.235  0.00  0.00     0.088 A 
ATOM     12  N   UNL d   1      -2.455  -3.864   0.894  0.00  0.00    -0.374 N 
ATOM     13  C   UNL d   1      -1.859  -2.654   0.769  0.00  0.00     0.104 A 
ATOM     14  HN  UNL d   1      -3.293  -3.991   1.461  1.00  0.00     0.164 HD
BRANCH   9  15
ATOM     15  C   UNL d   1       1.031  -3.390  -1.611  0.00  0.00     0.418 C 
ATOM     16  F   UNL d   1       1.379  -2.143  -2.011  0.00  0.00    -0.166 F 
ATOM     17  F   UNL d   1       2.141  -3.951  -1.059  0.00  0.00    -0.166 F 
ATOM     18  F   UNL d   1       0.819  -4.078  -2.773  0.00  0.00    -0.166 F 
ENDBRANCH   9  15
ENDBRANCH   1   8
BRANCH   7  19
ATOM     19  C   UNL d   1      -0.759   2.407   0.115  0.00  0.00     0.017 A 
ATOM     20  C   UNL d   1      -2.140   2.637   0.208  0.00  0.00     0.018 A 
ATOM     21  C   UNL d   1      -2.649   3.937   0.325  0.00  0.00     0.038 A 
ATOM     22  C   UNL d   1      -1.780   5.027   0.376  0.00  0.00     0.078 A 
ATOM     23  C   UNL d   1      -0.411   4.813   0.216  0.00  0.00     0.038 A 
ATOM     24  C   UNL d   1       0.097   3.516   0.095  0.00  0.00     0.018 A 
BRANCH  22  25
ATOM     25  O   UNL d   1      -2.138   6.331   0.524  0.00  0.00    -0.255 OA
BRANCH  25  26
ATOM     26  C   UNL d   1      -3.265   6.648   1.328  0.00  0.00     0.530 C 
ATOM     27  F   UNL d   1      -3.707   5.621   2.085  0.00  0.00    -0.144 F 
ATOM     28  F   UNL d   1      -2.926   7.657   2.162  0.00  0.00    -0.144 F 
ATOM     29  F   UNL d   1      -4.274   7.074   0.538  0.00  0.00    -0.144 F 
ENDBRANCH  25  26
ENDBRANCH  22  25
ENDBRANCH   7  19
TORSDOF 5
