REMARK  8 active torsions:
REMARK  status: ('A' for Active; 'I' for Inactive)
REMARK    1  A    between atoms: C_7  and  C_1 
REMARK    2  A    between atoms: C_12  and  N_2 
REMARK    3  A    between atoms: C_18  and  C_3 
REMARK    4  A    between atoms: O_11  and  C_7 
REMARK    5  A    between atoms: N_8  and  O_11 
REMARK    6  A    between atoms: C_13  and  C_10 
REMARK    7  A    between atoms: N_17  and  C_10 
REMARK    8  A    between atoms: C_25  and  C_18 
ROOT
ATOM      1  C   UNL d   1       1.076   1.104  -0.079  0.00  0.00     0.318 C 
ATOM      2  O   UNL d   1       1.899   1.963  -0.376  0.00  0.00    -0.257 OA
ENDROOT
BRANCH   1   3
ATOM      3  C   UNL d   1      -0.362   1.353   0.006  0.00  0.00     0.082 A 
ATOM      4  C   UNL d   1      -1.064   2.566   0.058  0.00  0.00     0.052 A 
ATOM      5  N   UNL d   1      -2.421   2.226  -0.025  0.00  0.00    -0.260 N 
ATOM      6  N   UNL d   1      -2.580   0.880  -0.161  0.00  0.00    -0.304 N 
ATOM      7  C   UNL d   1      -1.361   0.370  -0.074  0.00  0.00     0.127 A 
ATOM      8  HN  UNL d   1      -3.453   0.372  -0.300  1.00  0.00     0.186 HD
BRANCH   4   9
ATOM      9  C   UNL d   1      -0.515   3.966  -0.016  0.00  0.00     0.060 C 
BRANCH   9  10
ATOM     10  C   UNL d   1      -0.155   4.629   1.319  0.00  0.00     0.002 C 
ATOM     11  C   UNL d   1       0.844   3.880   2.183  0.00  0.00     0.005 C 
ENDBRANCH   9  10
ENDBRANCH   4   9
BRANCH   5  12
ATOM     12  C   UNL d   1      -3.617   3.004   0.052  0.00  0.00     0.056 A 
ATOM     13  C   UNL d   1      -4.781   2.512  -0.568  0.00  0.00     0.031 A 
ATOM     14  C   UNL d   1      -6.012   3.148  -0.390  0.00  0.00     0.002 A 
ATOM     15  C   UNL d   1      -6.101   4.270   0.426  0.00  0.00     0.000 A 
ATOM     16  C   UNL d   1      -4.952   4.780   1.026  0.00  0.00     0.002 A 
ATOM     17  C   UNL d   1      -3.712   4.161   0.826  0.00  0.00     0.031 A 
ENDBRANCH   5  12
ENDBRANCH   1   3
BRANCH   1  18
ATOM     18  O   UNL d   1       1.384  -0.211   0.202  0.00  0.00    -0.193 OA
BRANCH  18  19
ATOM     19  N   UNL d   1       2.282  -0.713  -0.769  0.00  0.00    -0.246 N 
ATOM     20  C   UNL d   1       2.697  -1.908  -0.454  0.00  0.00     0.109 C 
ATOM     21  HN  UNL d   1       2.567  -0.206  -1.607  1.00  0.00     0.196 HD
BRANCH  20  22
ATOM     22  C   UNL d   1       3.465  -2.677  -1.487  0.00  0.00     0.004 A 
ATOM     23  C   UNL d   1       4.245  -2.012  -2.439  0.00  0.00     0.016 A 
ATOM     24  C   UNL d   1       4.880  -2.738  -3.453  0.00  0.00     0.024 A 
ATOM     25  C   UNL d   1       4.726  -4.123  -3.519  0.00  0.00     0.034 A 
ATOM     26  C   UNL d   1       3.958  -4.794  -2.568  0.00  0.00     0.024 A 
ATOM     27 CL   UNL d   1       5.465  -5.010  -4.794  0.00  0.00    -0.084 Cl
ATOM     28  C   UNL d   1       3.331  -4.071  -1.544  0.00  0.00     0.016 A 
ENDBRANCH  20  22
BRANCH  20  29
ATOM     29  N   UNL d   1       2.454  -2.508   0.760  0.00  0.00    -0.286 NA
ATOM     30  H   UNL d   1       2.195  -1.835   1.476  0.00  0.00     0.125 HD
ATOM     31  H   UNL d   1       3.186  -3.132   1.085  0.00  0.00     0.125 HD
ENDBRANCH  20  29
ENDBRANCH  18  19
ENDBRANCH   1  18
TORSDOF 8
