REMARK  4 active torsions:
REMARK  status: ('A' for Active; 'I' for Inactive)
REMARK    1  A    between atoms: N_2  and  S_1 
REMARK    2  A    between atoms: C_9  and  S_1 
REMARK    3  A    between atoms: C_10  and  C_3 
REMARK    4  A    between atoms: O_12  and  C_10 
ROOT
ATOM      1  N   UNL d   1       0.473  -0.721  -1.415  0.00  0.00    -0.237 N 
ATOM      2  C   UNL d   1      -0.379  -0.014  -2.265  0.00  0.00     0.053 A 
ATOM      3  C   UNL d   1      -0.657  -0.866  -3.324  0.00  0.00     0.042 A 
ATOM      4  C   UNL d   1       0.725  -1.997  -1.926  0.00  0.00     0.061 A 
ATOM      5  C   UNL d   1       0.003  -2.096  -3.122  0.00  0.00    -0.006 A 
ATOM      6  C   UNL d   1       1.483  -3.098  -1.475  0.00  0.00     0.031 A 
ATOM      7  C   UNL d   1       0.027  -3.294  -3.867  0.00  0.00     0.014 A 
ATOM      8  C   UNL d   1       1.488  -4.281  -2.226  0.00  0.00     0.002 A 
ATOM      9  C   UNL d   1       0.768  -4.381  -3.408  0.00  0.00     0.001 A 
ENDROOT
BRANCH   1  10
ATOM     10  S   UNL d   1       1.046  -0.173   0.117  0.00  0.00     0.269 S 
ATOM     11  O   UNL d   1       1.824  -1.239   0.717  0.00  0.00    -0.200 OA
ATOM     12  O   UNL d   1      -0.136   0.337   0.795  0.00  0.00    -0.200 OA
BRANCH  10  13
ATOM     13  C   UNL d   1       2.193   1.140  -0.217  0.00  0.00     0.080 A 
ATOM     14  C   UNL d   1       2.016   2.388   0.391  0.00  0.00     0.025 A 
ATOM     15  C   UNL d   1       2.943   3.405   0.168  0.00  0.00     0.002 A 
ATOM     16  C   UNL d   1       4.060   3.167  -0.634  0.00  0.00     0.000 A 
ATOM     17  C   UNL d   1       4.251   1.911  -1.215  0.00  0.00     0.002 A 
ATOM     18  C   UNL d   1       3.318   0.892  -1.010  0.00  0.00     0.025 A 
ENDBRANCH  10  13
ENDBRANCH   1  10
BRANCH   2  19
ATOM     19  C   UNL d   1      -0.946   1.362  -2.165  0.00  0.00     0.222 C 
BRANCH  19  20
ATOM     20  O   UNL d   1      -0.581   2.021  -0.985  0.00  0.00    -0.395 OA
ATOM     21  H   UNL d   1      -1.018   1.561  -0.236  0.00  0.00     0.209 HD
ENDBRANCH  19  20
ENDBRANCH   2  19
TORSDOF 4
