REMARK  4 active torsions:
REMARK  status: ('A' for Active; 'I' for Inactive)
REMARK    1  A    between atoms: C_2  and  C_1 
REMARK    2  A    between atoms: C_16  and  C_7 
REMARK    3  A    between atoms: N_13  and  N_15 
REMARK    4  A    between atoms: C_18  and  C_17 
ROOT
ATOM      1  C   UNL d   1       0.347  -2.742  -0.046  0.00  0.00     0.056 A 
ATOM      2  N   UNL d   1       1.045  -3.230   1.035  0.00  0.00    -0.334 N 
ATOM      3  HN  UNL d   1       1.278  -2.685   1.865  1.00  0.00     0.168 HD
ATOM      4  C   UNL d   1       1.373  -4.492   0.858  0.00  0.00     0.163 A 
ATOM      5  C   UNL d   1       0.076  -3.670  -1.029  0.00  0.00     0.083 A 
ATOM      6  S   UNL d   1       0.798  -5.171  -0.622  0.00  0.00    -0.062 SA
ATOM      7  N   UNL d   1       2.102  -5.252   1.718  0.00  0.00    -0.280 N 
ATOM      8  H   UNL d   1       2.258  -6.219   1.452  0.00  0.00     0.189 HD
ENDROOT
BRANCH   1   9
ATOM      9  C   UNL d   1      -0.016  -1.329  -0.055  0.00  0.00     0.052 A 
ATOM     10  C   UNL d   1       0.770  -0.228   0.413  0.00  0.00     0.080 A 
ATOM     11  N   UNL d   1       0.077   0.917   0.255  0.00  0.00    -0.259 N 
ATOM     12  O   UNL d   1      -1.127   0.579  -0.317  0.00  0.00    -0.241 OA
ATOM     13  HN  UNL d   1       0.387   1.855   0.510  1.00  0.00     0.195 HD
ATOM     14  C   UNL d   1      -1.185  -0.762  -0.509  0.00  0.00     0.087 A 
ATOM     15  C   UNL d   1      -2.433  -1.276  -1.103  0.00  0.00     0.080 C 
BRANCH  10  16
ATOM     16  C   UNL d   1       2.130  -0.185   0.965  0.00  0.00    -0.007 A 
ATOM     17  C   UNL d   1       2.457   0.753   1.958  0.00  0.00     0.014 A 
ATOM     18  C   UNL d   1       3.747   0.809   2.494  0.00  0.00     0.001 A 
ATOM     19  C   UNL d   1       4.728  -0.071   2.046  0.00  0.00     0.000 A 
ATOM     20  C   UNL d   1       4.424  -0.997   1.051  0.00  0.00     0.001 A 
ATOM     21  C   UNL d   1       3.139  -1.043   0.505  0.00  0.00     0.014 A 
ENDBRANCH  10  16
ENDBRANCH   1   9
BRANCH   7  22
ATOM     22  N   UNL d   1       2.283  -4.883   3.015  0.00  0.00    -0.309 N 
ATOM     23  C   UNL d   1       3.026  -5.659   3.735  0.00  0.00     0.118 C 
ATOM     24  HN  UNL d   1       1.856  -4.040   3.399  1.00  0.00     0.186 HD
BRANCH  23  25
ATOM     25  C   UNL d   1       3.228  -5.394   5.173  0.00  0.00    -0.019 A 
ATOM     26  C   UNL d   1       2.593  -4.312   5.792  0.00  0.00     0.013 A 
ATOM     27  C   UNL d   1       2.756  -4.100   7.160  0.00  0.00     0.001 A 
ATOM     28  C   UNL d   1       3.555  -4.963   7.908  0.00  0.00     0.000 A 
ATOM     29  C   UNL d   1       4.196  -6.038   7.290  0.00  0.00     0.001 A 
ATOM     30  C   UNL d   1       4.035  -6.257   5.920  0.00  0.00     0.013 A 
ENDBRANCH  23  25
ENDBRANCH   7  22
TORSDOF 4
