REMARK  4 active torsions:
REMARK  status: ('A' for Active; 'I' for Inactive)
REMARK    1  A    between atoms: N_2  and  C_1 
REMARK    2  A    between atoms: N_3  and  C_6 
REMARK    3  A    between atoms: S_7  and  C_5 
REMARK    4  A    between atoms: C_14  and  S_7 
ROOT
ATOM      1  C   UNL d   1       1.390  -0.252   0.154  0.00  0.00     0.122 A 
ATOM      2  C   UNL d   1       0.490  -1.333   0.158  0.00  0.00     0.073 A 
ATOM      3  C   UNL d   1       0.968   1.075  -0.028  0.00  0.00     0.038 A 
ATOM      4  C   UNL d   1      -0.875  -1.068   0.014  0.00  0.00     0.105 A 
ATOM      5  C   UNL d   1      -0.413   1.306  -0.147  0.00  0.00     0.024 A 
ATOM      6  C   UNL d   1      -1.331   0.248  -0.124  0.00  0.00     0.037 A 
ENDROOT
BRANCH   3   7
ATOM      7  S   UNL d   1       2.045   2.500  -0.092  0.00  0.00    -0.088 SA
BRANCH   7   8
ATOM      8  C   UNL d   1       2.338   2.640  -1.847  0.00  0.00     0.005 A 
ATOM      9  C   UNL d   1       1.472   3.381  -2.659  0.00  0.00     0.019 A 
ATOM     10  C   UNL d   1       1.731   3.520  -4.026  0.00  0.00     0.001 A 
ATOM     11  C   UNL d   1       2.861   2.927  -4.586  0.00  0.00     0.000 A 
ATOM     12  C   UNL d   1       3.736   2.200  -3.780  0.00  0.00     0.001 A 
ATOM     13  C   UNL d   1       3.477   2.060  -2.414  0.00  0.00     0.019 A 
ENDBRANCH   7   8
ENDBRANCH   3   7
BRANCH   1  14
ATOM     14  N   UNL d   1       2.787  -0.567   0.387  0.00  0.00    -0.114 N 
ATOM     15  O   UNL d   1       3.321  -1.357  -0.401  0.00  0.00    -0.532 OA
ATOM     16  O   UNL d   1       3.320  -0.080   1.393  0.00  0.00    -0.532 OA
ENDBRANCH   1  14
BRANCH   4  17
ATOM     17  N   UNL d   1      -1.839  -2.177   0.020  0.00  0.00    -0.116 N 
ATOM     18  O   UNL d   1      -1.391  -3.325   0.124  0.00  0.00    -0.532 OA
ATOM     19  O   UNL d   1      -3.042  -1.893  -0.079  0.00  0.00    -0.532 OA
ENDBRANCH   4  17
TORSDOF 4
