REMARK  7 active torsions:
REMARK  status: ('A' for Active; 'I' for Inactive)
REMARK    1  A    between atoms: C_5  and  S_1 
REMARK    2  A    between atoms: C_10  and  S_1 
REMARK    3  A    between atoms: C_3  and  C_2 
REMARK    4  A    between atoms: O_13  and  C_3 
REMARK    5  A    between atoms: C_4  and  S_12 
REMARK    6  A    between atoms: C_14  and  C_5 
REMARK    7  A    between atoms: S_12  and  C_14 
ROOT
ATOM      1  S   UNL d   1       0.157  -0.807  -4.168  0.00  0.00    -0.110 SA
ENDROOT
BRANCH   1   2
ATOM      2  C   UNL d   1       1.162  -0.155  -5.494  0.00  0.00     0.086 A 
ATOM      3  C   UNL d   1       0.658  -0.006  -6.786  0.00  0.00     0.071 A 
ATOM      4  C   UNL d   1       1.484   0.576  -7.757  0.00  0.00     0.022 A 
ATOM      5  C   UNL d   1       2.791   0.924  -7.436  0.00  0.00     0.018 A 
ATOM      6  C   UNL d   1       3.225   0.688  -6.146  0.00  0.00     0.089 A 
ATOM      7  N   UNL d   1       2.440   0.173  -5.172  0.00  0.00    -0.360 N 
ATOM      8  HN  UNL d   1       2.796   0.036  -4.226  1.00  0.00     0.166 HD
BRANCH   3   9
ATOM      9  C   UNL d   1      -0.705  -0.390  -7.216  0.00  0.00     0.179 C 
ATOM     10  O   UNL d   1      -1.320   0.262  -8.047  0.00  0.00    -0.646 OA
BRANCH   9  11
ATOM     11  O   UNL d   1      -1.159  -1.564  -6.734  0.00  0.00    -0.773 OA
ATOM     12  H   UNL d   1      -0.631  -1.957  -6.008  0.00  0.00     0.167 HD
ENDBRANCH   9  11
ENDBRANCH   3   9
ENDBRANCH   1   2
BRANCH   1  13
ATOM     13  C   UNL d   1       1.113  -0.341  -2.683  0.00  0.00     0.096 C 
BRANCH  13  14
ATOM     14  C   UNL d   1       0.523  -0.980  -1.433  0.00  0.00     0.156 C 
BRANCH  14  15
ATOM     15  S   UNL d   1       0.880  -2.727  -1.351  0.00  0.00     0.176 S 
ATOM     16  O   UNL d   1       2.322  -2.890  -1.310  0.00  0.00    -0.223 OA
ATOM     17  O   UNL d   1       0.083  -3.435  -2.334  0.00  0.00    -0.223 OA
BRANCH  15  18
ATOM     18  C   UNL d   1       0.255  -3.204   0.244  0.00  0.00     0.059 A 
ATOM     19  C   UNL d   1      -1.081  -3.599   0.369  0.00  0.00     0.023 A 
ATOM     20  C   UNL d   1      -1.548  -4.053   1.603  0.00  0.00     0.002 A 
ATOM     21  C   UNL d   1      -0.682  -4.118   2.696  0.00  0.00     0.000 A 
ATOM     22  C   UNL d   1       0.651  -3.727   2.563  0.00  0.00     0.002 A 
ATOM     23  C   UNL d   1       1.126  -3.270   1.334  0.00  0.00     0.023 A 
ENDBRANCH  15  18
ENDBRANCH  14  15
ENDBRANCH  13  14
ENDBRANCH   1  13
TORSDOF 7
