REMARK  6 active torsions:
REMARK  status: ('A' for Active; 'I' for Inactive)
REMARK    1  A    between atoms: C_4  and  C_1 
REMARK       I    between atoms: N_9  and  C_1 
REMARK    2  A    between atoms: C_3  and  O_7 
REMARK    3  A    between atoms: O_7  and  C_4 
REMARK    4  A    between atoms: C_5  and  S_8 
REMARK    5  A    between atoms: S_8  and  C_12 
REMARK    6  A    between atoms: C_19  and  N_9 
ROOT
ATOM      1  C   UNL d   1       0.658  -0.158   0.026  0.00  0.00     0.256 C 
ATOM      2  N   UNL d   1      -0.115  -0.606  -1.011  0.00  0.00    -0.323 N 
ATOM      3  O   UNL d   1       1.728   0.363  -0.320  0.00  0.00    -0.270 OA
ATOM      4  H   UNL d   1       0.437  -0.637  -1.867  0.00  0.00     0.169 HD
ENDROOT
BRANCH   2   5
ATOM      5  C   UNL d   1      -1.379  -1.191  -1.061  0.00  0.00     0.050 A 
ATOM      6  C   UNL d   1      -2.462  -0.800  -0.282  0.00  0.00     0.118 A 
ATOM      7  N   UNL d   1      -3.640  -1.460  -0.247  0.00  0.00    -0.358 N 
ATOM      8  C   UNL d   1      -3.773  -2.543  -1.046  0.00  0.00     0.074 A 
ATOM      9  HN  UNL d   1      -4.401  -1.153   0.359  1.00  0.00     0.166 HD
ATOM     10  C   UNL d   1      -2.787  -2.943  -1.940  0.00  0.00     0.039 A 
ATOM     11  C   UNL d   1      -1.581  -2.239  -1.959  0.00  0.00     0.034 A 
BRANCH   8  12
ATOM     12  S   UNL d   1      -5.249  -3.511  -0.840  0.00  0.00    -0.071 SA
BRANCH  12  13
ATOM     13  C   UNL d   1      -4.625  -4.797   0.251  0.00  0.00     0.030 A 
ATOM     14  C   UNL d   1      -4.155  -4.434   1.525  0.00  0.00     0.044 A 
ATOM     15  C   UNL d   1      -3.665  -5.403   2.401  0.00  0.00     0.035 A 
ATOM     16 CL   UNL d   1      -3.069  -4.936   3.946  0.00  0.00    -0.084 Cl
ATOM     17  C   UNL d   1      -3.647  -6.746   2.034  0.00  0.00     0.025 A 
ATOM     18  C   UNL d   1      -4.119  -7.122   0.775  0.00  0.00     0.027 A 
ATOM     19  C   UNL d   1      -4.603  -6.155  -0.115  0.00  0.00     0.051 A 
ATOM     20 CL   UNL d   1      -5.142  -6.709  -1.663  0.00  0.00    -0.083 Cl
ENDBRANCH  12  13
ENDBRANCH   8  12
ENDBRANCH   2   5
BRANCH   1  21
ATOM     21  C   UNL d   1       0.311  -0.360   1.548  0.00  0.00     0.141 C 
ATOM     22  C   UNL d   1      -0.181  -1.799   1.786  0.00  0.00     0.057 C 
ATOM     23  C   UNL d   1       1.644  -0.151   2.304  0.00  0.00     0.057 C 
BRANCH  21  24
ATOM     24  O   UNL d   1      -0.635   0.675   1.867  0.00  0.00    -0.331 OA
BRANCH  24  25
ATOM     25  C   UNL d   1      -1.069   0.957   3.130  0.00  0.00     0.077 A 
ATOM     26  C   UNL d   1      -1.743   2.167   3.300  0.00  0.00    -0.018 A 
ATOM     27  C   UNL d   1      -2.295   2.537   4.537  0.00  0.00    -0.043 A 
ATOM     28  C   UNL d   1      -1.968   3.231   2.272  0.00  0.00     0.042 A 
ATOM     29  C   UNL d   1      -2.987   3.861   4.465  0.00  0.00     0.040 A 
ATOM     30  C   UNL d   1      -2.187   1.716   5.653  0.00  0.00    -0.055 A 
ATOM     31  C   UNL d   1      -2.747   4.321   3.025  0.00  0.00     0.009 A 
ATOM     32  C   UNL d   1      -1.484   0.520   5.500  0.00  0.00     0.010 A 
ATOM     33  C   UNL d   1      -2.797   2.082   6.971  0.00  0.00     0.049 C 
ATOM     34  C   UNL d   1      -0.939   0.148   4.257  0.00  0.00     0.038 A 
ENDBRANCH  24  25
ENDBRANCH  21  24
ENDBRANCH   1  21
TORSDOF 6
