REMARK  1 active torsions:
REMARK  status: ('A' for Active; 'I' for Inactive)
REMARK    1  A    between atoms: O_12  and  C_10 
ROOT
ATOM      1  C   UNL d   1       0.102  -0.729   0.003  0.00  0.00     0.087 A 
ATOM      2  C   UNL d   1       0.162   0.725   0.003  0.00  0.00     0.085 A 
ATOM      3  C   UNL d   1      -1.115  -1.430   0.001  0.00  0.00     0.070 A 
ATOM      4  O   UNL d   1       2.177  -0.083   0.005  0.00  0.00    -0.156 OA
ATOM      5  N   UNL d   1       1.356  -1.199   0.004  0.00  0.00    -0.239 N 
ATOM      6  HN  UNL d   1       1.646  -2.177   0.005  1.00  0.00     0.197 HD
ATOM      7  N   UNL d   1       1.448   1.095   0.004  0.00  0.00    -0.240 N 
ATOM      8  HN  UNL d   1       1.815   2.047   0.004  1.00  0.00     0.197 HD
ATOM      9  C   UNL d   1      -0.995   1.522   0.001  0.00  0.00     0.036 A 
ATOM     10  C   UNL d   1      -2.271  -0.622  -0.000  0.00  0.00     0.070 A 
ATOM     11  C   UNL d   1      -2.208   0.800  -0.000  0.00  0.00     0.039 A 
ENDROOT
BRANCH  10  12
ATOM     12  O   UNL d   1      -3.437  -1.350  -0.002  0.00  0.00    -0.356 OA
ATOM     13  C   UNL d   1      -4.662  -0.627  -0.004  0.00  0.00     0.210 C 
ENDBRANCH  10  12
TORSDOF 1
