REMARK  5 active torsions:
REMARK  status: ('A' for Active; 'I' for Inactive)
REMARK    1  A    between atoms: N_2  and  C_1 
REMARK    2  A    between atoms: C_8  and  C_3 
REMARK    3  A    between atoms: C_6  and  C_5 
REMARK    4  A    between atoms: O_10  and  C_6 
REMARK    5  A    between atoms: C_7  and  O_10 
ROOT
ATOM      1  C   UNL d   1      -4.272  -1.580   0.801  0.00  0.00     0.001 A 
ATOM      2  C   UNL d   1      -3.179  -1.500  -0.084  0.00  0.00     0.087 A 
ATOM      3  C   UNL d   1      -5.219  -0.538   0.760  0.00  0.00     0.031 A 
ATOM      4  C   UNL d   1      -3.084  -0.480  -1.039  0.00  0.00     0.039 A 
ATOM      5  C   UNL d   1      -5.098   0.505  -0.160  0.00  0.00     0.011 A 
ATOM      6  C   UNL d   1      -4.054   0.520  -1.080  0.00  0.00     0.022 A 
ATOM      7 BR   UNL d   1      -6.344   1.926  -0.133  0.00  0.00    -0.051 Br
ENDROOT
BRANCH   2   8
ATOM      8  O   UNL d   1      -2.065  -2.333   0.181  0.00  0.00    -0.273 OA
BRANCH   8   9
ATOM      9  C   UNL d   1      -1.146  -2.678  -0.807  0.00  0.00     0.322 C 
ATOM     10  O   UNL d   1      -1.418  -2.916  -1.976  0.00  0.00    -0.257 OA
BRANCH   9  11
ATOM     11  C   UNL d   1       0.181  -2.688  -0.226  0.00  0.00     0.153 A 
ATOM     12  O   UNL d   1       0.422  -1.939   0.901  0.00  0.00    -0.282 OA
ATOM     13  C   UNL d   1       1.752  -2.040   1.161  0.00  0.00     0.215 A 
ATOM     14  C   UNL d   1       2.380  -2.866   0.261  0.00  0.00     0.066 A 
ATOM     15  C   UNL d   1       1.367  -3.275  -0.646  0.00  0.00     0.048 A 
BRANCH  13  16
ATOM     16  N   UNL d   1       2.253  -1.272   2.259  0.00  0.00    -0.090 N 
ATOM     17  O   UNL d   1       3.471  -1.333   2.457  0.00  0.00    -0.530 OA
ATOM     18  O   UNL d   1       1.442  -0.603   2.913  0.00  0.00    -0.530 OA
ENDBRANCH  13  16
ENDBRANCH   9  11
ENDBRANCH   8   9
ENDBRANCH   2   8
BRANCH   1  19
ATOM     19  C   UNL d   1      -4.425  -2.736   1.771  0.00  0.00     0.144 C 
ATOM     20  S   UNL d   1      -6.028  -3.597   1.554  0.00  0.00    -0.148 SA
ATOM     21  C   UNL d   1      -6.364  -3.865   3.310  0.00  0.00     0.085 C 
ATOM     22  C   UNL d   1      -5.901  -2.635   4.062  0.00  0.00     0.085 C 
ATOM     23  S   UNL d   1      -4.224  -2.226   3.510  0.00  0.00    -0.148 SA
ENDBRANCH   1  19
TORSDOF 5
