REMARK  4 active torsions:
REMARK  status: ('A' for Active; 'I' for Inactive)
REMARK    1  A    between atoms: C_3  and  C_1 
REMARK    2  A    between atoms: N_4  and  C_2 
REMARK    3  A    between atoms: O_15  and  C_3 
REMARK    4  A    between atoms: C_5  and  N_4 
ROOT
ATOM      1  N   UNL d   1       2.208  -1.433  -0.192  0.00  0.00    -0.262 NA
ATOM      2  H   UNL d   1       2.803  -1.081  -0.953  0.00  0.00     0.133 HD
ENDROOT
BRANCH   1   3
ATOM      3  C   UNL d   1       1.095  -0.612  -0.060  0.00  0.00     0.012 C 
ATOM      4  C   UNL d   1       1.022   0.722  -0.243  0.00  0.00     0.044 C 
ATOM      5  C   UNL d   1      -0.294   1.373   0.019  0.00  0.00     0.120 C 
ATOM      6  S   UNL d   1      -1.490   0.016   0.162  0.00  0.00    -0.159 SA
ATOM      7  C   UNL d   1      -0.220  -1.277   0.274  0.00  0.00     0.126 C 
BRANCH   4   8
ATOM      8  C   UNL d   1       2.114   1.629  -0.644  0.00  0.00     0.291 C 
ATOM      9  O   UNL d   1       2.067   2.839  -0.462  0.00  0.00    -0.260 OA
BRANCH   8  10
ATOM     10  O   UNL d   1       3.091   0.957  -1.300  0.00  0.00    -0.323 OA
ATOM     11  C   UNL d   1       4.148   1.763  -1.829  0.00  0.00     0.213 C 
ENDBRANCH   8  10
ENDBRANCH   4   8
ENDBRANCH   1   3
BRANCH   1  12
ATOM     12  C   UNL d   1       3.097  -1.678   0.901  0.00  0.00     0.015 A 
ATOM     13  C   UNL d   1       2.840  -1.256   2.212  0.00  0.00     0.047 A 
ATOM     14  C   UNL d   1       3.773  -1.494   3.225  0.00  0.00     0.037 A 
ATOM     15 CL   UNL d   1       3.466  -0.914   4.817  0.00  0.00    -0.084 Cl
ATOM     16  C   UNL d   1       4.952  -2.183   2.961  0.00  0.00     0.047 A 
ATOM     17  C   UNL d   1       5.188  -2.647   1.673  0.00  0.00     0.037 A 
ATOM     18  C   UNL d   1       4.269  -2.406   0.649  0.00  0.00     0.047 A 
ATOM     19 CL   UNL d   1       6.632  -3.517   1.331  0.00  0.00    -0.084 Cl
ENDBRANCH   1  12
TORSDOF 4
