REMARK  3 active torsions:
REMARK  status: ('A' for Active; 'I' for Inactive)
REMARK    1  A    between atoms: N_5  and  C_1 
REMARK    2  A    between atoms: N_2  and  N_5 
REMARK    3  A    between atoms: C_8  and  C_7 
ROOT
ATOM      1  N   UNL d   1      -1.093   0.188   3.352  0.00  0.00    -0.309 N 
ATOM      2  HN  UNL d   1      -1.567   0.675   4.113  1.00  0.00     0.186 HD
ATOM      3  C   UNL d   1      -1.742  -0.439   2.423  0.00  0.00     0.118 C 
ENDROOT
BRANCH   1   4
ATOM      4  N   UNL d   1       0.267   0.153   3.244  0.00  0.00    -0.277 N 
ATOM      5  H   UNL d   1       0.718  -0.340   2.479  0.00  0.00     0.189 HD
BRANCH   4   6
ATOM      6  C   UNL d   1       1.056   0.797   4.158  0.00  0.00     0.184 C 
ATOM      7  S   UNL d   1       2.711   0.798   4.064  0.00  0.00    -0.040 SA
ATOM      8  N   UNL d   1       0.389   1.439   5.146  0.00  0.00    -0.375 N 
ATOM      9  H   UNL d   1       0.868   1.950   5.873  0.00  0.00     0.158 HD
ATOM     10  H   UNL d   1      -0.622   1.386   5.122  0.00  0.00     0.158 HD
ENDBRANCH   4   6
ENDBRANCH   1   4
BRANCH   3  11
ATOM     11  C   UNL d   1      -3.219  -0.472   2.419  0.00  0.00    -0.019 A 
ATOM     12  C   UNL d   1      -3.945   0.158   3.437  0.00  0.00     0.014 A 
ATOM     13  C   UNL d   1      -5.340   0.127   3.420  0.00  0.00     0.024 A 
ATOM     14  C   UNL d   1      -6.003  -0.531   2.386  0.00  0.00     0.034 A 
ATOM     15  C   UNL d   1      -5.284  -1.161   1.370  0.00  0.00     0.024 A 
ATOM     16 CL   UNL d   1      -7.723  -0.564   2.362  0.00  0.00    -0.084 Cl
ATOM     17  C   UNL d   1      -3.885  -1.134   1.384  0.00  0.00     0.014 A 
ENDBRANCH   3  11
TORSDOF 3
