REMARK  2 active torsions:
REMARK  status: ('A' for Active; 'I' for Inactive)
REMARK    1  A    between atoms: N_8  and  C_2 
REMARK    2  A    between atoms: C_9  and  C_5 
ROOT
ATOM      1  N   UNL d   1       4.131  -7.159   0.320  0.00  0.00    -0.191 NA
ATOM      2  C   UNL d   1       1.406  -2.489   0.018  0.00  0.00    -0.002 A 
ATOM      3  C   UNL d   1       3.557  -6.156   0.250  0.00  0.00     0.099 C 
ATOM      4  C   UNL d   1       0.916  -3.656  -0.592  0.00  0.00     0.016 A 
ATOM      5  C   UNL d   1       2.643  -2.561   0.680  0.00  0.00     0.016 A 
ATOM      6  C   UNL d   1       2.840  -4.920   0.163  0.00  0.00     0.044 A 
ATOM      7  C   UNL d   1       3.354  -3.765   0.755  0.00  0.00     0.023 A 
ATOM      8  C   UNL d   1       1.621  -4.862  -0.515  0.00  0.00     0.023 A 
ENDROOT
BRANCH   2   9
ATOM      9  C   UNL d   1       0.658  -1.214  -0.017  0.00  0.00     0.092 A 
ATOM     10  O   UNL d   1       1.455  -0.059   0.039  0.00  0.00    -0.273 OA
ATOM     11  C   UNL d   1       0.882   1.181   0.029  0.00  0.00     0.312 A 
ATOM     12  C   UNL d   1      -0.609   1.250   0.041  0.00  0.00     0.136 A 
ATOM     13  O   UNL d   1       1.590   2.185   0.024  0.00  0.00    -0.258 OA
ATOM     14  C   UNL d   1      -1.386   0.140  -0.014  0.00  0.00     0.060 A 
ATOM     15 CL   UNL d   1      -1.243   2.857   0.236  0.00  0.00    -0.075 Cl
ATOM     16  C   UNL d   1      -0.677  -1.134  -0.063  0.00  0.00     0.069 A 
BRANCH  14  17
ATOM     17  N   UNL d   1      -2.796   0.065  -0.019  0.00  0.00    -0.388 N 
ATOM     18  C   UNL d   1      -3.670   1.053  -0.662  0.00  0.00     0.149 C 
ATOM     19  C   UNL d   1      -3.563  -1.032   0.588  0.00  0.00     0.149 C 
ENDBRANCH  14  17
ENDBRANCH   2   9
TORSDOF 2
