REMARK  5 active torsions:
REMARK  status: ('A' for Active; 'I' for Inactive)
REMARK    1  A    between atoms: N_5  and  C_1 
REMARK    2  A    between atoms: C_8  and  C_14 
REMARK       I    between atoms: N_11  and  C_8 
REMARK    3  A    between atoms: C_14  and  N_9 
REMARK    4  A    between atoms: C_23  and  N_11 
REMARK    5  A    between atoms: C_24  and  C_15 
ROOT
ATOM      1  N   UNL d   1       7.739  -3.226   3.920  0.00  0.00    -0.358 N 
ATOM      2  N   UNL d   1       6.501  -4.260   1.413  0.00  0.00     0.100 N 
ATOM      3  C   UNL d   1       7.024  -2.304   3.036  0.00  0.00     0.155 C 
ATOM      4  C   UNL d   1       8.354  -4.362   3.234  0.00  0.00     0.155 C 
ATOM      5  C   UNL d   1       5.992  -3.072   2.168  0.00  0.00     0.293 C 
ATOM      6  C   UNL d   1       7.308  -5.091   2.349  0.00  0.00     0.293 C 
ENDROOT
BRANCH   2   7
ATOM      7  C   UNL d   1       7.264  -3.801   0.228  0.00  0.00     0.375 C 
BRANCH   7   8
ATOM      8  C   UNL d   1       7.782  -4.931  -0.675  0.00  0.00     0.250 C 
ATOM      9  N   UNL d   1       6.930  -6.014  -0.822  0.00  0.00    -0.326 N 
ATOM     10  H   UNL d   1       6.103  -5.993  -0.234  0.00  0.00     0.169 HD
ATOM     11  O   UNL d   1       8.879  -4.794  -1.223  0.00  0.00    -0.271 OA
BRANCH   9  12
ATOM     12  C   UNL d   1       7.231  -7.225  -1.497  0.00  0.00     0.034 C 
ATOM     13  C   UNL d   1       8.354  -7.398  -2.303  0.00  0.00     0.030 C 
ATOM     14  C   UNL d   1       8.710  -8.666  -2.781  0.00  0.00     0.010 C 
ATOM     15  C   UNL d   1       7.962  -9.808  -2.459  0.00  0.00    -0.054 C 
ATOM     16  C   UNL d   1       6.748  -9.598  -1.791  0.00  0.00     0.010 C 
ATOM     17  C   UNL d   1       6.390  -8.324  -1.310  0.00  0.00     0.030 C 
BRANCH  15  18
ATOM     18  C   UNL d   1       8.511 -11.184  -2.844  0.00  0.00     0.018 C 
ATOM     19  C   UNL d   1       7.670 -12.414  -2.435  0.00  0.00     0.009 C 
ATOM     20  C   UNL d   1       7.731 -12.738  -0.938  0.00  0.00     0.001 C 
ATOM     21  C   UNL d   1       9.161 -12.845  -0.417  0.00  0.00     0.000 C 
ATOM     22  C   UNL d   1      10.001 -11.636  -0.811  0.00  0.00     0.001 C 
ATOM     23  C   UNL d   1       9.955 -11.399  -2.321  0.00  0.00     0.009 C 
ENDBRANCH  15  18
ENDBRANCH   9  12
ENDBRANCH   7   8
ENDBRANCH   2   7
BRANCH   1  24
ATOM     24  C   UNL d   1       7.669  -3.081   5.277  0.00  0.00     0.148 A 
ATOM     25  N   UNL d   1       6.886  -2.208   5.875  0.00  0.00    -0.335 N 
ATOM     26  C   UNL d   1       7.011  -2.261   7.256  0.00  0.00     0.053 A 
ATOM     27  HN  UNL d   1       6.263  -1.569   5.382  1.00  0.00     0.168 HD
ATOM     28  C   UNL d   1       6.299  -1.476   8.188  0.00  0.00     0.054 A 
ATOM     29  C   UNL d   1       7.933  -3.192   7.730  0.00  0.00     0.035 A 
ATOM     30  C   UNL d   1       6.532  -1.651   9.555  0.00  0.00     0.036 A 
ATOM     31 CL   UNL d   1       5.656  -0.703  10.694  0.00  0.00    -0.084 Cl
ATOM     32  C   UNL d   1       7.464  -2.580  10.010  0.00  0.00     0.025 A 
ATOM     33  C   UNL d   1       8.182  -3.366   9.103  0.00  0.00     0.023 A 
ATOM     34  S   UNL d   1       8.629  -4.004   6.389  0.00  0.00    -0.052 SA
ENDBRANCH   1  24
TORSDOF 5
