REMARK  4 active torsions:
REMARK  status: ('A' for Active; 'I' for Inactive)
REMARK    1  A    between atoms: C_10  and  C_1 
REMARK    2  A    between atoms: C_4  and  C_2 
REMARK       I    between atoms: N_14  and  C_10 
REMARK       I    between atoms: C_12  and  N_16 
REMARK       I    between atoms: N_17  and  C_12 
REMARK    3  A    between atoms: N_16  and  N_14 
REMARK    4  A    between atoms: C_21  and  N_17 
ROOT
ATOM      1  C   UNL d   1      -0.101  -1.056   0.042  0.00  0.00     0.098 A 
ATOM      2  C   UNL d   1       0.531   1.293   0.168  0.00  0.00     0.104 A 
ATOM      3  S   UNL d   1       1.311  -0.201   0.505  0.00  0.00    -0.063 SA
ATOM      4  N   UNL d   1      -0.703   1.187  -0.284  0.00  0.00    -0.351 N 
ATOM      5  HN  UNL d   1      -1.305   1.974  -0.524  1.00  0.00     0.166 HD
ATOM      6  C   UNL d   1      -1.065  -0.152  -0.387  0.00  0.00     0.029 A 
ATOM      7  C   UNL d   1      -2.414  -0.466  -0.936  0.00  0.00     0.070 C 
ENDROOT
BRANCH   1   8
ATOM      8  C   UNL d   1      -0.189  -2.507   0.089  0.00  0.00     0.279 C 
ATOM      9  N   UNL d   1       0.923  -3.188   0.585  0.00  0.00    -0.261 N 
ATOM     10  H   UNL d   1       1.584  -2.695   1.178  0.00  0.00     0.190 HD
ATOM     11  O   UNL d   1      -1.188  -3.131  -0.271  0.00  0.00    -0.265 OA
BRANCH   9  12
ATOM     12  N   UNL d   1       0.791  -4.574   0.760  0.00  0.00    -0.249 N 
ATOM     13  C   UNL d   1       1.769  -5.412   1.221  0.00  0.00     0.335 C 
ATOM     14  N   UNL d   1       2.981  -4.822   1.472  0.00  0.00    -0.338 N 
ATOM     15  O   UNL d   1       1.534  -6.603   1.415  0.00  0.00    -0.246 OA
ATOM     16  H   UNL d   1       3.185  -4.024   0.892  0.00  0.00     0.164 HD
ATOM     17  H   UNL d   1      -0.121  -4.980   0.552  0.00  0.00     0.192 HD
BRANCH  14  18
ATOM     18  C   UNL d   1       4.118  -5.620   1.923  0.00  0.00     0.078 C 
ATOM     19  C   UNL d   1       4.884  -6.213   0.740  0.00  0.00     0.032 C 
ATOM     20  C   UNL d   1       5.046  -4.771   2.784  0.00  0.00     0.032 C 
ENDBRANCH  14  18
ENDBRANCH   9  12
ENDBRANCH   1   8
BRANCH   2  21
ATOM     21  C   UNL d   1       1.190   2.627   0.384  0.00  0.00     0.091 A 
ATOM     22  N   UNL d   1       2.469   2.760   0.762  0.00  0.00    -0.258 N 
ATOM     23  O   UNL d   1       2.689   4.122   0.870  0.00  0.00    -0.242 OA
ATOM     24  HN  UNL d   1       3.141   2.012   0.935  1.00  0.00     0.195 HD
ATOM     25  C   UNL d   1       1.546   4.793   0.571  0.00  0.00     0.074 A 
ATOM     26  C   UNL d   1       0.566   3.889   0.239  0.00  0.00     0.068 A 
ATOM     27  C   UNL d   1       1.609   6.263   0.673  0.00  0.00     0.079 C 
ENDBRANCH   2  21
TORSDOF 4
