REMARK  3 active torsions:
REMARK  status: ('A' for Active; 'I' for Inactive)
REMARK    1  A    between atoms: S_3  and  C_1 
REMARK    2  A    between atoms: C_10  and  C_7 
REMARK    3  A    between atoms: C_13  and  C_14 
ROOT
ATOM      1  C   UNL d   1       0.416   1.196  -0.236  0.00  0.00     0.166 A 
ATOM      2  C   UNL d   1      -0.255   0.019  -0.483  0.00  0.00     0.113 A 
ATOM      3  N   UNL d   1       1.589   0.815   0.345  0.00  0.00    -0.288 N 
ATOM      4  N   UNL d   1       1.705  -0.512   0.523  0.00  0.00    -0.297 N 
ATOM      5  HN  UNL d   1       2.467  -1.015   0.978  1.00  0.00     0.187 HD
ATOM      6  C   UNL d   1       0.594  -1.029  -0.031  0.00  0.00     0.082 A 
ATOM      7  C   UNL d   1      -1.551  -0.069  -1.063  0.00  0.00     0.105 C 
ATOM      8  N   UNL d   1      -2.623  -0.111  -1.507  0.00  0.00    -0.191 NA
ATOM      9  H   UNL d   1       2.347   1.424   0.649  0.00  0.00     0.188 HD
ENDROOT
BRANCH   1  10
ATOM     10  S   UNL d   1       0.094   2.886  -0.548  0.00  0.00     0.190 S 
ATOM     11  O   UNL d   1       1.202   3.568   0.087  0.00  0.00    -0.221 OA
ATOM     12  O   UNL d   1      -0.144   2.943  -1.972  0.00  0.00    -0.221 OA
ATOM     13  C   UNL d   1      -1.403   3.241   0.331  0.00  0.00     0.168 C 
ENDBRANCH   1  10
BRANCH   6  14
ATOM     14  C   UNL d   1       0.371  -2.478  -0.082  0.00  0.00    -0.006 A 
ATOM     15  C   UNL d   1      -0.340  -3.066  -1.132  0.00  0.00     0.014 A 
ATOM     16  C   UNL d   1      -0.613  -4.439  -1.133  0.00  0.00     0.009 A 
ATOM     17  C   UNL d   1      -0.175  -5.277  -0.093  0.00  0.00    -0.051 A 
ATOM     18  C   UNL d   1       0.585  -4.684   0.928  0.00  0.00     0.009 A 
ATOM     19  C   UNL d   1       0.855  -3.308   0.934  0.00  0.00     0.014 A 
BRANCH  17  20
ATOM     20  C   UNL d   1      -0.552  -6.769  -0.097  0.00  0.00    -0.024 C 
ATOM     21  C   UNL d   1       0.006  -7.547   1.115  0.00  0.00     0.019 C 
ATOM     22  C   UNL d   1      -2.091  -6.909  -0.063  0.00  0.00     0.019 C 
ATOM     23  C   UNL d   1      -0.016  -7.455  -1.371  0.00  0.00     0.019 C 
ENDBRANCH  17  20
ENDBRANCH   6  14
TORSDOF 3
