REMARK  3 active torsions:
REMARK  status: ('A' for Active; 'I' for Inactive)
REMARK    1  A    between atoms: C_4  and  C_1 
REMARK    2  A    between atoms: N_10  and  C_4 
REMARK    3  A    between atoms: O_11  and  N_8 
ROOT
ATOM      1  C   UNL d   1       2.104  -2.445   0.042  0.00  0.00     0.125 C 
ATOM      2  N   UNL d   1       3.383  -2.283  -0.093  0.00  0.00    -0.256 N 
ATOM      3  HN  UNL d   1       4.056  -3.041  -0.207  1.00  0.00     0.195 HD
ENDROOT
BRANCH   1   4
ATOM      4  C   UNL d   1       1.540  -3.793   0.005  0.00  0.00     0.079 A 
ATOM      5  N   UNL d   1       0.153  -3.999   0.012  0.00  0.00    -0.351 N 
ATOM      6  C   UNL d   1      -0.109  -5.289  -0.008  0.00  0.00     0.047 A 
ATOM      7  HN  UNL d   1      -0.549  -3.259   0.030  1.00  0.00     0.166 HD
ATOM      8  C   UNL d   1      -1.476  -5.876   0.025  0.00  0.00     0.076 C 
ATOM      9  S   UNL d   1       1.261  -6.325  -0.071  0.00  0.00    -0.087 SA
ATOM     10  C   UNL d   1       2.286  -4.956  -0.053  0.00  0.00     0.084 A 
ENDBRANCH   1   4
BRANCH   1  11
ATOM     11  N   UNL d   1       1.158  -1.471   0.196  0.00  0.00    -0.285 NA
ATOM     12  H   UNL d   1       0.224  -1.751  -0.094  0.00  0.00     0.125 HD
ATOM     13  H   UNL d   1       1.471  -0.569  -0.138  0.00  0.00     0.125 HD
ENDBRANCH   1  11
BRANCH   2  14
ATOM     14  O   UNL d   1       3.713  -0.917  -0.060  0.00  0.00    -0.288 OA
ATOM     15  H   UNL d   1       4.688  -0.942  -0.080  0.00  0.00     0.244 HD
ENDBRANCH   2  14
TORSDOF 3
