REMARK  7 active torsions:
REMARK  status: ('A' for Active; 'I' for Inactive)
REMARK    1  A    between atoms: C_2  and  C_1 
REMARK    2  A    between atoms: S_5  and  C_1 
REMARK    3  A    between atoms: C_4  and  C_2 
REMARK    4  A    between atoms: N_8  and  C_3 
REMARK    5  A    between atoms: O_10  and  C_4 
REMARK    6  A    between atoms: C_9  and  S_5 
REMARK    7  A    between atoms: C_19  and  O_10 
ROOT
ATOM      1  C   UNL d   1       0.918   0.219  -0.217  0.00  0.00     0.077 C 
ATOM      2  C   UNL d   1       0.112  -0.855  -0.362  0.00  0.00     0.107 C 
ENDROOT
BRANCH   1   3
ATOM      3  C   UNL d   1       2.412   0.095  -0.434  0.00  0.00     0.265 C 
ATOM      4  O   UNL d   1       3.173   1.051  -0.566  0.00  0.00    -0.280 OA
BRANCH   3   5
ATOM      5  C   UNL d   1       3.024  -1.297  -0.448  0.00  0.00     0.335 C 
ATOM      6  O   UNL d   1       2.808  -2.113  -1.322  0.00  0.00    -0.256 OA
BRANCH   5   7
ATOM      7  O   UNL d   1       3.733  -1.460   0.689  0.00  0.00    -0.315 OA
BRANCH   7   8
ATOM      8  C   UNL d   1       4.162  -2.797   0.970  0.00  0.00     0.175 C 
ATOM      9  C   UNL d   1       3.168  -3.403   1.942  0.00  0.00     0.034 C 
ENDBRANCH   7   8
ENDBRANCH   5   7
ENDBRANCH   3   5
ENDBRANCH   1   3
BRANCH   1  10
ATOM     10  S   UNL d   1       0.411   1.836   0.154  0.00  0.00    -0.085 SA
BRANCH  10  11
ATOM     11  C   UNL d   1      -0.421   1.755   1.733  0.00  0.00     0.005 A 
ATOM     12  C   UNL d   1      -0.450   0.655   2.597  0.00  0.00     0.020 A 
ATOM     13  C   UNL d   1      -1.145   0.717   3.813  0.00  0.00     0.025 A 
ATOM     14  C   UNL d   1      -1.803   1.887   4.183  0.00  0.00     0.034 A 
ATOM     15  C   UNL d   1      -1.776   2.996   3.346  0.00  0.00     0.025 A 
ATOM     16 CL   UNL d   1      -2.649   1.963   5.678  0.00  0.00    -0.084 Cl
ATOM     17  C   UNL d   1      -1.089   2.926   2.130  0.00  0.00     0.020 A 
ENDBRANCH  10  11
ENDBRANCH   1  10
BRANCH   2  18
ATOM     18  N   UNL d   1      -1.267  -1.075  -0.284  0.00  0.00    -0.397 N 
ATOM     19  C   UNL d   1      -2.283  -0.097  -0.687  0.00  0.00     0.148 C 
ATOM     20  C   UNL d   1      -1.801  -2.445  -0.247  0.00  0.00     0.148 C 
ENDBRANCH   2  18
TORSDOF 7
