REMARK  2 active torsions:
REMARK  status: ('A' for Active; 'I' for Inactive)
REMARK    1  A    between atoms: C_3  and  C_4 
REMARK       I    between atoms: N_5  and  C_3 
REMARK    2  A    between atoms: C_7  and  N_5 
ROOT
ATOM      1  N   UNL d   1       5.831  -0.321   3.135  0.00  0.00    -0.197 NA
ATOM      2  C   UNL d   1       5.803  -0.980   2.180  0.00  0.00     0.068 C 
ATOM      3  C   UNL d   1       5.718  -1.853   1.012  0.00  0.00     0.226 C 
ENDROOT
BRANCH   3   4
ATOM      4  C   UNL d   1       4.296  -2.092   0.539  0.00  0.00     0.235 C 
ATOM      5  N   UNL d   1       3.317  -2.095   1.519  0.00  0.00    -0.326 N 
ATOM      6  H   UNL d   1       3.594  -1.904   2.476  0.00  0.00     0.169 HD
ATOM      7  O   UNL d   1       4.107  -2.321  -0.657  0.00  0.00    -0.272 OA
BRANCH   5   8
ATOM      8  C   UNL d   1       1.920  -2.210   1.331  0.00  0.00     0.034 A 
ATOM      9  C   UNL d   1       1.309  -2.464   0.102  0.00  0.00     0.029 A 
ATOM     10  C   UNL d   1      -0.085  -2.494  -0.005  0.00  0.00     0.002 A 
ATOM     11  C   UNL d   1      -0.881  -2.278   1.117  0.00  0.00     0.000 A 
ATOM     12  C   UNL d   1      -0.283  -2.050   2.353  0.00  0.00     0.002 A 
ATOM     13  C   UNL d   1       1.110  -2.023   2.460  0.00  0.00     0.029 A 
ENDBRANCH   5   8
ENDBRANCH   3   4
TORSDOF 2
