REMARK  8 active torsions:
REMARK  status: ('A' for Active; 'I' for Inactive)
REMARK    1  A    between atoms: C_5  and  S_1 
REMARK    2  A    between atoms: N_10  and  S_1 
REMARK    3  A    between atoms: C_2  and  C_11 
REMARK    4  A    between atoms: C_3  and  C_6 
REMARK    5  A    between atoms: C_4  and  C_7 
REMARK    6  A    between atoms: N_17  and  C_8 
REMARK    7  A    between atoms: N_18  and  C_9 
REMARK    8  A    between atoms: C_11  and  N_10 
ROOT
ATOM      1  S   UNL d   1       1.675   0.067  -1.349  0.00  0.00     0.259 S 
ATOM      2  O   UNL d   1       0.916   0.971  -2.197  0.00  0.00    -0.201 OA
ATOM      3  O   UNL d   1       1.889   0.361   0.048  0.00  0.00    -0.201 OA
ENDROOT
BRANCH   1   4
ATOM      4  C   UNL d   1       3.264  -0.157  -2.124  0.00  0.00     0.081 A 
ATOM      5  C   UNL d   1       3.441   0.165  -3.478  0.00  0.00     0.041 A 
ATOM      6  C   UNL d   1       4.709   0.050  -4.072  0.00  0.00     0.050 A 
ATOM      7  C   UNL d   1       5.792  -0.392  -3.290  0.00  0.00     0.032 A 
ATOM      8  C   UNL d   1       5.628  -0.704  -1.930  0.00  0.00     0.050 A 
ATOM      9  C   UNL d   1       4.354  -0.573  -1.349  0.00  0.00     0.041 A 
BRANCH   6  10
ATOM     10  C   UNL d   1       4.939   0.400  -5.528  0.00  0.00     0.417 C 
ATOM     11  F   UNL d   1       3.826   0.854  -6.163  0.00  0.00    -0.166 F 
ATOM     12  F   UNL d   1       5.885   1.367  -5.684  0.00  0.00    -0.166 F 
ATOM     13  F   UNL d   1       5.375  -0.669  -6.250  0.00  0.00    -0.166 F 
ENDBRANCH   6  10
BRANCH   8  14
ATOM     14  C   UNL d   1       6.819  -1.158  -1.114  0.00  0.00     0.417 C 
ATOM     15  F   UNL d   1       6.527  -1.387   0.197  0.00  0.00    -0.166 F 
ATOM     16  F   UNL d   1       7.352  -2.316  -1.589  0.00  0.00    -0.166 F 
ATOM     17  F   UNL d   1       7.830  -0.247  -1.124  0.00  0.00    -0.166 F 
ENDBRANCH   8  14
ENDBRANCH   1   4
BRANCH   1  18
ATOM     18  N   UNL d   1       0.926  -1.430  -1.502  0.00  0.00    -0.311 N 
ATOM     19  H   UNL d   1      -0.020  -1.350  -1.870  0.00  0.00     0.172 HD
BRANCH  18  20
ATOM     20  C   UNL d   1       1.113  -2.401  -0.415  0.00  0.00     0.175 C 
BRANCH  20  21
ATOM     21  C   UNL d   1       0.442  -3.764  -0.609  0.00  0.00     0.008 A 
ATOM     22  C   UNL d   1       1.137  -4.820  -1.287  0.00  0.00     0.039 A 
ATOM     23  C   UNL d   1       0.635  -6.126  -1.120  0.00  0.00     0.030 A 
ATOM     24  C   UNL d   1      -0.484  -6.405  -0.340  0.00  0.00     0.004 A 
ATOM     25  C   UNL d   1      -1.195  -5.367   0.242  0.00  0.00     0.024 A 
ATOM     26  C   UNL d   1      -0.778  -4.033   0.107  0.00  0.00     0.020 A 
BRANCH  22  27
ATOM     27  N   UNL d   1       2.305  -4.619  -2.027  0.00  0.00    -0.389 N 
ATOM     28  C   UNL d   1       3.281  -5.686  -2.234  0.00  0.00     0.149 C 
ATOM     29  C   UNL d   1       2.336  -3.574  -3.045  0.00  0.00     0.149 C 
ENDBRANCH  22  27
BRANCH  26  30
ATOM     30  N   UNL d   1      -1.522  -2.986   0.699  0.00  0.00    -0.291 NA
ATOM     31  C   UNL d   1      -2.325  -3.301   1.889  0.00  0.00     0.116 C 
ATOM     32  C   UNL d   1      -2.252  -2.174  -0.283  0.00  0.00     0.116 C 
ENDBRANCH  26  30
ENDBRANCH  20  21
ENDBRANCH  18  20
ENDBRANCH   1  18
TORSDOF 8
