REMARK  6 active torsions:
REMARK  status: ('A' for Active; 'I' for Inactive)
REMARK    1  A    between atoms: S_11  and  C_1 
REMARK    2  A    between atoms: C_9  and  C_8 
REMARK    3  A    between atoms: C_12  and  C_9 
REMARK    4  A    between atoms: C_10  and  S_11 
REMARK    5  A    between atoms: O_23  and  C_17 
REMARK    6  A    between atoms: C_24  and  O_23 
ROOT
ATOM      1  C   UNL d   1      -2.045  -0.887   0.046  0.00  0.00     0.117 A 
ATOM      2  N   UNL d   1      -0.991  -1.669   0.049  0.00  0.00    -0.344 N 
ATOM      3  HN  UNL d   1      -1.017  -2.688   0.063  1.00  0.00     0.167 HD
ATOM      4  S   UNL d   1      -1.724   0.799   0.003  0.00  0.00    -0.063 SA
ATOM      5  C   UNL d   1      -0.031   0.480   0.006  0.00  0.00     0.036 A 
ATOM      6  C   UNL d   1       0.161  -0.903   0.029  0.00  0.00     0.050 A 
ATOM      7  C   UNL d   1       1.052   1.378  -0.012  0.00  0.00     0.058 A 
ATOM      8  C   UNL d   1       1.477  -1.400   0.026  0.00  0.00     0.034 A 
ATOM      9  C   UNL d   1       2.357   0.862  -0.008  0.00  0.00     0.070 A 
ATOM     10  C   UNL d   1       2.562  -0.514   0.009  0.00  0.00     0.039 A 
ENDROOT
BRANCH   1  11
ATOM     11  S   UNL d   1      -3.690  -1.512   0.035  0.00  0.00    -0.077 SA
BRANCH  11  12
ATOM     12  C   UNL d   1      -3.450  -3.044   0.819  0.00  0.00     0.056 C 
ATOM     13  C   UNL d   1      -4.486  -3.871   1.020  0.00  0.00     0.063 C 
BRANCH  13  14
ATOM     14  C   UNL d   1      -4.284  -5.168   1.720  0.00  0.00     0.182 C 
ATOM     15  O   UNL d   1      -3.182  -5.695   1.804  0.00  0.00    -0.288 OA
BRANCH  14  16
ATOM     16  C   UNL d   1      -5.480  -5.831   2.311  0.00  0.00     0.014 A 
ATOM     17  C   UNL d   1      -5.481  -7.229   2.431  0.00  0.00     0.017 A 
ATOM     18  C   UNL d   1      -6.561  -7.886   3.028  0.00  0.00     0.025 A 
ATOM     19  C   UNL d   1      -7.638  -7.147   3.515  0.00  0.00     0.034 A 
ATOM     20  C   UNL d   1      -7.647  -5.757   3.402  0.00  0.00     0.025 A 
ATOM     21 CL   UNL d   1      -8.955  -7.949   4.276  0.00  0.00    -0.084 Cl
ATOM     22  C   UNL d   1      -6.569  -5.097   2.803  0.00  0.00     0.017 A 
ENDBRANCH  14  16
ENDBRANCH  13  14
ENDBRANCH  11  12
ENDBRANCH   1  11
BRANCH   9  23
ATOM     23  O   UNL d   1       3.348   1.811  -0.022  0.00  0.00    -0.351 OA
BRANCH  23  24
ATOM     24  C   UNL d   1       4.694   1.332  -0.009  0.00  0.00     0.171 C 
ATOM     25  C   UNL d   1       5.639   2.520  -0.016  0.00  0.00     0.034 C 
ENDBRANCH  23  24
ENDBRANCH   9  23
TORSDOF 6
