REMARK  5 active torsions:
REMARK  status: ('A' for Active; 'I' for Inactive)
REMARK    1  A    between atoms: N_5  and  C_1 
REMARK    2  A    between atoms: C_3  and  C_2 
REMARK       I    between atoms: N_6  and  C_3 
REMARK    3  A    between atoms: O_22  and  C_4 
REMARK       I    between atoms: C_8  and  N_6 
REMARK       I    between atoms: N_12  and  C_8 
REMARK    4  A    between atoms: O_24  and  C_9 
REMARK    5  A    between atoms: C_11  and  N_12 
ROOT
ATOM      1  C   UNL d   1       2.101   2.226   0.092  0.00  0.00     0.265 C 
ATOM      2  N   UNL d   1       2.835   2.399  -1.073  0.00  0.00    -0.275 N 
ATOM      3  C   UNL d   1       2.704   1.712  -2.273  0.00  0.00     0.327 C 
ATOM      4  N   UNL d   1       3.307   2.381  -3.325  0.00  0.00    -0.309 N 
ATOM      5  O   UNL d   1       2.123   3.062   0.992  0.00  0.00    -0.267 OA
ATOM      6  O   UNL d   1       2.101   0.650  -2.389  0.00  0.00    -0.247 OA
ATOM      7  H   UNL d   1       3.388   3.240  -1.068  0.00  0.00     0.173 HD
ATOM      8  H   UNL d   1       3.433   3.376  -3.195  0.00  0.00     0.170 HD
ENDROOT
BRANCH   1   9
ATOM      9  C   UNL d   1       1.260   1.020   0.217  0.00  0.00     0.103 C 
ATOM     10  C   UNL d   1       1.893  -0.231   0.332  0.00  0.00     0.119 C 
ATOM     11  C   UNL d   1       1.139  -1.385   0.103  0.00  0.00     0.139 C 
ATOM     12  C   UNL d   1      -0.252  -1.299  -0.083  0.00  0.00     0.065 C 
ATOM     13  C   UNL d   1      -0.882  -0.052  -0.070  0.00  0.00     0.070 C 
ATOM     14  C   UNL d   1      -0.132   1.120   0.087  0.00  0.00     0.108 C 
ATOM     15 CL   UNL d   1      -2.592  -0.007  -0.315  0.00  0.00    -0.081 Cl
BRANCH  10  16
ATOM     16  O   UNL d   1       3.236  -0.243   0.597  0.00  0.00    -0.352 OA
ATOM     17  C   UNL d   1       3.479  -0.547   1.974  0.00  0.00     0.210 C 
ENDBRANCH  10  16
BRANCH  11  18
ATOM     18  N   UNL d   1       1.771  -2.699  -0.029  0.00  0.00    -0.113 N 
ATOM     19  O   UNL d   1       2.960  -2.764  -0.358  0.00  0.00    -0.532 OA
ATOM     20  O   UNL d   1       1.055  -3.688   0.196  0.00  0.00    -0.532 OA
ENDBRANCH  11  18
BRANCH  14  21
ATOM     21  O   UNL d   1      -0.734   2.349  -0.004  0.00  0.00    -0.353 OA
ATOM     22  C   UNL d   1      -1.212   2.772   1.278  0.00  0.00     0.210 C 
ENDBRANCH  14  21
ENDBRANCH   1   9
BRANCH   4  23
ATOM     23  C   UNL d   1       3.233   1.936  -4.667  0.00  0.00     0.039 A 
ATOM     24  C   UNL d   1       3.154   2.906  -5.669  0.00  0.00     0.053 A 
ATOM     25  C   UNL d   1       2.947   2.518  -6.995  0.00  0.00     0.037 A 
ATOM     26 CL   UNL d   1       2.741   3.728  -8.204  0.00  0.00    -0.084 Cl
ATOM     27  C   UNL d   1       2.873   1.175  -7.346  0.00  0.00     0.048 A 
ATOM     28  C   UNL d   1       3.019   0.210  -6.352  0.00  0.00     0.037 A 
ATOM     29  C   UNL d   1       3.200   0.582  -5.019  0.00  0.00     0.053 A 
ATOM     30 CL   UNL d   1       2.959  -1.457  -6.776  0.00  0.00    -0.084 Cl
ENDBRANCH   4  23
TORSDOF 5
