REMARK  5 active torsions:
REMARK  status: ('A' for Active; 'I' for Inactive)
REMARK    1  A    between atoms: C_5  and  C_1 
REMARK    2  A    between atoms: C_4  and  C_6 
REMARK    3  A    between atoms: N_19  and  C_5 
REMARK    4  A    between atoms: C_6  and  O_15 
REMARK    5  A    between atoms: O_15  and  N_8 
ROOT
ATOM      1  C   UNL d   1      -2.700  -1.456   0.135  0.00  0.00     0.148 C 
ATOM      2  N   UNL d   1      -3.904  -0.984   0.076  0.00  0.00    -0.239 N 
ATOM      3  HN  UNL d   1      -4.750  -1.549   0.009  1.00  0.00     0.196 HD
ENDROOT
BRANCH   1   4
ATOM      4  C   UNL d   1      -2.507  -2.907   0.080  0.00  0.00     0.102 A 
ATOM      5  N   UNL d   1      -1.272  -3.445   0.069  0.00  0.00    -0.257 N 
ATOM      6  O   UNL d   1      -1.451  -4.813   0.005  0.00  0.00    -0.242 OA
ATOM      7  HN  UNL d   1      -0.385  -2.943   0.102  1.00  0.00     0.195 HD
ATOM      8  C   UNL d   1      -2.779  -5.098  -0.038  0.00  0.00     0.074 A 
ATOM      9  C   UNL d   1      -3.492  -3.927   0.004  0.00  0.00     0.069 A 
ATOM     10  C   UNL d   1      -3.136  -6.525  -0.121  0.00  0.00     0.079 C 
ENDBRANCH   1   4
BRANCH   1  11
ATOM     11  N   UNL d   1      -1.531  -0.746   0.219  0.00  0.00    -0.382 N 
ATOM     12  H   UNL d   1      -0.701  -1.251  -0.083  0.00  0.00     0.157 HD
ATOM     13  H   UNL d   1      -1.586   0.213  -0.098  0.00  0.00     0.157 HD
ENDBRANCH   1  11
BRANCH   2  14
ATOM     14  O   UNL d   1      -3.873   0.428   0.116  0.00  0.00    -0.191 OA
BRANCH  14  15
ATOM     15  C   UNL d   1      -5.144   0.946   0.040  0.00  0.00     0.341 C 
ATOM     16  O   UNL d   1      -6.188   0.300  -0.006  0.00  0.00    -0.255 OA
BRANCH  15  17
ATOM     17  C   UNL d   1      -5.080   2.383  -0.010  0.00  0.00     0.176 A 
ATOM     18  O   UNL d   1      -3.873   3.014   0.087  0.00  0.00    -0.232 OA
ATOM     19  N   UNL d   1      -4.056   4.384  -0.001  0.00  0.00    -0.272 N 
ATOM     20  C   UNL d   1      -5.371   4.558  -0.148  0.00  0.00     0.117 A 
ATOM     21  HN  UNL d   1      -3.338   5.107   0.038  1.00  0.00     0.194 HD
ATOM     22  C   UNL d   1      -6.064   3.337  -0.157  0.00  0.00     0.065 A 
ENDBRANCH  15  17
ENDBRANCH  14  15
ENDBRANCH   2  14
TORSDOF 5
