REMARK  6 active torsions:
REMARK  status: ('A' for Active; 'I' for Inactive)
REMARK       I    between atoms: N_2  and  C_1 
REMARK       I    between atoms: N_4  and  C_1 
REMARK    1  A    between atoms: C_3  and  O_7 
REMARK    2  A    between atoms: C_9  and  N_4 
REMARK    3  A    between atoms: C_14  and  N_5 
REMARK    4  A    between atoms: O_7  and  C_15 
REMARK    5  A    between atoms: C_19  and  C_14 
REMARK    6  A    between atoms: C_24  and  C_19 
ROOT
ATOM      1  C   UNL d   1       0.715   0.402  -0.047  0.00  0.00     0.322 C 
ATOM      2  N   UNL d   1       0.292  -0.489   0.940  0.00  0.00    -0.332 N 
ATOM      3  N   UNL d   1       1.650   1.325   0.372  0.00  0.00    -0.309 N 
ATOM      4  N   UNL d   1      -2.093  -1.293   2.745  0.00  0.00     0.090 N 
ATOM      5  O   UNL d   1       0.294   0.320  -1.198  0.00  0.00    -0.247 OA
ATOM      6  C   UNL d   1      -0.695  -1.516   0.576  0.00  0.00     0.157 C 
ATOM      7  C   UNL d   1      -2.063  -1.362   1.270  0.00  0.00     0.292 C 
ATOM      8  C   UNL d   1       0.005   0.095   3.350  0.00  0.00     0.050 C 
ATOM      9  C   UNL d   1       0.842  -0.602   2.286  0.00  0.00     0.129 C 
ATOM     10  C   UNL d   1      -1.517  -0.045   3.240  0.00  0.00     0.274 C 
ATOM     11  H   UNL d   1       1.736   1.462   1.364  0.00  0.00     0.170 HD
ENDROOT
BRANCH   3  12
ATOM     12  C   UNL d   1       2.498   2.114  -0.431  0.00  0.00     0.036 A 
ATOM     13  C   UNL d   1       2.459   2.133  -1.826  0.00  0.00     0.032 A 
ATOM     14  C   UNL d   1       3.406   2.855  -2.560  0.00  0.00     0.039 A 
ATOM     15  C   UNL d   1       4.436   3.526  -1.908  0.00  0.00     0.078 A 
ATOM     16  C   UNL d   1       4.438   3.577  -0.514  0.00  0.00     0.039 A 
ATOM     17  C   UNL d   1       3.475   2.878   0.221  0.00  0.00     0.032 A 
BRANCH  15  18
ATOM     18  O   UNL d   1       5.433   4.210  -2.532  0.00  0.00    -0.255 OA
BRANCH  18  19
ATOM     19  C   UNL d   1       6.026   3.617  -3.684  0.00  0.00     0.530 C 
ATOM     20  F   UNL d   1       5.526   2.408  -4.017  0.00  0.00    -0.144 F 
ATOM     21  F   UNL d   1       5.873   4.450  -4.736  0.00  0.00    -0.144 F 
ATOM     22  F   UNL d   1       7.352   3.466  -3.458  0.00  0.00    -0.144 F 
ENDBRANCH  18  19
ENDBRANCH  15  18
ENDBRANCH   3  12
BRANCH   4  23
ATOM     23  C   UNL d   1      -1.672  -2.542   3.392  0.00  0.00     0.277 C 
BRANCH  23  24
ATOM     24  C   UNL d   1      -1.764  -2.538   4.928  0.00  0.00     0.068 C 
BRANCH  24  25
ATOM     25  C   UNL d   1      -1.264  -3.837   5.521  0.00  0.00    -0.057 A 
ATOM     26  C   UNL d   1       0.090  -3.996   5.842  0.00  0.00     0.007 A 
ATOM     27  C   UNL d   1       0.552  -5.198   6.384  0.00  0.00     0.001 A 
ATOM     28  C   UNL d   1      -0.337  -6.249   6.601  0.00  0.00     0.000 A 
ATOM     29  C   UNL d   1      -1.682  -6.104   6.273  0.00  0.00     0.001 A 
ATOM     30  C   UNL d   1      -2.146  -4.904   5.731  0.00  0.00     0.007 A 
ENDBRANCH  24  25
ENDBRANCH  23  24
ENDBRANCH   4  23
TORSDOF 6
