REMARK  5 active torsions:
REMARK  status: ('A' for Active; 'I' for Inactive)
REMARK    1  A    between atoms: C_8  and  C_3 
REMARK    2  A    between atoms: C_7  and  C_4 
REMARK    3  A    between atoms: N_14  and  N_9 
REMARK    4  A    between atoms: C_13  and  N_14 
REMARK    5  A    between atoms: C_17  and  C_18 
ROOT
ATOM      1  C   UNL d   1      -0.062  -2.655  -0.035  0.00  0.00    -0.002 A 
ATOM      2  C   UNL d   1       0.476  -3.446   0.995  0.00  0.00     0.015 A 
ATOM      3  C   UNL d   1      -0.791  -3.296  -1.050  0.00  0.00     0.015 A 
ATOM      4  C   UNL d   1      -0.476  -5.444   0.020  0.00  0.00    -0.019 A 
ATOM      5  C   UNL d   1       0.267  -4.832   1.030  0.00  0.00     0.014 A 
ATOM      6  C   UNL d   1      -0.999  -4.678  -1.023  0.00  0.00     0.014 A 
ENDROOT
BRANCH   4   7
ATOM      7  C   UNL d   1      -0.710  -6.903   0.059  0.00  0.00     0.118 C 
ATOM      8  N   UNL d   1      -1.354  -7.502  -0.892  0.00  0.00    -0.309 N 
ATOM      9  HN  UNL d   1      -1.711  -7.009  -1.710  1.00  0.00     0.186 HD
BRANCH   8  10
ATOM     10  N   UNL d   1      -1.516  -8.841  -0.714  0.00  0.00    -0.286 N 
ATOM     11  H   UNL d   1      -1.798  -9.204   0.196  0.00  0.00     0.188 HD
BRANCH  10  12
ATOM     12  C   UNL d   1      -2.218  -9.561  -1.700  0.00  0.00     0.119 A 
ATOM     13  N   UNL d   1      -2.909 -10.648  -1.287  0.00  0.00    -0.351 N 
ATOM     14  C   UNL d   1      -3.568 -11.362  -2.228  0.00  0.00     0.089 A 
ATOM     15  HN  UNL d   1      -2.931 -10.919  -0.304  1.00  0.00     0.166 HD
ATOM     16  C   UNL d   1      -3.570 -11.055  -3.578  0.00  0.00     0.017 A 
ATOM     17  C   UNL d   1      -2.849  -9.944  -3.992  0.00  0.00     0.005 A 
ATOM     18  C   UNL d   1      -2.163  -9.191  -3.043  0.00  0.00     0.050 A 
ENDBRANCH  10  12
ENDBRANCH   8  10
ENDBRANCH   4   7
BRANCH   1  19
ATOM     19  C   UNL d   1       0.162  -1.198  -0.032  0.00  0.00     0.084 A 
ATOM     20  N   UNL d   1       1.229  -0.603   0.465  0.00  0.00    -0.352 N 
ATOM     21  C   UNL d   1       1.154   0.777   0.302  0.00  0.00     0.024 A 
ATOM     22  HN  UNL d   1       2.007  -1.090   0.911  1.00  0.00     0.166 HD
ATOM     23  C   UNL d   1      -0.022   1.208  -0.287  0.00  0.00     0.077 A 
ATOM     24  S   UNL d   1      -1.028  -0.119  -0.659  0.00  0.00    -0.081 SA
BRANCH  21  25
ATOM     25  C   UNL d   1       2.310   1.661   0.753  0.00  0.00    -0.008 C 
ATOM     26  C   UNL d   1       3.458   0.826   1.355  0.00  0.00     0.021 C 
ATOM     27  C   UNL d   1       2.872   2.449  -0.448  0.00  0.00     0.021 C 
ATOM     28  C   UNL d   1       1.832   2.660   1.825  0.00  0.00     0.021 C 
ENDBRANCH  21  25
ENDBRANCH   1  19
TORSDOF 5
