REMARK  3 active torsions:
REMARK  status: ('A' for Active; 'I' for Inactive)
REMARK    1  A    between atoms: C_2  and  N_1 
REMARK    2  A    between atoms: S_9  and  C_5 
REMARK    3  A    between atoms: C_11  and  S_9 
ROOT
ATOM      1  C   UNL d   1      -6.470   1.097  -4.757  0.00  0.00     0.118 A 
ATOM      2  N   UNL d   1      -4.160   0.622  -4.252  0.00  0.00    -0.358 N 
ATOM      3  HN  UNL d   1      -3.450  -0.004  -3.872  1.00  0.00     0.166 HD
ATOM      4  C   UNL d   1      -3.827   1.829  -4.773  0.00  0.00     0.074 A 
ATOM      5  C   UNL d   1      -5.473   0.278  -4.253  0.00  0.00     0.124 A 
ATOM      6  C   UNL d   1      -6.120   2.339  -5.289  0.00  0.00     0.040 A 
ATOM      7  C   UNL d   1      -4.772   2.708  -5.295  0.00  0.00     0.040 A 
ENDROOT
BRANCH   4   8
ATOM      8  S   UNL d   1      -2.119   2.308  -4.665  0.00  0.00    -0.073 SA
BRANCH   8   9
ATOM      9  C   UNL d   1      -1.441   1.660  -6.180  0.00  0.00     0.007 A 
ATOM     10  C   UNL d   1      -0.764   2.532  -7.040  0.00  0.00     0.019 A 
ATOM     11  C   UNL d   1      -0.145   2.052  -8.197  0.00  0.00     0.008 A 
ATOM     12  C   UNL d   1      -0.181   0.689  -8.509  0.00  0.00    -0.062 A 
ATOM     13  C   UNL d   1      -0.863  -0.183  -7.653  0.00  0.00     0.008 A 
ATOM     14  C   UNL d   1       0.523   0.185  -9.735  0.00  0.00     0.048 C 
ATOM     15  C   UNL d   1      -1.486   0.298  -6.495  0.00  0.00     0.019 A 
ENDBRANCH   8   9
ENDBRANCH   4   8
BRANCH   1  16
ATOM     16  N   UNL d   1      -7.858   0.658  -4.719  0.00  0.00    -0.114 N 
ATOM     17  O   UNL d   1      -8.097  -0.459  -4.238  0.00  0.00    -0.532 OA
ATOM     18  O   UNL d   1      -8.716   1.427  -5.172  0.00  0.00    -0.532 OA
ENDBRANCH   1  16
TORSDOF 3
