REMARK  10 active torsions:
REMARK  status: ('A' for Active; 'I' for Inactive)
REMARK    1  A    between atoms: N_5  and  S_1 
REMARK    2  A    between atoms: C_15  and  S_1 
REMARK    3  A    between atoms: S_2  and  N_6 
REMARK    4  A    between atoms: C_16  and  S_2 
REMARK    5  A    between atoms: C_3  and  C_7 
REMARK    6  A    between atoms: C_4  and  C_8 
REMARK    7  A    between atoms: C_9  and  N_5 
REMARK    8  A    between atoms: N_6  and  C_10 
REMARK    9  A    between atoms: C_17  and  C_23 
REMARK   10  A    between atoms: C_23  and  C_18 
ROOT
ATOM      1  C   UNL d   1      -0.843   0.398  -6.027  0.00  0.00     0.077 C 
ENDROOT
BRANCH   1   2
ATOM      2  C   UNL d   1      -2.289   0.320  -5.575  0.00  0.00    -0.051 C 
ATOM      3  C   UNL d   1      -2.974  -0.900  -5.607  0.00  0.00     0.023 C 
ATOM      4  C   UNL d   1      -4.330  -0.981  -5.242  0.00  0.00     0.050 C 
ATOM      5  C   UNL d   1      -4.989   0.174  -4.780  0.00  0.00     0.040 C 
ATOM      6  C   UNL d   1      -4.309   1.388  -4.687  0.00  0.00     0.024 C 
ATOM      7  C   UNL d   1      -2.997   1.468  -5.174  0.00  0.00     0.032 C 
BRANCH   4   8
ATOM      8  C   UNL d   1      -5.058  -2.296  -5.382  0.00  0.00     0.417 C 
ATOM      9  F   UNL d   1      -6.392  -2.217  -5.127  0.00  0.00    -0.166 F 
ATOM     10  F   UNL d   1      -4.950  -2.815  -6.637  0.00  0.00    -0.166 F 
ATOM     11  F   UNL d   1      -4.564  -3.246  -4.544  0.00  0.00    -0.166 F 
ENDBRANCH   4   8
BRANCH   6  12
ATOM     12  N   UNL d   1      -4.968   2.600  -4.293  0.00  0.00    -0.181 NA
ATOM     13  H   UNL d   1      -5.556   3.019  -5.016  0.00  0.00     0.146 HD
BRANCH  12  14
ATOM     14  S   UNL d   1      -5.786   2.706  -2.796  0.00  0.00     0.245 S 
ATOM     15  O   UNL d   1      -6.933   3.557  -3.046  0.00  0.00    -0.206 OA
ATOM     16  O   UNL d   1      -5.931   1.386  -2.229  0.00  0.00    -0.206 OA
BRANCH  14  17
ATOM     17  C   UNL d   1      -4.683   3.642  -1.751  0.00  0.00     0.074 A 
ATOM     18  C   UNL d   1      -4.096   4.817  -2.235  0.00  0.00     0.025 A 
ATOM     19  C   UNL d   1      -3.110   5.457  -1.475  0.00  0.00     0.002 A 
ATOM     20  C   UNL d   1      -2.728   4.936  -0.236  0.00  0.00     0.000 A 
ATOM     21  C   UNL d   1      -3.354   3.795   0.267  0.00  0.00     0.002 A 
ATOM     22  C   UNL d   1      -4.345   3.152  -0.482  0.00  0.00     0.025 A 
ENDBRANCH  14  17
ENDBRANCH  12  14
ENDBRANCH   6  12
ENDBRANCH   1   2
BRANCH   1  23
ATOM     23  C   UNL d   1       0.273   0.147  -5.021  0.00  0.00    -0.051 A 
ATOM     24  C   UNL d   1       0.150  -0.641  -3.864  0.00  0.00     0.032 A 
ATOM     25  C   UNL d   1       1.245  -0.830  -2.996  0.00  0.00     0.024 A 
ATOM     26  C   UNL d   1       2.483  -0.268  -3.297  0.00  0.00     0.040 A 
ATOM     27  C   UNL d   1       2.648   0.487  -4.461  0.00  0.00     0.050 A 
ATOM     28  C   UNL d   1       1.544   0.683  -5.311  0.00  0.00     0.023 A 
BRANCH  25  29
ATOM     29  N   UNL d   1       1.072  -1.494  -1.735  0.00  0.00    -0.181 NA
ATOM     30  H   UNL d   1       0.322  -2.181  -1.674  0.00  0.00     0.146 HD
BRANCH  29  31
ATOM     31  S   UNL d   1       1.083  -0.513  -0.327  0.00  0.00     0.245 S 
ATOM     32  O   UNL d   1       2.386   0.096  -0.176  0.00  0.00    -0.206 OA
ATOM     33  O   UNL d   1       0.469  -1.284   0.732  0.00  0.00    -0.206 OA
BRANCH  31  34
ATOM     34  C   UNL d   1      -0.069   0.742  -0.822  0.00  0.00     0.074 A 
ATOM     35  C   UNL d   1      -1.393   0.347  -1.001  0.00  0.00     0.025 A 
ATOM     36  C   UNL d   1      -2.204   1.132  -1.801  0.00  0.00     0.002 A 
ATOM     37  C   UNL d   1      -1.698   2.314  -2.351  0.00  0.00     0.000 A 
ATOM     38  C   UNL d   1      -0.408   2.755  -2.077  0.00  0.00     0.002 A 
ATOM     39  C   UNL d   1       0.417   1.963  -1.300  0.00  0.00     0.025 A 
ENDBRANCH  31  34
ENDBRANCH  29  31
ENDBRANCH  25  29
BRANCH  27  40
ATOM     40  C   UNL d   1       3.995   1.067  -4.817  0.00  0.00     0.417 C 
ATOM     41  F   UNL d   1       4.893   1.043  -3.796  0.00  0.00    -0.166 F 
ATOM     42  F   UNL d   1       4.581   0.401  -5.851  0.00  0.00    -0.166 F 
ATOM     43  F   UNL d   1       3.913   2.369  -5.212  0.00  0.00    -0.166 F 
ENDBRANCH  27  40
ENDBRANCH   1  23
TORSDOF 10
