REMARK  6 active torsions:
REMARK  status: ('A' for Active; 'I' for Inactive)
REMARK    1  A    between atoms: C_4  and  C_1 
REMARK    2  A    between atoms: C_5  and  C_2 
REMARK    3  A    between atoms: O_21  and  C_5 
REMARK    4  A    between atoms: C_9  and  C_19 
REMARK    5  A    between atoms: S_13  and  C_11 
REMARK    6  A    between atoms: C_19  and  S_13 
ROOT
ATOM      1  C   UNL d   1      -3.252   7.043  -2.470  0.00  0.00     0.063 A 
ATOM      2  N   UNL d   1      -2.571   4.837  -3.201  0.00  0.00    -0.360 N 
ATOM      3  HN  UNL d   1      -2.791   3.853  -3.351  1.00  0.00     0.166 HD
ATOM      4  C   UNL d   1      -1.356   5.341  -3.518  0.00  0.00     0.069 A 
ATOM      5  C   UNL d   1      -3.483   5.692  -2.679  0.00  0.00     0.105 A 
ATOM      6  C   UNL d   1      -1.989   7.538  -2.810  0.00  0.00     0.020 A 
ATOM      7  C   UNL d   1      -1.026   6.676  -3.331  0.00  0.00     0.038 A 
ENDROOT
BRANCH   4   8
ATOM      8  S   UNL d   1      -0.160   4.224  -4.213  0.00  0.00    -0.106 SA
BRANCH   8   9
ATOM      9  C   UNL d   1      -1.142   3.589  -5.611  0.00  0.00     0.145 C 
BRANCH   9  10
ATOM     10  C   UNL d   1      -1.424   4.661  -6.602  0.00  0.00     0.063 A 
ATOM     11  O   UNL d   1      -0.465   4.908  -7.544  0.00  0.00    -0.307 OA
ATOM     12  C   UNL d   1      -0.907   5.962  -8.305  0.00  0.00     0.148 A 
ATOM     13  C   UNL d   1      -2.147   6.369  -7.856  0.00  0.00     0.047 A 
ATOM     14  C   UNL d   1      -2.487   5.525  -6.775  0.00  0.00     0.036 A 
BRANCH  12  15
ATOM     15  C   UNL d   1      -0.069   6.453  -9.371  0.00  0.00     0.201 C 
ATOM     16  O   UNL d   1      -0.317   7.398 -10.104  0.00  0.00    -0.645 OA
BRANCH  15  17
ATOM     17  O   UNL d   1       1.072   5.722  -9.475  0.00  0.00    -0.771 OA
ATOM     18  H   UNL d   1       1.075   5.017  -8.794  0.00  0.00     0.167 HD
ENDBRANCH  15  17
ENDBRANCH  12  15
ENDBRANCH   9  10
ENDBRANCH   8   9
ENDBRANCH   4   8
BRANCH   1  19
ATOM     19  C   UNL d   1      -4.320   7.931  -1.911  0.00  0.00     0.418 C 
ATOM     20  F   UNL d   1      -5.481   7.277  -1.630  0.00  0.00    -0.166 F 
ATOM     21  F   UNL d   1      -4.657   8.936  -2.765  0.00  0.00    -0.166 F 
ATOM     22  F   UNL d   1      -3.942   8.536  -0.751  0.00  0.00    -0.166 F 
ENDBRANCH   1  19
TORSDOF 6
