REMARK  5 active torsions:
REMARK  status: ('A' for Active; 'I' for Inactive)
REMARK    1  A    between atoms: C_5  and  C_1 
REMARK    2  A    between atoms: S_2  and  C_3 
REMARK    3  A    between atoms: C_4  and  S_2 
REMARK    4  A    between atoms: O_10  and  C_5 
REMARK    5  A    between atoms: C_7  and  C_6 
ROOT
ATOM      1  C   UNL d   1      -0.079  -5.481  -0.270  0.00  0.00     0.054 A 
ATOM      2  C   UNL d   1       0.164  -4.206   0.278  0.00  0.00     0.022 A 
ATOM      3  C   UNL d   1      -0.993  -6.351   0.365  0.00  0.00     0.020 A 
ATOM      4  C   UNL d   1      -0.557  -3.842   1.431  0.00  0.00     0.020 A 
ATOM      5  C   UNL d   1      -1.666  -5.972   1.526  0.00  0.00     0.001 A 
ATOM      6  C   UNL d   1      -1.440  -4.716   2.064  0.00  0.00     0.001 A 
ENDROOT
BRANCH   2   7
ATOM      7  S   UNL d   1       1.134  -2.887  -0.454  0.00  0.00    -0.088 SA
BRANCH   7   8
ATOM      8  C   UNL d   1       2.841  -3.176   0.036  0.00  0.00     0.019 A 
ATOM      9  C   UNL d   1       3.492  -2.618   1.163  0.00  0.00     0.026 A 
ATOM     10  C   UNL d   1       4.896  -2.711   1.267  0.00  0.00     0.016 A 
ATOM     11  C   UNL d   1       5.657  -3.316   0.268  0.00  0.00     0.001 A 
ATOM     12  C   UNL d   1       5.025  -3.871  -0.834  0.00  0.00     0.001 A 
ATOM     13  C   UNL d   1       3.634  -3.804  -0.946  0.00  0.00     0.020 A 
BRANCH   9  14
ATOM     14  C   UNL d   1       2.776  -1.930   2.282  0.00  0.00     0.157 C 
ATOM     15  O   UNL d   1       1.640  -2.256   2.602  0.00  0.00    -0.293 OA
ATOM     16  C   UNL d   1       3.497  -0.879   3.095  0.00  0.00     0.097 C 
ENDBRANCH   9  14
ENDBRANCH   7   8
ENDBRANCH   2   7
BRANCH   1  17
ATOM     17  C   UNL d   1       0.531  -6.032  -1.514  0.00  0.00     0.177 C 
ATOM     18  O   UNL d   1       0.711  -7.225  -1.685  0.00  0.00    -0.646 OA
BRANCH  17  19
ATOM     19  O   UNL d   1       0.783  -5.123  -2.479  0.00  0.00    -0.773 OA
ATOM     20  H   UNL d   1       0.566  -4.201  -2.223  0.00  0.00     0.167 HD
ENDBRANCH  17  19
ENDBRANCH   1  17
TORSDOF 5
