REMARK  1 active torsions:
REMARK  status: ('A' for Active; 'I' for Inactive)
REMARK    1  A    between atoms: N_2  and  S_1 
ROOT
ATOM      1  N   UNL d   1       0.420   1.405   0.699  0.00  0.00    -0.202 NA
ATOM      2  C   UNL d   1       0.505   3.869   0.827  0.00  0.00    -0.026 A 
ATOM      3  C   UNL d   1       1.040   2.650   0.099  0.00  0.00     0.104 C 
ATOM      4  C   UNL d   1      -0.607   3.833   1.645  0.00  0.00    -0.009 A 
ATOM      5  C   UNL d   1      -1.060   1.517   0.906  0.00  0.00     0.113 C 
ATOM      6  S   UNL d   1      -1.010   5.345   2.303  0.00  0.00    -0.106 SA
ATOM      7  C   UNL d   1      -1.376   2.592   1.955  0.00  0.00     0.062 C 
ATOM      8  C   UNL d   1       1.039   5.198   0.762  0.00  0.00     0.017 A 
ATOM      9  C   UNL d   1       0.305   6.096   1.506  0.00  0.00     0.051 A 
ATOM     10  C   UNL d   1       0.786   2.766  -1.407  0.00  0.00     0.032 C 
ENDROOT
BRANCH   1  11
ATOM     11  S   UNL d   1       0.978  -0.051   0.034  0.00  0.00     0.208 S 
ATOM     12  O   UNL d   1       2.413   0.056  -0.123  0.00  0.00    -0.212 OA
ATOM     13  O   UNL d   1       0.123  -0.378  -1.088  0.00  0.00    -0.212 OA
ATOM     14  C   UNL d   1       0.666  -1.225   1.337  0.00  0.00     0.180 C 
ENDBRANCH   1  11
TORSDOF 1
