REMARK  5 active torsions:
REMARK  status: ('A' for Active; 'I' for Inactive)
REMARK    1  A    between atoms: C_16  and  N_3 
REMARK    2  A    between atoms: C_10  and  C_4 
REMARK    3  A    between atoms: N_8  and  C_5 
REMARK    4  A    between atoms: O_14  and  C_10 
REMARK    5  A    between atoms: C_13  and  O_14 
ROOT
ATOM      1  N   UNL d   1      -0.173  -1.101  -0.196  0.00  0.00    -0.272 N 
ATOM      2  HN  UNL d   1      -0.422  -2.034  -0.523  1.00  0.00     0.189 HD
ATOM      3  N   UNL d   1       1.058  -0.610   0.104  0.00  0.00    -0.196 N 
ATOM      4  C   UNL d   1      -0.986  -0.047   0.046  0.00  0.00     0.149 A 
ATOM      5  N   UNL d   1       1.091   0.672   0.527  0.00  0.00    -0.281 N 
ATOM      6  HN  UNL d   1       1.899   1.219   0.825  1.00  0.00     0.189 HD
ATOM      7  C   UNL d   1      -0.186   1.052   0.460  0.00  0.00     0.058 A 
ATOM      8  C   UNL d   1      -0.507   2.454   0.796  0.00  0.00     0.072 C 
ENDROOT
BRANCH   4   9
ATOM      9  C   UNL d   1      -2.451  -0.134  -0.052  0.00  0.00     0.319 C 
ATOM     10  O   UNL d   1      -3.219   0.711   0.379  0.00  0.00    -0.257 OA
BRANCH   9  11
ATOM     11  O   UNL d   1      -2.868  -1.344  -0.631  0.00  0.00    -0.270 OA
BRANCH  11  12
ATOM     12  C   UNL d   1      -3.905  -2.169  -0.120  0.00  0.00     0.129 C 
ATOM     13  C   UNL d   1      -4.321  -3.298  -0.842  0.00  0.00     0.208 C 
ATOM     14  N   UNL d   1      -4.961  -4.343  -0.225  0.00  0.00    -0.339 N 
ATOM     15  C   UNL d   1      -5.220  -4.261   1.099  0.00  0.00     0.007 C 
ATOM     16  HN  UNL d   1      -5.237  -5.169  -0.757  1.00  0.00     0.167 HD
ATOM     17  C   UNL d   1      -4.989  -3.100   1.823  0.00  0.00     0.027 C 
ATOM     18  C   UNL d   1      -5.696  -5.514   1.772  0.00  0.00     0.068 C 
ATOM     19  C   UNL d   1      -4.314  -2.045   1.211  0.00  0.00     0.043 C 
BRANCH  13  20
ATOM     20  N   UNL d   1      -4.074  -3.354  -2.308  0.00  0.00    -0.095 N 
ATOM     21  O   UNL d   1      -3.647  -2.347  -2.892  0.00  0.00    -0.530 OA
ATOM     22  O   UNL d   1      -4.360  -4.417  -2.885  0.00  0.00    -0.530 OA
ENDBRANCH  13  20
ENDBRANCH  11  12
ENDBRANCH   9  11
ENDBRANCH   4   9
BRANCH   3  23
ATOM     23  C   UNL d   1       2.259  -1.349  -0.030  0.00  0.00     0.074 A 
ATOM     24  C   UNL d   1       2.266  -2.631  -0.593  0.00  0.00     0.033 A 
ATOM     25  C   UNL d   1       3.484  -3.294  -0.771  0.00  0.00     0.002 A 
ATOM     26  C   UNL d   1       4.683  -2.694  -0.378  0.00  0.00     0.000 A 
ATOM     27  C   UNL d   1       4.673  -1.430   0.209  0.00  0.00     0.002 A 
ATOM     28  C   UNL d   1       3.467  -0.760   0.381  0.00  0.00     0.033 A 
ENDBRANCH   3  23
TORSDOF 5
