REMARK  4 active torsions:
REMARK  status: ('A' for Active; 'I' for Inactive)
REMARK    1  A    between atoms: C_9  and  C_3 
REMARK    2  A    between atoms: C_10  and  C_4 
REMARK    3  A    between atoms: O_16  and  C_9 
REMARK    4  A    between atoms: O_15  and  C_10 
ROOT
ATOM      1  C   UNL d   1      -0.008  -0.663  -0.014  0.00  0.00     0.058 A 
ATOM      2  C   UNL d   1       0.002   0.678  -0.007  0.00  0.00     0.003 A 
ATOM      3  C   UNL d   1       2.256   0.182  -0.024  0.00  0.00     0.086 A 
ATOM      4  C   UNL d   1      -2.259   0.212  -0.001  0.00  0.00     0.086 A 
ATOM      5  C   UNL d   1      -1.306   1.250   0.032  0.00  0.00    -0.025 A 
ATOM      6  C   UNL d   1       1.316   1.233  -0.042  0.00  0.00    -0.025 A 
ATOM      7  S   UNL d   1       1.496  -1.373  -0.021  0.00  0.00    -0.075 SA
ATOM      8  S   UNL d   1      -1.518  -1.353  -0.018  0.00  0.00    -0.075 SA
ATOM      9  C   UNL d   1       1.741   2.668  -0.094  0.00  0.00     0.050 C 
ATOM     10  C   UNL d   1      -1.711   2.689   0.099  0.00  0.00     0.050 C 
ENDROOT
BRANCH   3  11
ATOM     11  C   UNL d   1       3.714   0.279  -0.011  0.00  0.00     0.183 C 
ATOM     12  O   UNL d   1       4.361   1.320   0.004  0.00  0.00    -0.646 OA
BRANCH  11  13
ATOM     13  O   UNL d   1       4.336  -0.929  -0.012  0.00  0.00    -0.772 OA
ATOM     14  H   UNL d   1       3.698  -1.668  -0.022  0.00  0.00     0.167 HD
ENDBRANCH  11  13
ENDBRANCH   3  11
BRANCH   4  15
ATOM     15  C   UNL d   1      -3.716   0.328  -0.018  0.00  0.00     0.183 C 
ATOM     16  O   UNL d   1      -4.349   1.374  -0.025  0.00  0.00    -0.646 OA
BRANCH  15  17
ATOM     17  O   UNL d   1      -4.351  -0.874  -0.030  0.00  0.00    -0.772 OA
ATOM     18  H   UNL d   1      -3.720  -1.620  -0.027  0.00  0.00     0.167 HD
ENDBRANCH  15  17
ENDBRANCH   4  15
TORSDOF 4
