REMARK  4 active torsions:
REMARK  status: ('A' for Active; 'I' for Inactive)
REMARK    1  A    between atoms: C_10  and  N_3 
REMARK    2  A    between atoms: C_9  and  N_4 
REMARK    3  A    between atoms: C_13  and  C_7 
REMARK    4  A    between atoms: O_19  and  C_14 
ROOT
ATOM      1  C   UNL d   1      -1.642  -0.124   0.004  0.00  0.00     0.344 C 
ATOM      2  C   UNL d   1       1.199   0.107  -0.056  0.00  0.00     0.102 C 
ATOM      3  N   UNL d   1      -1.005   1.123  -0.074  0.00  0.00    -0.229 N 
ATOM      4  N   UNL d   1      -0.812  -1.256   0.004  0.00  0.00    -0.229 N 
ATOM      5  C   UNL d   1       0.577  -1.233   0.052  0.00  0.00     0.272 C 
ATOM      6  C   UNL d   1       0.365   1.318  -0.227  0.00  0.00     0.272 C 
ATOM      7  C   UNL d   1       2.548   0.136   0.039  0.00  0.00     0.034 C 
ATOM      8  O   UNL d   1      -2.874  -0.225   0.071  0.00  0.00    -0.245 OA
ATOM      9  O   UNL d   1       1.287  -2.235   0.148  0.00  0.00    -0.266 OA
ATOM     10  O   UNL d   1       0.883   2.409  -0.459  0.00  0.00    -0.266 OA
ENDROOT
BRANCH   7  11
ATOM     11  C   UNL d   1       3.407   1.321   0.081  0.00  0.00    -0.035 A 
ATOM     12  C   UNL d   1       3.741   1.879   1.318  0.00  0.00     0.014 A 
ATOM     13  C   UNL d   1       4.539   3.025   1.387  0.00  0.00     0.037 A 
ATOM     14  C   UNL d   1       5.008   3.623   0.218  0.00  0.00     0.068 A 
ATOM     15  C   UNL d   1       4.686   3.055  -1.018  0.00  0.00     0.037 A 
ATOM     16  C   UNL d   1       3.892   1.907  -1.092  0.00  0.00     0.014 A 
BRANCH  14  17
ATOM     17  O   UNL d   1       5.779   4.751   0.149  0.00  0.00    -0.356 OA
ATOM     18  C   UNL d   1       6.075   5.398   1.381  0.00  0.00     0.210 C 
ENDBRANCH  14  17
ENDBRANCH   7  11
BRANCH   4  19
ATOM     19  C   UNL d   1      -1.447  -2.545   0.006  0.00  0.00     0.047 A 
ATOM     20  C   UNL d   1      -2.356  -2.884  -1.008  0.00  0.00     0.030 A 
ATOM     21  C   UNL d   1      -2.928  -4.158  -1.048  0.00  0.00     0.002 A 
ATOM     22  C   UNL d   1      -2.624  -5.092  -0.060  0.00  0.00     0.000 A 
ATOM     23  C   UNL d   1      -1.741  -4.759   0.965  0.00  0.00     0.002 A 
ATOM     24  C   UNL d   1      -1.144  -3.496   0.990  0.00  0.00     0.030 A 
ENDBRANCH   4  19
BRANCH   3  25
ATOM     25  C   UNL d   1      -1.833   2.300  -0.026  0.00  0.00     0.047 A 
ATOM     26  C   UNL d   1      -2.721   2.494   1.042  0.00  0.00     0.030 A 
ATOM     27  C   UNL d   1      -3.466   3.674   1.139  0.00  0.00     0.002 A 
ATOM     28  C   UNL d   1      -3.354   4.654   0.156  0.00  0.00     0.000 A 
ATOM     29  C   UNL d   1      -2.496   4.461  -0.924  0.00  0.00     0.002 A 
ATOM     30  C   UNL d   1      -1.732   3.295  -1.009  0.00  0.00     0.030 A 
ENDBRANCH   3  25
TORSDOF 4
