REMARK  4 active torsions:
REMARK  status: ('A' for Active; 'I' for Inactive)
REMARK    1  A    between atoms: C_10  and  C_3 
REMARK       I    between atoms: C_4  and  N_9 
REMARK    2  A    between atoms: C_5  and  C_4 
REMARK    3  A    between atoms: N_9  and  C_11 
REMARK    4  A    between atoms: C_11  and  C_10 
ROOT
ATOM      1  C   UNL d   1      -1.930   2.142  -5.288  0.00  0.00     0.225 C 
ATOM      2  O   UNL d   1      -0.974   1.512  -5.732  0.00  0.00    -0.273 OA
ATOM      3  N   UNL d   1      -2.059   2.390  -3.934  0.00  0.00    -0.360 N 
ATOM      4  H   UNL d   1      -2.938   2.744  -3.585  0.00  0.00     0.162 HD
ENDROOT
BRANCH   3   5
ATOM      5  C   UNL d   1      -1.101   1.874  -2.970  0.00  0.00     0.123 C 
BRANCH   5   6
ATOM      6  C   UNL d   1       0.268   2.570  -3.009  0.00  0.00     0.027 C 
BRANCH   6   7
ATOM      7  C   UNL d   1       1.169   2.054  -1.916  0.00  0.00     0.029 A 
ATOM      8  C   UNL d   1       2.606   2.501  -1.768  0.00  0.00     0.117 A 
ATOM      9  C   UNL d   1       2.296   1.108  -2.243  0.00  0.00     0.050 A 
ATOM     10 CL   UNL d   1       3.319   3.624  -2.909  0.00  0.00    -0.101 Cl
ATOM     11 CL   UNL d   1       3.228   2.679  -0.126  0.00  0.00    -0.101 Cl
ENDBRANCH   6   7
ENDBRANCH   5   6
ENDBRANCH   3   5
BRANCH   1  12
ATOM     12  C   UNL d   1      -3.072   2.667  -6.185  0.00  0.00     0.030 C 
ATOM     13  C   UNL d   1      -3.341   4.157  -5.926  0.00  0.00     0.024 C 
ATOM     14  C   UNL d   1      -2.656   2.490  -7.657  0.00  0.00     0.024 C 
ATOM     15  C   UNL d   1      -4.358   1.864  -5.941  0.00  0.00     0.024 C 
ENDBRANCH   1  12
TORSDOF 4
