REMARK  4 active torsions:
REMARK  status: ('A' for Active; 'I' for Inactive)
REMARK    1  A    between atoms: C_2  and  C_1 
REMARK    2  A    between atoms: O_6  and  C_1 
REMARK    3  A    between atoms: C_3  and  C_8 
REMARK    4  A    between atoms: C_13  and  O_6 
ROOT
ATOM      1  C   UNL d   1      -3.947  -1.422  -0.103  0.00  0.00    -0.003 A 
ATOM      2  C   UNL d   1      -3.233  -2.080   0.908  0.00  0.00     0.017 A 
ATOM      3  C   UNL d   1      -3.242  -0.738  -1.104  0.00  0.00     0.017 A 
ATOM      4  C   UNL d   1      -1.148  -1.334  -0.060  0.00  0.00     0.079 A 
ATOM      5  C   UNL d   1      -1.837  -2.027   0.936  0.00  0.00     0.038 A 
ATOM      6  C   UNL d   1      -1.842  -0.687  -1.079  0.00  0.00     0.038 A 
ENDROOT
BRANCH   4   7
ATOM      7  O   UNL d   1       0.256  -1.276   0.107  0.00  0.00    -0.275 OA
BRANCH   7   8
ATOM      8  C   UNL d   1       1.149  -0.967  -0.906  0.00  0.00     0.300 C 
ATOM      9  O   UNL d   1       0.911  -0.883  -2.101  0.00  0.00    -0.259 OA
BRANCH   8  10
ATOM     10  C   UNL d   1       2.524  -0.878  -0.356  0.00  0.00     0.061 A 
ATOM     11  C   UNL d   1       2.853  -0.275   0.866  0.00  0.00     0.050 A 
ATOM     12 CL   UNL d   1       1.704   0.515   1.889  0.00  0.00    -0.083 Cl
ATOM     13  C   UNL d   1       4.189  -0.239   1.286  0.00  0.00     0.025 A 
ATOM     14  C   UNL d   1       5.200  -0.782   0.490  0.00  0.00     0.002 A 
ATOM     15  C   UNL d   1       4.882  -1.356  -0.737  0.00  0.00     0.001 A 
ATOM     16  C   UNL d   1       3.552  -1.403  -1.160  0.00  0.00     0.019 A 
ENDBRANCH   8  10
ENDBRANCH   7   8
ENDBRANCH   4   7
BRANCH   1  17
ATOM     17  C   UNL d   1      -5.428  -1.474  -0.068  0.00  0.00     0.076 C 
ATOM     18  N   UNL d   1      -6.089  -2.407   0.541  0.00  0.00    -0.383 N 
ATOM     19  C   UNL d   1      -7.539  -2.191   0.353  0.00  0.00     0.131 C 
ATOM     20  HN  UNL d   1      -5.672  -3.174   1.070  1.00  0.00     0.160 HD
ATOM     21  C   UNL d   1      -7.814  -0.713   0.142  0.00  0.00     0.100 C 
ATOM     22  S   UNL d   1      -6.370  -0.187  -0.795  0.00  0.00    -0.110 SA
ENDBRANCH   1  17
TORSDOF 4
