REMARK  4 active torsions:
REMARK  status: ('A' for Active; 'I' for Inactive)
REMARK    1  A    between atoms: C_5  and  N_1 
REMARK    2  A    between atoms: S_13  and  C_12 
REMARK    3  A    between atoms: C_17  and  S_13 
REMARK    4  A    between atoms: C_18  and  C_17 
ROOT
ATOM      1  C   UNL d   1       2.104  -1.488   0.005  0.00  0.00     0.141 A 
ATOM      2  N   UNL d   1       3.028  -1.346   0.977  0.00  0.00    -0.283 N 
ATOM      3  HN  UNL d   1       2.900  -0.635   1.697  1.00  0.00     0.188 HD
ATOM      4  N   UNL d   1       4.137  -2.151   1.004  0.00  0.00    -0.293 N 
ATOM      5  HN  UNL d   1       4.833  -2.030   1.740  1.00  0.00     0.187 HD
ATOM      6  C   UNL d   1       4.315  -3.102   0.066  0.00  0.00     0.085 A 
ATOM      7  C   UNL d   1       2.275  -2.439  -0.995  0.00  0.00     0.054 A 
ATOM      8  C   UNL d   1       3.407  -3.257  -0.967  0.00  0.00     0.042 A 
ENDROOT
BRANCH   6   9
ATOM      9  S   UNL d   1       5.734  -4.164   0.203  0.00  0.00    -0.106 SA
BRANCH   9  10
ATOM     10  C   UNL d   1       6.016  -4.029   1.999  0.00  0.00     0.119 C 
BRANCH  10  11
ATOM     11  C   UNL d   1       7.186  -4.866   2.452  0.00  0.00    -0.048 A 
ATOM     12  C   UNL d   1       8.471  -4.307   2.517  0.00  0.00     0.009 A 
ATOM     13  C   UNL d   1       9.556  -5.072   2.949  0.00  0.00     0.024 A 
ATOM     14  C   UNL d   1       9.362  -6.403   3.312  0.00  0.00     0.034 A 
ATOM     15  C   UNL d   1       8.094  -6.976   3.244  0.00  0.00     0.024 A 
ATOM     16 CL   UNL d   1      10.698  -7.345   3.849  0.00  0.00    -0.084 Cl
ATOM     17  C   UNL d   1       7.008  -6.211   2.813  0.00  0.00     0.009 A 
ENDBRANCH  10  11
ENDBRANCH   9  10
ENDBRANCH   6   9
BRANCH   1  18
ATOM     18  N   UNL d   1       0.922  -0.688   0.046  0.00  0.00    -0.243 N 
ATOM     19  N   UNL d   1      -0.092  -0.925  -0.843  0.00  0.00    -0.297 N 
ATOM     20  C   UNL d   1      -1.094  -0.134  -0.457  0.00  0.00     0.024 A 
ATOM     21  HN  UNL d   1      -0.083  -1.570  -1.632  1.00  0.00     0.187 HD
ATOM     22  C   UNL d   1      -2.399  -0.158  -1.156  0.00  0.00     0.070 C 
ATOM     23  C   UNL d   1      -0.729   0.670   0.636  0.00  0.00     0.052 A 
ATOM     24  C   UNL d   1       0.579   0.337   0.925  0.00  0.00     0.034 A 
ATOM     25  C   UNL d   1       1.445   0.943   1.972  0.00  0.00     0.070 C 
ENDBRANCH   1  18
TORSDOF 4
