REMARK  5 active torsions:
REMARK  status: ('A' for Active; 'I' for Inactive)
REMARK    1  A    between atoms: C_7  and  C_3 
REMARK    2  A    between atoms: C_13  and  C_4 
REMARK    3  A    between atoms: O_11  and  N_8 
REMARK    4  A    between atoms: C_10  and  O_11 
REMARK    5  A    between atoms: C_12  and  C_10 
ROOT
ATOM      1  C   UNL d   1       2.480   1.733  -0.006  0.00  0.00     0.056 C 
ATOM      2  N   UNL d   1       2.407   3.033  -0.004  0.00  0.00    -0.260 N 
ATOM      3  HN  UNL d   1       3.223   3.646  -0.009  1.00  0.00     0.194 HD
ATOM      4  C   UNL d   1       1.268   0.834  -0.005  0.00  0.00     0.072 C 
ENDROOT
BRANCH   1   5
ATOM      5  C   UNL d   1       3.825   1.144  -0.002  0.00  0.00     0.064 A 
ATOM      6  N   UNL d   1       4.030  -0.239   0.002  0.00  0.00    -0.348 N 
ATOM      7  C   UNL d   1       5.319  -0.527   0.047  0.00  0.00     0.084 A 
ATOM      8  HN  UNL d   1       3.283  -0.933  -0.027  1.00  0.00     0.166 HD
ATOM      9  S   UNL d   1       6.357   0.851   0.024  0.00  0.00    -0.081 SA
ATOM     10  C   UNL d   1       4.996   1.881   0.001  0.00  0.00     0.083 A 
BRANCH   7  11
ATOM     11  C   UNL d   1       5.882  -1.893   0.061  0.00  0.00    -0.002 A 
ATOM     12  C   UNL d   1       5.186  -2.938  -0.567  0.00  0.00     0.014 A 
ATOM     13  C   UNL d   1       5.704  -4.238  -0.593  0.00  0.00     0.001 A 
ATOM     14  C   UNL d   1       6.923  -4.517   0.021  0.00  0.00     0.000 A 
ATOM     15  C   UNL d   1       7.620  -3.500   0.667  0.00  0.00     0.001 A 
ATOM     16  C   UNL d   1       7.103  -2.200   0.689  0.00  0.00     0.014 A 
ENDBRANCH   7  11
ENDBRANCH   1   5
BRANCH   2  17
ATOM     17  O   UNL d   1       1.075   3.500   0.005  0.00  0.00    -0.195 OA
BRANCH  17  18
ATOM     18  C   UNL d   1       1.063   4.870   0.043  0.00  0.00     0.315 C 
ATOM     19  O   UNL d   1       2.033   5.616   0.058  0.00  0.00    -0.257 OA
BRANCH  18  20
ATOM     20  C   UNL d   1      -0.337   5.383   0.092  0.00  0.00     0.041 A 
ATOM     21  C   UNL d   1      -0.527   6.759   0.289  0.00  0.00     0.018 A 
ATOM     22  C   UNL d   1      -1.816   7.299   0.354  0.00  0.00     0.007 A 
ATOM     23  C   UNL d   1      -2.938   6.474   0.218  0.00  0.00    -0.062 A 
ATOM     24  C   UNL d   1      -2.750   5.102   0.013  0.00  0.00     0.007 A 
ATOM     25  C   UNL d   1      -4.316   7.065   0.302  0.00  0.00     0.048 C 
ATOM     26  C   UNL d   1      -1.460   4.558  -0.051  0.00  0.00     0.018 A 
ENDBRANCH  18  20
ENDBRANCH  17  18
ENDBRANCH   2  17
TORSDOF 5
