REMARK  3 active torsions:
REMARK  status: ('A' for Active; 'I' for Inactive)
REMARK    1  A    between atoms: N_3  and  C_9 
REMARK    2  A    between atoms: C_10  and  C_4 
REMARK    3  A    between atoms: C_15  and  C_8 
ROOT
ATOM      1  N   UNL d   1       0.585  -0.485   0.850  0.00  0.00    -0.277 N 
ATOM      2  HN  UNL d   1       1.020  -0.936   1.654  1.00  0.00     0.189 HD
ATOM      3  C   UNL d   1      -0.236  -1.045  -0.017  0.00  0.00     0.174 A 
ATOM      4  O   UNL d   1      -0.649  -0.168  -0.989  0.00  0.00    -0.277 OA
ATOM      5  N   UNL d   1       0.739   0.827   0.459  0.00  0.00    -0.281 N 
ATOM      6  HN  UNL d   1       1.312   1.538   0.914  1.00  0.00     0.189 HD
ATOM      7  C   UNL d   1       0.001   0.981  -0.619  0.00  0.00     0.140 A 
ENDROOT
BRANCH   3   8
ATOM      8  C   UNL d   1      -0.750  -2.409  -0.063  0.00  0.00     0.019 A 
ATOM      9  C   UNL d   1      -1.585  -2.859  -1.096  0.00  0.00     0.052 A 
ATOM     10  C   UNL d   1      -2.059  -4.182  -1.089  0.00  0.00     0.103 A 
ATOM     11  C   UNL d   1      -1.711  -5.065  -0.060  0.00  0.00     0.036 A 
ATOM     12  C   UNL d   1      -0.881  -4.622   0.968  0.00  0.00     0.003 A 
ATOM     13  C   UNL d   1      -0.406  -3.307   0.963  0.00  0.00     0.016 A 
BRANCH  10  14
ATOM     14  N   UNL d   1      -2.932  -4.647  -2.175  0.00  0.00    -0.116 N 
ATOM     15  O   UNL d   1      -3.222  -3.836  -3.067  0.00  0.00    -0.532 OA
ATOM     16  O   UNL d   1      -3.327  -5.820  -2.136  0.00  0.00    -0.532 OA
ENDBRANCH  10  14
ENDBRANCH   3   8
BRANCH   7  17
ATOM     17  C   UNL d   1      -0.202   2.188  -1.450  0.00  0.00     0.081 C 
ATOM     18  C   UNL d   1      -1.400   2.998  -0.982  0.00  0.00     0.013 C 
ENDBRANCH   7  17
TORSDOF 3
