REMARK  4 active torsions:
REMARK  status: ('A' for Active; 'I' for Inactive)
REMARK    1  A    between atoms: C_3  and  C_1 
REMARK    2  A    between atoms: C_4  and  C_2 
REMARK    3  A    between atoms: O_13  and  C_3 
REMARK    4  A    between atoms: O_12  and  C_4 
ROOT
ATOM      1  C   UNL d   1       0.758   1.232   0.004  0.00  0.00     0.054 A 
ATOM      2  C   UNL d   1       0.843  -1.178   0.002  0.00  0.00     0.054 A 
ATOM      3  C   UNL d   1       1.512   0.053   0.001  0.00  0.00     0.039 A 
ATOM      4  N   UNL d   1      -1.295  -0.047   0.010  0.00  0.00    -0.373 N 
ATOM      5  HN  UNL d   1      -2.315  -0.083   0.013  1.00  0.00     0.164 HD
ATOM      6  C   UNL d   1      -0.628   1.133  -0.009  0.00  0.00     0.105 A 
ATOM      7  C   UNL d   1      -0.547  -1.176   0.024  0.00  0.00     0.105 A 
ENDROOT
BRANCH   1   8
ATOM      8  C   UNL d   1       1.351   2.584  -0.039  0.00  0.00     0.177 C 
ATOM      9  O   UNL d   1       0.788   3.527  -0.562  0.00  0.00    -0.646 OA
BRANCH   8  10
ATOM     10  O   UNL d   1       2.562   2.680   0.548  0.00  0.00    -0.773 OA
ATOM     11  H   UNL d   1       2.820   1.952   1.141  0.00  0.00     0.167 HD
ENDBRANCH   8  10
ENDBRANCH   1   8
BRANCH   2  12
ATOM     12  C   UNL d   1       1.530  -2.485   0.038  0.00  0.00     0.177 C 
ATOM     13  O   UNL d   1       1.036  -3.466   0.562  0.00  0.00    -0.646 OA
BRANCH  12  14
ATOM     14  O   UNL d   1       2.741  -2.495  -0.554  0.00  0.00    -0.773 OA
ATOM     15  H   UNL d   1       2.943  -1.750  -1.149  0.00  0.00     0.167 HD
ENDBRANCH  12  14
ENDBRANCH   2  12
TORSDOF 4
