REMARK  2 active torsions:
REMARK  status: ('A' for Active; 'I' for Inactive)
REMARK    1  A    between atoms: C_2  and  S_1 
REMARK    2  A    between atoms: N_3  and  S_1 
REMARK       I    between atoms: C_9  and  N_3 
REMARK       I    between atoms: N_14  and  C_9 
ROOT
ATOM      1  S   UNL d   1       1.089  -0.228  -0.063  0.00  0.00     0.266 S 
ATOM      2  O   UNL d   1       0.062  -1.233  -0.226  0.00  0.00    -0.200 OA
ATOM      3  O   UNL d   1       1.967  -0.292   1.089  0.00  0.00    -0.200 OA
ENDROOT
BRANCH   1   4
ATOM      4  C   UNL d   1       0.439   1.465  -0.180  0.00  0.00     0.092 A 
ATOM      5  C   UNL d   1      -0.960   1.729  -0.282  0.00  0.00    -0.032 A 
ATOM      6  C   UNL d   1      -1.408   3.086  -0.333  0.00  0.00    -0.048 A 
ATOM      7  C   UNL d   1      -2.050   0.685  -0.360  0.00  0.00     0.050 C 
ATOM      8  C   UNL d   1      -2.886   3.435  -0.442  0.00  0.00     0.049 C 
ATOM      9  C   UNL d   1      -0.485   4.163  -0.278  0.00  0.00    -0.049 A 
ATOM     10  C   UNL d   1       0.902   3.900  -0.210  0.00  0.00    -0.048 A 
ATOM     11  C   UNL d   1      -1.020   5.583  -0.283  0.00  0.00     0.049 C 
ATOM     12  C   UNL d   1       1.373   2.553  -0.138  0.00  0.00    -0.032 A 
ATOM     13  C   UNL d   1       1.859   5.078  -0.211  0.00  0.00     0.049 C 
ATOM     14  C   UNL d   1       2.874   2.369  -0.023  0.00  0.00     0.050 C 
ENDBRANCH   1   4
BRANCH   1  15
ATOM     15  N   UNL d   1       2.047  -0.380  -1.426  0.00  0.00    -0.256 N 
ATOM     16  C   UNL d   1       1.633  -0.472  -2.739  0.00  0.00     0.158 C 
ATOM     17  N   UNL d   1       2.489  -0.653  -3.671  0.00  0.00    -0.376 N 
ATOM     18  N   UNL d   1       0.317  -0.377  -2.986  0.00  0.00    -0.274 NA
ATOM     19  H   UNL d   1       3.427  -0.713  -3.277  0.00  0.00     0.158 HD
ATOM     20  HN  UNL d   1       2.265  -0.728  -4.664  1.00  0.00     0.158 HD
ATOM     21  H   UNL d   1      -0.265  -0.867  -2.311  0.00  0.00     0.127 HD
ATOM     22  H   UNL d   1       0.106  -0.662  -3.936  0.00  0.00     0.127 HD
ATOM     23  H   UNL d   1       3.023  -0.508  -1.188  0.00  0.00     0.181 HD
ENDBRANCH   1  15
TORSDOF 2
