REMARK  7 active torsions:
REMARK  status: ('A' for Active; 'I' for Inactive)
REMARK    1  A    between atoms: N_12  and  C_3 
REMARK    2  A    between atoms: C_6  and  C_4 
REMARK    3  A    between atoms: C_9  and  C_5 
REMARK    4  A    between atoms: O_20  and  C_9 
REMARK       I    between atoms: C_11  and  N_13 
REMARK    5  A    between atoms: C_16  and  C_11 
REMARK    6  A    between atoms: N_13  and  N_12 
REMARK    7  A    between atoms: C_23  and  O_20 
ROOT
ATOM      1  N   UNL d   1       1.387   0.339   0.060  0.00  0.00    -0.327 N 
ATOM      2  HN  UNL d   1       2.337   0.703   0.137  1.00  0.00     0.168 HD
ATOM      3  C   UNL d   1       1.155  -1.000   0.057  0.00  0.00     0.117 A 
ATOM      4  C   UNL d   1       0.328   1.184  -0.039  0.00  0.00     0.191 A 
ATOM      5  C   UNL d   1      -0.135  -1.510  -0.061  0.00  0.00     0.094 A 
ATOM      6  N   UNL d   1      -0.949   0.755  -0.165  0.00  0.00    -0.347 N 
ATOM      7  HN  UNL d   1      -1.726   1.410  -0.252  1.00  0.00     0.166 HD
ATOM      8  C   UNL d   1      -1.147  -0.579  -0.171  0.00  0.00     0.110 A 
ENDROOT
BRANCH   3   9
ATOM      9  N   UNL d   1       2.285  -1.858   0.035  0.00  0.00    -0.186 NA
ATOM     10  H   UNL d   1       2.060  -2.768   0.468  0.00  0.00     0.154 HD
BRANCH   9  11
ATOM     11  N   UNL d   1       3.421  -1.310   0.671  0.00  0.00    -0.281 N 
ATOM     12  C   UNL d   1       4.171  -2.194   1.432  0.00  0.00     0.266 C 
ATOM     13  O   UNL d   1       3.758  -3.323   1.700  0.00  0.00    -0.266 OA
ATOM     14  H   UNL d   1       3.753  -0.429   0.294  0.00  0.00     0.184 HD
BRANCH  12  15
ATOM     15  C   UNL d   1       5.516  -1.751   1.894  0.00  0.00     0.033 A 
ATOM     16  C   UNL d   1       5.917  -0.410   1.907  0.00  0.00     0.017 A 
ATOM     17  C   UNL d   1       7.199  -0.068   2.344  0.00  0.00     0.001 A 
ATOM     18  C   UNL d   1       8.085  -1.055   2.777  0.00  0.00     0.000 A 
ATOM     19  C   UNL d   1       7.690  -2.390   2.780  0.00  0.00     0.001 A 
ATOM     20  C   UNL d   1       6.411  -2.737   2.342  0.00  0.00     0.017 A 
ENDBRANCH  12  15
ENDBRANCH   9  11
ENDBRANCH   3   9
BRANCH   5  21
ATOM     21  C   UNL d   1      -0.536  -2.925   0.044  0.00  0.00     0.298 C 
ATOM     22  O   UNL d   1      -1.692  -3.300  -0.078  0.00  0.00    -0.259 OA
BRANCH  21  23
ATOM     23  O   UNL d   1       0.509  -3.686   0.436  0.00  0.00    -0.318 OA
BRANCH  23  24
ATOM     24  C   UNL d   1       0.197  -4.940   1.061  0.00  0.00     0.174 C 
ATOM     25  C   UNL d   1       0.213  -4.709   2.561  0.00  0.00     0.034 C 
ENDBRANCH  23  24
ENDBRANCH  21  23
ENDBRANCH   5  21
BRANCH   4  26
ATOM     26  C   UNL d   1       0.578   2.697   0.007  0.00  0.00     0.449 C 
ATOM     27  F   UNL d   1       1.903   3.034   0.062  0.00  0.00    -0.163 F 
ATOM     28  F   UNL d   1       0.082   3.358  -1.081  0.00  0.00    -0.163 F 
ATOM     29  F   UNL d   1       0.009   3.298   1.096  0.00  0.00    -0.163 F 
ENDBRANCH   4  26
TORSDOF 7
