REMARK  9 active torsions:
REMARK  status: ('A' for Active; 'I' for Inactive)
REMARK    1  A    between atoms: C_5  and  O_7 
REMARK    2  A    between atoms: C_10  and  C_5 
REMARK    3  A    between atoms: O_7  and  C_13 
REMARK    4  A    between atoms: C_23  and  C_19 
REMARK    5  A    between atoms: C_24  and  C_22 
REMARK    6  A    between atoms: C_26  and  C_23 
REMARK    7  A    between atoms: C_25  and  C_24 
REMARK    8  A    between atoms: C_28  and  C_26 
REMARK    9  A    between atoms: C_27  and  C_28 
ROOT
ATOM      1  C   UNL d   1       1.210   0.824   0.056  0.00  0.00    -0.040 A 
ATOM      2  C   UNL d   1      -1.149   0.911  -0.027  0.00  0.00    -0.042 A 
ATOM      3  C   UNL d   1       0.694  -0.484   0.169  0.00  0.00    -0.019 A 
ATOM      4  C   UNL d   1      -0.747  -0.433   0.080  0.00  0.00    -0.019 A 
ATOM      5  C   UNL d   1       0.069   1.817  -0.078  0.00  0.00     0.078 A 
ATOM      6  C   UNL d   1       1.534  -1.563   0.369  0.00  0.00     0.015 A 
ATOM      7  C   UNL d   1      -1.681  -1.454   0.091  0.00  0.00     0.013 A 
ATOM      8  C   UNL d   1       2.578   1.060   0.089  0.00  0.00     0.045 A 
ATOM      9  C   UNL d   1      -2.492   1.258  -0.065  0.00  0.00     0.015 A 
ATOM     10  C   UNL d   1       3.426  -0.039   0.268  0.00  0.00     0.080 A 
ATOM     11  C   UNL d   1       2.912  -1.336   0.429  0.00  0.00     0.038 A 
ATOM     12  C   UNL d   1      -3.036  -1.116   0.033  0.00  0.00     0.008 A 
ATOM     13  C   UNL d   1      -3.454   0.232  -0.027  0.00  0.00    -0.058 A 
ENDROOT
BRANCH  10  14
ATOM     14  O   UNL d   1       4.817   0.260   0.276  0.00  0.00    -0.275 OA
BRANCH  14  15
ATOM     15  C   UNL d   1       5.845  -0.676   0.357  0.00  0.00     0.298 C 
ATOM     16  O   UNL d   1       5.739  -1.888   0.466  0.00  0.00    -0.259 OA
BRANCH  15  17
ATOM     17  C   UNL d   1       7.170  -0.003   0.316  0.00  0.00     0.040 A 
ATOM     18  C   UNL d   1       8.311  -0.799   0.490  0.00  0.00     0.018 A 
ATOM     19  C   UNL d   1       9.582  -0.223   0.517  0.00  0.00     0.008 A 
ATOM     20  C   UNL d   1       9.733   1.160   0.371  0.00  0.00    -0.058 A 
ATOM     21  C   UNL d   1       8.595   1.948   0.143  0.00  0.00     0.008 A 
ATOM     22  C   UNL d   1       7.320   1.374   0.123  0.00  0.00     0.018 A 
BRANCH  20  23
ATOM     23  C   UNL d   1      11.100   1.792   0.488  0.00  0.00     0.038 C 
BRANCH  23  24
ATOM     24  C   UNL d   1      11.211   2.802   1.637  0.00  0.00     0.000 C 
ATOM     25  C   UNL d   1      10.983   2.182   3.010  0.00  0.00     0.005 C 
ENDBRANCH  23  24
ENDBRANCH  20  23
ENDBRANCH  15  17
ENDBRANCH  14  15
ENDBRANCH  10  14
BRANCH  13  26
ATOM     26  C   UNL d   1      -4.931   0.552  -0.004  0.00  0.00     0.038 C 
BRANCH  26  27
ATOM     27  C   UNL d   1      -5.399   1.309  -1.248  0.00  0.00     0.005 C 
BRANCH  27  28
ATOM     28  C   UNL d   1      -6.906   1.576  -1.205  0.00  0.00    -0.000 C 
BRANCH  28  29
ATOM     29  C   UNL d   1      -7.353   2.367  -2.433  0.00  0.00    -0.005 C 
ATOM     30  C   UNL d   1      -8.845   2.651  -2.410  0.00  0.00     0.005 C 
ENDBRANCH  28  29
ENDBRANCH  27  28
ENDBRANCH  26  27
ENDBRANCH  13  26
TORSDOF 9
