REMARK  5 active torsions:
REMARK  status: ('A' for Active; 'I' for Inactive)
REMARK    1  A    between atoms: N_6  and  S_1 
REMARK    2  A    between atoms: C_11  and  S_1 
REMARK    3  A    between atoms: C_2  and  S_9 
REMARK    4  A    between atoms: C_10  and  N_6 
REMARK    5  A    between atoms: S_9  and  C_13 
ROOT
ATOM      1  C   UNL d   1      -1.239   0.641  -1.451  0.00  0.00     0.080 A 
ATOM      2  N   UNL d   1      -5.027   1.905  -5.065  0.00  0.00    -0.191 NA
ATOM      3  C   UNL d   1      -4.213   1.657  -4.272  0.00  0.00     0.099 C 
ATOM      4  C   UNL d   1      -2.574   0.303  -1.200  0.00  0.00     0.027 A 
ATOM      5  C   UNL d   1      -0.889   1.367  -2.594  0.00  0.00     0.027 A 
ATOM      6  C   UNL d   1      -3.208   1.335  -3.303  0.00  0.00     0.044 A 
ATOM      7  C   UNL d   1      -1.874   1.699  -3.527  0.00  0.00     0.024 A 
ATOM      8  C   UNL d   1      -3.556   0.647  -2.133  0.00  0.00     0.024 A 
ENDROOT
BRANCH   1   9
ATOM      9  S   UNL d   1       0.029   0.139  -0.300  0.00  0.00     0.263 S 
ATOM     10  O   UNL d   1       1.147   1.040  -0.468  0.00  0.00    -0.200 OA
ATOM     11  O   UNL d   1      -0.615  -0.035   0.985  0.00  0.00    -0.200 OA
BRANCH   9  12
ATOM     12  N   UNL d   1       0.441  -1.418  -0.836  0.00  0.00    -0.279 N 
ATOM     13  H   UNL d   1      -0.254  -2.103  -0.541  0.00  0.00     0.179 HD
BRANCH  12  14
ATOM     14  C   UNL d   1       0.955  -1.572  -2.164  0.00  0.00     0.059 A 
ATOM     15  C   UNL d   1       2.322  -1.418  -2.462  0.00  0.00     0.034 A 
ATOM     16  C   UNL d   1       2.725  -1.445  -3.807  0.00  0.00     0.021 A 
ATOM     17  C   UNL d   1       1.796  -1.636  -4.833  0.00  0.00     0.002 A 
ATOM     18  C   UNL d   1       0.451  -1.817  -4.529  0.00  0.00     0.002 A 
ATOM     19  C   UNL d   1       0.034  -1.795  -3.199  0.00  0.00     0.031 A 
BRANCH  15  20
ATOM     20  S   UNL d   1       3.586  -1.117  -1.236  0.00  0.00    -0.063 SA
BRANCH  20  21
ATOM     21  C   UNL d   1       3.633  -2.659  -0.399  0.00  0.00     0.118 A 
ATOM     22  N   UNL d   1       3.425  -3.817  -0.987  0.00  0.00    -0.344 N 
ATOM     23  C   UNL d   1       3.648  -4.848  -0.084  0.00  0.00     0.050 A 
ATOM     24  HN  UNL d   1       3.144  -3.938  -1.960  1.00  0.00     0.167 HD
ATOM     25  C   UNL d   1       3.547  -6.231  -0.356  0.00  0.00     0.032 A 
ATOM     26  C   UNL d   1       4.013  -4.451   1.204  0.00  0.00     0.035 A 
ATOM     27  C   UNL d   1       3.808  -7.165   0.656  0.00  0.00     0.026 A 
ATOM     28  C   UNL d   1       4.164  -6.736   1.929  0.00  0.00     0.035 A 
ATOM     29  C   UNL d   1       4.275  -5.377   2.231  0.00  0.00     0.045 A 
ATOM     30 CL   UNL d   1       4.478  -7.899   3.161  0.00  0.00    -0.084 Cl
ATOM     31  S   UNL d   1       4.080  -2.733   1.257  0.00  0.00    -0.063 SA
ENDBRANCH  20  21
ENDBRANCH  15  20
ENDBRANCH  12  14
ENDBRANCH   9  12
ENDBRANCH   1   9
TORSDOF 5
