REMARK  4 active torsions:
REMARK  status: ('A' for Active; 'I' for Inactive)
REMARK    1  A    between atoms: C_2  and  C_1 
REMARK    2  A    between atoms: N_11  and  C_7 
REMARK    3  A    between atoms: C_20  and  C_15 
REMARK    4  A    between atoms: O_19  and  C_20 
ROOT
ATOM      1  C   UNL d   1       2.045  -2.489   0.036  0.00  0.00     0.135 A 
ATOM      2  N   UNL d   1       2.887  -2.670   1.075  0.00  0.00    -0.327 N 
ATOM      3  HN  UNL d   1       2.884  -2.035   1.874  1.00  0.00     0.169 HD
ATOM      4  C   UNL d   1       3.732  -3.717   1.021  0.00  0.00     0.106 A 
ATOM      5  N   UNL d   1       1.965  -3.280  -1.047  0.00  0.00    -0.342 N 
ATOM      6  HN  UNL d   1       1.317  -3.086  -1.810  1.00  0.00     0.167 HD
ATOM      7  C   UNL d   1       3.695  -4.585  -0.058  0.00  0.00     0.075 A 
ATOM      8  C   UNL d   1       2.788  -4.340  -1.069  0.00  0.00     0.038 A 
ENDROOT
BRANCH   1   9
ATOM      9  C   UNL d   1       1.158  -1.320   0.056  0.00  0.00     0.084 A 
ATOM     10  N   UNL d   1       0.217  -1.073  -0.947  0.00  0.00    -0.351 N 
ATOM     11  C   UNL d   1      -0.436   0.040  -0.699  0.00  0.00     0.047 A 
ATOM     12  HN  UNL d   1       0.059  -1.672  -1.758  1.00  0.00     0.166 HD
ATOM     13  C   UNL d   1      -1.509   0.591  -1.570  0.00  0.00     0.076 C 
ATOM     14  S   UNL d   1       0.029   0.865   0.735  0.00  0.00    -0.087 SA
ATOM     15  C   UNL d   1       1.187  -0.360   1.052  0.00  0.00     0.084 A 
ENDBRANCH   1   9
BRANCH   4  16
ATOM     16  N   UNL d   1       4.625  -3.918   2.056  0.00  0.00    -0.367 N 
ATOM     17  C   UNL d   1       5.946  -4.505   1.854  0.00  0.00     0.124 C 
ATOM     18  C   UNL d   1       7.023  -3.513   2.295  0.00  0.00     0.020 C 
ATOM     19  C   UNL d   1       6.785  -3.026   3.722  0.00  0.00     0.003 C 
ATOM     20  C   UNL d   1       5.374  -2.458   3.880  0.00  0.00     0.020 C 
ATOM     21  C   UNL d   1       4.311  -3.445   3.401  0.00  0.00     0.124 C 
ENDBRANCH   4  16
BRANCH   8  22
ATOM     22  C   UNL d   1       2.708  -5.269  -2.256  0.00  0.00     0.224 C 
BRANCH  22  23
ATOM     23  O   UNL d   1       2.448  -6.603  -1.808  0.00  0.00    -0.390 OA
ATOM     24  C   UNL d   1       2.325  -7.502  -2.899  0.00  0.00     0.201 C 
ENDBRANCH  22  23
ENDBRANCH   8  22
TORSDOF 4
