REMARK  3 active torsions:
REMARK  status: ('A' for Active; 'I' for Inactive)
REMARK    1  A    between atoms: C_10  and  N_3 
REMARK    2  A    between atoms: O_8  and  C_4 
REMARK    3  A    between atoms: C_12  and  O_8 
ROOT
ATOM      1  C   UNL d   1      -0.785   1.363   0.416  0.00  0.00     0.291 C 
ATOM      2  C   UNL d   1      -1.460   0.030   0.347  0.00  0.00     0.139 C 
ATOM      3  N   UNL d   1       0.599   1.353   0.172  0.00  0.00    -0.220 N 
ATOM      4  C   UNL d   1      -0.778  -1.089   0.090  0.00  0.00     0.120 C 
ATOM      5  N   UNL d   1       1.325   0.189   0.025  0.00  0.00    -0.299 N 
ATOM      6  HN  UNL d   1       2.340   0.212  -0.081  1.00  0.00     0.186 HD
ATOM      7  C   UNL d   1       0.681  -0.928   0.028  0.00  0.00     0.146 C 
ATOM      8  O   UNL d   1      -1.475   2.366   0.610  0.00  0.00    -0.264 OA
ATOM      9 CL   UNL d   1      -3.185   0.004   0.516  0.00  0.00    -0.075 Cl
ENDROOT
BRANCH   4  10
ATOM     10  O   UNL d   1      -1.389  -2.326  -0.067  0.00  0.00    -0.307 OA
BRANCH  10  11
ATOM     11  C   UNL d   1      -0.807  -3.238  -0.916  0.00  0.00     0.076 A 
ATOM     12  C   UNL d   1      -0.772  -4.565  -0.489  0.00  0.00     0.037 A 
ATOM     13  C   UNL d   1      -0.141  -5.529  -1.276  0.00  0.00     0.003 A 
ATOM     14  C   UNL d   1       0.445  -5.167  -2.490  0.00  0.00     0.000 A 
ATOM     15  C   UNL d   1       0.367  -3.849  -2.938  0.00  0.00     0.003 A 
ATOM     16  C   UNL d   1      -0.280  -2.887  -2.163  0.00  0.00     0.037 A 
ENDBRANCH  10  11
ENDBRANCH   4  10
BRANCH   3  17
ATOM     17  C   UNL d   1       1.407   2.537   0.078  0.00  0.00     0.060 A 
ATOM     18  C   UNL d   1       1.006   3.773   0.607  0.00  0.00     0.031 A 
ATOM     19  C   UNL d   1       1.808   4.913   0.474  0.00  0.00     0.002 A 
ATOM     20  C   UNL d   1       3.023   4.843  -0.201  0.00  0.00     0.000 A 
ATOM     21  C   UNL d   1       3.447   3.628  -0.727  0.00  0.00     0.002 A 
ATOM     22  C   UNL d   1       2.653   2.487  -0.577  0.00  0.00     0.031 A 
ENDBRANCH   3  17
TORSDOF 3
