REMARK  4 active torsions:
REMARK  status: ('A' for Active; 'I' for Inactive)
REMARK    1  A    between atoms: C_3  and  C_1 
REMARK    2  A    between atoms: C_6  and  C_1 
REMARK    3  A    between atoms: C_2  and  C_3 
REMARK    4  A    between atoms: N_7  and  C_6 
ROOT
ATOM      1  C   UNL d   1       1.076   0.065   0.000  0.00  0.00     0.101 C 
ATOM      2  C   UNL d   1       0.393   1.192   0.315  0.00  0.00     0.060 C 
ATOM      3  S   UNL d   1      -1.357   1.259   0.322  0.00  0.00    -0.121 SA
ATOM      4  S   UNL d   1       1.252   2.721   0.484  0.00  0.00    -0.121 SA
ATOM      5  C   UNL d   1       0.686   3.388   2.079  0.00  0.00     0.080 C 
ATOM      6  C   UNL d   1      -1.653   1.481   2.102  0.00  0.00     0.080 C 
ATOM      7  C   UNL d   1      -1.809   2.945   2.512  0.00  0.00     0.011 C 
ATOM      8  C   UNL d   1      -0.740   3.927   2.024  0.00  0.00     0.011 C 
ENDROOT
BRANCH   1   9
ATOM      9  C   UNL d   1       0.461  -1.272  -0.264  0.00  0.00     0.205 C 
ATOM     10  O   UNL d   1      -0.440  -1.711   0.440  0.00  0.00    -0.286 OA
BRANCH   9  11
ATOM     11  C   UNL d   1       1.085  -2.046  -1.341  0.00  0.00     0.047 A 
ATOM     12  C   UNL d   1       1.016  -3.428  -1.473  0.00  0.00     0.063 A 
ATOM     13  O   UNL d   1       1.754  -3.845  -2.541  0.00  0.00    -0.326 OA
ATOM     14  C   UNL d   1       0.370  -4.520  -0.711  0.00  0.00     0.077 C 
ATOM     15  C   UNL d   1       2.284  -2.745  -3.122  0.00  0.00     0.143 A 
ATOM     16  C   UNL d   1       1.882  -1.615  -2.453  0.00  0.00     0.042 A 
ENDBRANCH   9  11
ENDBRANCH   1   9
BRANCH   1  17
ATOM     17  C   UNL d   1       2.596   0.065   0.000  0.00  0.00    -0.031 C 
BRANCH  17  18
ATOM     18  N   UNL d   1       3.857   0.065   0.000  0.00  0.00    -0.365 N 
ATOM     19  HN2 UNL d   1       2.837   0.065   0.000  1.00  0.00     0.165 HD
ATOM     20  HN1 UNL d   1       4.877   0.065   0.000  1.00  0.00     0.165 HD
ENDBRANCH  17  18
ENDBRANCH   1  17
TORSDOF 4
