REMARK  4 active torsions:
REMARK  status: ('A' for Active; 'I' for Inactive)
REMARK    1  A    between atoms: S_2  and  C_1 
REMARK    2  A    between atoms: C_7  and  S_2 
REMARK    3  A    between atoms: N_4  and  C_3 
REMARK    4  A    between atoms: O_21  and  C_11 
ROOT
ATOM      1  C   UNL d   1      -0.658   1.250  -0.037  0.00  0.00     0.168 A 
ATOM      2  C   UNL d   1       0.714   1.298   0.071  0.00  0.00     0.141 A 
ATOM      3  N   UNL d   1      -1.355   0.082  -0.118  0.00  0.00    -0.325 N 
ATOM      4  HN  UNL d   1      -2.371   0.074  -0.205  1.00  0.00     0.168 HD
ATOM      5  C   UNL d   1       1.439   0.100   0.069  0.00  0.00     0.043 A 
ATOM      6  C   UNL d   1      -0.643  -1.063  -0.078  0.00  0.00     0.142 A 
ATOM      7  C   UNL d   1       0.740  -1.105  -0.002  0.00  0.00     0.058 A 
ENDROOT
BRANCH   1   8
ATOM      8  S   UNL d   1      -1.734   2.667   0.028  0.00  0.00     0.224 S 
ATOM      9  O   UNL d   1      -3.000   2.250   0.608  0.00  0.00    -0.216 OA
ATOM     10  O   UNL d   1      -1.004   3.752   0.651  0.00  0.00    -0.216 OA
BRANCH   8  11
ATOM     11  C   UNL d   1      -2.066   3.127  -1.662  0.00  0.00     0.065 A 
ATOM     12  C   UNL d   1      -3.116   2.511  -2.353  0.00  0.00     0.025 A 
ATOM     13  C   UNL d   1      -3.360   2.860  -3.685  0.00  0.00     0.025 A 
ATOM     14  C   UNL d   1      -2.557   3.814  -4.312  0.00  0.00     0.034 A 
ATOM     15  C   UNL d   1      -1.528   4.444  -3.613  0.00  0.00     0.025 A 
ATOM     16 CL   UNL d   1      -2.838   4.221  -5.959  0.00  0.00    -0.084 Cl
ATOM     17  C   UNL d   1      -1.293   4.114  -2.277  0.00  0.00     0.025 A 
ENDBRANCH   8  11
ENDBRANCH   1   8
BRANCH   2  18
ATOM     18  N   UNL d   1       1.453   2.530   0.107  0.00  0.00    -0.113 N 
ATOM     19  O   UNL d   1       1.396   3.236  -0.906  0.00  0.00    -0.532 OA
ATOM     20  O   UNL d   1       2.169   2.725   1.095  0.00  0.00    -0.532 OA
ENDBRANCH   2  18
BRANCH   6  21
ATOM     21  O   UNL d   1      -1.303  -2.272  -0.110  0.00  0.00    -0.341 OA
ATOM     22  C   UNL d   1      -2.721  -2.127  -0.051  0.00  0.00     0.211 C 
ENDBRANCH   6  21
TORSDOF 4
