REMARK  5 active torsions:
REMARK  status: ('A' for Active; 'I' for Inactive)
REMARK    1  A    between atoms: N_18  and  C_2 
REMARK    2  A    between atoms: C_22  and  C_3 
REMARK    3  A    between atoms: C_4  and  N_12 
REMARK    4  A    between atoms: C_5  and  C_6 
REMARK    5  A    between atoms: C_28  and  N_18 
ROOT
ATOM      1  N   UNL d   1       2.054   2.263  -0.368  0.00  0.00    -0.371 N 
ATOM      2  H   UNL d   1       1.647   1.883   0.476  0.00  0.00     0.161 HD
ENDROOT
BRANCH   1   3
ATOM      3  C   UNL d   1       1.104   2.829  -1.226  0.00  0.00     0.116 A 
ATOM      4  C   UNL d   1      -0.288   2.947  -0.943  0.00  0.00     0.053 A 
ATOM      5  C   UNL d   1      -1.141   2.721   0.226  0.00  0.00    -0.003 A 
ATOM      6  C   UNL d   1      -1.064   3.398  -2.008  0.00  0.00     0.089 A 
ATOM      7  C   UNL d   1      -2.471   2.993  -0.057  0.00  0.00     0.065 A 
ATOM      8  S   UNL d   1      -2.727   3.485  -1.664  0.00  0.00    -0.082 SA
ATOM      9  N   UNL d   1      -0.644   3.753  -3.232  0.00  0.00    -0.346 N 
ATOM     10  C   UNL d   1       0.673   3.659  -3.361  0.00  0.00     0.182 A 
ATOM     11  HN  UNL d   1      -1.267   4.059  -3.980  1.00  0.00     0.167 HD
ATOM     12  N   UNL d   1       1.545   3.242  -2.438  0.00  0.00    -0.338 N 
ATOM     13  HN  UNL d   1       2.544   3.234  -2.646  1.00  0.00     0.168 HD
BRANCH   5  14
ATOM     14  C   UNL d   1      -0.778   2.313   1.587  0.00  0.00    -0.024 A 
ATOM     15  C   UNL d   1       0.343   2.858   2.220  0.00  0.00     0.012 A 
ATOM     16  C   UNL d   1       0.754   2.393   3.473  0.00  0.00     0.001 A 
ATOM     17  C   UNL d   1      -0.001   1.436   4.143  0.00  0.00     0.000 A 
ATOM     18  C   UNL d   1      -1.173   0.954   3.568  0.00  0.00     0.001 A 
ATOM     19  C   UNL d   1      -1.553   1.379   2.292  0.00  0.00     0.012 A 
ENDBRANCH   5  14
ENDBRANCH   1   3
BRANCH   1  20
ATOM     20  C   UNL d   1       3.313   3.011  -0.197  0.00  0.00     0.086 C 
ATOM     21  C   UNL d   1       4.356   2.661  -1.262  0.00  0.00     0.045 C 
ATOM     22  C   UNL d   1       4.866   1.234  -1.104  0.00  0.00     0.126 C 
ATOM     23  N   UNL d   1       5.372   1.026   0.253  0.00  0.00    -0.366 N 
ATOM     24  C   UNL d   1       4.469   1.334   1.349  0.00  0.00     0.126 C 
ATOM     25  C   UNL d   1       3.921   2.751   1.189  0.00  0.00     0.045 C 
BRANCH  23  26
ATOM     26  C   UNL d   1       6.596   0.407   0.407  0.00  0.00     0.125 A 
ATOM     27  N   UNL d   1       7.552   0.791  -0.477  0.00  0.00    -0.350 N 
ATOM     28  C   UNL d   1       8.805   0.307  -0.371  0.00  0.00     0.106 A 
ATOM     29  HN  UNL d   1       7.322   1.447  -1.223  1.00  0.00     0.166 HD
ATOM     30  C   UNL d   1       9.210  -0.581   0.604  0.00  0.00     0.065 A 
ATOM     31  C   UNL d   1       8.233  -1.014   1.501  0.00  0.00     0.045 A 
ATOM     32  C   UNL d   1       6.921  -0.532   1.404  0.00  0.00     0.078 A 
ATOM     33 CL   UNL d   1       5.777  -1.253   2.488  0.00  0.00    -0.080 Cl
BRANCH  30  34
ATOM     34  C   UNL d   1      10.628  -1.048   0.652  0.00  0.00     0.418 C 
ATOM     35  F   UNL d   1      10.890  -1.876   1.702  0.00  0.00    -0.166 F 
ATOM     36  F   UNL d   1      10.988  -1.736  -0.464  0.00  0.00    -0.166 F 
ATOM     37  F   UNL d   1      11.510  -0.019   0.761  0.00  0.00    -0.166 F 
ENDBRANCH  30  34
ENDBRANCH  23  26
ENDBRANCH   1  20
TORSDOF 5
