REMARK  6 active torsions:
REMARK  status: ('A' for Active; 'I' for Inactive)
REMARK    1  A    between atoms: S_20  and  C_3 
REMARK    2  A    between atoms: C_7  and  C_4 
REMARK    3  A    between atoms: S_21  and  C_10 
REMARK       I    between atoms: N_12  and  C_15 
REMARK    4  A    between atoms: C_16  and  N_12 
REMARK    5  A    between atoms: C_15  and  C_25 
REMARK    6  A    between atoms: C_25  and  S_21 
ROOT
ATOM      1  C   UNL d   1       2.627   2.092  -0.258  0.00  0.00     0.053 A 
ATOM      2  N   UNL d   1       2.228   3.188   0.422  0.00  0.00    -0.336 N 
ATOM      3  HN  UNL d   1       1.402   3.181   1.020  1.00  0.00     0.168 HD
ATOM      4  C   UNL d   1       2.983   4.286   0.266  0.00  0.00     0.145 A 
ATOM      5  N   UNL d   1       4.093   4.371  -0.478  0.00  0.00    -0.347 N 
ATOM      6  HN  UNL d   1       4.628   5.236  -0.551  1.00  0.00     0.167 HD
ATOM      7  C   UNL d   1       3.761   2.079  -1.044  0.00  0.00     0.048 A 
ATOM      8  C   UNL d   1       4.463   3.252  -1.123  0.00  0.00     0.092 A 
ENDROOT
BRANCH   1   9
ATOM      9  C   UNL d   1       1.742   0.918  -0.124  0.00  0.00     0.040 A 
ATOM     10  C   UNL d   1       1.048   0.426   0.975  0.00  0.00    -0.022 A 
ATOM     11  C   UNL d   1       0.288  -0.775   0.652  0.00  0.00     0.041 A 
ATOM     12  C   UNL d   1       1.059   1.011   2.374  0.00  0.00     0.050 C 
ATOM     13  C   UNL d   1       0.449  -1.154  -0.668  0.00  0.00     0.056 A 
ATOM     14  C   UNL d   1      -0.492  -1.458   1.684  0.00  0.00     0.162 C 
ATOM     15  S   UNL d   1       1.431  -0.038  -1.514  0.00  0.00    -0.080 SA
ATOM     16  C   UNL d   1      -0.797  -0.634   2.918  0.00  0.00     0.093 C 
ATOM     17  O   UNL d   1      -0.895  -2.614   1.595  0.00  0.00    -0.292 OA
ATOM     18  C   UNL d   1       0.477   0.050   3.452  0.00  0.00    -0.037 C 
ATOM     19  C   UNL d   1       0.101   0.851   4.712  0.00  0.00     0.015 C 
ATOM     20  C   UNL d   1       1.518  -1.015   3.861  0.00  0.00     0.015 C 
BRANCH  13  21
ATOM     21  S   UNL d   1      -0.134  -2.560  -1.557  0.00  0.00    -0.126 SA
ATOM     22  C   UNL d   1      -1.896  -2.610  -1.181  0.00  0.00     0.096 C 
ENDBRANCH  13  21
ENDBRANCH   1   9
BRANCH   4  23
ATOM     23  S   UNL d   1       2.373   5.785   0.995  0.00  0.00    -0.085 SA
BRANCH  23  24
ATOM     24  C   UNL d   1       2.516   6.867  -0.467  0.00  0.00     0.185 C 
BRANCH  24  25
ATOM     25  C   UNL d   1       1.813   6.322  -1.705  0.00  0.00     0.231 C 
ATOM     26  N   UNL d   1       0.656   5.607  -1.457  0.00  0.00    -0.325 N 
ATOM     27  H   UNL d   1       0.271   5.654  -0.517  0.00  0.00     0.169 HD
ATOM     28  O   UNL d   1       2.234   6.602  -2.827  0.00  0.00    -0.272 OA
BRANCH  26  29
ATOM     29  C   UNL d   1      -0.089   4.850  -2.387  0.00  0.00     0.056 A 
ATOM     30  C   UNL d   1      -1.398   4.456  -2.056  0.00  0.00     0.060 A 
ATOM     31 CL   UNL d   1      -2.112   4.909  -0.546  0.00  0.00    -0.082 Cl
ATOM     32  C   UNL d   1      -2.169   3.714  -2.955  0.00  0.00     0.026 A 
ATOM     33  C   UNL d   1      -1.627   3.324  -4.179  0.00  0.00     0.002 A 
ATOM     34  C   UNL d   1      -0.318   3.675  -4.500  0.00  0.00     0.002 A 
ATOM     35  C   UNL d   1       0.445   4.439  -3.611  0.00  0.00     0.031 A 
ENDBRANCH  26  29
ENDBRANCH  24  25
ENDBRANCH  23  24
ENDBRANCH   4  23
TORSDOF 6
