REMARK  4 active torsions:
REMARK  status: ('A' for Active; 'I' for Inactive)
REMARK    1  A    between atoms: C_2  and  C_1 
REMARK    2  A    between atoms: C_4  and  C_1 
REMARK    3  A    between atoms: O_7  and  C_2 
REMARK    4  A    between atoms: C_6  and  C_3 
ROOT
ATOM      1  C   UNL d   1       0.970  -0.161  -0.180  0.00  0.00     0.050 C 
ATOM      2  C   UNL d   1       0.301   0.984   0.073  0.00  0.00     0.030 C 
ENDROOT
BRANCH   1   3
ATOM      3  C   UNL d   1       2.455  -0.018  -0.247  0.00  0.00     0.293 C 
ATOM      4  O   UNL d   1       3.030   1.041  -0.464  0.00  0.00    -0.259 OA
BRANCH   3   5
ATOM      5  O   UNL d   1       3.071  -1.197   0.023  0.00  0.00    -0.322 OA
ATOM      6  C   UNL d   1       4.493  -1.086   0.094  0.00  0.00     0.213 C 
ENDBRANCH   3   5
ENDBRANCH   1   3
BRANCH   1   7
ATOM      7  C   UNL d   1       0.289  -1.454  -0.372  0.00  0.00    -0.020 A 
ATOM      8  C   UNL d   1      -0.161  -1.827  -1.646  0.00  0.00     0.012 A 
ATOM      9  C   UNL d   1      -0.861  -3.022  -1.831  0.00  0.00     0.001 A 
ATOM     10  C   UNL d   1      -1.115  -3.858  -0.744  0.00  0.00     0.000 A 
ATOM     11  C   UNL d   1      -0.664  -3.500   0.526  0.00  0.00     0.001 A 
ATOM     12  C   UNL d   1       0.034  -2.303   0.713  0.00  0.00     0.012 A 
ENDBRANCH   1   7
BRANCH   2  13
ATOM     13  C   UNL d   1      -1.150   1.110   0.220  0.00  0.00    -0.035 A 
ATOM     14  C   UNL d   1      -1.732   1.014   1.489  0.00  0.00     0.011 A 
ATOM     15  C   UNL d   1      -3.115   1.125   1.634  0.00  0.00     0.001 A 
ATOM     16  C   UNL d   1      -3.919   1.336   0.515  0.00  0.00     0.000 A 
ATOM     17  C   UNL d   1      -3.341   1.446  -0.750  0.00  0.00     0.001 A 
ATOM     18  C   UNL d   1      -1.958   1.336  -0.898  0.00  0.00     0.011 A 
ENDBRANCH   2  13
TORSDOF 4
