REMARK  3 active torsions:
REMARK  status: ('A' for Active; 'I' for Inactive)
REMARK       I    between atoms: N_2  and  C_1 
REMARK       I    between atoms: N_3  and  C_1 
REMARK    1  A    between atoms: C_6  and  N_2 
REMARK    2  A    between atoms: C_5  and  N_3 
REMARK    3  A    between atoms: C_7  and  C_5 
ROOT
ATOM      1  C   UNL d   1       0.924   0.405   0.011  0.00  0.00     0.316 C 
ATOM      2  N   UNL d   1       0.448  -0.593   0.825  0.00  0.00    -0.339 N 
ATOM      3  N   UNL d   1       0.023   0.697  -0.979  0.00  0.00    -0.339 N 
ATOM      4  O   UNL d   1       2.007   0.954   0.146  0.00  0.00    -0.247 OA
ATOM      5  H   UNL d   1      -0.558  -0.661   0.856  0.00  0.00     0.164 HD
ATOM      6  H   UNL d   1      -0.616  -0.043  -1.221  0.00  0.00     0.164 HD
ENDROOT
BRANCH   2   7
ATOM      7  C   UNL d   1       1.183  -1.044   2.003  0.00  0.00     0.086 C 
ATOM      8  C   UNL d   1       0.838  -2.504   2.322  0.00  0.00     0.025 C 
ATOM      9  C   UNL d   1      -0.584  -2.672   2.858  0.00  0.00     0.002 C 
ATOM     10  C   UNL d   1      -0.853  -1.763   4.053  0.00  0.00     0.000 C 
ATOM     11  C   UNL d   1      -0.512  -0.305   3.757  0.00  0.00     0.002 C 
ATOM     12  C   UNL d   1       0.910  -0.146   3.218  0.00  0.00     0.025 C 
ENDBRANCH   2   7
BRANCH   3  13
ATOM     13  C   UNL d   1       0.360   1.622  -2.037  0.00  0.00     0.162 C 
BRANCH  13  14
ATOM     14  C   UNL d   1      -0.886   2.227  -2.629  0.00  0.00    -0.040 A 
ATOM     15  C   UNL d   1      -1.383   3.439  -2.127  0.00  0.00     0.009 A 
ATOM     16  C   UNL d   1      -2.549   4.000  -2.651  0.00  0.00     0.001 A 
ATOM     17  C   UNL d   1      -3.237   3.351  -3.675  0.00  0.00     0.000 A 
ATOM     18  C   UNL d   1      -2.759   2.140  -4.174  0.00  0.00     0.001 A 
ATOM     19  C   UNL d   1      -1.591   1.578  -3.654  0.00  0.00     0.009 A 
ENDBRANCH  13  14
ENDBRANCH   3  13
TORSDOF 3
