REMARK  3 active torsions:
REMARK  status: ('A' for Active; 'I' for Inactive)
REMARK    1  A    between atoms: O_7  and  C_1 
REMARK    2  A    between atoms: C_11  and  O_7 
REMARK    3  A    between atoms: N_13  and  C_12 
ROOT
ATOM      1  C   UNL d   1      -1.007  -1.535  -0.207  0.00  0.00     0.152 C 
ATOM      2  C   UNL d   1      -1.523  -0.300  -0.129  0.00  0.00     0.122 C 
ATOM      3  C   UNL d   1       0.474  -1.711  -0.336  0.00  0.00     0.218 C 
ATOM      4  C   UNL d   1      -0.681   0.925  -0.083  0.00  0.00     0.207 C 
ATOM      5  C   UNL d   1       1.334  -0.527  -0.152  0.00  0.00     0.031 A 
ATOM      6  C   UNL d   1       0.780   0.745  -0.064  0.00  0.00     0.030 A 
ATOM      7  O   UNL d   1       0.993  -2.786  -0.609  0.00  0.00    -0.284 OA
ATOM      8  O   UNL d   1      -1.155   2.055  -0.045  0.00  0.00    -0.286 OA
ATOM      9 CL   UNL d   1      -3.236  -0.043  -0.074  0.00  0.00    -0.077 Cl
ATOM     10  C   UNL d   1       1.618   1.866   0.039  0.00  0.00     0.016 A 
ATOM     11  C   UNL d   1       2.726  -0.687  -0.103  0.00  0.00     0.016 A 
ATOM     12  C   UNL d   1       3.004   1.705   0.071  0.00  0.00     0.001 A 
ATOM     13  C   UNL d   1       3.557   0.427   0.010  0.00  0.00     0.001 A 
ENDROOT
BRANCH   1  14
ATOM     14  O   UNL d   1      -1.860  -2.635  -0.304  0.00  0.00    -0.305 OA
BRANCH  14  15
ATOM     15  C   UNL d   1      -1.578  -3.815   0.339  0.00  0.00     0.076 A 
ATOM     16  C   UNL d   1      -0.871  -3.917   1.536  0.00  0.00     0.039 A 
ATOM     17  C   UNL d   1      -0.648  -5.175   2.108  0.00  0.00     0.026 A 
ATOM     18  C   UNL d   1      -1.121  -6.338   1.495  0.00  0.00     0.005 A 
ATOM     19  C   UNL d   1      -1.917  -6.213   0.355  0.00  0.00     0.026 A 
ATOM     20  C   UNL d   1      -2.128  -4.963  -0.233  0.00  0.00     0.039 A 
BRANCH  18  21
ATOM     21  N   UNL d   1      -1.002  -7.574   2.141  0.00  0.00    -0.303 NA
ATOM     22  H   UNL d   1      -1.088  -8.368   1.514  0.00  0.00     0.124 HD
ATOM     23  H   UNL d   1      -0.178  -7.643   2.730  0.00  0.00     0.124 HD
ENDBRANCH  18  21
ENDBRANCH  14  15
ENDBRANCH   1  14
TORSDOF 3
