REMARK  1 active torsions:
REMARK  status: ('A' for Active; 'I' for Inactive)
REMARK    1  A    between atoms: S_4  and  C_1 
ROOT
ATOM      1  C   UNL d   1       1.864   0.918  -0.086  0.00  0.00     0.115 A 
ATOM      2  C   UNL d   1       0.504   0.655  -0.023  0.00  0.00     0.046 A 
ATOM      3  S   UNL d   1       2.767  -0.542  -0.033  0.00  0.00    -0.066 SA
ATOM      4  C   UNL d   1       0.218  -0.762   0.027  0.00  0.00    -0.015 A 
ATOM      5  C   UNL d   1       1.374  -1.519   0.051  0.00  0.00     0.093 A 
ATOM      6  C   UNL d   1      -0.567   1.652   0.002  0.00  0.00     0.162 C 
ATOM      7  C   UNL d   1       1.433  -2.947   0.139  0.00  0.00     0.107 C 
ATOM      8  N   UNL d   1       1.440  -4.106   0.210  0.00  0.00    -0.191 NA
ATOM      9  O   UNL d   1      -0.360   2.846  -0.175  0.00  0.00    -0.292 OA
ATOM     10  C   UNL d   1      -1.194  -1.281   0.084  0.00  0.00     0.042 C 
ATOM     11  C   UNL d   1      -1.965   1.125   0.291  0.00  0.00     0.084 C 
ATOM     12  C   UNL d   1      -2.197  -0.224  -0.391  0.00  0.00     0.012 C 
ENDROOT
BRANCH   1  13
ATOM     13  S   UNL d   1       2.836   2.427  -0.109  0.00  0.00     0.179 S 
ATOM     14  O   UNL d   1       2.390   3.168   1.054  0.00  0.00    -0.222 OA
ATOM     15  O   UNL d   1       4.222   2.027  -0.253  0.00  0.00    -0.222 OA
ATOM     16  C   UNL d   1       2.380   3.280  -1.594  0.00  0.00     0.167 C 
ENDBRANCH   1  13
TORSDOF 1
