REMARK  5 active torsions:
REMARK  status: ('A' for Active; 'I' for Inactive)
REMARK    1  A    between atoms: C_4  and  C_1 
REMARK    2  A    between atoms: C_2  and  C_3 
REMARK    3  A    between atoms: C_5  and  N_8 
REMARK    4  A    between atoms: N_18  and  C_5 
REMARK    5  A    between atoms: N_8  and  C_7 
ROOT
ATOM      1  C   UNL d   1       0.366   1.956   2.973  0.00  0.00     0.050 A 
ATOM      2  C   UNL d   1       0.660   0.415   1.111  0.00  0.00     0.050 A 
ATOM      3  C   UNL d   1       0.643   1.722   1.620  0.00  0.00     0.032 A 
ATOM      4  C   UNL d   1       0.093  -0.453   3.320  0.00  0.00     0.035 A 
ATOM      5  C   UNL d   1       0.385  -0.662   1.972  0.00  0.00     0.045 A 
ATOM      6  C   UNL d   1       0.091   0.860   3.809  0.00  0.00     0.045 A 
ENDROOT
BRANCH   4   7
ATOM      7  N   UNL d   1      -0.113  -1.482   4.261  0.00  0.00    -0.334 N 
ATOM      8  H   UNL d   1      -0.180  -1.182   5.225  0.00  0.00     0.168 HD
BRANCH   7   9
ATOM      9  C   UNL d   1      -0.365  -2.824   4.109  0.00  0.00     0.169 C 
ATOM     10  S   UNL d   1      -0.946  -3.676   2.809  0.00  0.00    -0.041 SA
BRANCH   9  11
ATOM     11  N   UNL d   1      -0.125  -3.508   5.271  0.00  0.00    -0.376 N 
ATOM     12  H   UNL d   1       0.608  -3.177   5.885  0.00  0.00     0.158 HD
ATOM     13  H   UNL d   1      -0.195  -4.518   5.201  0.00  0.00     0.158 HD
ENDBRANCH   9  11
ENDBRANCH   7   9
ENDBRANCH   4   7
BRANCH   2  14
ATOM     14  C   UNL d   1       0.984   0.143  -0.342  0.00  0.00     0.417 C 
ATOM     15  F   UNL d   1       1.393   1.253  -1.018  0.00  0.00    -0.166 F 
ATOM     16  F   UNL d   1      -0.081  -0.345  -1.032  0.00  0.00    -0.166 F 
ATOM     17  F   UNL d   1       1.983  -0.770  -0.489  0.00  0.00    -0.166 F 
ENDBRANCH   2  14
BRANCH   1  18
ATOM     18  C   UNL d   1       0.375   3.352   3.548  0.00  0.00     0.417 C 
ATOM     19  F   UNL d   1       0.735   4.309   2.651  0.00  0.00    -0.166 F 
ATOM     20  F   UNL d   1      -0.842   3.724   4.029  0.00  0.00    -0.166 F 
ATOM     21  F   UNL d   1       1.242   3.473   4.592  0.00  0.00    -0.166 F 
ENDBRANCH   1  18
TORSDOF 5
