REMARK  4 active torsions:
REMARK  status: ('A' for Active; 'I' for Inactive)
REMARK    1  A    between atoms: C_3  and  S_1 
REMARK    2  A    between atoms: N_12  and  S_1 
REMARK    3  A    between atoms: C_10  and  C_2 
REMARK    4  A    between atoms: C_8  and  C_11 
ROOT
ATOM      1  C   UNL d   1       0.265   0.342  -1.806  0.00  0.00     0.116 A 
ATOM      2  S   UNL d   1       0.633   1.907  -2.391  0.00  0.00    -0.075 SA
ATOM      3  C   UNL d   1      -0.248   1.651  -3.831  0.00  0.00     0.034 A 
ATOM      4  C   UNL d   1      -0.440  -0.395  -2.739  0.00  0.00     0.034 A 
ATOM      5  C   UNL d   1      -0.730   0.360  -3.910  0.00  0.00     0.023 A 
ENDROOT
BRANCH   3   6
ATOM      6  C   UNL d   1      -0.520   2.697  -4.871  0.00  0.00     0.067 A 
ATOM      7  C   UNL d   1      -0.025   4.018  -4.908  0.00  0.00     0.068 A 
ATOM      8  C   UNL d   1      -0.650   4.619  -5.987  0.00  0.00     0.136 A 
ATOM      9  N   UNL d   1      -1.470   3.657  -6.510  0.00  0.00    -0.292 N 
ATOM     10  N   UNL d   1      -1.353   2.467  -5.893  0.00  0.00    -0.297 N 
ATOM     11  C   UNL d   1      -2.474   3.795  -7.542  0.00  0.00     0.178 C 
ATOM     12  HN  UNL d   1      -1.799   1.587  -6.147  1.00  0.00     0.187 HD
BRANCH   8  13
ATOM     13  C   UNL d   1      -0.557   5.998  -6.499  0.00  0.00     0.434 C 
ATOM     14  F   UNL d   1      -1.362   6.234  -7.565  0.00  0.00    -0.165 F 
ATOM     15  F   UNL d   1      -0.899   6.902  -5.548  0.00  0.00    -0.165 F 
ATOM     16  F   UNL d   1       0.705   6.298  -6.892  0.00  0.00    -0.165 F 
ENDBRANCH   8  13
ENDBRANCH   3   6
BRANCH   1  17
ATOM     17  S   UNL d   1       0.821  -0.046  -0.162  0.00  0.00     0.250 S 
ATOM     18  O   UNL d   1       0.407  -1.419   0.060  0.00  0.00    -0.205 OA
ATOM     19  O   UNL d   1       0.335   1.028   0.679  0.00  0.00    -0.205 OA
BRANCH  17  20
ATOM     20  N   UNL d   1       2.520  -0.009  -0.150  0.00  0.00    -0.206 NA
ATOM     21  C   UNL d   1       3.203  -1.063  -0.948  0.00  0.00     0.107 C 
ATOM     22  C   UNL d   1       3.914  -1.934   0.075  0.00  0.00     0.017 C 
ATOM     23  C   UNL d   1       4.322  -0.932   1.135  0.00  0.00     0.017 C 
ATOM     24  C   UNL d   1       3.114  -0.011   1.220  0.00  0.00     0.107 C 
ENDBRANCH  17  20
ENDBRANCH   1  17
TORSDOF 4
