REMARK  5 active torsions:
REMARK  status: ('A' for Active; 'I' for Inactive)
REMARK    1  A    between atoms: C_16  and  C_3 
REMARK    2  A    between atoms: C_17  and  C_3 
REMARK    3  A    between atoms: C_9  and  N_4 
REMARK    4  A    between atoms: O_18  and  C_16 
REMARK    5  A    between atoms: O_19  and  C_17 
ROOT
ATOM      1  C   UNL d   1       0.803   0.263  -0.170  0.00  0.00     0.120 C 
ATOM      2  N   UNL d   1       0.015  -0.855  -0.226  0.00  0.00    -0.259 NA
ATOM      3  C   UNL d   1      -1.437  -0.612  -0.272  0.00  0.00     0.068 C 
ATOM      4  N   UNL d   1       2.014   0.220   0.290  0.00  0.00    -0.341 N 
ATOM      5  HN  UNL d   1       2.365  -0.673   0.636  1.00  0.00     0.167 HD
ATOM      6  S   UNL d   1      -0.074   1.668  -0.746  0.00  0.00    -0.098 SA
ATOM      7  C   UNL d   1      -1.644   0.771  -0.908  0.00  0.00     0.111 C 
ATOM      8  H   UNL d   1       0.308  -1.562   0.441  0.00  0.00     0.130 HD
ENDROOT
BRANCH   4   9
ATOM      9  C   UNL d   1       2.870   1.331   0.339  0.00  0.00     0.035 A 
ATOM     10  C   UNL d   1       4.155   1.189  -0.200  0.00  0.00     0.056 A 
ATOM     11  C   UNL d   1       5.065   2.248  -0.159  0.00  0.00     0.074 A 
ATOM     12 CL   UNL d   1       6.645   2.037  -0.810  0.00  0.00    -0.081 Cl
ATOM     13  C   UNL d   1       4.693   3.460   0.416  0.00  0.00     0.138 A 
ATOM     14  C   UNL d   1       3.435   3.609   0.988  0.00  0.00     0.046 A 
ATOM     15  F   UNL d   1       5.540   4.499   0.443  0.00  0.00    -0.204 F 
ATOM     16  C   UNL d   1       2.541   2.535   0.977  0.00  0.00     0.032 A 
ENDBRANCH   4   9
BRANCH   3  17
ATOM     17  C   UNL d   1      -2.106  -1.684  -1.164  0.00  0.00     0.192 C 
BRANCH  17  18
ATOM     18  O   UNL d   1      -1.927  -3.000  -0.636  0.00  0.00    -0.399 OA
ATOM     19  H   UNL d   1      -0.998  -3.240  -0.820  0.00  0.00     0.209 HD
ENDBRANCH  17  18
ENDBRANCH   3  17
BRANCH   3  20
ATOM     20  C   UNL d   1      -1.993  -0.674   1.174  0.00  0.00     0.192 C 
BRANCH  20  21
ATOM     21  O   UNL d   1      -1.731  -1.940   1.786  0.00  0.00    -0.399 OA
ATOM     22  H   UNL d   1      -2.078  -2.632   1.183  0.00  0.00     0.209 HD
ENDBRANCH  20  21
ENDBRANCH   3  20
TORSDOF 5
