REMARK  7 active torsions:
REMARK  status: ('A' for Active; 'I' for Inactive)
REMARK    1  A    between atoms: C_6  and  C_1 
REMARK       I    between atoms: N_11  and  C_6 
REMARK    2  A    between atoms: C_7  and  C_9 
REMARK    3  A    between atoms: C_19  and  C_8 
REMARK       I    between atoms: C_9  and  N_12 
REMARK    4  A    between atoms: N_12  and  N_11 
REMARK    5  A    between atoms: C_15  and  C_16 
REMARK    6  A    between atoms: O_24  and  C_19 
REMARK    7  A    between atoms: C_26  and  O_24 
ROOT
ATOM      1  C   UNL d   1      -0.157  -1.129   0.024  0.00  0.00     0.098 A 
ATOM      2  C   UNL d   1      -1.158  -0.172  -0.069  0.00  0.00     0.028 A 
ATOM      3  N   UNL d   1      -0.705   1.141  -0.134  0.00  0.00    -0.354 N 
ATOM      4  HN  UNL d   1      -1.310   1.957  -0.219  1.00  0.00     0.166 HD
ATOM      5  S   UNL d   1       1.380  -0.338   0.049  0.00  0.00    -0.067 SA
ATOM      6  C   UNL d   1       0.610   1.192  -0.072  0.00  0.00     0.076 A 
ATOM      7  C   UNL d   1      -2.636  -0.344  -0.034  0.00  0.00     0.070 C 
ENDROOT
BRANCH   1   8
ATOM      8  C   UNL d   1      -0.200  -2.575   0.156  0.00  0.00     0.279 C 
ATOM      9  N   UNL d   1      -1.241  -3.220  -0.492  0.00  0.00    -0.262 N 
ATOM     10  H   UNL d   1      -1.846  -2.774  -1.179  0.00  0.00     0.190 HD
ATOM     11  O   UNL d   1       0.628  -3.232   0.793  0.00  0.00    -0.265 OA
BRANCH   9  12
ATOM     12  N   UNL d   1      -1.340  -4.619  -0.390  0.00  0.00    -0.263 N 
ATOM     13  C   UNL d   1      -2.386  -5.262  -1.016  0.00  0.00     0.271 C 
ATOM     14  O   UNL d   1      -3.212  -4.647  -1.687  0.00  0.00    -0.266 OA
ATOM     15  H   UNL d   1      -0.668  -5.078   0.228  0.00  0.00     0.190 HD
BRANCH  13  16
ATOM     16  C   UNL d   1      -2.454  -6.754  -0.922  0.00  0.00     0.055 A 
ATOM     17  C   UNL d   1      -1.885  -7.541   0.094  0.00  0.00     0.051 A 
ATOM     18  C   UNL d   1      -1.968  -8.940   0.036  0.00  0.00     0.048 A 
ATOM     19 CL   UNL d   1      -1.099  -6.886   1.488  0.00  0.00    -0.083 Cl
ATOM     20  C   UNL d   1      -2.629  -9.563  -1.019  0.00  0.00     0.035 A 
ATOM     21  C   UNL d   1      -3.228  -8.801  -2.016  0.00  0.00     0.025 A 
ATOM     22 CL   UNL d   1      -2.708 -11.278  -1.087  0.00  0.00    -0.084 Cl
ATOM     23  C   UNL d   1      -3.142  -7.406  -1.966  0.00  0.00     0.020 A 
ENDBRANCH  13  16
ENDBRANCH   9  12
ENDBRANCH   1   8
BRANCH   6  24
ATOM     24  C   UNL d   1       1.404   2.471  -0.019  0.00  0.00     0.240 C 
BRANCH  24  25
ATOM     25  O   UNL d   1       1.842   2.777  -1.345  0.00  0.00    -0.345 OA
BRANCH  25  26
ATOM     26  C   UNL d   1       2.546   3.943  -1.498  0.00  0.00     0.069 A 
ATOM     27  C   UNL d   1       3.355   4.005  -2.631  0.00  0.00     0.037 A 
ATOM     28  C   UNL d   1       4.116   5.150  -2.908  0.00  0.00     0.011 A 
ATOM     29  C   UNL d   1       4.079   6.280  -2.071  0.00  0.00    -0.050 A 
ATOM     30  C   UNL d   1       3.245   6.203  -0.943  0.00  0.00     0.011 A 
ATOM     31  C   UNL d   1       2.488   5.053  -0.660  0.00  0.00     0.037 A 
BRANCH  29  32
ATOM     32  C   UNL d   1       4.921   7.527  -2.403  0.00  0.00    -0.024 C 
ATOM     33  C   UNL d   1       4.726   8.693  -1.407  0.00  0.00     0.019 C 
ATOM     34  C   UNL d   1       6.421   7.162  -2.391  0.00  0.00     0.019 C 
ATOM     35  C   UNL d   1       4.550   8.064  -3.803  0.00  0.00     0.019 C 
ENDBRANCH  29  32
ENDBRANCH  25  26
ENDBRANCH  24  25
ENDBRANCH   6  24
TORSDOF 7
