REMARK  1 active torsions:
REMARK  status: ('A' for Active; 'I' for Inactive)
REMARK    1  A    between atoms: C_2  and  C_1 
REMARK       I    between atoms: N_3  and  C_2 
ROOT
ATOM      1  C   UNL d   1      -1.463  -1.507   0.696  0.00  0.00     0.053 A 
ATOM      2  C   UNL d   1      -1.903  -0.336   1.329  0.00  0.00     0.051 A 
ATOM      3  C   UNL d   1      -0.109  -1.865   0.765  0.00  0.00     0.020 A 
ATOM      4  C   UNL d   1      -0.997   0.452   2.048  0.00  0.00     0.048 A 
ATOM      5  C   UNL d   1       0.341   0.068   2.138  0.00  0.00     0.035 A 
ATOM      6 CL   UNL d   1      -3.551   0.179   1.306  0.00  0.00    -0.083 Cl
ATOM      7  C   UNL d   1       0.789  -1.089   1.505  0.00  0.00     0.025 A 
ATOM      8 CL   UNL d   1       1.450   1.032   3.032  0.00  0.00    -0.084 Cl
ENDROOT
BRANCH   1   9
ATOM      9  C   UNL d   1      -2.359  -2.319  -0.160  0.00  0.00     0.255 C 
ATOM     10  N   UNL d   1      -2.448  -3.698   0.039  0.00  0.00    -0.346 N 
ATOM     11  C   UNL d   1      -3.122  -4.501  -0.990  0.00  0.00     0.136 C 
ATOM     12  C   UNL d   1      -1.918  -4.447   1.189  0.00  0.00     0.136 C 
ATOM     13  C   UNL d   1      -4.330  -5.267  -0.457  0.00  0.00     0.093 C 
ATOM     14  S   UNL d   1      -3.844  -6.444   0.849  0.00  0.00    -0.166 SA
ATOM     15  C   UNL d   1      -2.982  -5.258   1.930  0.00  0.00     0.093 C 
ATOM     16  O   UNL d   1      -2.938  -1.737  -1.075  0.00  0.00    -0.267 OA
ENDBRANCH   1   9
TORSDOF 1
