REMARK  5 active torsions:
REMARK  status: ('A' for Active; 'I' for Inactive)
REMARK    1  A    between atoms: C_8  and  C_1 
REMARK    2  A    between atoms: N_10  and  C_8 
REMARK    3  A    between atoms: O_13  and  C_9 
REMARK    4  A    between atoms: C_14  and  N_10 
REMARK    5  A    between atoms: C_17  and  O_13 
ROOT
ATOM      1  C   UNL d   1       0.028  -0.466  -0.073  0.00  0.00     0.139 C 
ATOM      2  C   UNL d   1       1.184   0.299   0.232  0.00  0.00     0.112 C 
ATOM      3  C   UNL d   1      -1.207   0.201  -0.297  0.00  0.00     0.112 C 
ATOM      4  N   UNL d   1       2.151   0.888   0.486  0.00  0.00    -0.191 NA
ATOM      5  N   UNL d   1      -2.228   0.724  -0.478  0.00  0.00    -0.191 NA
ENDROOT
BRANCH   1   6
ATOM      6  C   UNL d   1       0.076  -1.810  -0.140  0.00  0.00     0.122 C 
BRANCH   6   7
ATOM      7  N   UNL d   1       1.138  -2.655   0.087  0.00  0.00    -0.363 N 
ATOM      8  H   UNL d   1       2.008  -2.238   0.419  0.00  0.00     0.165 HD
BRANCH   7   9
ATOM      9  C   UNL d   1       1.142  -4.057   0.026  0.00  0.00     0.047 A 
ATOM     10  C   UNL d   1       2.021  -4.785   0.830  0.00  0.00     0.119 A 
ATOM     11  N   UNL d   1       2.079  -6.132   0.891  0.00  0.00    -0.344 N 
ATOM     12  C   UNL d   1       1.230  -6.812   0.093  0.00  0.00     0.148 A 
ATOM     13  HN  UNL d   1       2.733  -6.613   1.510  1.00  0.00     0.167 HD
ATOM     14  C   UNL d   1       0.284  -6.200  -0.712  0.00  0.00     0.059 A 
ATOM     15  C   UNL d   1       0.242  -4.805  -0.738  0.00  0.00     0.035 A 
BRANCH  12  16
ATOM     16  O   UNL d   1       1.285  -8.198   0.066  0.00  0.00    -0.293 OA
BRANCH  16  17
ATOM     17  C   UNL d   1       2.513  -8.782   0.260  0.00  0.00     0.093 A 
ATOM     18  C   UNL d   1       2.555  -9.998   0.928  0.00  0.00     0.124 A 
ATOM     19  N   UNL d   1       3.693 -10.697   1.162  0.00  0.00    -0.373 N 
ATOM     20  C   UNL d   1       4.841 -10.149   0.706  0.00  0.00     0.088 A 
ATOM     21  HN  UNL d   1       3.683 -11.590   1.656  1.00  0.00     0.164 HD
ATOM     22  C   UNL d   1       4.902  -8.952   0.012  0.00  0.00     0.020 A 
ATOM     23  C   UNL d   1       3.714  -8.271  -0.231  0.00  0.00     0.040 A 
ENDBRANCH  16  17
ENDBRANCH  12  16
ENDBRANCH   7   9
ENDBRANCH   6   7
ENDBRANCH   1   6
TORSDOF 5
