REMARK  5 active torsions:
REMARK  status: ('A' for Active; 'I' for Inactive)
REMARK    1  A    between atoms: C_5  and  C_1 
REMARK       I    between atoms: N_15  and  C_5 
REMARK    2  A    between atoms: C_17  and  C_6 
REMARK    3  A    between atoms: C_8  and  O_16 
REMARK    4  A    between atoms: N_18  and  N_15 
REMARK    5  A    between atoms: O_16  and  C_17 
ROOT
ATOM      1  C   UNL d   1       0.114  -1.089  -0.317  0.00  0.00     0.126 A 
ATOM      2  N   UNL d   1       0.131  -0.860   1.009  0.00  0.00    -0.256 N 
ATOM      3  HN  UNL d   1       0.508  -1.472   1.733  1.00  0.00     0.195 HD
ATOM      4  C   UNL d   1      -0.479  -0.000  -1.004  0.00  0.00     0.074 A 
ATOM      5  C   UNL d   1      -0.828   0.887  -0.016  0.00  0.00     0.102 A 
ATOM      6  O   UNL d   1      -0.466   0.374   1.190  0.00  0.00    -0.239 OA
ENDROOT
BRANCH   5   7
ATOM      7  C   UNL d   1      -1.475   2.218  -0.007  0.00  0.00     0.242 C 
BRANCH   7   8
ATOM      8  O   UNL d   1      -2.882   1.985   0.024  0.00  0.00    -0.345 OA
BRANCH   8   9
ATOM      9  C   UNL d   1      -3.698   3.082  -0.021  0.00  0.00     0.072 A 
ATOM     10  C   UNL d   1      -3.281   4.413  -0.059  0.00  0.00     0.060 A 
ATOM     11  C   UNL d   1      -4.232   5.437  -0.115  0.00  0.00     0.038 A 
ATOM     12 CL   UNL d   1      -3.708   7.076  -0.169  0.00  0.00    -0.084 Cl
ATOM     13  C   UNL d   1      -5.593   5.150  -0.131  0.00  0.00     0.048 A 
ATOM     14  C   UNL d   1      -6.004   3.822  -0.087  0.00  0.00     0.038 A 
ATOM     15  C   UNL d   1      -5.065   2.792  -0.032  0.00  0.00     0.060 A 
ATOM     16 CL   UNL d   1      -7.683   3.448  -0.107  0.00  0.00    -0.084 Cl
ENDBRANCH   8   9
ENDBRANCH   7   8
ENDBRANCH   5   7
BRANCH   1  17
ATOM     17  C   UNL d   1       0.648  -2.320  -0.899  0.00  0.00     0.284 C 
ATOM     18  O   UNL d   1       0.622  -2.553  -2.107  0.00  0.00    -0.265 OA
ATOM     19  N   UNL d   1       1.182  -3.207   0.032  0.00  0.00    -0.288 N 
ATOM     20  H   UNL d   1       1.243  -2.905   1.006  0.00  0.00     0.183 HD
BRANCH  19  21
ATOM     21  N   UNL d   1       1.786  -4.416  -0.383  0.00  0.00    -0.247 NA
ATOM     22  H   UNL d   1       1.810  -4.406  -1.412  0.00  0.00     0.143 HD
ATOM     23  H   UNL d   1       1.148  -5.182  -0.152  0.00  0.00     0.143 HD
ENDBRANCH  19  21
ENDBRANCH   1  17
TORSDOF 5
