REMARK  4 active torsions:
REMARK  status: ('A' for Active; 'I' for Inactive)
REMARK    1  A    between atoms: C_4  and  C_1 
REMARK       I    between atoms: N_9  and  C_4 
REMARK    2  A    between atoms: N_10  and  N_9 
REMARK    3  A    between atoms: C_15  and  N_10 
REMARK    4  A    between atoms: C_16  and  C_12 
ROOT
ATOM      1  C   UNL d   1       0.578  -1.677  -0.873  0.00  0.00     0.276 C 
ATOM      2  N   UNL d   1       1.140  -2.949  -0.756  0.00  0.00    -0.282 N 
ATOM      3  O   UNL d   1       0.972  -0.763  -0.141  0.00  0.00    -0.266 OA
ATOM      4  H   UNL d   1       0.625  -3.763  -1.074  0.00  0.00     0.184 HD
ENDROOT
BRANCH   2   5
ATOM      5  N   UNL d   1       1.986  -3.155   0.355  0.00  0.00    -0.203 NA
ATOM      6  H   UNL d   1       2.234  -2.251   0.780  0.00  0.00     0.153 HD
BRANCH   5   7
ATOM      7  C   UNL d   1       3.152  -3.918   0.087  0.00  0.00     0.027 A 
ATOM      8  C   UNL d   1       4.300  -3.677   0.857  0.00  0.00     0.026 A 
ATOM      9  C   UNL d   1       5.436  -4.487   0.744  0.00  0.00     0.009 A 
ATOM     10  C   UNL d   1       5.449  -5.587  -0.121  0.00  0.00    -0.055 A 
ATOM     11  C   UNL d   1       4.303  -5.838  -0.886  0.00  0.00     0.009 A 
ATOM     12  C   UNL d   1       3.167  -5.019  -0.776  0.00  0.00     0.026 A 
BRANCH  10  13
ATOM     13  C   UNL d   1       6.651  -6.513  -0.208  0.00  0.00     0.010 C 
ATOM     14  C   UNL d   1       7.899  -5.781  -0.709  0.00  0.00     0.015 C 
ATOM     15  C   UNL d   1       6.930  -7.197   1.135  0.00  0.00     0.015 C 
ENDBRANCH  10  13
ENDBRANCH   5   7
ENDBRANCH   2   5
BRANCH   1  16
ATOM     16  C   UNL d   1      -0.464  -1.506  -1.859  0.00  0.00     0.115 A 
ATOM     17  C   UNL d   1      -1.287  -0.416  -2.122  0.00  0.00     0.046 A 
ATOM     18  N   UNL d   1      -2.162  -0.598  -3.191  0.00  0.00    -0.298 N 
ATOM     19  C   UNL d   1      -1.356   0.897  -1.425  0.00  0.00     0.071 C 
ATOM     20  N   UNL d   1      -2.031  -1.789  -3.745  0.00  0.00    -0.269 N 
ATOM     21  HN  UNL d   1      -2.826   0.108  -3.510  1.00  0.00     0.187 HD
ATOM     22  S   UNL d   1      -0.867  -2.720  -3.003  0.00  0.00     0.009 SA
ATOM     23  HN  UNL d   1      -2.583  -2.105  -4.541  1.00  0.00     0.195 HD
ENDBRANCH   1  16
TORSDOF 4
