REMARK  3 active torsions:
REMARK  status: ('A' for Active; 'I' for Inactive)
REMARK    1  A    between atoms: C_11  and  C_3 
REMARK    2  A    between atoms: C_13  and  C_10 
REMARK       I    between atoms: N_12  and  C_11 
REMARK    3  A    between atoms: C_17  and  N_12 
ROOT
ATOM      1  C   UNL d   1       0.426   0.600   0.101  0.00  0.00     0.172 A 
ATOM      2  N   UNL d   1       0.051  -0.664  -0.229  0.00  0.00    -0.235 N 
ATOM      3  C   UNL d   1      -2.003   0.242  -0.066  0.00  0.00     0.100 A 
ATOM      4  N   UNL d   1       1.724   0.714   0.203  0.00  0.00    -0.319 N 
ATOM      5  HN  UNL d   1       2.284   1.531   0.443  1.00  0.00     0.169 HD
ATOM      6  N   UNL d   1       1.132  -1.435  -0.368  0.00  0.00    -0.276 N 
ATOM      7  HN  UNL d   1       1.184  -2.423  -0.615  1.00  0.00     0.189 HD
ATOM      8  C   UNL d   1      -1.309  -0.887  -0.326  0.00  0.00     0.055 A 
ATOM      9  S   UNL d   1      -0.957   1.635   0.302  0.00  0.00    -0.044 SA
ATOM     10  C   UNL d   1       2.136  -0.580  -0.102  0.00  0.00     0.132 A 
ATOM     11  C   UNL d   1      -1.780  -2.264  -0.652  0.00  0.00     0.072 C 
ENDROOT
BRANCH   3  12
ATOM     12  C   UNL d   1      -3.495   0.313   0.042  0.00  0.00     0.265 C 
ATOM     13  N   UNL d   1      -4.018   1.559   0.328  0.00  0.00    -0.322 N 
ATOM     14  H   UNL d   1      -3.374   2.341   0.337  0.00  0.00     0.169 HD
ATOM     15  O   UNL d   1      -4.155  -0.711  -0.108  0.00  0.00    -0.267 OA
BRANCH  13  16
ATOM     16  C   UNL d   1      -5.334   1.827   0.782  0.00  0.00     0.035 A 
ATOM     17  C   UNL d   1      -6.291   0.836   1.020  0.00  0.00     0.030 A 
ATOM     18  C   UNL d   1      -7.499   1.144   1.653  0.00  0.00     0.009 A 
ATOM     19  C   UNL d   1      -7.777   2.452   2.054  0.00  0.00    -0.062 A 
ATOM     20  C   UNL d   1      -6.872   3.463   1.721  0.00  0.00     0.009 A 
ATOM     21  C   UNL d   1      -9.019   2.743   2.843  0.00  0.00     0.048 C 
ATOM     22  C   UNL d   1      -5.658   3.152   1.093  0.00  0.00     0.030 A 
ENDBRANCH  13  16
ENDBRANCH   3  12
BRANCH  10  23
ATOM     23  C   UNL d   1       3.532  -1.016  -0.135  0.00  0.00     0.009 A 
ATOM     24  C   UNL d   1       4.582  -0.178   0.258  0.00  0.00     0.017 A 
ATOM     25  C   UNL d   1       5.908  -0.642   0.224  0.00  0.00     0.025 A 
ATOM     26  C   UNL d   1       6.185  -1.940  -0.207  0.00  0.00     0.034 A 
ATOM     27  C   UNL d   1       5.155  -2.785  -0.604  0.00  0.00     0.025 A 
ATOM     28 CL   UNL d   1       7.808  -2.506  -0.248  0.00  0.00    -0.084 Cl
ATOM     29  C   UNL d   1       3.837  -2.322  -0.566  0.00  0.00     0.017 A 
ENDBRANCH  10  23
TORSDOF 3
