REMARK  4 active torsions:
REMARK  status: ('A' for Active; 'I' for Inactive)
REMARK    1  A    between atoms: C_11  and  N_1 
REMARK    2  A    between atoms: C_8  and  C_5 
REMARK    3  A    between atoms: S_7  and  C_10 
REMARK    4  A    between atoms: N_15  and  S_7 
ROOT
ATOM      1  N   UNL d   1       0.941  -0.620  -0.044  0.00  0.00    -0.255 N 
ATOM      2  C   UNL d   1      -0.356  -1.107   0.070  0.00  0.00     0.076 C 
ATOM      3  N   UNL d   1       0.966   0.738   0.033  0.00  0.00    -0.289 N 
ATOM      4  HN  UNL d   1       1.784   1.338   0.136  1.00  0.00     0.187 HD
ATOM      5  C   UNL d   1      -0.321   1.120  -0.058  0.00  0.00     0.135 C 
ATOM      6  C   UNL d   1      -1.178  -0.008  -0.086  0.00  0.00     0.069 C 
ATOM      7  C   UNL d   1      -0.733  -2.450   0.429  0.00  0.00     0.033 A 
ATOM      8  S   UNL d   1      -2.133  -3.204  -0.213  0.00  0.00    -0.100 SA
ATOM      9  C   UNL d   1      -0.105  -3.272   1.348  0.00  0.00     0.021 A 
ATOM     10  C   UNL d   1      -1.889  -4.614   0.724  0.00  0.00     0.050 A 
ATOM     11  C   UNL d   1      -0.762  -4.525   1.508  0.00  0.00     0.008 A 
ENDROOT
BRANCH   1  12
ATOM     12  C   UNL d   1       2.163  -1.335  -0.197  0.00  0.00     0.057 A 
ATOM     13  C   UNL d   1       2.192  -2.590  -0.822  0.00  0.00     0.033 A 
ATOM     14  C   UNL d   1       3.390  -3.302  -0.909  0.00  0.00     0.027 A 
ATOM     15  C   UNL d   1       4.557  -2.756  -0.368  0.00  0.00     0.074 A 
ATOM     16  C   UNL d   1       4.550  -1.483   0.208  0.00  0.00     0.027 A 
ATOM     17  C   UNL d   1       3.354  -0.765   0.281  0.00  0.00     0.033 A 
BRANCH  15  18
ATOM     18  S   UNL d   1       6.063  -3.678  -0.446  0.00  0.00     0.239 S 
ATOM     19  O   UNL d   1       5.977  -4.641  -1.519  0.00  0.00    -0.206 OA
ATOM     20  O   UNL d   1       7.183  -2.776  -0.298  0.00  0.00    -0.206 OA
BRANCH  18  21
ATOM     21  N   UNL d   1       5.990  -4.562   0.979  0.00  0.00    -0.225 NA
ATOM     22  H   UNL d   1       5.959  -5.559   0.766  0.00  0.00     0.136 HD
ATOM     23  H   UNL d   1       6.761  -4.294   1.591  0.00  0.00     0.136 HD
ENDBRANCH  18  21
ENDBRANCH  15  18
ENDBRANCH   1  12
BRANCH   5  24
ATOM     24  C   UNL d   1      -0.758   2.561  -0.046  0.00  0.00     0.434 C 
ATOM     25  F   UNL d   1       0.266   3.443   0.091  0.00  0.00    -0.165 F 
ATOM     26  F   UNL d   1      -1.416   2.894  -1.189  0.00  0.00    -0.165 F 
ATOM     27  F   UNL d   1      -1.622   2.806   0.978  0.00  0.00    -0.165 F 
ENDBRANCH   5  24
TORSDOF 4
