REMARK  5 active torsions:
REMARK  status: ('A' for Active; 'I' for Inactive)
REMARK    1  A    between atoms: S_12  and  C_2 
REMARK    2  A    between atoms: C_6  and  C_4 
REMARK       I    between atoms: N_11  and  C_6 
REMARK    3  A    between atoms: N_7  and  N_11 
REMARK    4  A    between atoms: O_18  and  C_9 
REMARK    5  A    between atoms: C_10  and  C_15 
ROOT
ATOM      1  C   UNL d   1       2.453   2.164  -0.108  0.00  0.00     0.277 C 
ATOM      2  N   UNL d   1       3.847   2.099  -0.111  0.00  0.00    -0.266 N 
ATOM      3  O   UNL d   1       1.825   3.221  -0.146  0.00  0.00    -0.265 OA
ATOM      4  H   UNL d   1       4.260   1.189   0.071  0.00  0.00     0.190 HD
ENDROOT
BRANCH   1   5
ATOM      5  C   UNL d   1       1.773   0.857  -0.049  0.00  0.00     0.082 A 
ATOM      6  C   UNL d   1       0.407   0.597  -0.056  0.00  0.00    -0.025 A 
ATOM      7  C   UNL d   1       0.103  -0.827  -0.095  0.00  0.00     0.002 A 
ATOM      8  C   UNL d   1      -0.679   1.643  -0.080  0.00  0.00     0.041 C 
ATOM      9  C   UNL d   1       1.256  -1.589   0.013  0.00  0.00     0.051 A 
ATOM     10  C   UNL d   1      -1.323  -1.317  -0.203  0.00  0.00     0.153 C 
ATOM     11  S   UNL d   1       2.658  -0.604   0.035  0.00  0.00    -0.076 SA
ATOM     12  C   UNL d   1      -2.327  -0.201  -0.522  0.00  0.00     0.037 C 
ATOM     13  C   UNL d   1      -2.046   1.063   0.283  0.00  0.00     0.007 C 
BRANCH   9  14
ATOM     14  S   UNL d   1       1.482  -3.339   0.042  0.00  0.00    -0.126 SA
ATOM     15  C   UNL d   1       0.119  -3.962   1.043  0.00  0.00     0.096 C 
ENDBRANCH   9  14
BRANCH  10  16
ATOM     16  O   UNL d   1      -1.474  -2.312  -1.214  0.00  0.00    -0.391 OA
ATOM     17  H   UNL d   1      -0.959  -2.014  -1.984  0.00  0.00     0.210 HD
ENDBRANCH  10  16
ENDBRANCH   1   5
BRANCH   2  18
ATOM     18  N   UNL d   1       4.755   3.127  -0.087  0.00  0.00    -0.308 N 
ATOM     19  C   UNL d   1       4.437   4.297  -0.550  0.00  0.00     0.120 C 
ATOM     20  HN  UNL d   1       5.688   2.970   0.296  1.00  0.00     0.186 HD
BRANCH  19  21
ATOM     21  C   UNL d   1       5.422   5.413  -0.536  0.00  0.00     0.002 A 
ATOM     22  C   UNL d   1       5.131   6.671  -1.085  0.00  0.00     0.045 A 
ATOM     23 CL   UNL d   1       3.589   7.076  -1.750  0.00  0.00    -0.083 Cl
ATOM     24  C   UNL d   1       6.115   7.667  -1.115  0.00  0.00     0.024 A 
ATOM     25  C   UNL d   1       7.386   7.425  -0.588  0.00  0.00     0.002 A 
ATOM     26  C   UNL d   1       7.671   6.188  -0.018  0.00  0.00     0.001 A 
ATOM     27  C   UNL d   1       6.696   5.188   0.010  0.00  0.00     0.014 A 
ENDBRANCH  19  21
ENDBRANCH   2  18
TORSDOF 5
