REMARK  2 active torsions:
REMARK  status: ('A' for Active; 'I' for Inactive)
REMARK    1  A    between atoms: C_2  and  S_1 
REMARK    2  A    between atoms: C_4  and  S_1 
ROOT
ATOM      1  N   UNL d   1       4.071   0.322   1.636  0.00  0.00    -0.196 NA
ATOM      2  C   UNL d   1       2.094   1.378   0.293  0.00  0.00     0.269 C 
ATOM      3  C   UNL d   1       3.191   0.769   1.029  0.00  0.00     0.074 C 
ENDROOT
BRANCH   2   4
ATOM      4  S   UNL d   1       0.876   0.131   0.006  0.00  0.00     0.190 S 
ATOM      5  O   UNL d   1      -0.307   0.779  -0.533  0.00  0.00    -0.222 OA
ATOM      6  O   UNL d   1       1.502  -0.940  -0.750  0.00  0.00    -0.222 OA
BRANCH   4   7
ATOM      7  C   UNL d   1       0.419  -0.526   1.578  0.00  0.00     0.098 A 
ATOM      8  C   UNL d   1      -0.147   0.317   2.527  0.00  0.00     0.137 A 
ATOM      9  F   UNL d   1      -0.300   1.624   2.280  0.00  0.00    -0.205 F 
ATOM     10  C   UNL d   1      -0.548  -0.186   3.762  0.00  0.00     0.044 A 
ATOM     11  C   UNL d   1      -0.377  -1.542   4.047  0.00  0.00     0.003 A 
ATOM     12  C   UNL d   1       0.191  -2.390   3.093  0.00  0.00     0.002 A 
ATOM     13  C   UNL d   1       0.587  -1.886   1.853  0.00  0.00     0.027 A 
ENDBRANCH   4   7
ENDBRANCH   2   4
TORSDOF 2
