REMARK  6 active torsions:
REMARK  status: ('A' for Active; 'I' for Inactive)
REMARK    1  A    between atoms: O_16  and  C_1 
REMARK    2  A    between atoms: O_18  and  C_2 
REMARK    3  A    between atoms: O_17  and  C_3 
REMARK       I    between atoms: C_6  and  N_13 
REMARK    4  A    between atoms: C_9  and  C_6 
REMARK    5  A    between atoms: N_13  and  N_7 
REMARK    6  A    between atoms: C_15  and  C_12 
ROOT
ATOM      1  N   UNL d   1      -7.925   1.262   0.029  0.00  0.00    -0.197 NA
ATOM      2  C   UNL d   1      -7.433   2.267  -0.286  0.00  0.00     0.068 C 
ATOM      3  C   UNL d   1      -6.746   3.494  -0.671  0.00  0.00     0.228 C 
ENDROOT
BRANCH   3   4
ATOM      4  C   UNL d   1      -5.229   3.385  -0.669  0.00  0.00     0.249 C 
ATOM      5  N   UNL d   1      -4.673   2.170  -0.277  0.00  0.00    -0.270 N 
ATOM      6  H   UNL d   1      -5.246   1.370  -0.021  0.00  0.00     0.190 HD
ATOM      7  O   UNL d   1      -4.562   4.365  -1.010  0.00  0.00    -0.271 OA
BRANCH   5   8
ATOM      8  N   UNL d   1      -3.308   2.013  -0.291  0.00  0.00    -0.308 N 
ATOM      9  C   UNL d   1      -2.867   0.839   0.034  0.00  0.00     0.118 C 
ATOM     10  HN  UNL d   1      -2.679   2.775  -0.543  1.00  0.00     0.186 HD
BRANCH   9  11
ATOM     11  C   UNL d   1      -1.418   0.509   0.030  0.00  0.00    -0.014 A 
ATOM     12  C   UNL d   1      -0.458   1.485  -0.219  0.00  0.00     0.052 A 
ATOM     13  C   UNL d   1       0.912   1.170  -0.232  0.00  0.00     0.105 A 
ATOM     14  C   UNL d   1       1.323  -0.165  -0.042  0.00  0.00     0.135 A 
ATOM     15  C   UNL d   1       0.345  -1.155   0.214  0.00  0.00     0.105 A 
ATOM     16  C   UNL d   1      -1.014  -0.803   0.282  0.00  0.00     0.052 A 
BRANCH  13  17
ATOM     17  O   UNL d   1       1.680   2.286  -0.442  0.00  0.00    -0.353 OA
ATOM     18  C   UNL d   1       3.093   2.196  -0.366  0.00  0.00     0.210 C 
ENDBRANCH  13  17
BRANCH  14  19
ATOM     19  O   UNL d   1       2.667  -0.439   0.035  0.00  0.00    -0.351 OA
ATOM     20  C   UNL d   1       3.163  -1.485  -0.796  0.00  0.00     0.210 C 
ENDBRANCH  14  19
BRANCH  15  21
ATOM     21  O   UNL d   1       0.766  -2.424   0.530  0.00  0.00    -0.353 OA
ATOM     22  C   UNL d   1      -0.002  -3.510   0.011  0.00  0.00     0.210 C 
ENDBRANCH  15  21
ENDBRANCH   9  11
ENDBRANCH   5   8
ENDBRANCH   3   4
TORSDOF 6
