REMARK  6 active torsions:
REMARK  status: ('A' for Active; 'I' for Inactive)
REMARK    1  A    between atoms: C_5  and  C_1 
REMARK    2  A    between atoms: C_6  and  C_1 
REMARK    3  A    between atoms: N_7  and  N_2 
REMARK    4  A    between atoms: C_4  and  O_8 
REMARK    5  A    between atoms: C_14  and  N_7 
REMARK    6  A    between atoms: O_8  and  C_15 
ROOT
ATOM      1  C   UNL d   1       0.296  -2.419   2.443  0.00  0.00     0.048 A 
ATOM      2  C   UNL d   1      -0.978  -4.539   3.796  0.00  0.00     0.078 A 
ATOM      3  C   UNL d   1      -0.621  -3.242   1.783  0.00  0.00     0.034 A 
ATOM      4  C   UNL d   1       0.616  -2.709   3.772  0.00  0.00     0.034 A 
ATOM      5  C   UNL d   1      -0.024  -3.752   4.445  0.00  0.00     0.039 A 
ATOM      6  C   UNL d   1      -1.238  -4.312   2.447  0.00  0.00     0.039 A 
ENDROOT
BRANCH   1   7
ATOM      7  N   UNL d   1       0.935  -1.325   1.823  0.00  0.00    -0.300 N 
ATOM      8  H   UNL d   1       1.944  -1.482   1.721  0.00  0.00     0.187 HD
BRANCH   7   9
ATOM      9  N   UNL d   1       0.272  -0.702   0.813  0.00  0.00    -0.294 N 
ATOM     10  C   UNL d   1       0.915   0.211   0.137  0.00  0.00     0.139 C 
ATOM     11  HN  UNL d   1      -0.694  -0.939   0.591  1.00  0.00     0.187 HD
BRANCH  10  12
ATOM     12  C   UNL d   1       0.109   0.951  -0.909  0.00  0.00     0.177 C 
ATOM     13  O   UNL d   1       0.704   1.426  -1.869  0.00  0.00    -0.291 OA
ATOM     14  C   UNL d   1      -1.363   1.137  -0.667  0.00  0.00     0.098 C 
ENDBRANCH  10  12
BRANCH  10  15
ATOM     15  C   UNL d   1       2.387   0.526   0.376  0.00  0.00     0.177 C 
ATOM     16  O   UNL d   1       3.157  -0.385   0.665  0.00  0.00    -0.291 OA
ATOM     17  C   UNL d   1       2.829   1.956   0.267  0.00  0.00     0.098 C 
ENDBRANCH  10  15
ENDBRANCH   7   9
ENDBRANCH   1   7
BRANCH   2  18
ATOM     18  O   UNL d   1      -1.517  -5.525   4.562  0.00  0.00    -0.255 OA
BRANCH  18  19
ATOM     19  C   UNL d   1      -2.861  -5.930   4.342  0.00  0.00     0.530 C 
ATOM     20  F   UNL d   1      -3.514  -5.226   3.396  0.00  0.00    -0.144 F 
ATOM     21  F   UNL d   1      -2.875  -7.236   3.997  0.00  0.00    -0.144 F 
ATOM     22  F   UNL d   1      -3.545  -5.798   5.502  0.00  0.00    -0.144 F 
ENDBRANCH  18  19
ENDBRANCH   2  18
TORSDOF 6
