REMARK  3 active torsions:
REMARK  status: ('A' for Active; 'I' for Inactive)
REMARK    1  A    between atoms: C_8  and  C_1 
REMARK    2  A    between atoms: C_7  and  C_2 
REMARK    3  A    between atoms: O_9  and  C_8 
ROOT
ATOM      1  C   UNL d   1       0.067  -1.310  -0.016  0.00  0.00     0.026 A 
ATOM      2  C   UNL d   1      -1.261  -0.917  -0.012  0.00  0.00     0.119 A 
ATOM      3  O   UNL d   1      -1.311   0.447  -0.038  0.00  0.00    -0.236 OA
ATOM      4  N   UNL d   1      -0.037   0.971  -0.043  0.00  0.00    -0.265 N 
ATOM      5  HN  UNL d   1       0.224   1.957  -0.058  1.00  0.00     0.194 HD
ATOM      6  C   UNL d   1       0.785  -0.081  -0.024  0.00  0.00     0.040 A 
ATOM      7  C   UNL d   1       2.253   0.129   0.002  0.00  0.00     0.071 C 
ENDROOT
BRANCH   2   8
ATOM      8  C   UNL d   1      -2.561  -1.586   0.030  0.00  0.00     0.000 A 
ATOM      9  C   UNL d   1      -3.684  -0.931   0.565  0.00  0.00     0.014 A 
ATOM     10  C   UNL d   1      -4.922  -1.573   0.650  0.00  0.00     0.001 A 
ATOM     11  C   UNL d   1      -5.060  -2.882   0.197  0.00  0.00     0.000 A 
ATOM     12  C   UNL d   1      -3.964  -3.542  -0.350  0.00  0.00     0.001 A 
ATOM     13  C   UNL d   1      -2.725  -2.898  -0.434  0.00  0.00     0.014 A 
ENDBRANCH   2   8
BRANCH   1  14
ATOM     14  C   UNL d   1       0.645  -2.674   0.006  0.00  0.00     0.207 C 
BRANCH  14  15
ATOM     15  O   UNL d   1       0.211  -3.431   1.128  0.00  0.00    -0.396 OA
ATOM     16  H   UNL d   1       0.371  -2.889   1.919  0.00  0.00     0.209 HD
ENDBRANCH  14  15
ENDBRANCH   1  14
TORSDOF 3
