REMARK  6 active torsions:
REMARK  status: ('A' for Active; 'I' for Inactive)
REMARK    1  A    between atoms: N_2  and  S_1 
REMARK    2  A    between atoms: C_5  and  S_1 
REMARK       I    between atoms: C_3  and  N_6 
REMARK    3  A    between atoms: C_9  and  C_3 
REMARK    4  A    between atoms: C_4  and  O_10 
REMARK    5  A    between atoms: N_6  and  C_17 
REMARK    6  A    between atoms: O_10  and  C_23 
ROOT
ATOM      1  C   UNL d   1       0.928   1.237  -1.094  0.00  0.00     0.074 A 
ATOM      2  C   UNL d   1       0.085   0.915  -2.162  0.00  0.00     0.027 A 
ATOM      3  C   UNL d   1       1.339   2.555  -0.899  0.00  0.00     0.027 A 
ATOM      4  C   UNL d   1       0.001   3.271  -2.797  0.00  0.00     0.035 A 
ATOM      5  C   UNL d   1       0.875   3.565  -1.748  0.00  0.00     0.031 A 
ATOM      6  C   UNL d   1      -0.369   1.933  -3.011  0.00  0.00     0.031 A 
ENDROOT
BRANCH   4   7
ATOM      7  N   UNL d   1      -0.558   4.248  -3.650  0.00  0.00    -0.323 N 
ATOM      8  C   UNL d   1      -0.378   5.621  -3.578  0.00  0.00     0.256 C 
ATOM      9  O   UNL d   1       0.333   6.229  -2.785  0.00  0.00    -0.267 OA
ATOM     10  H   UNL d   1      -1.140   3.896  -4.395  0.00  0.00     0.169 HD
BRANCH   8  11
ATOM     11  C   UNL d   1      -1.094   6.413  -4.619  0.00  0.00     0.032 A 
ATOM     12  C   UNL d   1      -2.345   6.040  -5.129  0.00  0.00     0.020 A 
ATOM     13  C   UNL d   1      -2.944   6.786  -6.155  0.00  0.00     0.038 A 
ATOM     14  C   UNL d   1      -2.322   7.935  -6.645  0.00  0.00     0.078 A 
ATOM     15  C   UNL d   1      -1.084   8.314  -6.117  0.00  0.00     0.038 A 
ATOM     16  C   UNL d   1      -0.477   7.570  -5.105  0.00  0.00     0.020 A 
BRANCH  14  17
ATOM     17  O   UNL d   1      -2.776   8.762  -7.625  0.00  0.00    -0.255 OA
BRANCH  17  18
ATOM     18  C   UNL d   1      -4.146   8.771  -7.988  0.00  0.00     0.530 C 
ATOM     19  F   UNL d   1      -4.965   8.308  -7.021  0.00  0.00    -0.144 F 
ATOM     20  F   UNL d   1      -4.504  10.048  -8.252  0.00  0.00    -0.144 F 
ATOM     21  F   UNL d   1      -4.327   8.041  -9.108  0.00  0.00    -0.144 F 
ENDBRANCH  17  18
ENDBRANCH  14  17
ENDBRANCH   8  11
ENDBRANCH   4   7
BRANCH   1  22
ATOM     22  S   UNL d   1       1.397   0.012   0.105  0.00  0.00     0.243 S 
ATOM     23  O   UNL d   1       1.003   0.529   1.397  0.00  0.00    -0.206 OA
ATOM     24  O   UNL d   1       0.928  -1.280  -0.359  0.00  0.00    -0.206 OA
BRANCH  22  25
ATOM     25  N   UNL d   1       3.091   0.019   0.012  0.00  0.00    -0.202 NA
ATOM     26  C   UNL d   1       3.705  -0.630  -1.186  0.00  0.00     0.134 C 
ATOM     27  C   UNL d   1       3.887  -2.140  -0.973  0.00  0.00     0.183 C 
ATOM     28  O   UNL d   1       4.662  -2.405   0.205  0.00  0.00    -0.389 OA
ATOM     29  C   UNL d   1       4.005  -1.879   1.367  0.00  0.00     0.183 C 
ATOM     30  C   UNL d   1       3.825  -0.363   1.257  0.00  0.00     0.134 C 
ENDBRANCH  22  25
ENDBRANCH   1  22
TORSDOF 6
