REMARK  7 active torsions:
REMARK  status: ('A' for Active; 'I' for Inactive)
REMARK    1  A    between atoms: N_2  and  S_1 
REMARK    2  A    between atoms: C_4  and  S_1 
REMARK    3  A    between atoms: C_3  and  N_7 
REMARK    4  A    between atoms: N_9  and  C_3 
REMARK    5  A    between atoms: N_7  and  C_14 
REMARK    6  A    between atoms: C_15  and  N_9 
REMARK    7  A    between atoms: C_20  and  C_15 
ROOT
ATOM      1  C   UNL d   1       0.460  -1.470  -0.373  0.00  0.00     0.074 A 
ATOM      2  C   UNL d   1       1.358  -2.502  -0.104  0.00  0.00     0.027 A 
ATOM      3  C   UNL d   1      -0.813  -1.768  -0.869  0.00  0.00     0.027 A 
ATOM      4  C   UNL d   1      -0.266  -4.135  -0.910  0.00  0.00     0.034 A 
ATOM      5  C   UNL d   1      -1.163  -3.096  -1.156  0.00  0.00     0.031 A 
ATOM      6  C   UNL d   1       0.986  -3.824  -0.355  0.00  0.00     0.031 A 
ENDROOT
BRANCH   4   7
ATOM      7  N   UNL d   1      -0.472  -5.498  -1.199  0.00  0.00    -0.333 N 
ATOM      8  H   UNL d   1       0.202  -6.114  -0.764  0.00  0.00     0.168 HD
BRANCH   7   9
ATOM      9  C   UNL d   1      -1.370  -6.170  -1.989  0.00  0.00     0.172 C 
ATOM     10  S   UNL d   1      -2.803  -5.666  -2.672  0.00  0.00    -0.041 SA
BRANCH   9  11
ATOM     11  N   UNL d   1      -0.971  -7.454  -2.300  0.00  0.00    -0.363 N 
ATOM     12  H   UNL d   1      -1.642  -7.926  -2.897  0.00  0.00     0.162 HD
BRANCH  11  13
ATOM     13  C   UNL d   1       0.416  -7.855  -2.500  0.00  0.00     0.160 C 
BRANCH  13  14
ATOM     14  C   UNL d   1       1.063  -8.450  -1.278  0.00  0.00    -0.038 A 
ATOM     15  C   UNL d   1       0.342  -9.215  -0.356  0.00  0.00     0.025 A 
ATOM     16  C   UNL d   1       1.014  -9.768   0.722  0.00  0.00     0.088 A 
ATOM     17  N   UNL d   1       2.338  -9.623   0.937  0.00  0.00    -0.375 N 
ATOM     18  C   UNL d   1       3.023  -8.896   0.032  0.00  0.00     0.088 A 
ATOM     19  HN  UNL d   1       2.798 -10.042   1.745  1.00  0.00     0.164 HD
ATOM     20  C   UNL d   1       2.440  -8.299  -1.076  0.00  0.00     0.025 A 
ENDBRANCH  13  14
ENDBRANCH  11  13
ENDBRANCH   9  11
ENDBRANCH   7   9
ENDBRANCH   4   7
BRANCH   1  21
ATOM     21  S   UNL d   1       0.881   0.188   0.101  0.00  0.00     0.243 S 
ATOM     22  O   UNL d   1      -0.343   0.913   0.356  0.00  0.00    -0.206 OA
ATOM     23  O   UNL d   1       1.906   0.088   1.127  0.00  0.00    -0.206 OA
BRANCH  21  24
ATOM     24  N   UNL d   1       1.613   0.869  -1.309  0.00  0.00    -0.206 NA
ATOM     25  C   UNL d   1       0.637   1.141  -2.409  0.00  0.00     0.107 C 
ATOM     26  C   UNL d   1       1.351   1.671  -3.650  0.00  0.00     0.015 C 
ATOM     27  C   UNL d   1       2.158   2.922  -3.328  0.00  0.00     0.002 C 
ATOM     28  C   UNL d   1       3.134   2.632  -2.197  0.00  0.00     0.015 C 
ATOM     29  C   UNL d   1       2.411   2.091  -0.968  0.00  0.00     0.107 C 
ENDBRANCH  21  24
ENDBRANCH   1  21
TORSDOF 7
