REMARK  2 active torsions:
REMARK  status: ('A' for Active; 'I' for Inactive)
REMARK    1  A    between atoms: C_2  and  S_1 
REMARK    2  A    between atoms: N_3  and  S_1 
ROOT
ATOM      1  S   UNL d   1       1.367  -0.175  -0.327  0.00  0.00     0.262 S 
ATOM      2  O   UNL d   1       2.152  -0.093   0.886  0.00  0.00    -0.200 OA
ATOM      3  O   UNL d   1       2.022  -0.288  -1.612  0.00  0.00    -0.200 OA
ENDROOT
BRANCH   1   4
ATOM      4  C   UNL d   1       0.354   1.285  -0.406  0.00  0.00     0.103 A 
ATOM      5  C   UNL d   1       0.560   2.286   0.559  0.00  0.00     0.052 A 
ATOM      6  C   UNL d   1      -0.109   3.509   0.460  0.00  0.00     0.057 A 
ATOM      7 CL   UNL d   1       0.207   4.700   1.668  0.00  0.00    -0.083 Cl
ATOM      8  C   UNL d   1      -0.984   3.737  -0.607  0.00  0.00     0.057 A 
ATOM      9  C   UNL d   1      -1.202   2.732  -1.555  0.00  0.00     0.051 A 
ATOM     10 CL   UNL d   1      -1.815   5.236  -0.819  0.00  0.00    -0.082 Cl
ATOM     11  C   UNL d   1      -0.536   1.503  -1.460  0.00  0.00     0.059 A 
ATOM     12 CL   UNL d   1      -0.898   0.335  -2.678  0.00  0.00    -0.083 Cl
ENDBRANCH   1   4
BRANCH   1  13
ATOM     13  N   UNL d   1       0.252  -1.449  -0.131  0.00  0.00    -0.302 N 
ATOM     14  C   UNL d   1      -0.450  -1.558   1.184  0.00  0.00     0.092 C 
ATOM     15  C   UNL d   1      -1.865  -2.099   0.967  0.00  0.00     0.033 C 
ATOM     16  C   UNL d   1       0.351  -2.417   2.173  0.00  0.00     0.026 C 
ATOM     17  C   UNL d   1       0.762  -3.767   1.593  0.00  0.00     0.004 C 
ATOM     18  C   UNL d   1       1.486  -3.582   0.265  0.00  0.00     0.021 C 
ATOM     19  C   UNL d   1       0.662  -2.757  -0.714  0.00  0.00     0.136 C 
ENDBRANCH   1  13
TORSDOF 2
