REMARK  0 active torsions:
REMARK  status: ('A' for Active; 'I' for Inactive)
ROOT
ATOM      1  C   UNL d   1      -0.197   0.580   0.011  0.00  0.00     0.178 A 
ATOM      2  C   UNL d   1      -0.232  -0.795   0.008  0.00  0.00     0.046 A 
ATOM      3  C   UNL d   1       1.038  -1.435   0.006  0.00  0.00    -0.040 A 
ATOM      4  O   UNL d   1       0.833   1.409   0.013  0.00  0.00    -0.256 OA
ATOM      5  N   UNL d   1      -1.486   1.005   0.011  0.00  0.00    -0.279 N 
ATOM      6  N   UNL d   1      -2.369  -0.006   0.008  0.00  0.00    -0.302 N 
ATOM      7  HN  UNL d   1      -3.388   0.056   0.007  1.00  0.00     0.186 HD
ATOM      8  C   UNL d   1       2.064   0.822   0.011  0.00  0.00     0.290 A 
ATOM      9  C   UNL d   1       2.143  -0.664   0.007  0.00  0.00     0.090 A 
ATOM     10  C   UNL d   1      -1.613  -1.121   0.006  0.00  0.00     0.037 A 
ATOM     11  O   UNL d   1       3.099   1.480   0.014  0.00  0.00    -0.260 OA
ATOM     12  C   UNL d   1       1.161  -2.922   0.003  0.00  0.00     0.049 C 
ATOM     13  C   UNL d   1      -2.339  -2.416   0.002  0.00  0.00     0.070 C 
ATOM     14  H   UNL d   1      -1.831   1.958   0.011  0.00  0.00     0.189 HD
ENDROOT
TORSDOF 0
