REMARK  3 active torsions:
REMARK  status: ('A' for Active; 'I' for Inactive)
REMARK    1  A    between atoms: C_3  and  C_1 
REMARK    2  A    between atoms: C_5  and  C_2 
REMARK    3  A    between atoms: O_13  and  C_3 
ROOT
ATOM      1  C   UNL d   1      -0.716  -0.282   1.172  0.00  0.00     0.118 C 
ATOM      2  C   UNL d   1       0.432  -0.862   0.768  0.00  0.00     0.042 C 
ATOM      3  C   UNL d   1      -1.418  -0.708   2.328  0.00  0.00     0.106 C 
ATOM      4  N   UNL d   1      -2.042  -1.008   3.257  0.00  0.00    -0.191 NA
ENDROOT
BRANCH   1   5
ATOM      5  C   UNL d   1      -1.240   0.835   0.346  0.00  0.00     0.187 C 
ATOM      6  O   UNL d   1      -0.712   1.197  -0.696  0.00  0.00    -0.645 OA
BRANCH   5   7
ATOM      7  O   UNL d   1      -2.359   1.435   0.808  0.00  0.00    -0.772 OA
ATOM      8  H   UNL d   1      -2.748   1.136   1.653  0.00  0.00     0.167 HD
ENDBRANCH   5   7
ENDBRANCH   1   5
BRANCH   2   9
ATOM      9  C   UNL d   1       1.083  -1.980   1.465  0.00  0.00    -0.013 A 
ATOM     10  C   UNL d   1       2.064  -1.789   2.454  0.00  0.00     0.045 A 
ATOM     11  C   UNL d   1       2.646  -2.883   3.098  0.00  0.00     0.048 A 
ATOM     12 CL   UNL d   1       2.579  -0.206   2.920  0.00  0.00    -0.083 Cl
ATOM     13  C   UNL d   1       2.244  -4.173   2.759  0.00  0.00     0.035 A 
ATOM     14  C   UNL d   1       1.267  -4.380   1.788  0.00  0.00     0.024 A 
ATOM     15 CL   UNL d   1       2.962  -5.524   3.544  0.00  0.00    -0.084 Cl
ATOM     16  C   UNL d   1       0.688  -3.286   1.139  0.00  0.00     0.015 A 
ENDBRANCH   2   9
TORSDOF 3
