REMARK  9 active torsions:
REMARK  status: ('A' for Active; 'I' for Inactive)
REMARK    1  A    between atoms: C_2  and  S_1 
REMARK    2  A    between atoms: N_5  and  S_1 
REMARK    3  A    between atoms: S_3  and  C_13 
REMARK    4  A    between atoms: C_16  and  S_3 
REMARK    5  A    between atoms: N_8  and  N_5 
REMARK       I    between atoms: C_9  and  N_8 
REMARK    6  A    between atoms: C_20  and  C_9 
REMARK    7  A    between atoms: C_13  and  C_21 
REMARK    8  A    between atoms: S_19  and  C_20 
REMARK    9  A    between atoms: C_21  and  S_19 
ROOT
ATOM      1  N   UNL d   1       0.920  -1.842  -3.979  0.00  0.00    -0.260 N 
ATOM      2  C   UNL d   1       0.502  -0.529  -4.079  0.00  0.00     0.245 C 
ATOM      3  O   UNL d   1      -0.105   0.040  -3.168  0.00  0.00    -0.271 OA
ATOM      4  H   UNL d   1       1.366  -2.344  -4.746  0.00  0.00     0.190 HD
ENDROOT
BRANCH   2   5
ATOM      5  C   UNL d   1       0.957   0.188  -5.331  0.00  0.00     0.178 C 
BRANCH   5   6
ATOM      6  S   UNL d   1       0.381  -0.676  -6.830  0.00  0.00    -0.159 SA
BRANCH   6   7
ATOM      7  C   UNL d   1       1.102   0.406  -8.121  0.00  0.00     0.089 C 
BRANCH   7   8
ATOM      8  C   UNL d   1       2.617   0.383  -8.064  0.00  0.00     0.156 C 
BRANCH   8   9
ATOM      9  S   UNL d   1       3.328   1.383  -9.346  0.00  0.00     0.176 S 
ATOM     10  O   UNL d   1       2.952   0.824 -10.628  0.00  0.00    -0.223 OA
ATOM     11  O   UNL d   1       3.063   2.774  -9.027  0.00  0.00    -0.223 OA
BRANCH   9  12
ATOM     12  C   UNL d   1       5.070   1.101  -9.121  0.00  0.00     0.059 A 
ATOM     13  C   UNL d   1       5.694   0.067  -9.825  0.00  0.00     0.023 A 
ATOM     14  C   UNL d   1       7.060  -0.154  -9.649  0.00  0.00     0.002 A 
ATOM     15  C   UNL d   1       7.793   0.655  -8.780  0.00  0.00     0.000 A 
ATOM     16  C   UNL d   1       7.165   1.690  -8.084  0.00  0.00     0.002 A 
ATOM     17  C   UNL d   1       5.800   1.920  -8.254  0.00  0.00     0.023 A 
ENDBRANCH   9  12
ENDBRANCH   8   9
ENDBRANCH   7   8
ENDBRANCH   6   7
ENDBRANCH   5   6
ENDBRANCH   2   5
BRANCH   1  18
ATOM     18  N   UNL d   1       0.603  -2.552  -2.770  0.00  0.00    -0.220 N 
ATOM     19  H   UNL d   1       0.123  -2.046  -2.019  0.00  0.00     0.200 HD
BRANCH  18  20
ATOM     20  S   UNL d   1       1.054  -4.152  -2.546  0.00  0.00     0.282 S 
ATOM     21  O   UNL d   1       0.344  -4.954  -3.520  0.00  0.00    -0.198 OA
ATOM     22  O   UNL d   1       2.494  -4.212  -2.425  0.00  0.00    -0.198 OA
BRANCH  20  23
ATOM     23  C   UNL d   1       0.395  -4.638  -0.973  0.00  0.00     0.123 A 
ATOM     24  S   UNL d   1       0.939  -3.733   0.378  0.00  0.00    -0.064 SA
ATOM     25  C   UNL d   1      -0.067  -4.601   1.423  0.00  0.00     0.075 A 
ATOM     26 CL   UNL d   1      -0.091  -4.215   3.096  0.00  0.00    -0.076 Cl
ATOM     27  C   UNL d   1      -0.809  -5.567   0.796  0.00  0.00     0.033 A 
ATOM     28  C   UNL d   1      -0.535  -5.594  -0.604  0.00  0.00     0.035 A 
ENDBRANCH  20  23
ENDBRANCH  18  20
ENDBRANCH   1  18
TORSDOF 9
