REMARK  6 active torsions:
REMARK  status: ('A' for Active; 'I' for Inactive)
REMARK    1  A    between atoms: C_7  and  C_1 
REMARK    2  A    between atoms: C_10  and  C_2 
REMARK    3  A    between atoms: O_18  and  C_7 
REMARK    4  A    between atoms: O_12  and  N_8 
REMARK    5  A    between atoms: C_11  and  O_12 
REMARK    6  A    between atoms: C_13  and  C_11 
ROOT
ATOM      1  N   UNL d   1      -0.681  -3.556   0.282  0.00  0.00    -0.261 N 
ATOM      2  HN  UNL d   1      -0.432  -4.541   0.373  1.00  0.00     0.194 HD
ATOM      3  C   UNL d   1       0.190  -2.615   0.071  0.00  0.00     0.044 C 
ATOM      4  C   UNL d   1      -0.201  -1.159  -0.033  0.00  0.00     0.071 C 
ENDROOT
BRANCH   3   5
ATOM      5  C   UNL d   1       1.595  -3.037  -0.041  0.00  0.00     0.054 A 
ATOM      6  C   UNL d   1       2.812  -2.272  -0.209  0.00  0.00     0.144 A 
ATOM      7  N   UNL d   1       3.874  -3.090  -0.318  0.00  0.00    -0.254 N 
ATOM      8  O   UNL d   1       3.402  -4.364  -0.199  0.00  0.00    -0.241 OA
ATOM      9  HN  UNL d   1       4.845  -2.811  -0.461  1.00  0.00     0.195 HD
ATOM     10  C   UNL d   1       2.057  -4.349  -0.037  0.00  0.00     0.087 A 
ATOM     11  C   UNL d   1       1.473  -5.704   0.083  0.00  0.00     0.080 C 
BRANCH   6  12
ATOM     12  C   UNL d   1       3.045  -0.826  -0.259  0.00  0.00     0.312 C 
ATOM     13  O   UNL d   1       2.315   0.007   0.264  0.00  0.00    -0.258 OA
BRANCH  12  14
ATOM     14  O   UNL d   1       4.168  -0.495  -0.970  0.00  0.00    -0.321 OA
ATOM     15  C   UNL d   1       4.424   0.905  -1.069  0.00  0.00     0.213 C 
ENDBRANCH  12  14
ENDBRANCH   6  12
ENDBRANCH   3   5
BRANCH   1  16
ATOM     16  O   UNL d   1      -2.007  -3.080   0.373  0.00  0.00    -0.195 OA
BRANCH  16  17
ATOM     17  C   UNL d   1      -2.810  -4.022   0.950  0.00  0.00     0.315 C 
ATOM     18  O   UNL d   1      -2.461  -5.098   1.420  0.00  0.00    -0.257 OA
BRANCH  17  19
ATOM     19  C   UNL d   1      -4.234  -3.572   0.955  0.00  0.00     0.041 A 
ATOM     20  C   UNL d   1      -5.181  -4.415   1.551  0.00  0.00     0.018 A 
ATOM     21  C   UNL d   1      -6.537  -4.075   1.556  0.00  0.00     0.007 A 
ATOM     22  C   UNL d   1      -6.970  -2.882   0.968  0.00  0.00    -0.062 A 
ATOM     23  C   UNL d   1      -6.024  -2.030   0.384  0.00  0.00     0.007 A 
ATOM     24  C   UNL d   1      -8.434  -2.550   0.944  0.00  0.00     0.048 C 
ATOM     25  C   UNL d   1      -4.664  -2.369   0.377  0.00  0.00     0.018 A 
ENDBRANCH  17  19
ENDBRANCH  16  17
ENDBRANCH   1  16
TORSDOF 6
