REMARK  3 active torsions:
REMARK  status: ('A' for Active; 'I' for Inactive)
REMARK    1  A    between atoms: C_4  and  C_1 
REMARK    2  A    between atoms: S_7  and  C_1 
REMARK    3  A    between atoms: C_14  and  S_7 
ROOT
ATOM      1  N   UNL d   1      -0.626  -5.213  -1.086  0.00  0.00    -0.359 N 
ATOM      2  HN  UNL d   1      -1.339  -5.542  -1.736  1.00  0.00     0.166 HD
ATOM      3  C   UNL d   1       0.482  -1.267  -0.147  0.00  0.00     0.023 A 
ATOM      4  C   UNL d   1       0.172  -5.983  -0.382  0.00  0.00     0.139 A 
ATOM      5  C   UNL d   1       0.667  -3.668   0.126  0.00  0.00     0.033 A 
ATOM      6  S   UNL d   1       1.258  -5.190   0.678  0.00  0.00    -0.083 SA
ATOM      7  C   UNL d   1       1.086  -2.376   0.478  0.00  0.00     0.037 A 
ATOM      8  C   UNL d   1      -0.348  -3.885  -0.808  0.00  0.00     0.049 A 
ATOM      9  C   UNL d   1      -0.554  -1.470  -1.067  0.00  0.00     0.018 A 
ATOM     10  C   UNL d   1      -0.977  -2.767  -1.391  0.00  0.00     0.032 A 
ENDROOT
BRANCH   3  11
ATOM     11  C   UNL d   1       1.068   0.075   0.154  0.00  0.00     0.224 C 
ATOM     12  O   UNL d   1       2.210   0.118   0.601  0.00  0.00    -0.279 OA
BRANCH  11  13
ATOM     13  S   UNL d   1       0.129   1.503  -0.223  0.00  0.00    -0.048 SA
BRANCH  13  14
ATOM     14  C   UNL d   1       0.667   2.833   0.843  0.00  0.00     0.008 A 
ATOM     15  C   UNL d   1       1.783   2.820   1.685  0.00  0.00     0.019 A 
ATOM     16  C   UNL d   1       2.099   3.923   2.487  0.00  0.00     0.001 A 
ATOM     17  C   UNL d   1       1.305   5.064   2.457  0.00  0.00     0.000 A 
ATOM     18  C   UNL d   1       0.198   5.106   1.616  0.00  0.00     0.001 A 
ATOM     19  C   UNL d   1      -0.115   4.001   0.817  0.00  0.00     0.019 A 
ENDBRANCH  13  14
ENDBRANCH  11  13
ENDBRANCH   3  11
TORSDOF 3
