REMARK  4 active torsions:
REMARK  status: ('A' for Active; 'I' for Inactive)
REMARK    1  A    between atoms: C_7  and  C_1 
REMARK    2  A    between atoms: C_3  and  C_2 
REMARK       I    between atoms: N_10  and  C_3 
REMARK    3  A    between atoms: N_6  and  C_8 
REMARK    4  A    between atoms: C_12  and  N_10 
ROOT
ATOM      1  C   UNL d   1      -1.519  -0.448   0.536  0.00  0.00     0.086 A 
ATOM      2  C   UNL d   1      -0.238  -1.036   0.297  0.00  0.00     0.093 A 
ATOM      3  N   UNL d   1      -1.387   0.880   0.710  0.00  0.00    -0.259 N 
ATOM      4  HN  UNL d   1      -2.125   1.536   0.965  1.00  0.00     0.195 HD
ATOM      5  O   UNL d   1      -0.068   1.182   0.480  0.00  0.00    -0.241 OA
ATOM      6  C   UNL d   1       0.620   0.044   0.222  0.00  0.00     0.090 A 
ATOM      7  C   UNL d   1       2.054   0.222  -0.080  0.00  0.00     0.080 C 
ENDROOT
BRANCH   2   8
ATOM      8  C   UNL d   1       0.150  -2.421   0.156  0.00  0.00     0.261 C 
ATOM      9  N   UNL d   1       1.193  -2.757   1.006  0.00  0.00    -0.321 N 
ATOM     10  H   UNL d   1       1.306  -2.138   1.800  0.00  0.00     0.169 HD
ATOM     11  O   UNL d   1      -0.461  -3.212  -0.553  0.00  0.00    -0.267 OA
BRANCH   9  12
ATOM     12  C   UNL d   1       1.807  -4.026   1.101  0.00  0.00     0.068 A 
ATOM     13  C   UNL d   1       2.074  -4.916   0.047  0.00  0.00     0.129 A 
ATOM     14  C   UNL d   1       2.638  -6.183   0.299  0.00  0.00     0.038 A 
ATOM     15  C   UNL d   1       2.959  -6.557   1.603  0.00  0.00     0.003 A 
ATOM     16  C   UNL d   1       2.750  -5.663   2.648  0.00  0.00     0.002 A 
ATOM     17  C   UNL d   1       2.191  -4.406   2.398  0.00  0.00     0.032 A 
BRANCH  13  18
ATOM     18  N   UNL d   1       2.000  -4.506  -1.352  0.00  0.00    -0.113 N 
ATOM     19  O   UNL d   1       2.407  -3.369  -1.636  0.00  0.00    -0.532 OA
ATOM     20  O   UNL d   1       1.640  -5.359  -2.178  0.00  0.00    -0.532 OA
ENDBRANCH  13  18
ENDBRANCH   9  12
ENDBRANCH   2   8
BRANCH   1  21
ATOM     21  C   UNL d   1      -2.845  -1.055   0.681  0.00  0.00     0.037 A 
ATOM     22  C   UNL d   1      -3.113  -2.037   1.654  0.00  0.00     0.048 A 
ATOM     23 CL   UNL d   1      -1.907  -2.643   2.743  0.00  0.00    -0.083 Cl
ATOM     24  C   UNL d   1      -4.412  -2.536   1.836  0.00  0.00     0.025 A 
ATOM     25  C   UNL d   1      -5.471  -2.048   1.077  0.00  0.00     0.003 A 
ATOM     26  C   UNL d   1      -5.230  -1.077   0.112  0.00  0.00     0.025 A 
ATOM     27  C   UNL d   1      -3.930  -0.594  -0.098  0.00  0.00     0.048 A 
ATOM     28 CL   UNL d   1      -3.754   0.576  -1.367  0.00  0.00    -0.083 Cl
ENDBRANCH   1  21
TORSDOF 4
