REMARK  4 active torsions:
REMARK  status: ('A' for Active; 'I' for Inactive)
REMARK    1  A    between atoms: N_9  and  C_1 
REMARK    2  A    between atoms: C_10  and  C_2 
REMARK       I    between atoms: C_7  and  N_9 
REMARK       I    between atoms: N_11  and  C_7 
REMARK    3  A    between atoms: C_8  and  C_12 
REMARK    4  A    between atoms: C_21  and  N_11 
ROOT
ATOM      1  C   UNL d   1      -0.251  -1.280  -0.586  0.00  0.00     0.097 A 
ATOM      2  C   UNL d   1      -1.604  -1.057  -0.433  0.00  0.00     0.137 A 
ATOM      3  O   UNL d   1      -1.899   0.209  -0.823  0.00  0.00    -0.235 OA
ATOM      4  N   UNL d   1      -0.753   0.823  -1.294  0.00  0.00    -0.263 N 
ATOM      5  HN  UNL d   1      -0.674   1.771  -1.662  1.00  0.00     0.194 HD
ATOM      6  C   UNL d   1       0.233  -0.079  -1.171  0.00  0.00     0.058 A 
ATOM      7  C   UNL d   1       1.601   0.309  -1.589  0.00  0.00     0.072 C 
ENDROOT
BRANCH   1   8
ATOM      8  N   UNL d   1       0.336  -2.468  -0.199  0.00  0.00    -0.304 N 
ATOM      9  C   UNL d   1       1.382  -3.177  -0.709  0.00  0.00     0.325 C 
ATOM     10  N   UNL d   1       1.768  -2.876  -1.979  0.00  0.00    -0.309 N 
ATOM     11  O   UNL d   1       1.810  -4.093  -0.010  0.00  0.00    -0.247 OA
ATOM     12  H   UNL d   1       1.238  -2.165  -2.457  0.00  0.00     0.170 HD
ATOM     13  H   UNL d   1      -0.105  -2.959   0.573  0.00  0.00     0.171 HD
BRANCH  10  14
ATOM     14  C   UNL d   1       2.820  -3.469  -2.705  0.00  0.00     0.036 A 
ATOM     15  C   UNL d   1       3.540  -4.578  -2.259  0.00  0.00     0.030 A 
ATOM     16  C   UNL d   1       4.667  -5.020  -2.955  0.00  0.00     0.009 A 
ATOM     17  C   UNL d   1       5.090  -4.358  -4.109  0.00  0.00    -0.062 A 
ATOM     18  C   UNL d   1       4.320  -3.303  -4.606  0.00  0.00     0.009 A 
ATOM     19  C   UNL d   1       6.391  -4.743  -4.747  0.00  0.00     0.048 C 
ATOM     20  C   UNL d   1       3.182  -2.872  -3.917  0.00  0.00     0.030 A 
ENDBRANCH  10  14
ENDBRANCH   1   8
BRANCH   2  21
ATOM     21  C   UNL d   1      -2.731  -1.935  -0.157  0.00  0.00     0.002 A 
ATOM     22  C   UNL d   1      -3.832  -1.528   0.600  0.00  0.00     0.015 A 
ATOM     23  C   UNL d   1      -4.928  -2.385   0.766  0.00  0.00     0.017 A 
ATOM     24  C   UNL d   1      -4.940  -3.659   0.175  0.00  0.00     0.048 A 
ATOM     25  C   UNL d   1      -3.825  -4.074  -0.561  0.00  0.00     0.017 A 
ATOM     26  C   UNL d   1      -2.737  -3.221  -0.725  0.00  0.00     0.015 A 
BRANCH  24  27
ATOM     27  C   UNL d   1      -6.133  -4.576   0.278  0.00  0.00     0.417 C 
ATOM     28  F   UNL d   1      -7.128  -4.096   1.072  0.00  0.00    -0.166 F 
ATOM     29  F   UNL d   1      -6.704  -4.813  -0.937  0.00  0.00    -0.166 F 
ATOM     30  F   UNL d   1      -5.808  -5.800   0.780  0.00  0.00    -0.166 F 
ENDBRANCH  24  27
ENDBRANCH   2  21
TORSDOF 4
