REMARK  6 active torsions:
REMARK  status: ('A' for Active; 'I' for Inactive)
REMARK    1  A    between atoms: C_2  and  S_1 
REMARK    2  A    between atoms: C_9  and  S_1 
REMARK    3  A    between atoms: C_3  and  C_2 
REMARK       I    between atoms: N_7  and  C_3 
REMARK    4  A    between atoms: C_4  and  C_8 
REMARK    5  A    between atoms: O_15  and  C_4 
REMARK    6  A    between atoms: C_14  and  N_7 
ROOT
ATOM      1  C   UNL d   1       0.616  -2.761   0.434  0.00  0.00     0.236 C 
ATOM      2  N   UNL d   1       1.073  -2.611  -0.861  0.00  0.00    -0.326 N 
ATOM      3  O   UNL d   1       0.547  -3.849   1.015  0.00  0.00    -0.272 OA
ATOM      4  H   UNL d   1       1.082  -1.676  -1.263  0.00  0.00     0.169 HD
ENDROOT
BRANCH   2   5
ATOM      5  C   UNL d   1       1.573  -3.636  -1.712  0.00  0.00     0.034 A 
ATOM      6  C   UNL d   1       1.678  -4.985  -1.355  0.00  0.00     0.030 A 
ATOM      7  C   UNL d   1       2.242  -5.938  -2.227  0.00  0.00     0.020 A 
ATOM      8  C   UNL d   1       2.716  -5.557  -3.486  0.00  0.00     0.037 A 
ATOM      9  C   UNL d   1       2.582  -4.210  -3.856  0.00  0.00     0.020 A 
ATOM     10  C   UNL d   1       2.017  -3.265  -2.985  0.00  0.00     0.030 A 
BRANCH   8  11
ATOM     11  C   UNL d   1       3.360  -6.477  -4.476  0.00  0.00     0.176 C 
ATOM     12  O   UNL d   1       3.729  -6.088  -5.571  0.00  0.00    -0.646 OA
BRANCH  11  13
ATOM     13  O   UNL d   1       3.529  -7.760  -4.092  0.00  0.00    -0.773 OA
ATOM     14  H   UNL d   1       3.239  -8.009  -3.201  0.00  0.00     0.167 HD
ENDBRANCH  11  13
ENDBRANCH   8  11
ENDBRANCH   2   5
BRANCH   1  15
ATOM     15  C   UNL d   1       0.279  -1.549   1.261  0.00  0.00     0.243 C 
BRANCH  15  16
ATOM     16  S   UNL d   1      -0.142  -0.071   0.410  0.00  0.00     0.156 S 
ATOM     17  O   UNL d   1      -1.312  -0.333  -0.406  0.00  0.00    -0.227 OA
ATOM     18  O   UNL d   1       1.079   0.407  -0.215  0.00  0.00    -0.227 OA
BRANCH  16  19
ATOM     19  C   UNL d   1      -0.601   1.085   1.734  0.00  0.00     0.101 C 
ATOM     20  C   UNL d   1      -0.840   2.486   1.176  0.00  0.00     0.026 C 
ATOM     21  C   UNL d   1      -1.838   0.618   2.500  0.00  0.00     0.026 C 
ENDBRANCH  16  19
ENDBRANCH  15  16
ENDBRANCH   1  15
TORSDOF 6
