REMARK  4 active torsions:
REMARK  status: ('A' for Active; 'I' for Inactive)
REMARK    1  A    between atoms: C_9  and  C_1 
REMARK       I    between atoms: C_5  and  N_8 
REMARK    2  A    between atoms: C_10  and  C_5 
REMARK    3  A    between atoms: N_8  and  C_11 
REMARK    4  A    between atoms: O_19  and  C_16 
ROOT
ATOM      1  C   UNL d   1      -3.769  -0.109  -0.245  0.00  0.00     0.010 A 
ATOM      2  C   UNL d   1      -5.733  -0.786   1.039  0.00  0.00     0.035 A 
ATOM      3  C   UNL d   1      -4.371  -0.887   0.756  0.00  0.00     0.044 A 
ATOM      4  C   UNL d   1      -4.585   0.706  -1.037  0.00  0.00     0.015 A 
ATOM      5  C   UNL d   1      -5.960   0.771  -0.806  0.00  0.00     0.003 A 
ATOM      6  C   UNL d   1      -6.529   0.039   0.239  0.00  0.00     0.029 A 
ENDROOT
BRANCH   2   7
ATOM      7  N   UNL d   1      -6.340  -1.414   2.151  0.00  0.00    -0.323 N 
ATOM      8  C   UNL d   1      -5.706  -2.172   3.124  0.00  0.00     0.256 C 
ATOM      9  O   UNL d   1      -4.538  -2.550   3.114  0.00  0.00    -0.267 OA
ATOM     10  H   UNL d   1      -7.300  -1.148   2.317  0.00  0.00     0.169 HD
BRANCH   8  11
ATOM     11  C   UNL d   1      -6.527  -2.482   4.330  0.00  0.00     0.032 A 
ATOM     12  C   UNL d   1      -7.915  -2.656   4.271  0.00  0.00     0.020 A 
ATOM     13  C   UNL d   1      -8.644  -2.868   5.447  0.00  0.00     0.038 A 
ATOM     14  C   UNL d   1      -7.991  -2.915   6.679  0.00  0.00     0.068 A 
ATOM     15  C   UNL d   1      -6.601  -2.805   6.730  0.00  0.00     0.038 A 
ATOM     16  C   UNL d   1      -5.872  -2.584   5.562  0.00  0.00     0.020 A 
BRANCH  14  17
ATOM     17  O   UNL d   1      -8.609  -3.104   7.884  0.00  0.00    -0.356 OA
ATOM     18  C   UNL d   1      -9.924  -2.563   7.978  0.00  0.00     0.210 C 
ENDBRANCH  14  17
ENDBRANCH   8  11
ENDBRANCH   2   7
BRANCH   1  19
ATOM     19  C   UNL d   1      -2.309  -0.060  -0.396  0.00  0.00     0.116 A 
ATOM     20  N   UNL d   1      -1.633   0.686  -1.254  0.00  0.00    -0.340 N 
ATOM     21  C   UNL d   1      -0.308   0.559  -0.908  0.00  0.00     0.060 A 
ATOM     22  HN  UNL d   1      -2.016   1.243  -2.017  1.00  0.00     0.167 HD
ATOM     23  C   UNL d   1       0.828   1.184  -1.441  0.00  0.00     0.032 A 
ATOM     24  C   UNL d   1      -0.157  -0.318   0.157  0.00  0.00     0.060 A 
ATOM     25  C   UNL d   1       2.077   0.909  -0.866  0.00  0.00     0.002 A 
ATOM     26  C   UNL d   1       2.193   0.023   0.209  0.00  0.00     0.002 A 
ATOM     27  C   UNL d   1       1.073  -0.619   0.745  0.00  0.00     0.032 A 
ATOM     28  N   UNL d   1      -1.432  -0.728   0.434  0.00  0.00    -0.340 N 
ATOM     29  H   UNL d   1      -1.688  -1.349   1.185  0.00  0.00     0.167 HD
ENDBRANCH   1  19
TORSDOF 4
