REMARK  7 active torsions:
REMARK  status: ('A' for Active; 'I' for Inactive)
REMARK    1  A    between atoms: C_2  and  C_1 
REMARK       I    between atoms: N_5  and  C_2 
REMARK    2  A    between atoms: C_3  and  O_6 
REMARK    3  A    between atoms: N_10  and  C_3 
REMARK    4  A    between atoms: O_6  and  C_4 
REMARK    5  A    between atoms: C_7  and  N_5 
REMARK    6  A    between atoms: C_23  and  N_10 
REMARK    7  A    between atoms: C_24  and  N_10 
ROOT
ATOM      1  C   UNL d   1       2.427  -1.782  -0.295  0.00  0.00     0.067 C 
ATOM      2  C   UNL d   1       3.046  -0.949   0.662  0.00  0.00     0.094 C 
ATOM      3  C   UNL d   1       1.117  -1.477  -0.671  0.00  0.00     0.039 C 
ATOM      4  C   UNL d   1       2.507   0.282   1.036  0.00  0.00     0.040 C 
ATOM      5  C   UNL d   1       0.519  -0.297  -0.210  0.00  0.00     0.012 C 
ATOM      6  C   UNL d   1       1.238   0.621   0.561  0.00  0.00     0.022 C 
ATOM      7 BR   UNL d   1      -1.298   0.046  -0.619  0.00  0.00    -0.051 Br
ENDROOT
BRANCH   1   8
ATOM      8  C   UNL d   1       3.258  -2.845  -0.951  0.00  0.00     0.259 C 
ATOM      9  N   UNL d   1       2.596  -3.800  -1.700  0.00  0.00    -0.320 N 
ATOM     10  H   UNL d   1       1.584  -3.804  -1.649  0.00  0.00     0.169 HD
ATOM     11  O   UNL d   1       4.479  -2.782  -0.816  0.00  0.00    -0.267 OA
BRANCH   9  12
ATOM     12  C   UNL d   1       3.160  -4.854  -2.460  0.00  0.00     0.074 A 
ATOM     13  C   UNL d   1       4.523  -5.057  -2.756  0.00  0.00     0.146 A 
ATOM     14  C   UNL d   1       4.949  -6.174  -3.472  0.00  0.00     0.086 A 
ATOM     15  F   UNL d   1       5.477  -4.186  -2.412  0.00  0.00    -0.204 F 
ATOM     16  C   UNL d   1       4.017  -7.096  -3.923  0.00  0.00     0.119 A 
ATOM     17  C   UNL d   1       2.665  -6.905  -3.686  0.00  0.00     0.044 A 
ATOM     18  F   UNL d   1       4.424  -8.177  -4.599  0.00  0.00    -0.206 F 
ATOM     19  C   UNL d   1       2.240  -5.788  -2.966  0.00  0.00     0.036 A 
ENDBRANCH   9  12
ENDBRANCH   1   8
BRANCH   2  20
ATOM     20  O   UNL d   1       4.034  -1.608   1.513  0.00  0.00    -0.283 OA
BRANCH  20  21
ATOM     21  C   UNL d   1       5.185  -1.453   2.314  0.00  0.00     0.217 C 
ATOM     22  S   UNL d   1       6.018  -0.010   2.234  0.00  0.00    -0.033 SA
BRANCH  21  23
ATOM     23  N   UNL d   1       5.486  -2.588   3.096  0.00  0.00    -0.353 N 
BRANCH  23  24
ATOM     24  C   UNL d   1       6.789  -2.699   3.783  0.00  0.00     0.121 C 
ATOM     25  C   UNL d   1       7.068  -3.944   4.622  0.00  0.00     0.026 C 
ENDBRANCH  23  24
BRANCH  23  26
ATOM     26  C   UNL d   1       4.555  -3.725   3.132  0.00  0.00     0.121 C 
ATOM     27  C   UNL d   1       4.839  -4.790   2.085  0.00  0.00     0.026 C 
ENDBRANCH  23  26
ENDBRANCH  21  23
ENDBRANCH  20  21
ENDBRANCH   2  20
TORSDOF 7
