REMARK  5 active torsions:
REMARK  status: ('A' for Active; 'I' for Inactive)
REMARK    1  A    between atoms: C_5  and  C_1 
REMARK    2  A    between atoms: C_2  and  C_4 
REMARK    3  A    between atoms: C_3  and  C_7 
REMARK    4  A    between atoms: C_7  and  S_10 
REMARK    5  A    between atoms: S_10  and  C_13 
ROOT
ATOM      1  C   UNL d   1      -0.411  -2.129   2.670  0.00  0.00     0.050 A 
ATOM      2  C   UNL d   1       0.550  -1.063   0.699  0.00  0.00     0.050 A 
ATOM      3  C   UNL d   1      -0.203  -0.989   1.882  0.00  0.00     0.032 A 
ATOM      4  C   UNL d   1       1.084  -2.304   0.300  0.00  0.00     0.034 A 
ATOM      5  C   UNL d   1       0.132  -3.353   2.246  0.00  0.00     0.034 A 
ATOM      6  C   UNL d   1       0.884  -3.455   1.066  0.00  0.00     0.002 A 
ENDROOT
BRANCH   6   7
ATOM      7  S   UNL d   1       1.653  -5.032   0.735  0.00  0.00    -0.125 SA
BRANCH   7   8
ATOM      8  C   UNL d   1       1.751  -5.108  -1.093  0.00  0.00     0.121 C 
BRANCH   8   9
ATOM      9  C   UNL d   1       2.478  -6.364  -1.529  0.00  0.00    -0.005 A 
ATOM     10  C   UNL d   1       1.798  -7.588  -1.683  0.00  0.00     0.042 A 
ATOM     11 CL   UNL d   1       0.088  -7.727  -1.449  0.00  0.00    -0.084 Cl
ATOM     12  C   UNL d   1       2.481  -8.760  -2.035  0.00  0.00     0.024 A 
ATOM     13  C   UNL d   1       3.857  -8.738  -2.239  0.00  0.00     0.003 A 
ATOM     14  C   UNL d   1       4.550  -7.541  -2.093  0.00  0.00     0.024 A 
ATOM     15  C   UNL d   1       3.873  -6.369  -1.739  0.00  0.00     0.042 A 
ATOM     16 CL   UNL d   1       4.835  -4.939  -1.571  0.00  0.00    -0.084 Cl
ENDBRANCH   8   9
ENDBRANCH   7   8
ENDBRANCH   6   7
BRANCH   1  17
ATOM     17  C   UNL d   1      -1.172  -2.056   3.973  0.00  0.00     0.417 C 
ATOM     18  F   UNL d   1      -1.544  -0.790   4.312  0.00  0.00    -0.166 F 
ATOM     19  F   UNL d   1      -2.317  -2.790   3.951  0.00  0.00    -0.166 F 
ATOM     20  F   UNL d   1      -0.445  -2.523   5.025  0.00  0.00    -0.166 F 
ENDBRANCH   1  17
BRANCH   2  21
ATOM     21  C   UNL d   1       0.826   0.173  -0.126  0.00  0.00     0.417 C 
ATOM     22  F   UNL d   1       0.341   1.317   0.430  0.00  0.00    -0.166 F 
ATOM     23  F   UNL d   1       0.281   0.099  -1.370  0.00  0.00    -0.166 F 
ATOM     24  F   UNL d   1       2.158   0.384  -0.311  0.00  0.00    -0.166 F 
ENDBRANCH   2  21
TORSDOF 5
