REMARK  6 active torsions:
REMARK  status: ('A' for Active; 'I' for Inactive)
REMARK    1  A    between atoms: C_2  and  C_1 
REMARK    2  A    between atoms: O_16  and  C_2 
REMARK    3  A    between atoms: N_11  and  C_3 
REMARK    4  A    between atoms: O_17  and  C_5 
REMARK    5  A    between atoms: C_10  and  N_11 
REMARK    6  A    between atoms: C_20  and  O_16 
ROOT
ATOM      1  C   UNL d   1      -0.902   0.852  -0.953  0.00  0.00     0.135 C 
ATOM      2  C   UNL d   1      -1.618  -0.077  -0.270  0.00  0.00     0.117 C 
ATOM      3  C   UNL d   1      -1.529   1.794  -1.895  0.00  0.00     0.107 C 
ATOM      4  N   UNL d   1      -2.035   2.536  -2.630  0.00  0.00    -0.191 NA
ENDROOT
BRANCH   1   5
ATOM      5  C   UNL d   1       0.565   0.932  -0.622  0.00  0.00     0.305 C 
ATOM      6  O   UNL d   1       1.145   0.223   0.195  0.00  0.00    -0.258 OA
BRANCH   5   7
ATOM      7  O   UNL d   1       1.121   1.977  -1.279  0.00  0.00    -0.317 OA
BRANCH   7   8
ATOM      8  C   UNL d   1       2.359   2.442  -0.723  0.00  0.00     0.174 C 
ATOM      9  C   UNL d   1       2.023   3.450   0.361  0.00  0.00     0.034 C 
ENDBRANCH   7   8
ENDBRANCH   5   7
ENDBRANCH   1   5
BRANCH   2  10
ATOM     10  N   UNL d   1      -1.201  -0.938   0.730  0.00  0.00    -0.364 N 
ATOM     11  H   UNL d   1      -0.216  -0.858   1.001  0.00  0.00     0.165 HD
BRANCH  10  12
ATOM     12  C   UNL d   1      -1.880  -2.025   1.302  0.00  0.00     0.035 A 
ATOM     13  C   UNL d   1      -1.529  -2.431   2.594  0.00  0.00     0.068 A 
ATOM     14  C   UNL d   1      -2.206  -3.478   3.237  0.00  0.00     0.097 A 
ATOM     15  C   UNL d   1      -3.249  -4.164   2.587  0.00  0.00     0.076 A 
ATOM     16  C   UNL d   1      -3.603  -3.741   1.286  0.00  0.00    -0.004 A 
ATOM     17  N   UNL d   1      -3.897  -5.199   3.174  0.00  0.00    -0.363 N 
ATOM     18  C   UNL d   1      -2.940  -2.670   0.671  0.00  0.00     0.043 A 
ATOM     19  C   UNL d   1      -4.628  -4.416   0.610  0.00  0.00     0.015 A 
ATOM     20  C   UNL d   1      -5.273  -5.482   1.218  0.00  0.00     0.018 A 
ATOM     21  C   UNL d   1      -4.877  -5.830   2.492  0.00  0.00     0.088 A 
ATOM     22  HN  UNL d   1      -3.648  -5.497   4.117  1.00  0.00     0.165 HD
BRANCH  14  23
ATOM     23  O   UNL d   1      -1.911  -3.904   4.515  0.00  0.00    -0.354 OA
ATOM     24  C   UNL d   1      -0.888  -3.224   5.229  0.00  0.00     0.210 C 
ENDBRANCH  14  23
ENDBRANCH  10  12
ENDBRANCH   2  10
TORSDOF 6
