REMARK  8 active torsions:
REMARK  status: ('A' for Active; 'I' for Inactive)
REMARK    1  A    between atoms: C_9  and  C_1 
REMARK    2  A    between atoms: O_10  and  C_2 
REMARK    3  A    between atoms: O_11  and  C_3 
REMARK    4  A    between atoms: O_13  and  C_6 
REMARK    5  A    between atoms: O_12  and  N_7 
REMARK    6  A    between atoms: C_14  and  O_10 
REMARK    7  A    between atoms: C_15  and  O_11 
REMARK    8  A    between atoms: C_16  and  O_13 
ROOT
ATOM      1  C   UNL d   1       1.619  -0.330   0.229  0.00  0.00     0.048 A 
ATOM      2  C   UNL d   1       0.724  -1.416   0.117  0.00  0.00     0.085 A 
ATOM      3  C   UNL d   1       1.135   0.976  -0.007  0.00  0.00     0.085 A 
ATOM      4  C   UNL d   1      -0.644  -1.182  -0.108  0.00  0.00     0.074 A 
ATOM      5  C   UNL d   1      -0.234   1.178  -0.227  0.00  0.00     0.074 A 
ATOM      6  C   UNL d   1      -1.135   0.112  -0.257  0.00  0.00     0.074 A 
ENDROOT
BRANCH   1   7
ATOM      7  C   UNL d   1       3.007  -0.521   0.681  0.00  0.00     0.130 C 
ATOM      8  N   UNL d   1       3.367  -1.410   1.553  0.00  0.00    -0.280 N 
ATOM      9  HN  UNL d   1       2.740  -2.044   2.049  1.00  0.00     0.193 HD
BRANCH   8  10
ATOM     10  O   UNL d   1       4.759  -1.355   1.700  0.00  0.00    -0.290 OA
ATOM     11  H   UNL d   1       4.935  -2.111   2.292  0.00  0.00     0.244 HD
ENDBRANCH   8  10
ENDBRANCH   1   7
BRANCH   2  12
ATOM     12  O   UNL d   1       1.006  -2.754   0.271  0.00  0.00    -0.350 OA
BRANCH  12  13
ATOM     13  C   UNL d   1       2.148  -3.254  -0.428  0.00  0.00     0.171 C 
ATOM     14  C   UNL d   1       1.800  -4.608  -1.022  0.00  0.00     0.034 C 
ENDBRANCH  12  13
ENDBRANCH   2  12
BRANCH   3  15
ATOM     15  O   UNL d   1       1.843   2.147   0.110  0.00  0.00    -0.350 OA
BRANCH  15  16
ATOM     16  C   UNL d   1       3.033   2.265  -0.671  0.00  0.00     0.171 C 
ATOM     17  C   UNL d   1       3.106   3.650  -1.290  0.00  0.00     0.034 C 
ENDBRANCH  15  16
ENDBRANCH   3  15
BRANCH   6  18
ATOM     18  O   UNL d   1      -2.449   0.458  -0.428  0.00  0.00    -0.351 OA
BRANCH  18  19
ATOM     19  C   UNL d   1      -3.417  -0.586  -0.296  0.00  0.00     0.171 C 
ATOM     20  C   UNL d   1      -4.804   0.031  -0.327  0.00  0.00     0.034 C 
ENDBRANCH  18  19
ENDBRANCH   6  18
TORSDOF 8
