REMARK  6 active torsions:
REMARK  status: ('A' for Active; 'I' for Inactive)
REMARK    1  A    between atoms: C_2  and  S_1 
REMARK    2  A    between atoms: C_6  and  S_1 
REMARK    3  A    between atoms: C_3  and  O_13 
REMARK    4  A    between atoms: C_7  and  C_3 
REMARK    5  A    between atoms: C_16  and  C_6 
REMARK    6  A    between atoms: O_13  and  C_16 
ROOT
ATOM      1  C   UNL d   1       0.300  -0.851  -1.569  0.00  0.00     0.174 C 
ENDROOT
BRANCH   1   2
ATOM      2  S   UNL d   1       0.734  -0.007  -0.067  0.00  0.00     0.194 S 
ATOM      3  O   UNL d   1       2.178  -0.090   0.070  0.00  0.00    -0.221 OA
ATOM      4  O   UNL d   1       0.051   1.275  -0.068  0.00  0.00    -0.221 OA
BRANCH   2   5
ATOM      5  C   UNL d   1       0.022  -0.985   1.234  0.00  0.00     0.150 A 
ATOM      6  N   UNL d   1      -0.648  -2.086   0.783  0.00  0.00    -0.355 N 
ATOM      7  C   UNL d   1      -1.219  -2.866   1.724  0.00  0.00     0.089 A 
ATOM      8  HN  UNL d   1      -0.714  -2.307  -0.211  1.00  0.00     0.166 HD
ATOM      9  C   UNL d   1      -1.147  -2.602   3.083  0.00  0.00     0.019 A 
ATOM     10  C   UNL d   1      -0.448  -1.470   3.506  0.00  0.00     0.028 A 
ATOM     11  C   UNL d   1       0.156  -0.631   2.568  0.00  0.00     0.072 A 
ATOM     12 CL   UNL d   1       1.005   0.750   3.136  0.00  0.00    -0.081 Cl
ENDBRANCH   2   5
ENDBRANCH   1   2
BRANCH   1  13
ATOM     13  C   UNL d   1       0.833  -0.108  -2.779  0.00  0.00     0.194 C 
BRANCH  13  14
ATOM     14  O   UNL d   1       0.523  -0.819  -3.999  0.00  0.00    -0.317 OA
BRANCH  14  15
ATOM     15  C   UNL d   1      -0.728  -0.619  -4.487  0.00  0.00     0.293 C 
ATOM     16  O   UNL d   1      -1.598   0.044  -3.943  0.00  0.00    -0.259 OA
BRANCH  15  17
ATOM     17  C   UNL d   1      -0.933  -1.312  -5.789  0.00  0.00     0.041 A 
ATOM     18  C   UNL d   1       0.069  -2.063  -6.415  0.00  0.00     0.041 A 
ATOM     19  C   UNL d   1      -0.192  -2.667  -7.648  0.00  0.00     0.035 A 
ATOM     20 CL   UNL d   1       1.041  -3.579  -8.430  0.00  0.00    -0.084 Cl
ATOM     21  C   UNL d   1      -1.439  -2.537  -8.259  0.00  0.00     0.024 A 
ATOM     22  C   UNL d   1      -2.441  -1.797  -7.637  0.00  0.00     0.003 A 
ATOM     23  C   UNL d   1      -2.188  -1.186  -6.406  0.00  0.00     0.018 A 
ENDBRANCH  15  17
ENDBRANCH  14  15
ENDBRANCH  13  14
ENDBRANCH   1  13
TORSDOF 6
