REMARK  7 active torsions:
REMARK  status: ('A' for Active; 'I' for Inactive)
REMARK    1  A    between atoms: C_7  and  N_1 
REMARK    2  A    between atoms: S_15  and  C_2 
REMARK    3  A    between atoms: C_8  and  C_11 
REMARK    4  A    between atoms: C_9  and  C_10 
REMARK    5  A    between atoms: C_14  and  C_19 
REMARK    6  A    between atoms: C_22  and  S_15 
REMARK    7  A    between atoms: C_19  and  C_22 
ROOT
ATOM      1  C   UNL d   1       3.834  -0.280  -1.256  0.00  0.00     0.166 C 
ENDROOT
BRANCH   1   2
ATOM      2  C   UNL d   1       5.264  -0.812  -1.242  0.00  0.00     0.169 C 
ATOM      3  O   UNL d   1       5.616  -1.807  -0.601  0.00  0.00    -0.291 OA
BRANCH   2   4
ATOM      4  C   UNL d   1       6.328  -0.028  -1.951  0.00  0.00     0.012 A 
ATOM      5  C   UNL d   1       7.664  -0.190  -1.547  0.00  0.00     0.031 A 
ATOM      6  C   UNL d   1       8.703   0.536  -2.157  0.00  0.00     0.049 A 
ATOM      7  C   UNL d   1       8.389   1.419  -3.201  0.00  0.00     0.032 A 
ATOM      8  C   UNL d   1       7.064   1.583  -3.633  0.00  0.00     0.049 A 
ATOM      9  C   UNL d   1       6.040   0.856  -2.997  0.00  0.00     0.031 A 
BRANCH   6  10
ATOM     10  C   UNL d   1      10.130   0.372  -1.682  0.00  0.00     0.417 C 
ATOM     11  F   UNL d   1      11.017   1.144  -2.371  0.00  0.00    -0.166 F 
ATOM     12  F   UNL d   1      10.282   0.710  -0.373  0.00  0.00    -0.166 F 
ATOM     13  F   UNL d   1      10.579  -0.906  -1.800  0.00  0.00    -0.166 F 
ENDBRANCH   6  10
BRANCH   8  14
ATOM     14  C   UNL d   1       6.720   2.526  -4.765  0.00  0.00     0.417 C 
ATOM     15  F   UNL d   1       7.801   3.153  -5.302  0.00  0.00    -0.166 F 
ATOM     16  F   UNL d   1       6.101   1.886  -5.794  0.00  0.00    -0.166 F 
ATOM     17  F   UNL d   1       5.868   3.510  -4.369  0.00  0.00    -0.166 F 
ENDBRANCH   8  14
ENDBRANCH   2   4
ENDBRANCH   1   2
BRANCH   1  18
ATOM     18  S   UNL d   1       2.639  -1.605  -0.940  0.00  0.00    -0.084 SA
BRANCH  18  19
ATOM     19  C   UNL d   1       1.260  -0.743  -0.336  0.00  0.00     0.177 A 
ATOM     20  N   UNL d   1       0.032  -1.317  -0.014  0.00  0.00    -0.218 N 
ATOM     21  N   UNL d   1      -0.836  -0.293   0.208  0.00  0.00     0.001 NA
ATOM     22  N   UNL d   1      -0.140   0.827   0.085  0.00  0.00    -0.006 NA
ATOM     23  N   UNL d   1       1.159   0.566  -0.257  0.00  0.00    -0.264 N 
ATOM     24  HN  UNL d   1       1.900   1.249  -0.418  1.00  0.00     0.186 HD
BRANCH  20  25
ATOM     25  C   UNL d   1      -0.389  -2.675   0.090  0.00  0.00     0.068 A 
ATOM     26  C   UNL d   1       0.402  -3.637   0.766  0.00  0.00    -0.033 A 
ATOM     27  C   UNL d   1      -0.027  -4.979   0.797  0.00  0.00     0.015 A 
ATOM     28  C   UNL d   1       1.655  -3.374   1.563  0.00  0.00     0.050 C 
ATOM     29  C   UNL d   1      -1.248  -5.375   0.259  0.00  0.00    -0.061 A 
ATOM     30  C   UNL d   1      -2.049  -4.415  -0.355  0.00  0.00     0.015 A 
ATOM     31  C   UNL d   1      -1.661  -6.813   0.341  0.00  0.00     0.048 C 
ATOM     32  C   UNL d   1      -1.636  -3.070  -0.471  0.00  0.00    -0.033 A 
ATOM     33  C   UNL d   1      -2.590  -2.170  -1.222  0.00  0.00     0.050 C 
ENDBRANCH  20  25
ENDBRANCH  18  19
ENDBRANCH   1  18
TORSDOF 7
