REMARK  4 active torsions:
REMARK  status: ('A' for Active; 'I' for Inactive)
REMARK    1  A    between atoms: N_6  and  C_1 
REMARK    2  A    between atoms: C_9  and  C_2 
REMARK    3  A    between atoms: N_14  and  C_5 
REMARK    4  A    between atoms: C_15  and  N_10 
ROOT
ATOM      1  C   UNL d   1       0.035  -1.256   0.203  0.00  0.00     0.117 A 
ATOM      2  C   UNL d   1      -1.293  -0.795   0.056  0.00  0.00     0.061 A 
ATOM      3  N   UNL d   1      -1.359   0.542  -0.002  0.00  0.00    -0.300 N 
ATOM      4  HN  UNL d   1      -2.187   1.133  -0.083  1.00  0.00     0.186 HD
ATOM      5  C   UNL d   1       0.819  -0.122   0.167  0.00  0.00     0.144 A 
ATOM      6  N   UNL d   1      -0.068   0.918   0.072  0.00  0.00    -0.284 N 
ATOM      7  H   UNL d   1       0.145   1.907   0.044  0.00  0.00     0.188 HD
ENDROOT
BRANCH   1   8
ATOM      8  N   UNL d   1       0.410  -2.603   0.286  0.00  0.00    -0.295 N 
ATOM      9  N   UNL d   1       1.513  -2.799   0.841  0.00  0.00    -0.300 N 
ATOM     10  HN  UNL d   1       2.090  -2.063   1.248  1.00  0.00     0.187 HD
ATOM     11  HN  UNL d   1      -0.169  -3.361  -0.075  1.00  0.00     0.187 HD
BRANCH   9  12
ATOM     12  C   UNL d   1       1.860  -4.167   0.831  0.00  0.00     0.048 A 
ATOM     13  C   UNL d   1       1.636  -4.994  -0.280  0.00  0.00     0.034 A 
ATOM     14  C   UNL d   1       2.014  -6.340  -0.264  0.00  0.00     0.044 A 
ATOM     15  C   UNL d   1       2.634  -6.857   0.865  0.00  0.00     0.116 A 
ATOM     16  C   UNL d   1       2.889  -6.055   1.972  0.00  0.00     0.044 A 
ATOM     17  F   UNL d   1       2.998  -8.147   0.883  0.00  0.00    -0.206 F 
ATOM     18  C   UNL d   1       2.504  -4.711   1.952  0.00  0.00     0.034 A 
ENDBRANCH   9  12
ENDBRANCH   1   8
BRANCH   2  19
ATOM     19  C   UNL d   1      -2.518  -1.698  -0.042  0.00  0.00     0.040 A 
ATOM     20  C   UNL d   1      -3.719  -1.209  -0.831  0.00  0.00     0.011 A 
ATOM     21  C   UNL d   1      -3.793  -1.267   0.656  0.00  0.00     0.011 A 
ENDBRANCH   2  19
BRANCH   5  22
ATOM     22  N   UNL d   1       2.154   0.081   0.204  0.00  0.00    -0.382 N 
ATOM     23  H   UNL d   1       2.772  -0.728   0.135  0.00  0.00     0.157 HD
ATOM     24  H   UNL d   1       2.593   0.955  -0.068  0.00  0.00     0.157 HD
ENDBRANCH   5  22
TORSDOF 4
