REMARK  3 active torsions:
REMARK  status: ('A' for Active; 'I' for Inactive)
REMARK       I    between atoms: N_4  and  C_1 
REMARK       I    between atoms: N_8  and  C_1 
REMARK    1  A    between atoms: C_3  and  C_7 
REMARK    2  A    between atoms: C_12  and  N_4 
REMARK    3  A    between atoms: C_5  and  N_8 
ROOT
ATOM      1  C   UNL d   1       1.027   0.025  -0.162  0.00  0.00     0.324 C 
ATOM      2  N   UNL d   1       0.503   0.037   1.106  0.00  0.00    -0.309 N 
ATOM      3  N   UNL d   1       0.152  -0.217  -1.189  0.00  0.00    -0.319 N 
ATOM      4  O   UNL d   1       2.208   0.196  -0.460  0.00  0.00    -0.247 OA
ATOM      5  H   UNL d   1      -0.394  -0.405   1.220  0.00  0.00     0.170 HD
ATOM      6  H   UNL d   1       0.643  -0.265  -2.076  0.00  0.00     0.170 HD
ENDROOT
BRANCH   2   7
ATOM      7  C   UNL d   1       1.195   0.350   2.297  0.00  0.00     0.036 A 
ATOM      8  C   UNL d   1       2.453   0.962   2.315  0.00  0.00     0.032 A 
ATOM      9  C   UNL d   1       3.102   1.223   3.524  0.00  0.00     0.044 A 
ATOM     10  C   UNL d   1       2.486   0.881   4.719  0.00  0.00     0.116 A 
ATOM     11  C   UNL d   1       1.226   0.295   4.727  0.00  0.00     0.044 A 
ATOM     12  F   UNL d   1       3.112   1.121   5.878  0.00  0.00    -0.206 F 
ATOM     13  C   UNL d   1       0.577   0.035   3.515  0.00  0.00     0.032 A 
ENDBRANCH   2   7
BRANCH   3  14
ATOM     14  C   UNL d   1      -1.213  -0.326  -1.198  0.00  0.00     0.093 C 
ATOM     15  C   UNL d   1      -1.894  -0.599  -2.321  0.00  0.00     0.029 C 
BRANCH  15  16
ATOM     16  C   UNL d   1      -3.318  -0.720  -2.397  0.00  0.00    -0.028 A 
ATOM     17  C   UNL d   1      -3.941  -1.487  -3.359  0.00  0.00     0.061 A 
ATOM     18  S   UNL d   1      -5.647  -1.469  -3.200  0.00  0.00    -0.113 SA
ATOM     19  C   UNL d   1      -5.564  -0.412  -1.858  0.00  0.00     0.050 A 
ATOM     20  C   UNL d   1      -4.266  -0.087  -1.535  0.00  0.00     0.019 A 
ENDBRANCH  15  16
ENDBRANCH   3  14
TORSDOF 3
