REMARK  5 active torsions:
REMARK  status: ('A' for Active; 'I' for Inactive)
REMARK    1  A    between atoms: C_6  and  C_1 
REMARK    2  A    between atoms: C_10  and  N_2 
REMARK    3  A    between atoms: S_9  and  C_6 
REMARK    4  A    between atoms: C_8  and  C_11 
REMARK    5  A    between atoms: C_13  and  S_9 
ROOT
ATOM      1  C   UNL d   1      -0.574  -2.557  -0.138  0.00  0.00     0.243 C 
ATOM      2  O   UNL d   1      -0.268  -3.238   0.832  0.00  0.00    -0.278 OA
ENDROOT
BRANCH   1   3
ATOM      3  C   UNL d   1      -0.095  -1.205  -0.334  0.00  0.00     0.128 C 
ATOM      4  N   UNL d   1       1.113  -0.741   0.185  0.00  0.00    -0.278 N 
ATOM      5  N   UNL d   1       1.080   0.597   0.408  0.00  0.00    -0.300 N 
ATOM      6  C   UNL d   1       0.051   1.027  -0.322  0.00  0.00     0.042 C 
ATOM      7  HN  UNL d   1       1.701   1.148   1.001  1.00  0.00     0.187 HD
ATOM      8  C   UNL d   1      -0.627  -0.060  -0.911  0.00  0.00     0.067 C 
ATOM      9  C   UNL d   1      -0.227   2.483  -0.401  0.00  0.00     0.071 C 
ATOM     10 BR   UNL d   1      -2.046   0.225  -2.104  0.00  0.00    -0.046 Br
BRANCH   4  11
ATOM     11  C   UNL d   1       2.461  -1.362   0.146  0.00  0.00     0.043 C 
ATOM     12  C   UNL d   1       3.177  -0.842  -1.124  0.00  0.00     0.039 C 
ATOM     13  C   UNL d   1       3.273  -0.935   1.389  0.00  0.00     0.039 C 
ATOM     14  C   UNL d   1       2.490  -2.899   0.086  0.00  0.00     0.039 C 
ENDBRANCH   4  11
ENDBRANCH   1   3
BRANCH   1  15
ATOM     15  S   UNL d   1      -1.672  -3.251  -1.321  0.00  0.00    -0.046 SA
BRANCH  15  16
ATOM     16  C   UNL d   1      -3.260  -2.640  -0.765  0.00  0.00     0.009 A 
ATOM     17  C   UNL d   1      -3.507  -2.242   0.554  0.00  0.00     0.035 A 
ATOM     18  C   UNL d   1      -4.663  -1.512   0.877  0.00  0.00     0.049 A 
ATOM     19  C   UNL d   1      -5.600  -1.238  -0.131  0.00  0.00     0.016 A 
ATOM     20  C   UNL d   1      -5.402  -1.710  -1.427  0.00  0.00     0.002 A 
ATOM     21  C   UNL d   1      -4.242  -2.418  -1.739  0.00  0.00     0.019 A 
BRANCH  18  22
ATOM     22  C   UNL d   1      -4.860  -0.950   2.264  0.00  0.00     0.417 C 
ATOM     23  F   UNL d   1      -3.963  -1.416   3.176  0.00  0.00    -0.166 F 
ATOM     24  F   UNL d   1      -4.741   0.407   2.285  0.00  0.00    -0.166 F 
ATOM     25  F   UNL d   1      -6.091  -1.226   2.773  0.00  0.00    -0.166 F 
ENDBRANCH  18  22
ENDBRANCH  15  16
ENDBRANCH   1  15
TORSDOF 5
