REMARK  6 active torsions:
REMARK  status: ('A' for Active; 'I' for Inactive)
REMARK    1  A    between atoms: C_10  and  C_2 
REMARK    2  A    between atoms: N_14  and  C_4 
REMARK    3  A    between atoms: N_11  and  C_5 
REMARK    4  A    between atoms: C_13  and  C_10 
REMARK    5  A    between atoms: C_12  and  N_11 
REMARK    6  A    between atoms: O_22  and  C_16 
ROOT
ATOM      1  C   UNL d   1       0.203   0.617  -0.279  0.00  0.00     0.061 A 
ATOM      2  C   UNL d   1      -2.142   0.234  -0.210  0.00  0.00     0.085 A 
ATOM      3  C   UNL d   1       0.025  -0.761  -0.233  0.00  0.00     0.096 A 
ATOM      4  C   UNL d   1      -1.104   1.193  -0.230  0.00  0.00     0.063 A 
ATOM      5  C   UNL d   1       1.523   0.957  -0.276  0.00  0.00     0.106 A 
ATOM      6  S   UNL d   1      -1.588  -1.447  -0.136  0.00  0.00    -0.065 SA
ATOM      7  N   UNL d   1       1.031  -1.585  -0.233  0.00  0.00    -0.318 N 
ATOM      8  HN  UNL d   1       1.005  -2.605  -0.231  1.00  0.00     0.175 HD
ATOM      9  S   UNL d   1       2.390  -0.583  -0.236  0.00  0.00     0.005 SA
ENDROOT
BRANCH   5  10
ATOM     10  N   UNL d   1       2.216   2.123  -0.217  0.00  0.00    -0.346 N 
ATOM     11  H   UNL d   1       3.212   2.036  -0.051  0.00  0.00     0.167 HD
BRANCH  10  12
ATOM     12  C   UNL d   1       1.915   3.363  -0.822  0.00  0.00     0.066 A 
ATOM     13  C   UNL d   1       2.367   4.575  -0.255  0.00  0.00     0.094 A 
ATOM     14  C   UNL d   1       1.974   5.806  -0.796  0.00  0.00     0.039 A 
ATOM     15  C   UNL d   1       1.166   5.855  -1.929  0.00  0.00     0.003 A 
ATOM     16  C   UNL d   1       0.745   4.671  -2.524  0.00  0.00     0.002 A 
ATOM     17  C   UNL d   1       1.119   3.441  -1.977  0.00  0.00     0.032 A 
BRANCH  13  18
ATOM     18  O   UNL d   1       3.074   4.674   0.919  0.00  0.00    -0.354 OA
ATOM     19  C   UNL d   1       4.321   3.989   0.934  0.00  0.00     0.210 C 
ENDBRANCH  13  18
ENDBRANCH  10  12
ENDBRANCH   5  10
BRANCH   4  20
ATOM     20  N   UNL d   1      -1.353   2.522  -0.205  0.00  0.00    -0.397 N 
ATOM     21  H   UNL d   1      -2.283   2.857   0.062  0.00  0.00     0.156 HD
ATOM     22  H   UNL d   1      -0.620   3.191   0.022  0.00  0.00     0.156 HD
ENDBRANCH   4  20
BRANCH   2  23
ATOM     23  C   UNL d   1      -3.576   0.529  -0.133  0.00  0.00     0.201 C 
ATOM     24  O   UNL d   1      -4.006   1.573   0.361  0.00  0.00    -0.286 OA
BRANCH  23  25
ATOM     25  C   UNL d   1      -4.600  -0.410  -0.680  0.00  0.00     0.015 A 
ATOM     26  C   UNL d   1      -4.390  -1.144  -1.853  0.00  0.00     0.016 A 
ATOM     27  C   UNL d   1      -5.386  -1.997  -2.336  0.00  0.00     0.007 A 
ATOM     28  C   UNL d   1      -6.616  -2.103  -1.673  0.00  0.00    -0.062 A 
ATOM     29  C   UNL d   1      -6.837  -1.343  -0.520  0.00  0.00     0.007 A 
ATOM     30  C   UNL d   1      -7.682  -3.007  -2.219  0.00  0.00     0.048 C 
ATOM     31  C   UNL d   1      -5.837  -0.501  -0.026  0.00  0.00     0.016 A 
ENDBRANCH  23  25
ENDBRANCH   2  23
TORSDOF 6
