REMARK  4 active torsions:
REMARK  status: ('A' for Active; 'I' for Inactive)
REMARK    1  A    between atoms: N_6  and  C_1 
REMARK       I    between atoms: C_7  and  N_6 
REMARK       I    between atoms: N_9  and  C_7 
REMARK    2  A    between atoms: C_10  and  N_9 
REMARK    3  A    between atoms: O_16  and  C_11 
REMARK    4  A    between atoms: O_17  and  C_13 
ROOT
ATOM      1  N   UNL d   1      -1.213   2.940  -0.911  0.00  0.00    -0.293 N 
ATOM      2  C   UNL d   1      -2.423   3.552  -0.914  0.00  0.00     0.326 C 
ATOM      3  N   UNL d   1      -3.514   2.820  -0.550  0.00  0.00    -0.306 N 
ATOM      4  O   UNL d   1      -2.438   4.747  -1.210  0.00  0.00    -0.247 OA
ATOM      5  H   UNL d   1      -0.503   3.588  -1.169  0.00  0.00     0.172 HD
ATOM      6  H   UNL d   1      -3.308   1.950  -0.068  0.00  0.00     0.171 HD
ENDROOT
BRANCH   1   7
ATOM      7  C   UNL d   1      -0.865   1.622  -0.725  0.00  0.00     0.139 A 
ATOM      8  N   UNL d   1      -1.800   0.714  -0.425  0.00  0.00    -0.282 N 
ATOM      9  N   UNL d   1      -1.148  -0.449  -0.437  0.00  0.00    -0.294 N 
ATOM     10  HN  UNL d   1      -2.788   0.875  -0.232  1.00  0.00     0.189 HD
ATOM     11  C   UNL d   1      -1.885  -1.682  -0.272  0.00  0.00     0.178 C 
ATOM     12  C   UNL d   1       0.205  -0.332  -0.620  0.00  0.00     0.067 A 
ATOM     13  C   UNL d   1       0.459   1.038  -0.823  0.00  0.00     0.071 A 
ATOM     14  C   UNL d   1       1.194  -1.331  -0.628  0.00  0.00     0.032 A 
ATOM     15  C   UNL d   1       1.826   1.399  -1.054  0.00  0.00     0.084 A 
ATOM     16  C   UNL d   1       2.812   0.385  -1.053  0.00  0.00     0.038 A 
ATOM     17  C   UNL d   1       2.508  -0.949  -0.846  0.00  0.00     0.005 A 
BRANCH  15  18
ATOM     18  O   UNL d   1       2.460   2.621  -1.263  0.00  0.00    -0.355 OA
ATOM     19  C   UNL d   1       1.736   3.813  -1.441  0.00  0.00     0.210 C 
ENDBRANCH  15  18
ENDBRANCH   1   7
BRANCH   3  20
ATOM     20  C   UNL d   1      -4.829   3.328  -0.518  0.00  0.00     0.069 A 
ATOM     21  C   UNL d   1      -5.728   2.950   0.493  0.00  0.00     0.095 A 
ATOM     22  C   UNL d   1      -7.054   3.402   0.453  0.00  0.00     0.039 A 
ATOM     23  C   UNL d   1      -7.486   4.238  -0.581  0.00  0.00     0.003 A 
ATOM     24  C   UNL d   1      -6.598   4.622  -1.578  0.00  0.00     0.002 A 
ATOM     25  C   UNL d   1      -5.276   4.175  -1.540  0.00  0.00     0.032 A 
BRANCH  21  26
ATOM     26  O   UNL d   1      -5.420   2.141   1.559  0.00  0.00    -0.354 OA
ATOM     27  C   UNL d   1      -4.272   2.556   2.301  0.00  0.00     0.210 C 
ENDBRANCH  21  26
ENDBRANCH   3  20
TORSDOF 4
