REMARK  5 active torsions:
REMARK  status: ('A' for Active; 'I' for Inactive)
REMARK    1  A    between atoms: S_2  and  N_1 
REMARK    2  A    between atoms: C_5  and  S_2 
REMARK    3  A    between atoms: C_11  and  C_6 
REMARK    4  A    between atoms: N_9  and  C_8 
REMARK    5  A    between atoms: C_12  and  C_11 
ROOT
ATOM      1  N   UNL d   1      -0.097  -1.123   0.071  0.00  0.00    -0.181 N 
ATOM      2  N   UNL d   1       1.177  -0.734   0.324  0.00  0.00    -0.288 N 
ATOM      3  HN  UNL d   1       1.972  -1.326   0.565  1.00  0.00     0.188 HD
ATOM      4  C   UNL d   1      -0.160   1.109   0.020  0.00  0.00    -0.005 C 
ATOM      5  C   UNL d   1      -0.968  -0.033   0.047  0.00  0.00     0.051 C 
ATOM      6  C   UNL d   1       1.163   0.594   0.188  0.00  0.00     0.032 C 
ATOM      7  C   UNL d   1      -2.451  -0.148   0.024  0.00  0.00     0.072 C 
ATOM      8  C   UNL d   1       2.458   1.317   0.264  0.00  0.00     0.070 C 
ENDROOT
BRANCH   1   9
ATOM      9  S   UNL d   1      -0.553  -2.813  -0.044  0.00  0.00     0.285 S 
ATOM     10  O   UNL d   1      -1.887  -2.825  -0.607  0.00  0.00    -0.198 OA
ATOM     11  O   UNL d   1       0.572  -3.467  -0.685  0.00  0.00    -0.198 OA
BRANCH   9  12
ATOM     12  C   UNL d   1      -0.667  -3.479   1.592  0.00  0.00     0.114 A 
ATOM     13  C   UNL d   1      -0.873  -4.851   1.772  0.00  0.00     0.126 A 
ATOM     14  C   UNL d   1      -1.080  -5.399   3.052  0.00  0.00     0.038 A 
ATOM     15  C   UNL d   1      -1.029  -4.566   4.165  0.00  0.00     0.003 A 
ATOM     16  C   UNL d   1      -0.752  -3.208   4.003  0.00  0.00     0.002 A 
ATOM     17  C   UNL d   1      -0.578  -2.659   2.724  0.00  0.00     0.028 A 
BRANCH  13  18
ATOM     18  N   UNL d   1      -0.828  -5.808   0.672  0.00  0.00    -0.114 N 
ATOM     19  O   UNL d   1      -1.657  -5.672  -0.233  0.00  0.00    -0.532 OA
ATOM     20  O   UNL d   1      -0.016  -6.734   0.775  0.00  0.00    -0.532 OA
ENDBRANCH  13  18
ENDBRANCH   9  12
ENDBRANCH   1   9
BRANCH   4  21
ATOM     21  C   UNL d   1      -0.586   2.558  -0.035  0.00  0.00     0.086 C 
BRANCH  21  22
ATOM     22  C   UNL d   1      -0.661   3.000  -1.478  0.00  0.00     0.006 A 
ATOM     23  C   UNL d   1      -1.841   2.789  -2.209  0.00  0.00     0.124 A 
ATOM     24  F   UNL d   1      -2.917   2.262  -1.609  0.00  0.00    -0.205 F 
ATOM     25  C   UNL d   1      -1.976   3.164  -3.547  0.00  0.00     0.043 A 
ATOM     26  C   UNL d   1      -0.919   3.782  -4.201  0.00  0.00     0.005 A 
ATOM     27  C   UNL d   1       0.247   4.057  -3.492  0.00  0.00     0.024 A 
ATOM     28  C   UNL d   1       0.367   3.691  -2.141  0.00  0.00     0.043 A 
ATOM     29 CL   UNL d   1       1.792   4.237  -1.329  0.00  0.00    -0.084 Cl
ENDBRANCH  21  22
ENDBRANCH   4  21
TORSDOF 5
