REMARK  6 active torsions:
REMARK  status: ('A' for Active; 'I' for Inactive)
REMARK    1  A    between atoms: C_3  and  N_6 
REMARK       I    between atoms: N_6  and  C_11 
REMARK    2  A    between atoms: O_14  and  C_7 
REMARK    3  A    between atoms: O_19  and  C_9 
REMARK    4  A    between atoms: C_11  and  C_18 
REMARK    5  A    between atoms: C_18  and  O_14 
REMARK    6  A    between atoms: C_25  and  C_16 
ROOT
ATOM      1  O   UNL d   1       3.539  -2.036  -0.720  0.00  0.00    -0.339 OA
ENDROOT
BRANCH   1   2
ATOM      2  C   UNL d   1       2.496  -1.196  -0.457  0.00  0.00     0.105 A 
ATOM      3  C   UNL d   1       1.391  -1.562   0.321  0.00  0.00     0.077 A 
ATOM      4  C   UNL d   1       0.360  -0.651   0.541  0.00  0.00     0.083 A 
ATOM      5  O   UNL d   1      -0.748  -1.111   1.211  0.00  0.00    -0.336 OA
ATOM      6  C   UNL d   1       0.449   0.664   0.083  0.00  0.00    -0.000 A 
ATOM      7  C   UNL d   1      -1.983  -0.454   0.829  0.00  0.00     0.078 C 
ATOM      8  C   UNL d   1      -2.470  -1.066  -0.495  0.00  0.00     0.051 C 
ATOM      9  C   UNL d   1      -2.995  -0.771   1.934  0.00  0.00     0.051 C 
ATOM     10  C   UNL d   1      -1.817   1.048   0.702  0.00  0.00     0.011 C 
ATOM     11  C   UNL d   1      -0.641   1.591   0.361  0.00  0.00     0.013 C 
ATOM     12  C   UNL d   1       1.565   1.047  -0.654  0.00  0.00     0.054 A 
ATOM     13  C   UNL d   1       2.571   0.118  -0.963  0.00  0.00     0.102 A 
BRANCH  13  14
ATOM     14  O   UNL d   1       3.556   0.664  -1.747  0.00  0.00    -0.353 OA
ATOM     15  C   UNL d   1       4.392  -0.213  -2.490  0.00  0.00     0.210 C 
ENDBRANCH  13  14
ENDBRANCH   1   2
BRANCH   1  16
ATOM     16  C   UNL d   1       3.443  -3.423  -0.430  0.00  0.00     0.278 C 
BRANCH  16  17
ATOM     17  C   UNL d   1       4.149  -3.855   0.858  0.00  0.00     0.246 C 
ATOM     18  N   UNL d   1       4.775  -2.822   1.531  0.00  0.00    -0.324 N 
ATOM     19  H   UNL d   1       4.316  -1.924   1.441  0.00  0.00     0.169 HD
ATOM     20  O   UNL d   1       4.147  -5.036   1.209  0.00  0.00    -0.271 OA
BRANCH  18  21
ATOM     21  C   UNL d   1       5.618  -3.003   2.651  0.00  0.00     0.047 A 
ATOM     22  C   UNL d   1       6.766  -3.824   2.583  0.00  0.00    -0.035 A 
ATOM     23  C   UNL d   1       7.631  -3.878   3.695  0.00  0.00     0.009 A 
ATOM     24  C   UNL d   1       7.242  -4.546   1.350  0.00  0.00     0.050 C 
ATOM     25  C   UNL d   1       7.377  -3.136   4.843  0.00  0.00     0.001 A 
ATOM     26  C   UNL d   1       6.244  -2.334   4.906  0.00  0.00     0.009 A 
ATOM     27  C   UNL d   1       5.348  -2.262   3.827  0.00  0.00    -0.031 A 
BRANCH  27  28
ATOM     28  C   UNL d   1       4.081  -1.454   4.020  0.00  0.00     0.036 C 
ATOM     29  C   UNL d   1       4.270   0.029   3.751  0.00  0.00     0.010 C 
ENDBRANCH  27  28
ENDBRANCH  18  21
ENDBRANCH  16  17
ENDBRANCH   1  16
TORSDOF 6
