REMARK  4 active torsions:
REMARK  status: ('A' for Active; 'I' for Inactive)
REMARK    1  A    between atoms: C_6  and  C_1 
REMARK    2  A    between atoms: O_10  and  C_1 
REMARK    3  A    between atoms: N_3  and  O_10 
REMARK    4  A    between atoms: C_15  and  C_14 
ROOT
ATOM      1  N   UNL d   1       3.021  -0.765   0.912  0.00  0.00    -0.268 N 
ATOM      2  HN  UNL d   1       2.496  -1.466   1.436  1.00  0.00     0.194 HD
ATOM      3  C   UNL d   1       4.286  -0.544   1.056  0.00  0.00     0.126 C 
ENDROOT
BRANCH   1   4
ATOM      4  O   UNL d   1       2.458   0.087  -0.061  0.00  0.00    -0.195 OA
BRANCH   4   5
ATOM      5  C   UNL d   1       1.136  -0.239  -0.213  0.00  0.00     0.315 C 
ATOM      6  O   UNL d   1       0.532  -1.144   0.353  0.00  0.00    -0.257 OA
BRANCH   5   7
ATOM      7  C   UNL d   1       0.445   0.668  -1.172  0.00  0.00     0.041 A 
ATOM      8  C   UNL d   1      -0.934   0.472  -1.364  0.00  0.00     0.019 A 
ATOM      9  C   UNL d   1      -1.661   1.289  -2.234  0.00  0.00     0.025 A 
ATOM     10  C   UNL d   1      -1.011   2.309  -2.921  0.00  0.00     0.034 A 
ATOM     11  C   UNL d   1       0.359   2.513  -2.747  0.00  0.00     0.025 A 
ATOM     12 CL   UNL d   1      -1.904   3.325  -3.984  0.00  0.00    -0.084 Cl
ATOM     13  C   UNL d   1       1.091   1.694  -1.874  0.00  0.00     0.019 A 
ENDBRANCH   5   7
ENDBRANCH   4   5
ENDBRANCH   1   4
BRANCH   3  14
ATOM     14  C   UNL d   1       5.087  -1.327   2.026  0.00  0.00    -0.018 A 
ATOM     15  C   UNL d   1       4.471  -2.301   2.827  0.00  0.00     0.022 A 
ATOM     16  C   UNL d   1       5.262  -3.024   3.704  0.00  0.00    -0.022 A 
ATOM     17  C   UNL d   1       4.900  -4.149   4.594  0.00  0.00     0.068 C 
ATOM     18  C   UNL d   1       6.626  -2.797   3.782  0.00  0.00     0.075 A 
ATOM     19  C   UNL d   1       6.195  -4.251   5.403  0.00  0.00     0.180 C 
ATOM     20  O   UNL d   1       7.272  -3.617   4.669  0.00  0.00    -0.350 OA
ATOM     21  C   UNL d   1       7.255  -1.846   3.002  0.00  0.00     0.038 A 
ATOM     22  C   UNL d   1       6.473  -1.097   2.115  0.00  0.00     0.015 A 
ENDBRANCH   3  14
TORSDOF 4
