REMARK  3 active torsions:
REMARK  status: ('A' for Active; 'I' for Inactive)
REMARK    1  A    between atoms: N_2  and  C_1 
REMARK    2  A    between atoms: C_3  and  C_1 
REMARK    3  A    between atoms: C_4  and  C_1 
ROOT
ATOM      1  C   UNL d   1       0.947  -0.025   0.263  0.00  0.00     0.288 C 
ENDROOT
BRANCH   1   2
ATOM      2  N   UNL d   1       0.332  -0.812   1.371  0.00  0.00     0.093 N 
ATOM      3  C   UNL d   1       0.423  -0.185   2.690  0.00  0.00     0.310 C 
ATOM      4  C   UNL d   1      -1.065  -1.157   1.093  0.00  0.00     0.310 C 
ENDBRANCH   1   2
BRANCH   1   5
ATOM      5  C   UNL d   1       0.387   1.401   0.138  0.00  0.00    -0.021 A 
ATOM      6  C   UNL d   1       0.924   2.472   0.874  0.00  0.00     0.010 A 
ATOM      7  C   UNL d   1       0.386   3.756   0.771  0.00  0.00     0.001 A 
ATOM      8  C   UNL d   1      -0.703   3.988  -0.065  0.00  0.00     0.000 A 
ATOM      9  C   UNL d   1      -1.248   2.943  -0.806  0.00  0.00     0.001 A 
ATOM     10  C   UNL d   1      -0.706   1.659  -0.711  0.00  0.00     0.010 A 
ENDBRANCH   1   5
BRANCH   1  11
ATOM     11  C   UNL d   1       2.492  -0.077   0.215  0.00  0.00    -0.021 A 
ATOM     12  C   UNL d   1       3.262  -0.840   1.107  0.00  0.00     0.010 A 
ATOM     13  C   UNL d   1       4.660  -0.805   1.070  0.00  0.00     0.001 A 
ATOM     14  C   UNL d   1       5.316  -0.041   0.110  0.00  0.00     0.000 A 
ATOM     15  C   UNL d   1       4.576   0.671  -0.829  0.00  0.00     0.001 A 
ATOM     16  C   UNL d   1       3.180   0.645  -0.783  0.00  0.00     0.010 A 
ENDBRANCH   1  11
TORSDOF 3
