REMARK  1 active torsions:
REMARK  status: ('A' for Active; 'I' for Inactive)
REMARK    1  A    between atoms: N_3  and  C_2 
ROOT
ATOM      1  C   UNL d   1       0.123   0.709   0.495  0.00  0.00     0.092 A 
ATOM      2  C   UNL d   1       1.161   1.548   0.010  0.00  0.00     0.052 A 
ATOM      3  C   UNL d   1      -1.129   1.248   0.951  0.00  0.00     0.103 C 
ATOM      4  N   UNL d   1      -2.137   1.682   1.333  0.00  0.00    -0.191 NA
ATOM      5  C   UNL d   1       0.261  -0.695   0.470  0.00  0.00     0.057 A 
ATOM      6 CL   UNL d   1      -0.968  -1.760   1.070  0.00  0.00    -0.083 Cl
ATOM      7  C   UNL d   1       2.301   0.900  -0.514  0.00  0.00     0.031 A 
ATOM      8  C   UNL d   1       2.422  -0.493  -0.557  0.00  0.00     0.004 A 
ATOM      9  C   UNL d   1       1.405  -1.290  -0.059  0.00  0.00     0.025 A 
ENDROOT
BRANCH   2  10
ATOM     10  N   UNL d   1       1.094   2.940  -0.010  0.00  0.00    -0.380 N 
ATOM     11  C   UNL d   1       1.759   3.738  -1.043  0.00  0.00     0.124 C 
ATOM     12  C   UNL d   1       0.737   4.732  -1.601  0.00  0.00     0.039 C 
ATOM     13  C   UNL d   1       0.066   5.568  -0.501  0.00  0.00     0.096 C 
ATOM     14  C   UNL d   1       0.992   6.599   0.000  0.00  0.00     0.064 C 
ATOM     15  C   UNL d   1      -0.442   4.692   0.654  0.00  0.00     0.039 C 
ATOM     16  N   UNL d   1       1.734   7.397   0.395  0.00  0.00    -0.197 NA
ATOM     17  C   UNL d   1       0.634   3.720   1.145  0.00  0.00     0.124 C 
ENDBRANCH   2  10
TORSDOF 1
