REMARK  6 active torsions:
REMARK  status: ('A' for Active; 'I' for Inactive)
REMARK    1  A    between atoms: C_3  and  N_1 
REMARK    2  A    between atoms: N_2  and  C_7 
REMARK    3  A    between atoms: C_17  and  N_4 
REMARK    4  A    between atoms: C_7  and  C_14 
REMARK    5  A    between atoms: C_19  and  C_17 
REMARK    6  A    between atoms: O_18  and  C_19 
ROOT
ATOM      1  N   UNL d   1      -1.385   2.785  -5.017  0.00  0.00     0.096 N 
ATOM      2  N   UNL d   1       0.927   0.819  -5.134  0.00  0.00     0.093 N 
ATOM      3  C   UNL d   1      -1.523   1.432  -5.594  0.00  0.00     0.303 C 
ATOM      4  C   UNL d   1       0.014   3.217  -5.191  0.00  0.00     0.303 C 
ATOM      5  C   UNL d   1       1.077   2.215  -4.679  0.00  0.00     0.302 C 
ATOM      6  C   UNL d   1      -0.487   0.399  -5.091  0.00  0.00     0.302 C 
ENDROOT
BRANCH   1   7
ATOM      7  C   UNL d   1      -1.801   2.849  -3.602  0.00  0.00     0.311 C 
BRANCH   7   8
ATOM      8  C   UNL d   1      -3.308   2.793  -3.391  0.00  0.00    -0.030 A 
ATOM      9  C   UNL d   1      -3.825   2.307  -2.177  0.00  0.00     0.011 A 
ATOM     10  C   UNL d   1      -5.204   2.282  -1.943  0.00  0.00     0.037 A 
ATOM     11  C   UNL d   1      -6.079   2.755  -2.929  0.00  0.00     0.102 A 
ATOM     12  C   UNL d   1      -5.583   3.267  -4.131  0.00  0.00     0.037 A 
ATOM     13  C   UNL d   1      -4.204   3.296  -4.351  0.00  0.00     0.011 A 
BRANCH  11  14
ATOM     14  N   UNL d   1      -7.529   2.721  -2.700  0.00  0.00    -0.116 N 
ATOM     15  O   UNL d   1      -8.269   3.139  -3.598  0.00  0.00    -0.532 OA
ATOM     16  O   UNL d   1      -7.928   2.269  -1.615  0.00  0.00    -0.532 OA
ENDBRANCH  11  14
ENDBRANCH   7   8
ENDBRANCH   1   7
BRANCH   2  17
ATOM     17  C   UNL d   1       1.542   0.561  -6.446  0.00  0.00     0.298 C 
BRANCH  17  18
ATOM     18  C   UNL d   1       3.079   0.523  -6.376  0.00  0.00     0.194 C 
BRANCH  18  19
ATOM     19  O   UNL d   1       3.615   0.075  -7.618  0.00  0.00    -0.399 OA
ATOM     20  H   UNL d   1       4.576  -0.017  -7.490  0.00  0.00     0.209 HD
ENDBRANCH  18  19
ENDBRANCH  17  18
ENDBRANCH   2  17
TORSDOF 6
