REMARK  7 active torsions:
REMARK  status: ('A' for Active; 'I' for Inactive)
REMARK    1  A    between atoms: N_7  and  C_1 
REMARK    2  A    between atoms: C_8  and  C_2 
REMARK    3  A    between atoms: O_12  and  C_8 
REMARK    4  A    between atoms: N_9  and  O_12 
REMARK    5  A    between atoms: C_15  and  C_11 
REMARK    6  A    between atoms: N_23  and  C_11 
REMARK    7  A    between atoms: C_16  and  C_17 
ROOT
ATOM      1  N   UNL d   1       3.472  -0.825  -0.257  0.00  0.00    -0.246 N 
ATOM      2  HN  UNL d   1       3.101  -1.723  -0.567  1.00  0.00     0.196 HD
ATOM      3  C   UNL d   1       4.734  -0.577  -0.043  0.00  0.00     0.109 C 
ENDROOT
BRANCH   1   4
ATOM      4  O   UNL d   1       2.686   0.327   0.002  0.00  0.00    -0.192 OA
BRANCH   4   5
ATOM      5  C   UNL d   1       1.367   0.107  -0.295  0.00  0.00     0.336 C 
ATOM      6  O   UNL d   1       0.898  -0.932  -0.743  0.00  0.00    -0.255 OA
BRANCH   5   7
ATOM      7  C   UNL d   1       0.552   1.256   0.057  0.00  0.00     0.163 A 
ATOM      8  C   UNL d   1       0.784   2.634   0.102  0.00  0.00     0.160 A 
ATOM      9  C   UNL d   1      -0.457   3.223   0.477  0.00  0.00     0.057 A 
ATOM     10  N   UNL d   1      -1.395   2.295   0.663  0.00  0.00    -0.300 N 
ATOM     11  C   UNL d   1      -0.824   4.654   0.662  0.00  0.00     0.072 C 
ATOM     12  N   UNL d   1      -0.776   1.128   0.423  0.00  0.00    -0.289 N 
ATOM     13  HN  UNL d   1      -2.369   2.439   0.930  1.00  0.00     0.187 HD
ATOM     14  C   UNL d   1      -1.550  -0.081   0.619  0.00  0.00     0.178 C 
BRANCH   8  15
ATOM     15  N   UNL d   1       1.990   3.364  -0.204  0.00  0.00    -0.111 N 
ATOM     16  O   UNL d   1       2.942   2.744  -0.693  0.00  0.00    -0.532 OA
ATOM     17  O   UNL d   1       1.993   4.575   0.039  0.00  0.00    -0.532 OA
ENDBRANCH   8  15
ENDBRANCH   5   7
ENDBRANCH   4   5
ENDBRANCH   1   4
BRANCH   3  18
ATOM     18  C   UNL d   1       5.716  -1.704  -0.165  0.00  0.00     0.004 A 
ATOM     19  C   UNL d   1       5.537  -2.725  -1.098  0.00  0.00     0.015 A 
ATOM     20  C   UNL d   1       6.439  -3.801  -1.149  0.00  0.00     0.009 A 
ATOM     21  C   UNL d   1       7.530  -3.899  -0.260  0.00  0.00    -0.051 A 
ATOM     22  C   UNL d   1       7.702  -2.843   0.652  0.00  0.00     0.009 A 
ATOM     23  C   UNL d   1       6.813  -1.760   0.698  0.00  0.00     0.015 A 
BRANCH  21  24
ATOM     24  C   UNL d   1       8.450  -5.138  -0.274  0.00  0.00    -0.024 C 
ATOM     25  C   UNL d   1       9.573  -5.090   0.790  0.00  0.00     0.019 C 
ATOM     26  C   UNL d   1       7.617  -6.408   0.011  0.00  0.00     0.019 C 
ATOM     27  C   UNL d   1       9.134  -5.289  -1.648  0.00  0.00     0.019 C 
ENDBRANCH  21  24
ENDBRANCH   3  18
BRANCH   3  28
ATOM     28  N   UNL d   1       5.211   0.670   0.298  0.00  0.00    -0.286 NA
ATOM     29  H   UNL d   1       4.563   1.413   0.038  0.00  0.00     0.125 HD
ATOM     30  H   UNL d   1       6.154   0.876  -0.017  0.00  0.00     0.125 HD
ENDBRANCH   3  28
TORSDOF 7
