REMARK  3 active torsions:
REMARK  status: ('A' for Active; 'I' for Inactive)
REMARK    1  A    between atoms: N_4  and  C_1 
REMARK    2  A    between atoms: N_13  and  C_3 
REMARK    3  A    between atoms: C_16  and  N_13 
ROOT
ATOM      1  C   UNL d   1      -1.377  -1.462  -0.038  0.00  0.00     0.159 A 
ATOM      2  C   UNL d   1      -0.118  -0.812  -0.006  0.00  0.00     0.102 A 
ATOM      3  C   UNL d   1      -2.570  -0.696  -0.057  0.00  0.00     0.068 A 
ATOM      4  C   UNL d   1      -0.082   0.695   0.041  0.00  0.00     0.069 A 
ATOM      5  N   UNL d   1       1.114  -1.352  -0.034  0.00  0.00    -0.308 N 
ATOM      6  HN  UNL d   1       1.340  -2.345  -0.076  1.00  0.00     0.176 HD
ATOM      7  S   UNL d   1       2.196  -0.093   0.012  0.00  0.00     0.068 SA
ATOM      8  N   UNL d   1       1.160   1.200   0.053  0.00  0.00    -0.310 N 
ATOM      9  HN  UNL d   1       1.417   2.186   0.083  1.00  0.00     0.176 HD
ATOM     10  C   UNL d   1      -2.481   0.721   0.019  0.00  0.00     0.034 A 
ATOM     11  C   UNL d   1      -1.275   1.450   0.067  0.00  0.00     0.035 A 
ENDROOT
BRANCH   3  12
ATOM     12  N   UNL d   1      -3.848  -1.298  -0.159  0.00  0.00    -0.354 N 
ATOM     13  H   UNL d   1      -3.858  -2.284  -0.428  0.00  0.00     0.166 HD
BRANCH  12  14
ATOM     14  C   UNL d   1      -5.072  -0.898   0.414  0.00  0.00     0.032 A 
ATOM     15  C   UNL d   1      -6.268  -1.165  -0.267  0.00  0.00     0.031 A 
ATOM     16  C   UNL d   1      -7.502  -0.839   0.304  0.00  0.00     0.026 A 
ATOM     17  C   UNL d   1      -7.545  -0.246   1.563  0.00  0.00     0.034 A 
ATOM     18  C   UNL d   1      -6.366   0.055   2.237  0.00  0.00     0.026 A 
ATOM     19 CL   UNL d   1      -9.061   0.097   2.299  0.00  0.00    -0.084 Cl
ATOM     20  C   UNL d   1      -5.135  -0.260   1.658  0.00  0.00     0.031 A 
ENDBRANCH  12  14
ENDBRANCH   3  12
BRANCH   1  21
ATOM     21  N   UNL d   1      -1.392  -2.900  -0.033  0.00  0.00    -0.111 N 
ATOM     22  O   UNL d   1      -0.878  -3.474   0.933  0.00  0.00    -0.532 OA
ATOM     23  O   UNL d   1      -2.003  -3.448  -0.964  0.00  0.00    -0.532 OA
ENDBRANCH   1  21
TORSDOF 3
