REMARK  3 active torsions:
REMARK  status: ('A' for Active; 'I' for Inactive)
REMARK    1  A    between atoms: C_2  and  S_1 
REMARK    2  A    between atoms: N_3  and  S_1 
REMARK    3  A    between atoms: N_13  and  C_10 
ROOT
ATOM      1  C   UNL d   1       0.451  -1.333   1.029  0.00  0.00     0.092 C 
ATOM      2  C   UNL d   1      -0.278  -1.272   2.249  0.00  0.00    -0.032 C 
ATOM      3  C   UNL d   1       0.821  -2.592   0.475  0.00  0.00    -0.032 C 
ATOM      4  C   UNL d   1       0.559  -3.784   1.212  0.00  0.00    -0.048 C 
ATOM      5  C   UNL d   1      -0.430  -2.454   3.025  0.00  0.00    -0.048 C 
ATOM      6  C   UNL d   1      -0.017  -3.708   2.505  0.00  0.00    -0.049 C 
ATOM      7  C   UNL d   1      -0.922   0.002   2.744  0.00  0.00     0.050 C 
ATOM      8  C   UNL d   1       1.423  -2.733  -0.906  0.00  0.00     0.050 C 
ATOM      9  C   UNL d   1      -1.052  -2.417   4.410  0.00  0.00     0.049 C 
ATOM     10  C   UNL d   1       0.898  -5.149   0.647  0.00  0.00     0.049 C 
ATOM     11  C   UNL d   1      -0.223  -4.951   3.350  0.00  0.00     0.049 C 
ENDROOT
BRANCH   1  12
ATOM     12  S   UNL d   1       0.992   0.200   0.195  0.00  0.00     0.264 S 
ATOM     13  O   UNL d   1       0.829   1.321   1.100  0.00  0.00    -0.200 OA
ATOM     14  O   UNL d   1       0.331   0.223  -1.098  0.00  0.00    -0.200 OA
BRANCH  12  15
ATOM     15  N   UNL d   1       2.601   0.005   0.006  0.00  0.00    -0.277 N 
ATOM     16  C   UNL d   1       3.229   0.970  -0.582  0.00  0.00     0.188 C 
ATOM     17  HN  UNL d   1       3.084  -0.832   0.333  1.00  0.00     0.179 HD
BRANCH  16  18
ATOM     18  N   UNL d   1       4.593   1.051  -0.765  0.00  0.00    -0.385 N 
ATOM     19  C   UNL d   1       5.225   2.149  -1.480  0.00  0.00     0.149 C 
ATOM     20  C   UNL d   1       5.502   0.085  -0.167  0.00  0.00     0.149 C 
ENDBRANCH  16  18
ENDBRANCH  12  15
ENDBRANCH   1  12
TORSDOF 3
