REMARK  5 active torsions:
REMARK  status: ('A' for Active; 'I' for Inactive)
REMARK    1  A    between atoms: C_2  and  S_1 
REMARK    2  A    between atoms: C_10  and  S_1 
REMARK    3  A    between atoms: S_8  and  C_3 
REMARK    4  A    between atoms: C_5  and  C_4 
REMARK    5  A    between atoms: C_17  and  S_8 
ROOT
ATOM      1  C   UNL d   1       0.573   1.383   0.842  0.00  0.00     0.144 C 
ATOM      2  C   UNL d   1      -0.430   2.095   0.290  0.00  0.00     0.048 C 
ATOM      3  C   UNL d   1       1.070   0.176   0.288  0.00  0.00     0.112 C 
ATOM      4  N   UNL d   1       1.451  -0.800  -0.201  0.00  0.00    -0.191 NA
ENDROOT
BRANCH   1   5
ATOM      5  S   UNL d   1       1.302   1.973   2.290  0.00  0.00     0.216 S 
ATOM      6  O   UNL d   1       0.978   1.085   3.389  0.00  0.00    -0.216 OA
ATOM      7  O   UNL d   1       1.056   3.400   2.419  0.00  0.00    -0.216 OA
BRANCH   5   8
ATOM      8  C   UNL d   1       3.066   1.832   2.002  0.00  0.00     0.065 A 
ATOM      9  C   UNL d   1       3.720   2.818   1.253  0.00  0.00     0.025 A 
ATOM     10  C   UNL d   1       5.116   2.812   1.178  0.00  0.00     0.025 A 
ATOM     11  C   UNL d   1       5.845   1.831   1.851  0.00  0.00     0.034 A 
ATOM     12  C   UNL d   1       5.189   0.835   2.577  0.00  0.00     0.025 A 
ATOM     13 CL   UNL d   1       7.565   1.875   1.825  0.00  0.00    -0.084 Cl
ATOM     14  C   UNL d   1       3.795   0.833   2.655  0.00  0.00     0.025 A 
ENDBRANCH   5   8
ENDBRANCH   1   5
BRANCH   2  15
ATOM     15  C   UNL d   1      -0.983   1.811  -0.999  0.00  0.00    -0.010 A 
ATOM     16  C   UNL d   1      -2.246   1.306  -1.255  0.00  0.00     0.056 A 
ATOM     17  S   UNL d   1      -2.468   1.032  -2.937  0.00  0.00    -0.094 SA
ATOM     18  C   UNL d   1      -0.912   1.625  -3.316  0.00  0.00     0.052 A 
ATOM     19  C   UNL d   1      -0.234   2.037  -2.195  0.00  0.00     0.020 A 
BRANCH  16  20
ATOM     20  S   UNL d   1      -3.557   1.027  -0.123  0.00  0.00    -0.082 SA
BRANCH  20  21
ATOM     21  C   UNL d   1      -3.366  -0.684   0.360  0.00  0.00     0.006 A 
ATOM     22  C   UNL d   1      -2.290  -1.514   0.027  0.00  0.00     0.020 A 
ATOM     23  C   UNL d   1      -2.193  -2.808   0.560  0.00  0.00     0.025 A 
ATOM     24  C   UNL d   1      -3.183  -3.289   1.412  0.00  0.00     0.034 A 
ATOM     25  C   UNL d   1      -4.284  -2.498   1.718  0.00  0.00     0.025 A 
ATOM     26 CL   UNL d   1      -3.041  -4.860   2.098  0.00  0.00    -0.084 Cl
ATOM     27  C   UNL d   1      -4.372  -1.204   1.193  0.00  0.00     0.020 A 
ENDBRANCH  20  21
ENDBRANCH  16  20
ENDBRANCH   2  15
TORSDOF 5
