REMARK  3 active torsions:
REMARK  status: ('A' for Active; 'I' for Inactive)
REMARK    1  A    between atoms: C_5  and  C_1 
REMARK    2  A    between atoms: S_11  and  C_2 
REMARK    3  A    between atoms: C_16  and  S_11 
ROOT
ATOM      1  C   UNL d   1       3.672  -4.608  -0.088  0.00  0.00     0.096 A 
ATOM      2  C   UNL d   1       2.009  -2.381   0.034  0.00  0.00     0.015 A 
ATOM      3  C   UNL d   1       2.651  -4.480  -1.021  0.00  0.00     0.079 A 
ATOM      4  N   UNL d   1       3.862  -3.692   0.894  0.00  0.00    -0.352 N 
ATOM      5  HN  UNL d   1       4.616  -3.808   1.571  1.00  0.00     0.166 HD
ATOM      6  C   UNL d   1       1.837  -3.342  -0.971  0.00  0.00     0.041 A 
ATOM      7  C   UNL d   1       3.030  -2.611   0.964  0.00  0.00     0.018 A 
ATOM      8  C   UNL d   1       2.362  -5.486  -1.992  0.00  0.00     0.102 C 
ATOM      9  N   UNL d   1       2.058  -6.279  -2.784  0.00  0.00    -0.191 NA
ATOM     10  C   UNL d   1       3.248  -1.726   2.161  0.00  0.00     0.069 C 
ENDROOT
BRANCH   1  11
ATOM     11  S   UNL d   1       4.737  -6.034   0.002  0.00  0.00    -0.069 SA
BRANCH  11  12
ATOM     12  C   UNL d   1       6.201  -5.516  -0.895  0.00  0.00     0.029 A 
ATOM     13  C   UNL d   1       6.731  -6.273  -1.959  0.00  0.00     0.052 A 
ATOM     14  C   UNL d   1       7.954  -5.929  -2.548  0.00  0.00     0.049 A 
ATOM     15 CL   UNL d   1       5.927  -7.669  -2.594  0.00  0.00    -0.083 Cl
ATOM     16  C   UNL d   1       8.658  -4.824  -2.082  0.00  0.00     0.035 A 
ATOM     17  C   UNL d   1       8.143  -4.048  -1.047  0.00  0.00     0.025 A 
ATOM     18 CL   UNL d   1      10.184  -4.429  -2.772  0.00  0.00    -0.084 Cl
ATOM     19  C   UNL d   1       6.923  -4.395  -0.455  0.00  0.00     0.022 A 
ENDBRANCH  11  12
ENDBRANCH   1  11
BRANCH   2  20
ATOM     20  C   UNL d   1       1.135  -1.212   0.085  0.00  0.00     0.051 A 
ATOM     21  N   UNL d   1       1.601   0.023   0.503  0.00  0.00    -0.353 N 
ATOM     22  C   UNL d   1       0.634   0.915   0.464  0.00  0.00     0.047 A 
ATOM     23  HN  UNL d   1       2.558   0.214   0.799  1.00  0.00     0.166 HD
ATOM     24  C   UNL d   1       0.784   2.339   0.867  0.00  0.00     0.076 C 
ATOM     25  S   UNL d   1      -0.883   0.334  -0.092  0.00  0.00    -0.087 SA
ATOM     26  C   UNL d   1      -0.200  -1.227  -0.278  0.00  0.00     0.081 A 
ENDBRANCH   2  20
TORSDOF 3
