REMARK  5 active torsions:
REMARK  status: ('A' for Active; 'I' for Inactive)
REMARK    1  A    between atoms: C_2  and  N_1 
REMARK    2  A    between atoms: C_3  and  C_5 
REMARK    3  A    between atoms: O_17  and  C_3 
REMARK    4  A    between atoms: N_8  and  O_17 
REMARK    5  A    between atoms: C_20  and  C_19 
ROOT
ATOM      1  N   UNL d   1       1.211   2.247  -6.049  0.00  0.00    -0.268 N 
ATOM      2  HN  UNL d   1       0.881   3.145  -6.405  1.00  0.00     0.194 HD
ATOM      3  C   UNL d   1       2.091   1.507  -6.636  0.00  0.00     0.126 C 
ENDROOT
BRANCH   1   4
ATOM      4  O   UNL d   1       0.768   1.651  -4.854  0.00  0.00    -0.195 OA
BRANCH   4   5
ATOM      5  C   UNL d   1      -0.116   2.505  -4.252  0.00  0.00     0.315 C 
ATOM      6  O   UNL d   1      -0.587   3.535  -4.712  0.00  0.00    -0.257 OA
BRANCH   5   7
ATOM      7  C   UNL d   1      -0.469   2.033  -2.882  0.00  0.00     0.043 A 
ATOM      8  C   UNL d   1       0.183   0.976  -2.237  0.00  0.00     0.053 A 
ATOM      9  C   UNL d   1      -0.208   0.624  -0.933  0.00  0.00     0.103 A 
ATOM     10  C   UNL d   1      -1.236   1.319  -0.273  0.00  0.00     0.036 A 
ATOM     11  C   UNL d   1      -1.872   2.373  -0.919  0.00  0.00     0.003 A 
ATOM     12  C   UNL d   1      -1.493   2.729  -2.212  0.00  0.00     0.018 A 
BRANCH   9  13
ATOM     13  N   UNL d   1       0.469  -0.479  -0.242  0.00  0.00    -0.116 N 
ATOM     14  O   UNL d   1       1.382  -1.059  -0.844  0.00  0.00    -0.532 OA
ATOM     15  O   UNL d   1       0.091  -0.766   0.902  0.00  0.00    -0.532 OA
ENDBRANCH   9  13
ENDBRANCH   5   7
ENDBRANCH   4   5
ENDBRANCH   1   4
BRANCH   3  16
ATOM     16  C   UNL d   1       2.807   2.010  -7.829  0.00  0.00    -0.016 A 
ATOM     17  C   UNL d   1       3.862   1.252  -8.341  0.00  0.00     0.052 A 
ATOM     18  C   UNL d   1       4.668   1.863  -9.277  0.00  0.00     0.105 A 
ATOM     19  O   UNL d   1       5.818   1.345  -9.790  0.00  0.00    -0.323 OA
ATOM     20  C   UNL d   1       4.424   3.140  -9.737  0.00  0.00     0.105 A 
ATOM     21  C   UNL d   1       6.373   2.526 -10.406  0.00  0.00     0.352 C 
ATOM     22  O   UNL d   1       5.399   3.575 -10.581  0.00  0.00    -0.323 OA
ATOM     23  C   UNL d   1       3.339   3.873  -9.313  0.00  0.00     0.040 A 
ATOM     24  C   UNL d   1       2.526   3.302  -8.331  0.00  0.00     0.016 A 
ENDBRANCH   3  16
TORSDOF 5
