REMARK  4 active torsions:
REMARK  status: ('A' for Active; 'I' for Inactive)
REMARK    1  A    between atoms: C_2  and  C_1 
REMARK    2  A    between atoms: C_7  and  C_1 
REMARK    3  A    between atoms: C_8  and  C_1 
REMARK    4  A    between atoms: C_6  and  N_3 
ROOT
ATOM      1  C   UNL d   1       0.708   1.409  -0.429  0.00  0.00     0.081 C 
ATOM      2  N   UNL d   1       0.726   2.352   0.456  0.00  0.00    -0.367 N 
ATOM      3  HN  UNL d   1       1.008   2.158   1.417  1.00  0.00     0.165 HD
ENDROOT
BRANCH   2   4
ATOM      4  C   UNL d   1       0.347   3.658   0.065  0.00  0.00     0.053 A 
ATOM      5  C   UNL d   1      -0.369   4.489   0.949  0.00  0.00     0.062 A 
ATOM      6  C   UNL d   1      -0.720   5.795   0.592  0.00  0.00     0.050 A 
ATOM      7 CL   UNL d   1      -0.844   3.925   2.515  0.00  0.00    -0.082 Cl
ATOM      8  C   UNL d   1      -0.355   6.287  -0.657  0.00  0.00     0.035 A 
ATOM      9  C   UNL d   1       0.367   5.495  -1.543  0.00  0.00     0.026 A 
ATOM     10 CL   UNL d   1      -0.790   7.889  -1.108  0.00  0.00    -0.084 Cl
ATOM     11  C   UNL d   1       0.732   4.199  -1.175  0.00  0.00     0.033 A 
ENDBRANCH   2   4
BRANCH   1  12
ATOM     12  C   UNL d   1       1.168   0.017  -0.082  0.00  0.00     0.162 C 
BRANCH  12  13
ATOM     13  C   UNL d   1       0.088  -0.986  -0.423  0.00  0.00     0.139 C 
ATOM     14  O   UNL d   1       0.270  -1.904  -1.222  0.00  0.00    -0.297 OA
ATOM     15  C   UNL d   1      -1.251  -0.832   0.255  0.00  0.00     0.092 C 
ENDBRANCH  12  13
BRANCH  12  16
ATOM     16  C   UNL d   1       2.490  -0.276  -0.769  0.00  0.00     0.139 C 
ATOM     17  O   UNL d   1       3.049   0.559  -1.485  0.00  0.00    -0.297 OA
ATOM     18  C   UNL d   1       3.144  -1.614  -0.526  0.00  0.00     0.092 C 
ENDBRANCH  12  16
ENDBRANCH   1  12
TORSDOF 4
