REMARK  6 active torsions:
REMARK  status: ('A' for Active; 'I' for Inactive)
REMARK    1  A    between atoms: N_5  and  C_1 
REMARK    2  A    between atoms: C_4  and  C_6 
REMARK       I    between atoms: C_7  and  N_18 
REMARK    3  A    between atoms: C_14  and  C_7 
REMARK    4  A    between atoms: C_24  and  N_10 
REMARK    5  A    between atoms: N_18  and  C_23 
REMARK    6  A    between atoms: C_23  and  C_24 
ROOT
ATOM      1  N   UNL d   1       0.121   2.682  -0.120  0.00  0.00    -0.214 N 
ATOM      2  N   UNL d   1       0.672   5.570   0.124  0.00  0.00     0.093 N 
ATOM      3  C   UNL d   1      -0.523   3.446   0.954  0.00  0.00     0.171 C 
ATOM      4  C   UNL d   1       1.399   3.222  -0.595  0.00  0.00     0.171 C 
ATOM      5  C   UNL d   1      -0.600   4.949   0.578  0.00  0.00     0.293 C 
ATOM      6  C   UNL d   1       1.222   4.715  -0.960  0.00  0.00     0.293 C 
ENDROOT
BRANCH   1   7
ATOM      7  C   UNL d   1       0.053   1.304   0.012  0.00  0.00     0.680 A 
ATOM      8  N   UNL d   1       1.047   0.547  -0.475  0.00  0.00    -0.186 N 
ATOM      9  C   UNL d   1       0.936  -0.804  -0.408  0.00  0.00     0.133 A 
ATOM     10  HN  UNL d   1       1.873   0.979  -0.888  1.00  0.00     0.184 HD
ATOM     11  C   UNL d   1      -0.182  -1.416   0.119  0.00  0.00     0.052 A 
ATOM     12  C   UNL d   1      -1.152  -0.572   0.594  0.00  0.00     0.108 A 
ATOM     13  N   UNL d   1      -1.049   0.766   0.561  0.00  0.00    -0.202 N 
ATOM     14  HN  UNL d   1      -1.786   1.359   0.943  1.00  0.00     0.183 HD
BRANCH   9  15
ATOM     15  C   UNL d   1       2.068  -1.669  -0.931  0.00  0.00     0.433 C 
ATOM     16  F   UNL d   1       3.144  -0.976  -1.398  0.00  0.00    -0.165 F 
ATOM     17  F   UNL d   1       2.557  -2.515   0.024  0.00  0.00    -0.165 F 
ATOM     18  F   UNL d   1       1.672  -2.478  -1.959  0.00  0.00    -0.165 F 
ENDBRANCH   9  15
ENDBRANCH   1   7
BRANCH   2  19
ATOM     19  C   UNL d   1       1.613   5.729   1.249  0.00  0.00     0.292 C 
BRANCH  19  20
ATOM     20  C   UNL d   1       2.894   6.504   0.877  0.00  0.00     0.153 C 
BRANCH  20  21
ATOM     21  N   UNL d   1       3.809   6.618   1.997  0.00  0.00    -0.355 N 
ATOM     22  C   UNL d   1       4.689   5.596   2.292  0.00  0.00     0.251 C 
ATOM     23  O   UNL d   1       4.745   4.551   1.655  0.00  0.00    -0.268 OA
ATOM     24  H   UNL d   1       3.888   7.510   2.462  0.00  0.00     0.162 HD
BRANCH  22  25
ATOM     25  C   UNL d   1       5.614   5.825   3.435  0.00  0.00     0.032 A 
ATOM     26  C   UNL d   1       5.249   6.612   4.535  0.00  0.00     0.017 A 
ATOM     27  C   UNL d   1       6.134   6.768   5.603  0.00  0.00     0.001 A 
ATOM     28  C   UNL d   1       7.380   6.140   5.578  0.00  0.00     0.000 A 
ATOM     29  C   UNL d   1       7.745   5.353   4.487  0.00  0.00     0.001 A 
ATOM     30  C   UNL d   1       6.863   5.191   3.418  0.00  0.00     0.017 A 
ENDBRANCH  22  25
ENDBRANCH  20  21
ENDBRANCH  19  20
ENDBRANCH   2  19
TORSDOF 6
