REMARK  4 active torsions:
REMARK  status: ('A' for Active; 'I' for Inactive)
REMARK    1  A    between atoms: C_2  and  N_1 
REMARK    2  A    between atoms: O_18  and  C_3 
REMARK    3  A    between atoms: C_4  and  S_5 
REMARK    4  A    between atoms: S_5  and  C_15 
ROOT
ATOM      1  C   UNL d   1      -0.607  -9.693  -0.477  0.00  0.00     0.136 A 
ATOM      2  C   UNL d   1      -0.062  -8.746  -1.355  0.00  0.00     0.100 A 
ATOM      3  C   UNL d   1      -0.500  -7.420  -1.303  0.00  0.00     0.057 A 
ATOM      4  C   UNL d   1      -1.590  -9.304   0.448  0.00  0.00     0.040 A 
ATOM      5  C   UNL d   1      -1.475  -7.022  -0.384  0.00  0.00     0.008 A 
ATOM      6  C   UNL d   1      -2.013  -7.969   0.495  0.00  0.00     0.021 A 
ENDROOT
BRANCH   5   7
ATOM      7  S   UNL d   1      -1.889  -5.296  -0.231  0.00  0.00    -0.090 SA
BRANCH   7   8
ATOM      8  C   UNL d   1      -3.278  -5.123  -1.349  0.00  0.00     0.012 A 
ATOM      9  C   UNL d   1      -3.003  -4.747  -2.678  0.00  0.00     0.027 A 
ATOM     10  C   UNL d   1      -4.032  -4.454  -3.593  0.00  0.00    -0.039 A 
ATOM     11  C   UNL d   1      -3.691  -3.959  -4.970  0.00  0.00     0.050 C 
ATOM     12  C   UNL d   1      -5.357  -4.583  -3.165  0.00  0.00     0.040 A 
ATOM     13  C   UNL d   1      -5.643  -4.965  -1.853  0.00  0.00     0.032 A 
ATOM     14 CL   UNL d   1      -6.688  -4.242  -4.214  0.00  0.00    -0.084 Cl
ATOM     15  C   UNL d   1      -4.615  -5.214  -0.923  0.00  0.00    -0.043 A 
ATOM     16  C   UNL d   1      -5.036  -5.533   0.486  0.00  0.00     0.049 C 
ENDBRANCH   7   8
ENDBRANCH   5   7
BRANCH   2  17
ATOM     17  O   UNL d   1       0.918  -8.995  -2.277  0.00  0.00    -0.358 OA
ATOM     18  H   UNL d   1       1.214  -9.928  -2.211  0.00  0.00     0.217 HD
ENDBRANCH   2  17
BRANCH   1  19
ATOM     19  N   UNL d   1      -0.155 -11.086  -0.493  0.00  0.00    -0.113 N 
ATOM     20  O   UNL d   1       0.731 -11.390  -1.307  0.00  0.00    -0.532 OA
ATOM     21  O   UNL d   1      -0.673 -11.877   0.307  0.00  0.00    -0.532 OA
ENDBRANCH   1  19
TORSDOF 4
