REMARK  4 active torsions:
REMARK  status: ('A' for Active; 'I' for Inactive)
REMARK    1  A    between atoms: C_2  and  N_1 
REMARK    2  A    between atoms: N_4  and  C_3 
REMARK    3  A    between atoms: C_14  and  N_4 
REMARK    4  A    between atoms: C_6  and  C_14 
ROOT
ATOM      1  C   UNL d   1      -0.371   2.282  -1.699  0.00  0.00     0.141 A 
ATOM      2  C   UNL d   1      -0.441   1.447  -0.585  0.00  0.00     0.114 A 
ATOM      3  N   UNL d   1      -0.312   0.109  -0.746  0.00  0.00    -0.355 N 
ATOM      4  HN  UNL d   1      -0.344  -0.516   0.059  1.00  0.00     0.166 HD
ATOM      5  C   UNL d   1      -0.166   1.770  -2.985  0.00  0.00     0.041 A 
ATOM      6  C   UNL d   1      -0.141  -0.387  -1.997  0.00  0.00     0.089 A 
ATOM      7  C   UNL d   1      -0.057   0.395  -3.135  0.00  0.00     0.020 A 
ENDROOT
BRANCH   2   8
ATOM      8  N   UNL d   1      -0.625   1.958   0.705  0.00  0.00    -0.272 NA
ATOM      9  H   UNL d   1      -1.525   2.435   0.762  0.00  0.00     0.129 HD
BRANCH   8  10
ATOM     10  C   UNL d   1      -0.443   1.016   1.808  0.00  0.00     0.140 C 
BRANCH  10  11
ATOM     11  C   UNL d   1      -0.884   1.577   3.136  0.00  0.00    -0.004 A 
ATOM     12  S   UNL d   1      -1.794   0.608   4.219  0.00  0.00    -0.105 SA
ATOM     13  C   UNL d   1      -1.896   1.870   5.368  0.00  0.00     0.050 A 
ATOM     14  C   UNL d   1      -1.243   3.006   4.946  0.00  0.00     0.008 A 
ATOM     15  C   UNL d   1      -0.653   2.836   3.660  0.00  0.00     0.016 A 
ENDBRANCH  10  11
ENDBRANCH   8  10
ENDBRANCH   2   8
BRANCH   1  16
ATOM     16  N   UNL d   1      -0.465   3.712  -1.537  0.00  0.00    -0.112 N 
ATOM     17  O   UNL d   1      -1.512   4.159  -1.041  0.00  0.00    -0.532 OA
ATOM     18  O   UNL d   1       0.478   4.394  -1.961  0.00  0.00    -0.532 OA
ENDBRANCH   1  16
TORSDOF 4
