REMARK  6 active torsions:
REMARK  status: ('A' for Active; 'I' for Inactive)
REMARK    1  A    between atoms: C_2  and  C_1 
REMARK    2  A    between atoms: C_4  and  C_2 
REMARK    3  A    between atoms: C_3  and  O_11 
REMARK    4  A    between atoms: N_10  and  C_5 
REMARK    5  A    between atoms: C_16  and  N_10 
REMARK    6  A    between atoms: O_11  and  C_17 
ROOT
ATOM      1  C   UNL d   1       0.879  -0.112   0.085  0.00  0.00     0.106 C 
ATOM      2  C   UNL d   1       0.141   0.448  -0.895  0.00  0.00     0.114 C 
ATOM      3  C   UNL d   1       0.252  -0.720   1.200  0.00  0.00     0.104 C 
ATOM      4  N   UNL d   1      -0.276  -1.208   2.113  0.00  0.00    -0.191 NA
ENDROOT
BRANCH   1   5
ATOM      5  C   UNL d   1       2.375  -0.080  -0.017  0.00  0.00     0.175 C 
ATOM      6  O   UNL d   1       2.956   0.390  -0.994  0.00  0.00    -0.291 OA
BRANCH   5   7
ATOM      7  C   UNL d   1       3.162  -0.673   1.116  0.00  0.00     0.061 A 
ATOM      8  C   UNL d   1       4.647  -0.429   1.278  0.00  0.00     0.013 A 
ATOM      9  C   UNL d   1       4.161  -1.771   0.819  0.00  0.00     0.013 A 
ENDBRANCH   5   7
ENDBRANCH   1   5
BRANCH   2  10
ATOM     10  N   UNL d   1      -1.232   0.601  -0.972  0.00  0.00    -0.364 N 
ATOM     11  H   UNL d   1      -1.780   0.376  -0.144  0.00  0.00     0.165 HD
BRANCH  10  12
ATOM     12  C   UNL d   1      -1.968   1.143  -2.040  0.00  0.00     0.032 A 
ATOM     13  C   UNL d   1      -1.517   1.097  -3.363  0.00  0.00     0.032 A 
ATOM     14  C   UNL d   1      -2.222   1.726  -4.398  0.00  0.00     0.039 A 
ATOM     15  C   UNL d   1      -3.412   2.395  -4.132  0.00  0.00     0.078 A 
ATOM     16  C   UNL d   1      -3.856   2.477  -2.811  0.00  0.00     0.039 A 
ATOM     17  C   UNL d   1      -3.148   1.851  -1.777  0.00  0.00     0.032 A 
BRANCH  15  18
ATOM     18  O   UNL d   1      -4.188   3.044  -5.041  0.00  0.00    -0.255 OA
BRANCH  18  19
ATOM     19  C   UNL d   1      -4.218   2.603  -6.392  0.00  0.00     0.530 C 
ATOM     20  F   UNL d   1      -3.576   1.438  -6.616  0.00  0.00    -0.144 F 
ATOM     21  F   UNL d   1      -5.510   2.432  -6.755  0.00  0.00    -0.144 F 
ATOM     22  F   UNL d   1      -3.682   3.555  -7.186  0.00  0.00    -0.144 F 
ENDBRANCH  18  19
ENDBRANCH  15  18
ENDBRANCH  10  12
ENDBRANCH   2  10
TORSDOF 6
