REMARK  7 active torsions:
REMARK  status: ('A' for Active; 'I' for Inactive)
REMARK    1  A    between atoms: C_17  and  N_2 
REMARK    2  A    between atoms: C_3  and  O_9 
REMARK    3  A    between atoms: N_6  and  C_4 
REMARK    4  A    between atoms: C_14  and  N_6 
REMARK    5  A    between atoms: O_9  and  C_15 
REMARK    6  A    between atoms: N_10  and  C_19 
REMARK    7  A    between atoms: C_19  and  C_17 
ROOT
ATOM      1  C   UNL d   1      -3.682  -4.092  -1.337  0.00  0.00     0.172 C 
ATOM      2  S   UNL d   1      -4.049  -5.646  -1.829  0.00  0.00    -0.041 SA
ATOM      3  N   UNL d   1      -2.393  -3.920  -0.927  0.00  0.00    -0.365 N 
ATOM      4  H   UNL d   1      -1.834  -4.759  -1.051  0.00  0.00     0.161 HD
ENDROOT
BRANCH   1   5
ATOM      5  N   UNL d   1      -4.486  -2.982  -1.286  0.00  0.00    -0.333 N 
ATOM      6  H   UNL d   1      -4.187  -2.270  -0.638  0.00  0.00     0.168 HD
BRANCH   5   7
ATOM      7  C   UNL d   1      -5.670  -2.656  -1.989  0.00  0.00     0.034 A 
ATOM      8  C   UNL d   1      -6.201  -3.394  -3.048  0.00  0.00     0.032 A 
ATOM      9  C   UNL d   1      -7.318  -2.942  -3.764  0.00  0.00     0.039 A 
ATOM     10  C   UNL d   1      -7.887  -1.710  -3.466  0.00  0.00     0.078 A 
ATOM     11  C   UNL d   1      -7.404  -0.986  -2.378  0.00  0.00     0.039 A 
ATOM     12  C   UNL d   1      -6.302  -1.451  -1.651  0.00  0.00     0.032 A 
BRANCH  10  13
ATOM     13  O   UNL d   1      -8.929  -1.150  -4.138  0.00  0.00    -0.255 OA
BRANCH  13  14
ATOM     14  C   UNL d   1      -8.954  -1.293  -5.554  0.00  0.00     0.530 C 
ATOM     15  F   UNL d   1      -7.820  -1.804  -6.082  0.00  0.00    -0.144 F 
ATOM     16  F   UNL d   1      -9.991  -2.082  -5.908  0.00  0.00    -0.144 F 
ATOM     17  F   UNL d   1      -9.146  -0.072  -6.104  0.00  0.00    -0.144 F 
ENDBRANCH  13  14
ENDBRANCH  10  13
ENDBRANCH   5   7
ENDBRANCH   1   5
BRANCH   3  18
ATOM     18  C   UNL d   1      -1.729  -2.800  -0.276  0.00  0.00     0.142 C 
BRANCH  18  19
ATOM     19  C   UNL d   1      -1.458  -3.131   1.196  0.00  0.00     0.147 C 
BRANCH  19  20
ATOM     20  N   UNL d   1      -0.714  -2.088   1.863  0.00  0.00    -0.331 N 
ATOM     21  C   UNL d   1      -1.255  -0.842   2.171  0.00  0.00     0.318 C 
ATOM     22  N   UNL d   1      -0.357  -0.197   3.006  0.00  0.00    -0.341 N 
ATOM     23  O   UNL d   1      -2.315  -0.388   1.782  0.00  0.00    -0.247 OA
ATOM     24  C   UNL d   1       0.864  -0.948   3.117  0.00  0.00     0.144 C 
ATOM     25  H   UNL d   1      -0.484   0.783   3.221  0.00  0.00     0.164 HD
ATOM     26  C   UNL d   1       0.447  -2.348   2.686  0.00  0.00     0.147 C 
ENDBRANCH  19  20
ENDBRANCH  18  19
ENDBRANCH   3  18
TORSDOF 7
