REMARK  6 active torsions:
REMARK  status: ('A' for Active; 'I' for Inactive)
REMARK    1  A    between atoms: C_16  and  N_3 
REMARK    2  A    between atoms: C_10  and  C_4 
REMARK    3  A    between atoms: C_12  and  C_7 
REMARK    4  A    between atoms: C_9  and  O_11 
REMARK    5  A    between atoms: O_11  and  C_10 
REMARK    6  A    between atoms: O_19  and  C_12 
ROOT
ATOM      1  N   UNL d   1      -0.148  -1.003  -0.248  0.00  0.00    -0.272 N 
ATOM      2  HN  UNL d   1      -0.408  -1.928  -0.589  1.00  0.00     0.189 HD
ATOM      3  N   UNL d   1       1.083  -0.537   0.083  0.00  0.00    -0.196 N 
ATOM      4  C   UNL d   1      -0.947   0.064  -0.012  0.00  0.00     0.149 A 
ATOM      5  N   UNL d   1       1.135   0.748   0.502  0.00  0.00    -0.281 N 
ATOM      6  HN  UNL d   1       1.947   1.282   0.809  1.00  0.00     0.189 HD
ATOM      7  C   UNL d   1      -0.136   1.146   0.415  0.00  0.00     0.058 A 
ATOM      8  C   UNL d   1      -0.459   2.554   0.735  0.00  0.00     0.072 C 
ENDROOT
BRANCH   4   9
ATOM      9  C   UNL d   1      -2.406   0.008  -0.147  0.00  0.00     0.318 C 
ATOM     10  O   UNL d   1      -3.151   0.903   0.260  0.00  0.00    -0.257 OA
BRANCH   9  11
ATOM     11  O   UNL d   1      -2.827  -1.155  -0.734  0.00  0.00    -0.272 OA
BRANCH  11  12
ATOM     12  C   UNL d   1      -3.944  -1.784  -0.283  0.00  0.00     0.103 A 
ATOM     13  C   UNL d   1      -4.539  -2.800  -1.015  0.00  0.00     0.114 A 
ATOM     14  S   UNL d   1      -5.759  -3.591  -0.089  0.00  0.00    -0.093 SA
ATOM     15  C   UNL d   1      -5.533  -2.551   1.240  0.00  0.00     0.053 A 
ATOM     16  C   UNL d   1      -4.554  -1.615   1.001  0.00  0.00     0.046 A 
BRANCH  13  17
ATOM     17  C   UNL d   1      -4.302  -3.293  -2.362  0.00  0.00     0.302 C 
ATOM     18  O   UNL d   1      -4.777  -4.315  -2.849  0.00  0.00    -0.259 OA
BRANCH  17  19
ATOM     19  O   UNL d   1      -3.504  -2.432  -3.060  0.00  0.00    -0.322 OA
ATOM     20  C   UNL d   1      -3.302  -2.812  -4.423  0.00  0.00     0.213 C 
ENDBRANCH  17  19
ENDBRANCH  13  17
ENDBRANCH  11  12
ENDBRANCH   9  11
ENDBRANCH   4   9
BRANCH   3  21
ATOM     21  C   UNL d   1       2.269  -1.305  -0.037  0.00  0.00     0.074 A 
ATOM     22  C   UNL d   1       2.249  -2.583  -0.609  0.00  0.00     0.033 A 
ATOM     23  C   UNL d   1       3.451  -3.276  -0.784  0.00  0.00     0.002 A 
ATOM     24  C   UNL d   1       4.661  -2.707  -0.377  0.00  0.00     0.000 A 
ATOM     25  C   UNL d   1       4.677  -1.450   0.223  0.00  0.00     0.002 A 
ATOM     26  C   UNL d   1       3.486  -0.750   0.394  0.00  0.00     0.033 A 
ENDBRANCH   3  21
TORSDOF 6
