REMARK  2 active torsions:
REMARK  status: ('A' for Active; 'I' for Inactive)
REMARK    1  A    between atoms: O_7  and  C_1 
REMARK    2  A    between atoms: C_13  and  O_7 
ROOT
ATOM      1  C   UNL d   1      -1.050  -1.514  -0.151  0.00  0.00     0.146 C 
ATOM      2  C   UNL d   1      -1.540  -0.266  -0.078  0.00  0.00     0.122 C 
ATOM      3  C   UNL d   1       0.430  -1.702  -0.279  0.00  0.00     0.218 C 
ATOM      4  C   UNL d   1      -0.686   0.950  -0.079  0.00  0.00     0.207 C 
ATOM      5  C   UNL d   1       1.308  -0.526  -0.131  0.00  0.00     0.031 A 
ATOM      6  C   UNL d   1       0.772   0.754  -0.065  0.00  0.00     0.030 A 
ATOM      7  O   UNL d   1       0.943  -2.794  -0.506  0.00  0.00    -0.284 OA
ATOM      8  O   UNL d   1      -1.146   2.087  -0.068  0.00  0.00    -0.286 OA
ATOM      9 CL   UNL d   1      -3.250   0.019   0.038  0.00  0.00    -0.077 Cl
ATOM     10  C   UNL d   1       2.699  -0.701  -0.080  0.00  0.00     0.016 A 
ATOM     11  C   UNL d   1       1.623   1.867   0.018  0.00  0.00     0.016 A 
ATOM     12  C   UNL d   1       3.007   1.690   0.054  0.00  0.00     0.001 A 
ATOM     13  C   UNL d   1       3.544   0.406   0.015  0.00  0.00     0.001 A 
ENDROOT
BRANCH   1  14
ATOM     14  O   UNL d   1      -1.933  -2.588  -0.153  0.00  0.00    -0.341 OA
BRANCH  14  15
ATOM     15  C   UNL d   1      -1.541  -3.849   0.404  0.00  0.00     0.121 C 
ATOM     16  C   UNL d   1      -1.148  -3.738   1.877  0.00  0.00     0.040 C 
ATOM     17  C   UNL d   1      -2.754  -4.773   0.279  0.00  0.00     0.040 C 
ENDBRANCH  14  15
ENDBRANCH   1  14
TORSDOF 2
