REMARK  5 active torsions:
REMARK  status: ('A' for Active; 'I' for Inactive)
REMARK    1  A    between atoms: N_5  and  C_1 
REMARK       I    between atoms: C_4  and  N_5 
REMARK    2  A    between atoms: C_11  and  C_4 
REMARK    3  A    between atoms: C_6  and  C_12 
REMARK    4  A    between atoms: O_13  and  C_6 
REMARK    5  A    between atoms: C_12  and  C_11 
ROOT
ATOM      1  C   UNL d   1       4.790  -0.931  -0.084  0.00  0.00     0.218 C 
ATOM      2  N   UNL d   1       3.858   0.006   0.305  0.00  0.00    -0.356 N 
ATOM      3  O   UNL d   1       4.538  -1.852  -0.854  0.00  0.00    -0.274 OA
ATOM      4  H   UNL d   1       4.150   0.779   0.890  0.00  0.00     0.162 HD
ENDROOT
BRANCH   2   5
ATOM      5  C   UNL d   1       2.513   0.011  -0.256  0.00  0.00     0.092 C 
ATOM      6  C   UNL d   1       1.675   1.238   0.174  0.00  0.00     0.064 C 
ATOM      7  C   UNL d   1       0.280   0.706   0.061  0.00  0.00    -0.050 A 
ATOM      8  C   UNL d   1      -0.906   1.419   0.015  0.00  0.00     0.007 A 
ATOM      9  C   UNL d   1       0.281  -0.693   0.048  0.00  0.00    -0.050 A 
ATOM     10  C   UNL d   1      -2.106   0.704  -0.055  0.00  0.00     0.001 A 
ATOM     11  C   UNL d   1      -2.104  -0.700  -0.062  0.00  0.00     0.001 A 
ATOM     12  C   UNL d   1      -0.903  -1.409  -0.004  0.00  0.00     0.007 A 
ATOM     13  C   UNL d   1       1.676  -1.231   0.135  0.00  0.00     0.064 C 
ENDBRANCH   2   5
BRANCH   1  14
ATOM     14  C   UNL d   1       6.151  -0.749   0.551  0.00  0.00     0.113 C 
BRANCH  14  15
ATOM     15  C   UNL d   1       7.229  -1.411  -0.303  0.00  0.00     0.119 C 
BRANCH  15  16
ATOM     16  C   UNL d   1       8.596  -1.232   0.301  0.00  0.00     0.139 C 
ATOM     17  O   UNL d   1       8.831  -0.652   1.347  0.00  0.00    -0.650 OA
BRANCH  16  18
ATOM     18  O   UNL d   1       9.570  -1.791  -0.455  0.00  0.00    -0.776 OA
ATOM     19  H   UNL d   1       9.241  -2.228  -1.264  0.00  0.00     0.167 HD
ENDBRANCH  16  18
ENDBRANCH  15  16
ENDBRANCH  14  15
ENDBRANCH   1  14
TORSDOF 5
