REMARK  2 active torsions:
REMARK  status: ('A' for Active; 'I' for Inactive)
REMARK    1  A    between atoms: S_13  and  C_2 
REMARK    2  A    between atoms: C_7  and  C_6 
ROOT
ATOM      1  C   UNL d   1      -1.355  -0.371  -0.005  0.00  0.00     0.135 C 
ATOM      2  C   UNL d   1      -0.464  -1.374  -0.157  0.00  0.00     0.065 C 
ATOM      3  S   UNL d   1       1.220  -1.125  -0.519  0.00  0.00    -0.090 SA
ATOM      4  C   UNL d   1      -0.966   1.059  -0.068  0.00  0.00     0.265 C 
ATOM      5  N   UNL d   1       0.336   1.411  -0.165  0.00  0.00    -0.338 N 
ATOM      6  C   UNL d   1       1.499   0.581  -0.079  0.00  0.00     0.193 C 
ATOM      7  C   UNL d   1      -2.753  -0.615   0.180  0.00  0.00     0.107 C 
ATOM      8  N   UNL d   1      -3.886  -0.836   0.302  0.00  0.00    -0.191 NA
ATOM      9  O   UNL d   1      -1.807   1.954  -0.034  0.00  0.00    -0.267 OA
ATOM     10  H   UNL d   1       0.484   2.412  -0.128  0.00  0.00     0.164 HD
ENDROOT
BRANCH   2  11
ATOM     11  S   UNL d   1      -0.956  -3.058   0.031  0.00  0.00    -0.126 SA
ATOM     12  C   UNL d   1      -0.584  -3.734  -1.605  0.00  0.00     0.096 C 
ENDBRANCH   2  11
BRANCH   6  13
ATOM     13  C   UNL d   1       2.158   0.740   1.262  0.00  0.00     0.015 A 
ATOM     14  S   UNL d   1       3.783   1.312   1.326  0.00  0.00    -0.103 SA
ATOM     15  C   UNL d   1       3.835   1.200   3.027  0.00  0.00     0.050 A 
ATOM     16  C   UNL d   1       2.644   0.749   3.551  0.00  0.00     0.008 A 
ATOM     17  C   UNL d   1       1.675   0.490   2.536  0.00  0.00     0.018 A 
ENDBRANCH   6  13
TORSDOF 2
