REMARK  6 active torsions:
REMARK  status: ('A' for Active; 'I' for Inactive)
REMARK    1  A    between atoms: C_5  and  C_1 
REMARK    2  A    between atoms: O_20  and  C_2 
REMARK    3  A    between atoms: O_16  and  C_5 
REMARK    4  A    between atoms: C_6  and  C_14 
REMARK    5  A    between atoms: N_9  and  O_16 
REMARK    6  A    between atoms: O_23  and  C_11 
ROOT
ATOM      1  N   UNL d   1      -5.880  -0.625  -1.105  0.00  0.00    -0.268 N 
ATOM      2  HN  UNL d   1      -6.644  -0.360  -1.726  1.00  0.00     0.194 HD
ATOM      3  C   UNL d   1      -5.955  -1.538  -0.192  0.00  0.00     0.127 C 
ENDROOT
BRANCH   1   4
ATOM      4  O   UNL d   1      -4.597  -0.051  -1.124  0.00  0.00    -0.195 OA
BRANCH   4   5
ATOM      5  C   UNL d   1      -4.490   0.764  -2.213  0.00  0.00     0.316 C 
ATOM      6  O   UNL d   1      -5.357   1.053  -3.029  0.00  0.00    -0.257 OA
BRANCH   5   7
ATOM      7  C   UNL d   1      -3.153   1.390  -2.271  0.00  0.00     0.063 A 
ATOM      8  C   UNL d   1      -1.950   0.699  -2.075  0.00  0.00     0.052 A 
ATOM      9  C   UNL d   1      -0.730   1.373  -2.215  0.00  0.00     0.048 A 
ATOM     10 CL   UNL d   1      -1.870  -0.993  -1.732  0.00  0.00    -0.083 Cl
ATOM     11  C   UNL d   1      -0.712   2.724  -2.561  0.00  0.00     0.035 A 
ATOM     12  C   UNL d   1      -1.901   3.417  -2.769  0.00  0.00     0.025 A 
ATOM     13 CL   UNL d   1       0.792   3.535  -2.759  0.00  0.00    -0.084 Cl
ATOM     14  C   UNL d   1      -3.119   2.750  -2.626  0.00  0.00     0.021 A 
ENDBRANCH   5   7
ENDBRANCH   4   5
ENDBRANCH   1   4
BRANCH   3  15
ATOM     15  C   UNL d   1      -7.207  -2.315  -0.002  0.00  0.00     0.006 A 
ATOM     16  C   UNL d   1      -7.375  -3.241   1.040  0.00  0.00     0.081 A 
ATOM     17  C   UNL d   1      -8.582  -3.982   1.145  0.00  0.00     0.124 A 
ATOM     18 CL   UNL d   1      -6.137  -3.408   2.252  0.00  0.00    -0.080 Cl
ATOM     19  C   UNL d   1      -9.625  -3.743   0.230  0.00  0.00     0.103 A 
ATOM     20  C   UNL d   1      -9.444  -2.795  -0.783  0.00  0.00     0.040 A 
ATOM     21  C   UNL d   1      -8.248  -2.094  -0.909  0.00  0.00     0.017 A 
BRANCH  17  22
ATOM     22  O   UNL d   1      -8.818  -4.827   2.204  0.00  0.00    -0.351 OA
ATOM     23  C   UNL d   1      -7.952  -5.962   2.257  0.00  0.00     0.210 C 
ENDBRANCH  17  22
BRANCH  19  24
ATOM     24  O   UNL d   1     -10.876  -4.296   0.180  0.00  0.00    -0.353 OA
ATOM     25  C   UNL d   1     -11.149  -5.466   0.932  0.00  0.00     0.210 C 
ENDBRANCH  19  24
ENDBRANCH   3  15
TORSDOF 6
