REMARK  5 active torsions:
REMARK  status: ('A' for Active; 'I' for Inactive)
REMARK    1  A    between atoms: S_6  and  C_1 
REMARK    2  A    between atoms: N_2  and  C_7 
REMARK    3  A    between atoms: N_12  and  C_4 
REMARK    4  A    between atoms: C_5  and  S_6 
REMARK    5  A    between atoms: N_19  and  C_14 
ROOT
ATOM      1  C   UNL d   1      -0.106   1.176   0.068  0.00  0.00     0.136 A 
ATOM      2  S   UNL d   1       1.083  -0.018   0.361  0.00  0.00    -0.026 SA
ATOM      3  C   UNL d   1      -0.134  -1.216   0.060  0.00  0.00     0.166 A 
ATOM      4  N   UNL d   1      -1.300   0.701  -0.207  0.00  0.00    -0.286 N 
ATOM      5  HN  UNL d   1      -2.117   1.282  -0.394  1.00  0.00     0.188 HD
ATOM      6  N   UNL d   1      -1.313  -0.680  -0.211  0.00  0.00    -0.278 N 
ATOM      7  HN  UNL d   1      -2.148  -1.232  -0.404  1.00  0.00     0.189 HD
ENDROOT
BRANCH   1   8
ATOM      8  S   UNL d   1       0.173   2.896   0.204  0.00  0.00    -0.043 SA
BRANCH   8   9
ATOM      9  C   UNL d   1       0.621   3.215  -1.490  0.00  0.00     0.109 A 
ATOM     10  C   UNL d   1      -0.079   4.041  -2.360  0.00  0.00     0.136 A 
ATOM     11  C   UNL d   1       0.371   4.244  -3.672  0.00  0.00     0.040 A 
ATOM     12  C   UNL d   1       1.543   3.619  -4.077  0.00  0.00     0.020 A 
ATOM     13  C   UNL d   1       2.206   2.822  -3.160  0.00  0.00     0.089 A 
ATOM     14  N   UNL d   1       1.773   2.611  -1.894  0.00  0.00    -0.358 N 
ATOM     15  HN  UNL d   1       2.299   2.012  -1.257  1.00  0.00     0.166 HD
BRANCH  10  16
ATOM     16  N   UNL d   1      -1.267   4.741  -1.943  0.00  0.00    -0.113 N 
ATOM     17  O   UNL d   1      -1.153   5.562  -1.025  0.00  0.00    -0.532 OA
ATOM     18  O   UNL d   1      -2.299   4.530  -2.597  0.00  0.00    -0.532 OA
ENDBRANCH  10  16
ENDBRANCH   8   9
ENDBRANCH   1   8
BRANCH   3  19
ATOM     19  N   UNL d   1       0.225  -2.527   0.125  0.00  0.00    -0.332 N 
ATOM     20  C   UNL d   1      -0.722  -3.375  -0.113  0.00  0.00     0.179 C 
ATOM     21  HN  UNL d   1       1.176  -2.821   0.346  1.00  0.00     0.168 HD
BRANCH  20  22
ATOM     22  N   UNL d   1      -0.611  -4.748  -0.113  0.00  0.00    -0.386 N 
ATOM     23  C   UNL d   1       0.652  -5.422   0.151  0.00  0.00     0.149 C 
ATOM     24  C   UNL d   1      -1.734  -5.615  -0.427  0.00  0.00     0.149 C 
ENDBRANCH  20  22
ENDBRANCH   3  19
TORSDOF 5
