REMARK  5 active torsions:
REMARK  status: ('A' for Active; 'I' for Inactive)
REMARK    1  A    between atoms: C_2  and  C_1 
REMARK       I    between atoms: N_4  and  C_1 
REMARK    2  A    between atoms: C_10  and  N_4 
REMARK    3  A    between atoms: C_5  and  S_6 
REMARK    4  A    between atoms: S_6  and  C_14 
REMARK    5  A    between atoms: C_14  and  C_10 
ROOT
ATOM      1  C   UNL d   1       1.202   0.429   0.356  0.00  0.00     0.225 C 
ATOM      2  O   UNL d   1       0.796   1.502  -0.095  0.00  0.00    -0.273 OA
ATOM      3  N   UNL d   1       2.482  -0.021   0.087  0.00  0.00    -0.360 N 
ATOM      4  H   UNL d   1       2.689  -0.993   0.272  0.00  0.00     0.162 HD
ENDROOT
BRANCH   3   5
ATOM      5  C   UNL d   1       3.269   0.674  -0.929  0.00  0.00     0.132 C 
BRANCH   5   6
ATOM      6  C   UNL d   1       4.785   0.509  -0.778  0.00  0.00     0.094 C 
BRANCH   6   7
ATOM      7  S   UNL d   1       5.610   1.484  -2.097  0.00  0.00    -0.159 SA
BRANCH   7   8
ATOM      8  C   UNL d   1       7.407   1.272  -1.719  0.00  0.00    -0.003 C 
ATOM      9  C   UNL d   1       7.819  -0.192  -1.906  0.00  0.00     0.026 C 
ATOM     10  C   UNL d   1       8.174   2.141  -2.733  0.00  0.00     0.026 C 
ATOM     11  C   UNL d   1       7.741   1.758  -0.305  0.00  0.00     0.026 C 
ENDBRANCH   7   8
ENDBRANCH   6   7
ENDBRANCH   5   6
ENDBRANCH   3   5
BRANCH   1  12
ATOM     12  C   UNL d   1       0.296  -0.476   1.213  0.00  0.00     0.030 C 
ATOM     13  C   UNL d   1      -1.049   0.246   1.434  0.00  0.00     0.024 C 
ATOM     14  C   UNL d   1       0.026  -1.798   0.481  0.00  0.00     0.024 C 
ATOM     15  C   UNL d   1       0.928  -0.756   2.582  0.00  0.00     0.024 C 
ENDBRANCH   1  12
TORSDOF 5
