REMARK  1 active torsions:
REMARK  status: ('A' for Active; 'I' for Inactive)
REMARK    1  A    between atoms: C_2  and  C_1 
REMARK       I    between atoms: N_3  and  C_1 
ROOT
ATOM      1  C   UNL d   1       0.667   0.102  -0.018  0.00  0.00     0.274 C 
ATOM      2  N   UNL d   1       0.237   0.740   1.162  0.00  0.00    -0.347 N 
ATOM      3  O   UNL d   1       1.412   0.754  -0.774  0.00  0.00    -0.268 OA
ATOM      4  S   UNL d   1      -1.998   2.883   1.854  0.00  0.00    -0.166 SA
ATOM      5  C   UNL d   1      -0.869   0.335   2.032  0.00  0.00     0.136 C 
ATOM      6  C   UNL d   1       0.646   2.135   1.369  0.00  0.00     0.136 C 
ATOM      7  C   UNL d   1      -0.438   3.124   0.924  0.00  0.00     0.093 C 
ATOM      8  C   UNL d   1      -2.168   1.071   1.655  0.00  0.00     0.093 C 
ENDROOT
BRANCH   1   9
ATOM      9  C   UNL d   1       0.350  -1.391  -0.352  0.00  0.00     0.269 C 
ATOM     10 CL   UNL d   1      -1.373  -1.815  -0.230  0.00  0.00    -0.073 Cl
ATOM     11 CL   UNL d   1       0.811  -1.728  -2.065  0.00  0.00    -0.073 Cl
ATOM     12 CL   UNL d   1       1.347  -2.418   0.712  0.00  0.00    -0.073 Cl
ENDBRANCH   1   9
TORSDOF 1
