REMARK  3 active torsions:
REMARK  status: ('A' for Active; 'I' for Inactive)
REMARK    1  A    between atoms: C_7  and  C_1 
REMARK    2  A    between atoms: C_8  and  C_2 
REMARK    3  A    between atoms: O_12  and  C_7 
ROOT
ATOM      1  C   UNL d   1       0.052  -1.391   0.011  0.00  0.00     0.100 A 
ATOM      2  C   UNL d   1      -1.264  -0.965   0.005  0.00  0.00     0.127 A 
ATOM      3  O   UNL d   1      -1.283   0.399  -0.010  0.00  0.00    -0.236 OA
ATOM      4  N   UNL d   1       0.005   0.890  -0.031  0.00  0.00    -0.264 N 
ATOM      5  HN  UNL d   1       0.290   1.870  -0.048  1.00  0.00     0.194 HD
ATOM      6  C   UNL d   1       0.804  -0.182  -0.026  0.00  0.00     0.048 A 
ATOM      7  C   UNL d   1       2.275   0.003  -0.024  0.00  0.00     0.071 C 
ENDROOT
BRANCH   2   8
ATOM      8  C   UNL d   1      -2.580  -1.597  -0.050  0.00  0.00     0.001 A 
ATOM      9  C   UNL d   1      -3.693  -0.992   0.553  0.00  0.00     0.016 A 
ATOM     10  C   UNL d   1      -4.961  -1.579   0.475  0.00  0.00     0.024 A 
ATOM     11  C   UNL d   1      -5.127  -2.781  -0.207  0.00  0.00     0.034 A 
ATOM     12  C   UNL d   1      -4.036  -3.401  -0.809  0.00  0.00     0.024 A 
ATOM     13 CL   UNL d   1      -6.686  -3.499  -0.318  0.00  0.00    -0.084 Cl
ATOM     14  C   UNL d   1      -2.773  -2.807  -0.735  0.00  0.00     0.016 A 
ENDBRANCH   2   8
BRANCH   1  15
ATOM     15  C   UNL d   1       0.508  -2.758   0.056  0.00  0.00     0.297 C 
ATOM     16  O   UNL d   1      -0.138  -3.675   0.551  0.00  0.00    -0.259 OA
BRANCH  15  17
ATOM     17  O   UNL d   1       1.717  -2.931  -0.554  0.00  0.00    -0.322 OA
ATOM     18  C   UNL d   1       2.124  -4.298  -0.637  0.00  0.00     0.213 C 
ENDBRANCH  15  17
ENDBRANCH   1  15
TORSDOF 3
