REMARK  8 active torsions:
REMARK  status: ('A' for Active; 'I' for Inactive)
REMARK    1  A    between atoms: C_2  and  C_1 
REMARK    2  A    between atoms: C_3  and  C_1 
REMARK    3  A    between atoms: C_5  and  C_1 
REMARK    4  A    between atoms: O_21  and  C_1 
REMARK       I    between atoms: C_4  and  N_6 
REMARK       I    between atoms: N_10  and  C_4 
REMARK    5  A    between atoms: O_24  and  C_5 
REMARK    6  A    between atoms: N_6  and  C_7 
REMARK    7  A    between atoms: O_26  and  C_9 
REMARK    8  A    between atoms: C_13  and  N_10 
ROOT
ATOM      1  C   UNL d   1      -0.119  -1.744   0.766  0.00  0.00    -0.002 A 
ATOM      2  C   UNL d   1      -0.966  -4.317   1.619  0.00  0.00     0.069 A 
ATOM      3  C   UNL d   1       0.451  -2.914   0.221  0.00  0.00     0.050 A 
ATOM      4  C   UNL d   1       0.055  -4.174   0.663  0.00  0.00     0.095 A 
ATOM      5  C   UNL d   1      -1.049  -1.900   1.804  0.00  0.00     0.013 A 
ATOM      6  C   UNL d   1      -1.490  -3.174   2.211  0.00  0.00     0.033 A 
ENDROOT
BRANCH   2   7
ATOM      7  N   UNL d   1      -1.399  -5.633   1.827  0.00  0.00    -0.306 N 
ATOM      8  C   UNL d   1      -2.423  -6.249   2.456  0.00  0.00     0.325 C 
ATOM      9  N   UNL d   1      -3.158  -5.558   3.387  0.00  0.00    -0.309 N 
ATOM     10  O   UNL d   1      -2.603  -7.428   2.155  0.00  0.00    -0.247 OA
ATOM     11  H   UNL d   1      -2.574  -5.014   4.006  0.00  0.00     0.170 HD
ATOM     12  H   UNL d   1      -0.938  -6.300   1.209  0.00  0.00     0.171 HD
BRANCH   9  13
ATOM     13  C   UNL d   1      -4.274  -6.196   3.992  0.00  0.00     0.037 C 
ATOM     14  C   UNL d   1      -5.159  -6.954   3.218  0.00  0.00     0.042 C 
ATOM     15  C   UNL d   1      -5.961  -7.931   3.810  0.00  0.00    -0.024 C 
ATOM     16  C   UNL d   1      -6.714  -8.812   3.022  0.00  0.00     0.012 C 
ATOM     17  C   UNL d   1      -5.903  -8.109   5.208  0.00  0.00    -0.026 C 
ATOM     18  C   UNL d   1      -7.239  -9.975   3.579  0.00  0.00     0.001 C 
ATOM     19  C   UNL d   1      -7.072 -10.226   4.938  0.00  0.00     0.001 C 
ATOM     20  C   UNL d   1      -6.467  -9.271   5.759  0.00  0.00     0.012 C 
ATOM     21  C   UNL d   1      -5.213  -7.160   5.986  0.00  0.00     0.014 C 
ATOM     22  C   UNL d   1      -4.402  -6.195   5.378  0.00  0.00     0.030 C 
ENDBRANCH   9  13
ENDBRANCH   2   7
BRANCH   4  23
ATOM     23  O   UNL d   1       0.551  -5.326   0.093  0.00  0.00    -0.354 OA
ATOM     24  C   UNL d   1       1.976  -5.387   0.124  0.00  0.00     0.210 C 
ENDBRANCH   4  23
BRANCH   1  25
ATOM     25  C   UNL d   1       0.273  -0.398   0.144  0.00  0.00     0.271 C 
BRANCH  25  26
ATOM     26  C   UNL d   1      -0.457   0.889   0.583  0.00  0.00     0.432 C 
ATOM     27  F   UNL d   1      -1.756   0.688   0.905  0.00  0.00    -0.167 F 
ATOM     28  F   UNL d   1       0.119   1.513   1.635  0.00  0.00    -0.167 F 
ATOM     29  F   UNL d   1      -0.463   1.783  -0.446  0.00  0.00    -0.167 F 
ENDBRANCH  25  26
BRANCH  25  30
ATOM     30  C   UNL d   1       1.761  -0.062   0.395  0.00  0.00     0.307 C 
ATOM     31  O   UNL d   1       2.493   0.418  -0.476  0.00  0.00    -0.261 OA
BRANCH  30  32
ATOM     32  O   UNL d   1       2.137  -0.357   1.661  0.00  0.00    -0.324 OA
ATOM     33  C   UNL d   1       3.515  -0.131   1.945  0.00  0.00     0.213 C 
ENDBRANCH  30  32
ENDBRANCH  25  30
BRANCH  25  34
ATOM     34  O   UNL d   1       0.062  -0.591  -1.289  0.00  0.00    -0.368 OA
ATOM     35  H   UNL d   1       0.250   0.268  -1.720  0.00  0.00     0.212 HD
ENDBRANCH  25  34
ENDBRANCH   1  25
TORSDOF 8
