REMARK  6 active torsions:
REMARK  status: ('A' for Active; 'I' for Inactive)
REMARK    1  A    between atoms: C_10  and  C_2 
REMARK    2  A    between atoms: S_8  and  C_3 
REMARK    3  A    between atoms: C_24  and  S_8 
REMARK    4  A    between atoms: C_9  and  N_13 
REMARK    5  A    between atoms: C_11  and  C_10 
REMARK    6  A    between atoms: C_12  and  C_24 
REMARK       I    between atoms: N_13  and  C_12 
ROOT
ATOM      1  N   UNL d   1       1.024   0.130   0.329  0.00  0.00    -0.319 N 
ATOM      2  C   UNL d   1       0.132   1.138   0.034  0.00  0.00     0.104 A 
ATOM      3  C   UNL d   1       0.259  -0.987   0.514  0.00  0.00     0.162 A 
ATOM      4  N   UNL d   1      -1.081   0.619  -0.040  0.00  0.00    -0.286 N 
ATOM      5  HN  UNL d   1      -1.934   1.126  -0.277  1.00  0.00     0.188 HD
ATOM      6  N   UNL d   1      -0.996  -0.712   0.255  0.00  0.00    -0.278 N 
ATOM      7  HN  UNL d   1      -1.772  -1.374   0.271  1.00  0.00     0.189 HD
ATOM      8  C   UNL d   1       2.457   0.235   0.429  0.00  0.00     0.159 C 
ENDROOT
BRANCH   3   9
ATOM      9  S   UNL d   1       0.803  -2.456   1.243  0.00  0.00    -0.083 SA
BRANCH   9  10
ATOM     10  C   UNL d   1      -0.633  -3.550   1.020  0.00  0.00     0.185 C 
BRANCH  10  11
ATOM     11  C   UNL d   1      -1.806  -3.365   1.985  0.00  0.00     0.231 C 
ATOM     12  N   UNL d   1      -1.983  -2.100   2.504  0.00  0.00    -0.326 N 
ATOM     13  H   UNL d   1      -1.355  -1.391   2.145  0.00  0.00     0.169 HD
ATOM     14  O   UNL d   1      -2.564  -4.315   2.188  0.00  0.00    -0.272 OA
BRANCH  12  15
ATOM     15  C   UNL d   1      -3.059  -1.604   3.267  0.00  0.00     0.037 A 
ATOM     16  C   UNL d   1      -4.099  -2.389   3.763  0.00  0.00     0.053 A 
ATOM     17  C   UNL d   1      -5.159  -1.790   4.448  0.00  0.00     0.037 A 
ATOM     18 CL   UNL d   1      -6.457  -2.763   5.030  0.00  0.00    -0.084 Cl
ATOM     19  C   UNL d   1      -5.191  -0.417   4.662  0.00  0.00     0.048 A 
ATOM     20  C   UNL d   1      -4.140   0.364   4.187  0.00  0.00     0.037 A 
ATOM     21  C   UNL d   1      -3.078  -0.222   3.498  0.00  0.00     0.053 A 
ATOM     22 CL   UNL d   1      -4.154   2.066   4.444  0.00  0.00    -0.084 Cl
ENDBRANCH  12  15
ENDBRANCH  10  11
ENDBRANCH   9  10
ENDBRANCH   3   9
BRANCH   2  23
ATOM     23  C   UNL d   1       0.450   2.590  -0.097  0.00  0.00     0.117 C 
BRANCH  23  24
ATOM     24  C   UNL d   1       0.782   3.012  -1.498  0.00  0.00    -0.044 A 
ATOM     25  C   UNL d   1       1.992   3.552  -1.899  0.00  0.00     0.057 A 
ATOM     26  S   UNL d   1       2.007   4.000  -3.549  0.00  0.00    -0.113 SA
ATOM     27  C   UNL d   1       0.394   3.485  -3.760  0.00  0.00     0.050 A 
ATOM     28  C   UNL d   1      -0.140   2.973  -2.598  0.00  0.00     0.015 A 
ENDBRANCH  23  24
ENDBRANCH   2  23
TORSDOF 6
