REMARK  6 active torsions:
REMARK  status: ('A' for Active; 'I' for Inactive)
REMARK    1  A    between atoms: C_9  and  C_3 
REMARK    2  A    between atoms: C_12  and  C_6 
REMARK    3  A    between atoms: C_8  and  O_10 
REMARK    4  A    between atoms: O_10  and  C_18 
REMARK    5  A    between atoms: S_11  and  C_12 
REMARK    6  A    between atoms: C_19  and  S_11 
ROOT
ATOM      1  N   UNL d   1       1.302   0.204  -0.178  0.00  0.00    -0.322 N 
ATOM      2  HN  UNL d   1       2.275   0.391  -0.422  1.00  0.00     0.169 HD
ATOM      3  C   UNL d   1       0.278   1.103   0.033  0.00  0.00     0.137 A 
ATOM      4  N   UNL d   1      -0.906   0.523   0.292  0.00  0.00    -0.242 N 
ATOM      5  HN  UNL d   1      -1.805   0.976   0.457  1.00  0.00     0.196 HD
ATOM      6  C   UNL d   1       0.713  -0.955   0.015  0.00  0.00     0.158 A 
ATOM      7  O   UNL d   1      -0.620  -0.840   0.282  0.00  0.00    -0.222 OA
ENDROOT
BRANCH   3   8
ATOM      8  C   UNL d   1       0.512   2.544  -0.003  0.00  0.00     0.010 A 
ATOM      9  C   UNL d   1       1.806   3.044  -0.210  0.00  0.00     0.018 A 
ATOM     10  C   UNL d   1       2.055   4.423  -0.260  0.00  0.00     0.038 A 
ATOM     11  C   UNL d   1       0.996   5.321  -0.132  0.00  0.00     0.078 A 
ATOM     12  C   UNL d   1      -0.286   4.829   0.122  0.00  0.00     0.038 A 
ATOM     13  C   UNL d   1      -0.534   3.453   0.181  0.00  0.00     0.018 A 
BRANCH  11  14
ATOM     14  O   UNL d   1       1.072   6.678  -0.216  0.00  0.00    -0.255 OA
BRANCH  14  15
ATOM     15  C   UNL d   1       2.170   7.257  -0.902  0.00  0.00     0.530 C 
ATOM     16  F   UNL d   1       2.636   6.483  -1.905  0.00  0.00    -0.144 F 
ATOM     17  F   UNL d   1       1.763   8.427  -1.444  0.00  0.00    -0.144 F 
ATOM     18  F   UNL d   1       3.172   7.518  -0.038  0.00  0.00    -0.144 F 
ENDBRANCH  14  15
ENDBRANCH  11  14
ENDBRANCH   3   8
BRANCH   6  19
ATOM     19  C   UNL d   1       1.279  -2.328   0.005  0.00  0.00     0.166 C 
BRANCH  19  20
ATOM     20  S   UNL d   1       2.914  -2.350   0.831  0.00  0.00    -0.122 SA
BRANCH  20  21
ATOM     21  C   UNL d   1       3.495  -4.001   0.498  0.00  0.00     0.001 A 
ATOM     22  C   UNL d   1       4.864  -4.171   0.251  0.00  0.00     0.020 A 
ATOM     23  C   UNL d   1       5.402  -5.447   0.058  0.00  0.00     0.020 A 
ATOM     24  C   UNL d   1       4.568  -6.561   0.117  0.00  0.00     0.011 A 
ATOM     25  C   UNL d   1       3.205  -6.406   0.362  0.00  0.00     0.020 A 
ATOM     26 BR   UNL d   1       5.293  -8.290  -0.112  0.00  0.00    -0.051 Br
ATOM     27  C   UNL d   1       2.671  -5.129   0.557  0.00  0.00     0.020 A 
ENDBRANCH  20  21
ENDBRANCH  19  20
ENDBRANCH   6  19
TORSDOF 6
