REMARK  3 active torsions:
REMARK  status: ('A' for Active; 'I' for Inactive)
REMARK    1  A    between atoms: C_6  and  C_2 
REMARK    2  A    between atoms: S_9  and  C_3 
REMARK    3  A    between atoms: C_8  and  C_6 
ROOT
ATOM      1  C   UNL d   1       0.481   0.662  -0.059  0.00  0.00     0.041 A 
ATOM      2  C   UNL d   1       1.278  -1.556   0.018  0.00  0.00     0.064 A 
ATOM      3  C   UNL d   1       1.849   0.860  -0.114  0.00  0.00     0.056 A 
ATOM      4  C   UNL d   1       0.151  -0.749  -0.019  0.00  0.00    -0.021 A 
ATOM      5  S   UNL d   1       2.699  -0.624  -0.175  0.00  0.00    -0.078 SA
ATOM      6  C   UNL d   1      -0.566   1.690  -0.024  0.00  0.00     0.162 C 
ATOM      7  O   UNL d   1      -0.349   2.889  -0.184  0.00  0.00    -0.292 OA
ATOM      8  C   UNL d   1      -1.278  -1.223   0.043  0.00  0.00     0.041 C 
ATOM      9  C   UNL d   1      -1.973   1.198   0.283  0.00  0.00     0.084 C 
ATOM     10  C   UNL d   1      -2.254  -0.134  -0.407  0.00  0.00     0.012 C 
ENDROOT
BRANCH   2  11
ATOM     11  C   UNL d   1       1.323  -3.013   0.103  0.00  0.00     0.199 C 
ATOM     12  O   UNL d   1       0.420  -3.723  -0.343  0.00  0.00    -0.286 OA
BRANCH  11  13
ATOM     13  C   UNL d   1       2.448  -3.729   0.775  0.00  0.00     0.015 A 
ATOM     14  C   UNL d   1       2.790  -5.008   0.308  0.00  0.00     0.017 A 
ATOM     15  C   UNL d   1       3.817  -5.733   0.917  0.00  0.00     0.025 A 
ATOM     16  C   UNL d   1       4.502  -5.184   1.998  0.00  0.00     0.034 A 
ATOM     17  C   UNL d   1       4.154  -3.926   2.489  0.00  0.00     0.025 A 
ATOM     18 CL   UNL d   1       5.776  -6.069   2.740  0.00  0.00    -0.084 Cl
ATOM     19  C   UNL d   1       3.117  -3.204   1.889  0.00  0.00     0.017 A 
ENDBRANCH  11  13
ENDBRANCH   2  11
BRANCH   3  20
ATOM     20  S   UNL d   1       2.751   2.371  -0.069  0.00  0.00    -0.126 SA
ATOM     21  C   UNL d   1       2.846   2.751  -1.833  0.00  0.00     0.096 C 
ENDBRANCH   3  20
TORSDOF 3
