REMARK  2 active torsions:
REMARK  status: ('A' for Active; 'I' for Inactive)
REMARK    1  A    between atoms: C_7  and  N_1 
REMARK    2  A    between atoms: C_9  and  C_7 
ROOT
ATOM      1  N   UNL d   1       2.205  -0.694   0.855  0.00  0.00    -0.277 N 
ATOM      2  C   UNL d   1       1.533  -1.873   0.663  0.00  0.00     0.261 A 
ATOM      3  C   UNL d   1       1.875  -0.124   2.054  0.00  0.00     0.261 A 
ATOM      4  C   UNL d   1       0.634  -2.036   1.806  0.00  0.00     0.048 A 
ATOM      5  C   UNL d   1       0.846  -0.967   2.656  0.00  0.00     0.048 A 
ATOM      6  O   UNL d   1       1.650  -2.696  -0.223  0.00  0.00    -0.267 OA
ATOM      7  O   UNL d   1       2.337   0.869   2.582  0.00  0.00    -0.267 OA
ATOM      8  C   UNL d   1       0.188  -0.852   3.865  0.00  0.00     0.018 A 
ATOM      9  C   UNL d   1      -0.247  -3.053   2.116  0.00  0.00     0.018 A 
ATOM     10  C   UNL d   1      -0.924  -2.962   3.336  0.00  0.00     0.001 A 
ATOM     11  C   UNL d   1      -0.709  -1.870   4.203  0.00  0.00     0.001 A 
ENDROOT
BRANCH   1  12
ATOM     12  C   UNL d   1       3.341  -0.290   0.041  0.00  0.00     0.170 C 
BRANCH  12  13
ATOM     13  C   UNL d   1       3.387   1.201  -0.352  0.00  0.00     0.171 C 
ATOM     14  O   UNL d   1       4.602   1.467  -1.088  0.00  0.00    -0.339 OA
ATOM     15  C   UNL d   1       4.491   1.151  -2.419  0.00  0.00     0.102 A 
ATOM     16  C   UNL d   1       5.673   1.104  -3.154  0.00  0.00     0.039 A 
ATOM     17  C   UNL d   1       3.269   0.858  -3.038  0.00  0.00     0.102 A 
ATOM     18  C   UNL d   1       5.642   0.716  -4.495  0.00  0.00     0.003 A 
ATOM     19  C   UNL d   1       4.430   0.374  -5.096  0.00  0.00     0.003 A 
ATOM     20  C   UNL d   1       3.242   0.447  -4.367  0.00  0.00     0.039 A 
ATOM     21  O   UNL d   1       2.064   0.923  -2.384  0.00  0.00    -0.346 OA
ATOM     22  C   UNL d   1       2.183   1.665  -1.165  0.00  0.00     0.209 C 
ENDBRANCH  12  13
ENDBRANCH   1  12
TORSDOF 2
