REMARK  5 active torsions:
REMARK  status: ('A' for Active; 'I' for Inactive)
REMARK    1  A    between atoms: C_11  and  C_1 
REMARK    2  A    between atoms: N_8  and  C_2 
REMARK    3  A    between atoms: C_6  and  N_8 
REMARK    4  A    between atoms: N_7  and  C_6 
REMARK       I    between atoms: C_10  and  N_7 
REMARK    5  A    between atoms: C_17  and  C_10 
ROOT
ATOM      1  N   UNL d   1       2.153  -1.205  -0.088  0.00  0.00    -0.318 N 
ATOM      2  H   UNL d   1       1.443  -0.470   0.013  0.00  0.00     0.170 HD
ENDROOT
BRANCH   1   3
ATOM      3  C   UNL d   1       3.511  -0.769  -0.207  0.00  0.00     0.180 C 
ATOM      4  S   UNL d   1       4.875  -1.701  -0.434  0.00  0.00    -0.040 SA
BRANCH   3   5
ATOM      5  N   UNL d   1       3.651   0.600  -0.124  0.00  0.00    -0.299 N 
ATOM      6  C   UNL d   1       2.650   1.521   0.136  0.00  0.00     0.257 C 
ATOM      7  O   UNL d   1       1.501   1.165   0.380  0.00  0.00    -0.267 OA
ATOM      8  H   UNL d   1       4.604   0.919  -0.206  0.00  0.00     0.171 HD
BRANCH   6   9
ATOM      9  C   UNL d   1       3.007   2.971   0.117  0.00  0.00     0.032 A 
ATOM     10  C   UNL d   1       4.152   3.474  -0.516  0.00  0.00     0.017 A 
ATOM     11  C   UNL d   1       4.380   4.854  -0.554  0.00  0.00     0.001 A 
ATOM     12  C   UNL d   1       3.472   5.735   0.032  0.00  0.00     0.000 A 
ATOM     13  C   UNL d   1       2.336   5.242   0.668  0.00  0.00     0.001 A 
ATOM     14  C   UNL d   1       2.104   3.866   0.711  0.00  0.00     0.017 A 
ENDBRANCH   6   9
ENDBRANCH   3   5
ENDBRANCH   1   3
BRANCH   1  15
ATOM     15  C   UNL d   1       1.709  -2.514   0.028  0.00  0.00     0.124 A 
ATOM     16  C   UNL d   1       0.392  -2.873   0.203  0.00  0.00     0.082 A 
ATOM     17  C   UNL d   1       0.419  -4.270   0.451  0.00  0.00     0.068 A 
ATOM     18  N   UNL d   1       1.662  -4.761   0.343  0.00  0.00    -0.298 N 
ATOM     19  N   UNL d   1       2.413  -3.686   0.056  0.00  0.00    -0.285 N 
ATOM     20  HN  UNL d   1       1.967  -5.728   0.454  1.00  0.00     0.187 HD
ATOM     21  H   UNL d   1       3.412  -3.816  -0.066  0.00  0.00     0.188 HD
BRANCH  17  22
ATOM     22  C   UNL d   1      -0.745  -5.139   0.831  0.00  0.00     0.033 A 
ATOM     23  S   UNL d   1      -2.361  -4.594   0.954  0.00  0.00    -0.100 SA
ATOM     24  C   UNL d   1      -2.918  -6.144   1.418  0.00  0.00     0.050 A 
ATOM     25  C   UNL d   1      -1.891  -7.060   1.490  0.00  0.00     0.008 A 
ATOM     26  C   UNL d   1      -0.634  -6.478   1.151  0.00  0.00     0.021 A 
ENDBRANCH  17  22
ENDBRANCH   1  15
TORSDOF 5
