REMARK  3 active torsions:
REMARK  status: ('A' for Active; 'I' for Inactive)
REMARK       I    between atoms: C_9  and  N_1 
REMARK    1  A    between atoms: S_10  and  C_4 
REMARK    2  A    between atoms: C_7  and  C_8 
REMARK    3  A    between atoms: C_13  and  S_10 
ROOT
ATOM      1  S   UNL d   1      -0.754   2.820   0.017  0.00  0.00    -0.069 SA
ENDROOT
BRANCH   1   2
ATOM      2  C   UNL d   1      -0.200   1.163   0.108  0.00  0.00     0.055 A 
ATOM      3  C   UNL d   1      -1.032   0.056   0.074  0.00  0.00     0.052 A 
ATOM      4  N   UNL d   1      -0.201  -1.060   0.078  0.00  0.00    -0.228 N 
ATOM      5  C   UNL d   1      -2.517  -0.054   0.012  0.00  0.00     0.072 C 
ATOM      6  N   UNL d   1       1.105  -0.697   0.150  0.00  0.00    -0.294 N 
ATOM      7  C   UNL d   1      -0.554  -2.428   0.010  0.00  0.00     0.238 C 
ATOM      8  C   UNL d   1       1.113   0.639   0.138  0.00  0.00     0.041 A 
ATOM      9  HN  UNL d   1       1.913  -1.317   0.203  1.00  0.00     0.187 HD
ATOM     10  C   UNL d   1       2.430   1.324   0.128  0.00  0.00     0.071 C 
ATOM     11  O   UNL d   1      -1.733  -2.761  -0.031  0.00  0.00    -0.272 OA
ATOM     12  C   UNL d   1       0.582  -3.414  -0.001  0.00  0.00     0.119 C 
ENDBRANCH   1   2
BRANCH   1  13
ATOM     13  C   UNL d   1       0.435   3.799   0.894  0.00  0.00     0.074 A 
ATOM     14  N   UNL d   1       1.416   4.369   0.154  0.00  0.00    -0.359 N 
ATOM     15  C   UNL d   1       2.276   5.205   0.782  0.00  0.00     0.105 A 
ATOM     16  HN  UNL d   1       1.503   4.174  -0.843  1.00  0.00     0.166 HD
ATOM     17  C   UNL d   1       2.210   5.517   2.130  0.00  0.00     0.063 A 
ATOM     18  C   UNL d   1       1.196   4.911   2.878  0.00  0.00     0.020 A 
ATOM     19  C   UNL d   1       0.297   4.043   2.255  0.00  0.00     0.038 A 
BRANCH  17  20
ATOM     20  C   UNL d   1       3.178   6.484   2.741  0.00  0.00     0.418 C 
ATOM     21  F   UNL d   1       4.103   6.960   1.863  0.00  0.00    -0.166 F 
ATOM     22  F   UNL d   1       2.558   7.581   3.259  0.00  0.00    -0.166 F 
ATOM     23  F   UNL d   1       3.885   5.936   3.767  0.00  0.00    -0.166 F 
ENDBRANCH  17  20
ENDBRANCH   1  13
TORSDOF 3
