REMARK  5 active torsions:
REMARK  status: ('A' for Active; 'I' for Inactive)
REMARK    1  A    between atoms: C_7  and  C_1 
REMARK    2  A    between atoms: C_10  and  C_4 
REMARK    3  A    between atoms: O_21  and  C_7 
REMARK    4  A    between atoms: C_9  and  C_11 
REMARK    5  A    between atoms: O_20  and  C_9 
ROOT
ATOM      1  C   UNL d   1       2.057  -1.334  -0.086  0.00  0.00     0.052 A 
ATOM      2  C   UNL d   1      -0.345  -0.467  -0.099  0.00  0.00     0.023 A 
ATOM      3  C   UNL d   1       2.462  -0.044   0.022  0.00  0.00     0.018 A 
ATOM      4  C   UNL d   1       0.560  -1.691  -0.161  0.00  0.00     0.098 A 
ATOM      5  C   UNL d   1       0.152   0.784  -0.007  0.00  0.00     0.020 A 
ATOM      6  N   UNL d   1       1.517   0.973   0.045  0.00  0.00    -0.362 N 
ATOM      7  C   UNL d   1      -1.822  -0.650  -0.153  0.00  0.00     0.158 C 
ATOM      8  O   UNL d   1      -2.319  -1.717  -0.509  0.00  0.00    -0.293 OA
ATOM      9  C   UNL d   1      -0.702   2.030   0.030  0.00  0.00     0.058 C 
ATOM     10  C   UNL d   1       3.887   0.445   0.120  0.00  0.00     0.069 C 
ATOM     11  C   UNL d   1      -2.680   0.512   0.287  0.00  0.00     0.084 C 
ATOM     12  C   UNL d   1      -2.158   1.785  -0.353  0.00  0.00     0.014 C 
ATOM     13  H   UNL d   1       1.862   1.928   0.116  0.00  0.00     0.165 HD
ENDROOT
BRANCH   4  14
ATOM     14  C   UNL d   1       0.187  -2.726   0.912  0.00  0.00    -0.045 A 
ATOM     15  C   UNL d   1      -0.226  -4.014   0.521  0.00  0.00     0.009 A 
ATOM     16  C   UNL d   1      -0.479  -5.004   1.469  0.00  0.00     0.019 A 
ATOM     17  C   UNL d   1      -0.356  -4.711   2.831  0.00  0.00     0.037 A 
ATOM     18  C   UNL d   1       0.033  -3.427   3.232  0.00  0.00     0.019 A 
ATOM     19  C   UNL d   1       0.303  -2.439   2.279  0.00  0.00     0.009 A 
BRANCH  17  20
ATOM     20  C   UNL d   1      -0.561  -5.739   3.883  0.00  0.00     0.176 C 
ATOM     21  O   UNL d   1       0.014  -5.707   4.958  0.00  0.00    -0.646 OA
BRANCH  20  22
ATOM     22  O   UNL d   1      -1.457  -6.694   3.559  0.00  0.00    -0.773 OA
ATOM     23  H   UNL d   1      -1.987  -6.509   2.762  0.00  0.00     0.167 HD
ENDBRANCH  20  22
ENDBRANCH  17  20
ENDBRANCH   4  14
BRANCH   1  24
ATOM     24  C   UNL d   1       3.022  -2.469  -0.071  0.00  0.00     0.291 C 
ATOM     25  O   UNL d   1       4.070  -2.484   0.554  0.00  0.00    -0.260 OA
BRANCH  24  26
ATOM     26  O   UNL d   1       2.546  -3.495  -0.824  0.00  0.00    -0.323 OA
ATOM     27  C   UNL d   1       3.288  -4.715  -0.722  0.00  0.00     0.213 C 
ENDBRANCH  24  26
ENDBRANCH   1  24
TORSDOF 5
