REMARK  4 active torsions:
REMARK  status: ('A' for Active; 'I' for Inactive)
REMARK    1  A    between atoms: C_8  and  C_1 
REMARK    2  A    between atoms: C_2  and  N_6 
REMARK    3  A    between atoms: C_5  and  C_9 
REMARK    4  A    between atoms: N_6  and  N_10 
REMARK       I    between atoms: N_10  and  C_8 
ROOT
ATOM      1  C   UNL d   1      -3.244   0.279   0.048  0.00  0.00     0.268 C 
ATOM      2  N   UNL d   1      -3.956   1.473  -0.007  0.00  0.00    -0.282 N 
ATOM      3  O   UNL d   1      -3.803  -0.812   0.116  0.00  0.00    -0.266 OA
ATOM      4  H   UNL d   1      -3.520   2.348   0.274  0.00  0.00     0.184 HD
ENDROOT
BRANCH   1   5
ATOM      5  C   UNL d   1      -1.756   0.399  -0.001  0.00  0.00     0.055 A 
ATOM      6  C   UNL d   1      -0.901  -0.550   0.573  0.00  0.00     0.021 A 
ATOM      7  N   UNL d   1       0.459  -0.453   0.481  0.00  0.00    -0.355 N 
ATOM      8  C   UNL d   1      -1.380  -1.729   1.370  0.00  0.00     0.069 C 
ATOM      9  C   UNL d   1       1.014   0.584  -0.205  0.00  0.00     0.117 A 
ATOM     10  HN  UNL d   1       1.054  -1.154   0.923  1.00  0.00     0.166 HD
ATOM     11  C   UNL d   1       0.221   1.562  -0.797  0.00  0.00     0.035 A 
ATOM     12  C   UNL d   1      -1.168   1.465  -0.696  0.00  0.00     0.021 A 
BRANCH   9  13
ATOM     13  C   UNL d   1       2.530   0.673  -0.349  0.00  0.00     0.432 C 
ATOM     14  F   UNL d   1       3.219  -0.327   0.268  0.00  0.00    -0.165 F 
ATOM     15  F   UNL d   1       2.928   0.649  -1.655  0.00  0.00    -0.165 F 
ATOM     16  F   UNL d   1       3.031   1.839   0.159  0.00  0.00    -0.165 F 
ENDBRANCH   9  13
ENDBRANCH   1   5
BRANCH   2  17
ATOM     17  N   UNL d   1      -5.344   1.399   0.219  0.00  0.00    -0.200 NA
ATOM     18  H   UNL d   1      -5.667   0.423   0.120  0.00  0.00     0.153 HD
BRANCH  17  19
ATOM     19  C   UNL d   1      -6.149   2.278  -0.575  0.00  0.00     0.073 A 
ATOM     20  C   UNL d   1      -7.447   1.857  -0.942  0.00  0.00     0.073 A 
ATOM     21 CL   UNL d   1      -8.018   0.267  -0.574  0.00  0.00    -0.081 Cl
ATOM     22  C   UNL d   1      -8.297   2.727  -1.619  0.00  0.00     0.113 A 
ATOM     23  N   UNL d   1      -7.968   3.993  -1.950  0.00  0.00    -0.372 N 
ATOM     24  C   UNL d   1      -6.739   4.406  -1.568  0.00  0.00     0.113 A 
ATOM     25  HN  UNL d   1      -8.609   4.603  -2.459  1.00  0.00     0.164 HD
ATOM     26  C   UNL d   1      -5.815   3.613  -0.882  0.00  0.00     0.073 A 
ATOM     27 CL   UNL d   1      -4.331   4.373  -0.418  0.00  0.00    -0.081 Cl
ENDBRANCH  17  19
ENDBRANCH   2  17
TORSDOF 4
