REMARK  4 active torsions:
REMARK  status: ('A' for Active; 'I' for Inactive)
REMARK    1  A    between atoms: C_9  and  C_1 
REMARK    2  A    between atoms: C_13  and  C_8 
REMARK    3  A    between atoms: C_12  and  C_11 
REMARK    4  A    between atoms: C_19  and  C_13 
ROOT
ATOM      1  C   UNL d   1      -2.217  -7.108   0.821  0.00  0.00     0.096 C 
ATOM      2  C   UNL d   1      -1.018  -6.621   1.207  0.00  0.00     0.045 C 
ATOM      3  C   UNL d   1      -2.974  -8.027   1.595  0.00  0.00     0.103 C 
ATOM      4  N   UNL d   1      -3.575  -8.811   2.205  0.00  0.00    -0.191 NA
ENDROOT
BRANCH   1   5
ATOM      5  C   UNL d   1      -2.792  -6.606  -0.474  0.00  0.00     0.202 C 
ATOM      6  O   UNL d   1      -2.489  -5.505  -0.927  0.00  0.00    -0.286 OA
BRANCH   5   7
ATOM      7  C   UNL d   1      -3.764  -7.463  -1.219  0.00  0.00     0.015 A 
ATOM      8  C   UNL d   1      -4.820  -6.853  -1.909  0.00  0.00     0.015 A 
ATOM      9  C   UNL d   1      -5.755  -7.635  -2.598  0.00  0.00     0.001 A 
ATOM     10  C   UNL d   1      -5.633  -9.024  -2.607  0.00  0.00     0.000 A 
ATOM     11  C   UNL d   1      -4.568  -9.634  -1.949  0.00  0.00     0.001 A 
ATOM     12  C   UNL d   1      -3.626  -8.857  -1.272  0.00  0.00     0.015 A 
ENDBRANCH   5   7
ENDBRANCH   1   5
BRANCH   2  13
ATOM     13  C   UNL d   1      -0.318  -7.038   2.388  0.00  0.00     0.007 A 
ATOM     14  S   UNL d   1       0.643  -5.892   3.245  0.00  0.00    -0.088 SA
ATOM     15  C   UNL d   1       1.177  -7.029   4.409  0.00  0.00     0.034 A 
ATOM     16  C   UNL d   1       2.081  -6.723   5.494  0.00  0.00     0.069 A 
ATOM     17  C   UNL d   1       0.598  -8.259   4.174  0.00  0.00     0.023 A 
ATOM     18  C   UNL d   1       2.126  -7.303   6.751  0.00  0.00     0.068 A 
ATOM     19  N   UNL d   1       3.138  -5.839   5.483  0.00  0.00    -0.295 N 
ATOM     20  C   UNL d   1       3.249  -6.742   7.417  0.00  0.00     0.134 A 
ATOM     21  N   UNL d   1       3.853  -5.836   6.628  0.00  0.00    -0.294 N 
ATOM     22  HN  UNL d   1       4.672  -5.270   6.848  1.00  0.00     0.187 HD
ATOM     23  C   UNL d   1       3.626  -5.027   4.392  0.00  0.00     0.178 C 
ATOM     24  C   UNL d   1      -0.227  -8.272   3.010  0.00  0.00     0.020 A 
BRANCH  20  25
ATOM     25  C   UNL d   1       3.747  -7.100   8.793  0.00  0.00     0.434 C 
ATOM     26  F   UNL d   1       4.874  -6.436   9.161  0.00  0.00    -0.165 F 
ATOM     27  F   UNL d   1       2.813  -6.845   9.750  0.00  0.00    -0.165 F 
ATOM     28  F   UNL d   1       4.033  -8.429   8.888  0.00  0.00    -0.165 F 
ENDBRANCH  20  25
ENDBRANCH   2  13
TORSDOF 4
