REMARK  3 active torsions:
REMARK  status: ('A' for Active; 'I' for Inactive)
REMARK    1  A    between atoms: C_2  and  S_1 
REMARK    2  A    between atoms: N_6  and  S_1 
REMARK    3  A    between atoms: C_3  and  N_6 
ROOT
ATOM      1  N   UNL d   1       0.638   0.376  -1.420  0.00  0.00    -0.177 NA
ATOM      2  H   UNL d   1       1.220   0.499  -0.591  0.00  0.00     0.146 HD
ENDROOT
BRANCH   1   3
ATOM      3  C   UNL d   1       0.875   1.278  -2.466  0.00  0.00     0.070 A 
ATOM      4  C   UNL d   1      -0.043   1.790  -3.362  0.00  0.00     0.048 A 
ATOM      5  N   UNL d   1       0.644   2.721  -4.100  0.00  0.00    -0.299 N 
ATOM      6  C   UNL d   1      -1.494   1.527  -3.540  0.00  0.00     0.072 C 
ATOM      7  C   UNL d   1       0.132   3.646  -5.086  0.00  0.00     0.177 C 
ATOM      8  N   UNL d   1       1.949   2.797  -3.785  0.00  0.00    -0.301 N 
ATOM      9  C   UNL d   1       2.094   1.941  -2.769  0.00  0.00     0.046 A 
ATOM     10  HN  UNL d   1       2.666   3.376  -4.222  1.00  0.00     0.187 HD
ATOM     11  C   UNL d   1       3.426   1.776  -2.143  0.00  0.00     0.072 C 
ENDBRANCH   1   3
BRANCH   1  12
ATOM     12  S   UNL d   1       0.505  -1.284  -1.740  0.00  0.00     0.248 S 
ATOM     13  O   UNL d   1       0.217  -1.950  -0.488  0.00  0.00    -0.205 OA
ATOM     14  O   UNL d   1      -0.291  -1.511  -2.925  0.00  0.00    -0.205 OA
BRANCH  12  15
ATOM     15  C   UNL d   1       2.076  -1.877  -2.153  0.00  0.00     0.105 A 
ATOM     16  C   UNL d   1       3.173  -1.821  -1.327  0.00  0.00     0.099 A 
ATOM     17  S   UNL d   1       4.571  -2.483  -2.035  0.00  0.00    -0.064 SA
ATOM     18 CL   UNL d   1       3.305  -1.153   0.254  0.00  0.00    -0.075 Cl
ATOM     19  C   UNL d   1       3.721  -2.847  -3.453  0.00  0.00     0.077 A 
ATOM     20  C   UNL d   1       2.400  -2.483  -3.409  0.00  0.00     0.058 A 
ATOM     21 CL   UNL d   1       4.536  -3.598  -4.764  0.00  0.00    -0.076 Cl
ENDBRANCH  12  15
ENDBRANCH   1  12
TORSDOF 3
