REMARK  3 active torsions:
REMARK  status: ('A' for Active; 'I' for Inactive)
REMARK    1  A    between atoms: N_11  and  C_8 
REMARK    2  A    between atoms: C_18  and  N_11 
REMARK    3  A    between atoms: C_19  and  C_18 
ROOT
ATOM      1  C   UNL d   1      -0.031   0.735   0.011  0.00  0.00     0.133 A 
ATOM      2  C   UNL d   1      -0.064  -0.624   0.041  0.00  0.00     0.098 A 
ATOM      3  N   UNL d   1       1.224   1.375   0.085  0.00  0.00    -0.288 N 
ATOM      4  N   UNL d   1       2.385  -0.680  -0.029  0.00  0.00    -0.270 N 
ATOM      5  C   UNL d   1       2.443   0.690  -0.028  0.00  0.00     0.332 C 
ATOM      6  C   UNL d   1       1.221  -1.383   0.128  0.00  0.00     0.267 C 
ATOM      7  N   UNL d   1      -1.273   1.420  -0.096  0.00  0.00    -0.304 N 
ATOM      8  C   UNL d   1      -1.328  -1.378  -0.008  0.00  0.00     0.033 A 
ATOM      9  C   UNL d   1      -2.482  -0.711  -0.031  0.00  0.00     0.099 A 
ATOM     10  C   UNL d   1      -2.508   0.756  -0.042  0.00  0.00     0.250 A 
ATOM     11  O   UNL d   1       3.518   1.289  -0.105  0.00  0.00    -0.246 OA
ATOM     12  O   UNL d   1       1.228  -2.602   0.323  0.00  0.00    -0.267 OA
ATOM     13  O   UNL d   1      -3.605   1.315  -0.030  0.00  0.00    -0.268 OA
ATOM     14  C   UNL d   1       1.410   2.804   0.293  0.00  0.00     0.163 C 
ATOM     15  C   UNL d   1       3.625  -1.439  -0.040  0.00  0.00     0.164 C 
ATOM     16  C   UNL d   1      -1.427   2.853  -0.275  0.00  0.00     0.161 C 
ENDROOT
BRANCH   8  17
ATOM     17  N   UNL d   1      -1.349  -2.777   0.033  0.00  0.00    -0.288 NA
ATOM     18  H   UNL d   1      -0.529  -3.103   0.562  0.00  0.00     0.128 HD
BRANCH  17  19
ATOM     19  C   UNL d   1      -1.357  -3.562  -1.207  0.00  0.00     0.131 C 
BRANCH  19  20
ATOM     20  C   UNL d   1      -2.572  -4.448  -1.259  0.00  0.00    -0.045 A 
ATOM     21  C   UNL d   1      -3.724  -4.030  -1.941  0.00  0.00     0.008 A 
ATOM     22  C   UNL d   1      -4.856  -4.845  -1.985  0.00  0.00     0.001 A 
ATOM     23  C   UNL d   1      -4.850  -6.083  -1.345  0.00  0.00     0.000 A 
ATOM     24  C   UNL d   1      -3.713  -6.509  -0.661  0.00  0.00     0.001 A 
ATOM     25  C   UNL d   1      -2.579  -5.694  -0.615  0.00  0.00     0.008 A 
ENDBRANCH  19  20
ENDBRANCH  17  19
ENDBRANCH   8  17
TORSDOF 3
