REMARK  5 active torsions:
REMARK  status: ('A' for Active; 'I' for Inactive)
REMARK    1  A    between atoms: C_5  and  C_1 
REMARK    2  A    between atoms: S_15  and  C_6 
REMARK    3  A    between atoms: C_11  and  C_13 
REMARK    4  A    between atoms: C_18  and  S_15 
REMARK    5  A    between atoms: C_16  and  C_18 
ROOT
ATOM      1  C   UNL d   1      -0.306  -1.036  -0.001  0.00  0.00     0.177 A 
ATOM      2  O   UNL d   1      -1.176  -0.047  -0.409  0.00  0.00    -0.267 OA
ATOM      3  N   UNL d   1       0.873  -0.550   0.327  0.00  0.00    -0.277 N 
ATOM      4  HN  UNL d   1       1.672  -1.079   0.677  1.00  0.00     0.189 HD
ATOM      5  C   UNL d   1      -0.388   1.077  -0.330  0.00  0.00     0.204 A 
ATOM      6  N   UNL d   1       0.823   0.805   0.109  0.00  0.00    -0.272 N 
ATOM      7  HN  UNL d   1       1.579   1.473   0.259  1.00  0.00     0.189 HD
ENDROOT
BRANCH   1   8
ATOM      8  C   UNL d   1      -0.771  -2.422  -0.019  0.00  0.00     0.039 A 
ATOM      9  C   UNL d   1       0.076  -3.502   0.282  0.00  0.00     0.020 A 
ATOM     10  N   UNL d   1      -0.335  -4.803   0.240  0.00  0.00    -0.355 N 
ATOM     11  C   UNL d   1       1.519  -3.330   0.668  0.00  0.00     0.069 C 
ATOM     12  C   UNL d   1      -1.618  -5.087  -0.106  0.00  0.00     0.117 A 
ATOM     13  HN  UNL d   1       0.316  -5.555   0.467  1.00  0.00     0.166 HD
ATOM     14  C   UNL d   1      -2.521  -4.073  -0.406  0.00  0.00     0.035 A 
ATOM     15  C   UNL d   1      -2.094  -2.742  -0.361  0.00  0.00     0.020 A 
BRANCH  12  16
ATOM     16  C   UNL d   1      -2.072  -6.542  -0.179  0.00  0.00     0.432 C 
ATOM     17  F   UNL d   1      -1.104  -7.452   0.123  0.00  0.00    -0.165 F 
ATOM     18  F   UNL d   1      -3.108  -6.806   0.672  0.00  0.00    -0.165 F 
ATOM     19  F   UNL d   1      -2.528  -6.882  -1.420  0.00  0.00    -0.165 F 
ENDBRANCH  12  16
ENDBRANCH   1   8
BRANCH   5  20
ATOM     20  S   UNL d   1      -0.863   2.673  -0.818  0.00  0.00    -0.080 SA
BRANCH  20  21
ATOM     21  C   UNL d   1      -2.637   2.665  -0.467  0.00  0.00     0.123 C 
BRANCH  21  22
ATOM     22  C   UNL d   1      -3.253   4.023  -0.731  0.00  0.00    -0.027 A 
ATOM     23  C   UNL d   1      -3.812   4.381  -1.970  0.00  0.00     0.041 A 
ATOM     24 CL   UNL d   1      -3.850   3.285  -3.306  0.00  0.00    -0.084 Cl
ATOM     25  C   UNL d   1      -4.358   5.654  -2.167  0.00  0.00     0.024 A 
ATOM     26  C   UNL d   1      -4.344   6.594  -1.136  0.00  0.00     0.002 A 
ATOM     27  C   UNL d   1      -3.778   6.263   0.090  0.00  0.00     0.001 A 
ATOM     28  C   UNL d   1      -3.235   4.992   0.292  0.00  0.00     0.009 A 
ENDBRANCH  21  22
ENDBRANCH  20  21
ENDBRANCH   5  20
TORSDOF 5
