REMARK  2 active torsions:
REMARK  status: ('A' for Active; 'I' for Inactive)
REMARK    1  A    between atoms: N_13  and  C_7 
REMARK    2  A    between atoms: C_8  and  N_13 
ROOT
ATOM      1  N   UNL d   1      -3.149   1.165  -1.214  0.00  0.00    -0.201 N 
ATOM      2  H   UNL d   1      -2.768   2.104  -1.148  0.00  0.00     0.183 HD
ENDROOT
BRANCH   1   3
ATOM      3  C   UNL d   1      -4.404   1.131  -1.809  0.00  0.00     0.682 A 
ATOM      4  N   UNL d   1      -5.097  -0.018  -1.838  0.00  0.00    -0.196 N 
ATOM      5  C   UNL d   1      -6.317  -0.001  -2.404  0.00  0.00     0.024 A 
ATOM      6  HN  UNL d   1      -4.711  -0.876  -1.444  1.00  0.00     0.184 HD
ATOM      7  C   UNL d   1      -7.090  -1.284  -2.390  0.00  0.00     0.068 C 
ATOM      8  C   UNL d   1      -6.848   1.136  -2.971  0.00  0.00     0.050 A 
ATOM      9  C   UNL d   1      -6.065   2.271  -2.916  0.00  0.00     0.024 A 
ATOM     10  N   UNL d   1      -4.850   2.282  -2.331  0.00  0.00    -0.196 N 
ATOM     11  C   UNL d   1      -6.552   3.554  -3.518  0.00  0.00     0.068 C 
ATOM     12  HN  UNL d   1      -4.292   3.135  -2.288  1.00  0.00     0.184 HD
ENDBRANCH   1   3
BRANCH   1  13
ATOM     13  C   UNL d   1      -2.440   0.107  -0.704  0.00  0.00     0.130 C 
ATOM     14  C   UNL d   1      -1.228   0.109  -0.124  0.00  0.00     0.130 C 
ATOM     15  C   UNL d   1      -0.629  -1.175   0.249  0.00  0.00     0.303 C 
ATOM     16  C   UNL d   1      -0.491   1.360   0.070  0.00  0.00     0.303 C 
ATOM     17  O   UNL d   1       0.717  -1.159   0.361  0.00  0.00    -0.279 OA
ATOM     18  O   UNL d   1      -1.275  -2.197   0.438  0.00  0.00    -0.259 OA
ATOM     19  C   UNL d   1       1.428  -0.025  -0.139  0.00  0.00     0.175 C 
ATOM     20  O   UNL d   1       0.837   1.217   0.242  0.00  0.00    -0.279 OA
ATOM     21  C   UNL d   1       1.575  -0.103  -1.664  0.00  0.00     0.080 C 
ATOM     22  C   UNL d   1       2.815  -0.059   0.500  0.00  0.00     0.080 C 
ATOM     23  O   UNL d   1      -1.024   2.465   0.076  0.00  0.00    -0.259 OA
ENDBRANCH   1  13
TORSDOF 2
