REMARK  2 active torsions:
REMARK  status: ('A' for Active; 'I' for Inactive)
REMARK    1  A    between atoms: C_4  and  CA_1 
REMARK    2  A    between atoms: OXT_8  and  C_4 
ROOT
ATOM      1  CA  UNL d   1      -2.438  -0.158  -0.021  0.00  0.00     0.107 A 
ATOM      2  N   UNL d   1      -1.629   0.957  -0.083  0.00  0.00    -0.350 N 
ATOM      3  C   UNL d   1      -1.592  -1.254   0.001  0.00  0.00     0.050 A 
ATOM      4  C   UNL d   1      -0.301   0.606  -0.039  0.00  0.00     0.043 A 
ATOM      5  C   UNL d   1      -0.248  -0.785  -0.004  0.00  0.00    -0.007 A 
ATOM      6  C   UNL d   1       0.847   1.407  -0.041  0.00  0.00     0.030 A 
ATOM      7  C   UNL d   1       1.009  -1.417   0.014  0.00  0.00     0.014 A 
ATOM      8  C   UNL d   1       2.085   0.759  -0.014  0.00  0.00     0.002 A 
ATOM      9  C   UNL d   1       2.169  -0.632   0.010  0.00  0.00     0.001 A 
ATOM     10  H   UNL d   1      -1.979   1.905  -0.137  0.00  0.00     0.166 HD
ENDROOT
BRANCH   1  11
ATOM     11  C   UNL d   1      -3.875  -0.034  -0.028  0.00  0.00     0.193 C 
ATOM     12  O   UNL d   1      -4.482   0.972  -0.361  0.00  0.00    -0.645 OA
BRANCH  11  13
ATOM     13  OXT UNL d   1      -4.497  -1.146   0.425  0.00  0.00    -0.772 OA
ATOM     14  HXT UNL d   1      -3.880  -1.808   0.783  0.00  0.00     0.167 HD
ENDBRANCH  11  13
ENDBRANCH   1  11
TORSDOF 2
