REMARK  4 active torsions:
REMARK  status: ('A' for Active; 'I' for Inactive)
REMARK    1  A    between atoms: C_2  and  N_1 
REMARK    2  A    between atoms: C_12  and  C_4 
REMARK    3  A    between atoms: O_13  and  C_5 
REMARK    4  A    between atoms: O_14  and  C_8 
ROOT
ATOM      1  N   UNL d   1       0.337  -0.619  -4.182  0.00  0.00    -0.197 NA
ATOM      2  C   UNL d   1      -0.278  -0.441  -3.212  0.00  0.00     0.063 C 
ATOM      3  C   UNL d   1      -1.057  -0.225  -1.979  0.00  0.00     0.165 C 
ENDROOT
BRANCH   3   4
ATOM      4  C   UNL d   1      -0.750  -1.274  -0.931  0.00  0.00    -0.009 A 
ATOM      5  C   UNL d   1       0.256  -1.160   0.040  0.00  0.00     0.113 A 
ATOM      6  C   UNL d   1       0.610  -2.234   0.876  0.00  0.00     0.076 A 
ATOM      7  C   UNL d   1      -0.057  -3.462   0.776  0.00  0.00     0.103 A 
ATOM      8  C   UNL d   1      -1.108  -3.586  -0.150  0.00  0.00     0.102 A 
ATOM      9  C   UNL d   1      -1.433  -2.501  -0.988  0.00  0.00     0.050 A 
BRANCH   5  10
ATOM     10  N   UNL d   1       0.961   0.096   0.256  0.00  0.00    -0.115 N 
ATOM     11  O   UNL d   1       2.198   0.058   0.254  0.00  0.00    -0.532 OA
ATOM     12  O   UNL d   1       0.271   1.103   0.459  0.00  0.00    -0.532 OA
ENDBRANCH   5  10
BRANCH   7  13
ATOM     13  O   UNL d   1       0.265  -4.546   1.545  0.00  0.00    -0.353 OA
ATOM     14  C   UNL d   1       1.406  -4.473   2.391  0.00  0.00     0.210 C 
ENDBRANCH   7  13
BRANCH   8  15
ATOM     15  O   UNL d   1      -1.908  -4.671  -0.399  0.00  0.00    -0.353 OA
ATOM     16  C   UNL d   1      -1.736  -5.851   0.371  0.00  0.00     0.210 C 
ENDBRANCH   8  15
ENDBRANCH   3   4
TORSDOF 4
