REMARK  7 active torsions:
REMARK  status: ('A' for Active; 'I' for Inactive)
REMARK    1  A    between atoms: C_15  and  C_6 
REMARK    2  A    between atoms: N_7  and  C_9 
REMARK    3  A    between atoms: N_8  and  C_14 
REMARK    4  A    between atoms: O_27  and  C_15 
REMARK    5  A    between atoms: C_28  and  O_27 
REMARK    6  A    between atoms: C_29  and  C_28 
REMARK    7  A    between atoms: C_30  and  C_29 
ROOT
ATOM      1  C   UNL d   1      -1.710   0.535  -0.042  0.00  0.00     0.003 A 
ATOM      2  C   UNL d   1       0.603   0.042   0.074  0.00  0.00     0.018 A 
ATOM      3  C   UNL d   1      -0.423   1.145   0.099  0.00  0.00    -0.008 A 
ATOM      4  C   UNL d   1      -0.152  -1.256   0.054  0.00  0.00    -0.009 A 
ATOM      5  C   UNL d   1      -1.532  -0.926  -0.045  0.00  0.00    -0.013 A 
ATOM      6  C   UNL d   1      -2.854   1.349  -0.111  0.00  0.00     0.053 A 
ATOM      7  C   UNL d   1      -1.438   3.318   0.223  0.00  0.00     0.104 A 
ATOM      8  C   UNL d   1       1.951   0.191  -0.006  0.00  0.00     0.136 C 
ATOM      9  C   UNL d   1      -0.289   2.523   0.248  0.00  0.00     0.049 A 
ATOM     10  C   UNL d   1      -2.700   2.745   0.033  0.00  0.00     0.054 A 
ATOM     11  C   UNL d   1       0.259  -2.585   0.152  0.00  0.00     0.049 A 
ATOM     12  C   UNL d   1      -0.713  -3.597   0.120  0.00  0.00     0.103 A 
ATOM     13  C   UNL d   1       2.598   1.458  -0.079  0.00  0.00     0.111 C 
ATOM     14  C   UNL d   1       2.860  -0.906  -0.069  0.00  0.00     0.111 C 
ATOM     15  N   UNL d   1       3.132   2.484  -0.146  0.00  0.00    -0.191 NA
ATOM     16  N   UNL d   1       3.616  -1.783  -0.116  0.00  0.00    -0.191 NA
ATOM     17  C   UNL d   1      -2.482  -1.945  -0.056  0.00  0.00     0.015 A 
ATOM     18  C   UNL d   1      -2.074  -3.283   0.008  0.00  0.00     0.037 A 
ENDROOT
BRANCH   6  19
ATOM     19  C   UNL d   1      -4.205   0.870  -0.523  0.00  0.00     0.294 C 
ATOM     20  O   UNL d   1      -4.395  -0.009  -1.344  0.00  0.00    -0.259 OA
BRANCH  19  21
ATOM     21  O   UNL d   1      -5.157   1.702  -0.024  0.00  0.00    -0.317 OA
BRANCH  21  22
ATOM     22  C   UNL d   1      -6.164   2.080  -0.975  0.00  0.00     0.179 C 
BRANCH  22  23
ATOM     23  C   UNL d   1      -7.528   1.488  -0.654  0.00  0.00     0.026 C 
BRANCH  23  24
ATOM     24  C   UNL d   1      -8.545   1.955  -1.700  0.00  0.00    -0.002 C 
ATOM     25  C   UNL d   1      -9.937   1.406  -1.449  0.00  0.00     0.005 C 
ENDBRANCH  23  24
ENDBRANCH  22  23
ENDBRANCH  21  22
ENDBRANCH  19  21
ENDBRANCH   6  19
BRANCH   7  26
ATOM     26  N   UNL d   1      -1.324   4.778   0.367  0.00  0.00    -0.116 N 
ATOM     27  O   UNL d   1      -0.196   5.251   0.550  0.00  0.00    -0.532 OA
ATOM     28  O   UNL d   1      -2.366   5.443   0.297  0.00  0.00    -0.532 OA
ENDBRANCH   7  26
BRANCH  12  29
ATOM     29  N   UNL d   1      -0.302  -5.005   0.233  0.00  0.00    -0.116 N 
ATOM     30  O   UNL d   1       0.903  -5.242   0.395  0.00  0.00    -0.532 OA
ATOM     31  O   UNL d   1      -1.186  -5.870   0.168  0.00  0.00    -0.532 OA
ENDBRANCH  12  29
TORSDOF 7
