REMARK  4 active torsions:
REMARK  status: ('A' for Active; 'I' for Inactive)
REMARK    1  A    between atoms: N_9  and  C_3 
REMARK    2  A    between atoms: C_4  and  C_7 
REMARK    3  A    between atoms: C_13  and  C_5 
REMARK    4  A    between atoms: C_18  and  N_9 
ROOT
ATOM      1  C   UNL d   1       0.757   1.175  -0.245  0.00  0.00     0.071 C 
ATOM      2  C   UNL d   1      -0.597   1.387   0.346  0.00  0.00     0.173 C 
ATOM      3  C   UNL d   1       1.217   2.042  -1.163  0.00  0.00     0.107 C 
ATOM      4  C   UNL d   1      -0.728   1.048   1.830  0.00  0.00     0.094 C 
ATOM      5  C   UNL d   1       1.691   0.175   0.342  0.00  0.00     0.164 C 
ATOM      6  C   UNL d   1       0.048  -0.232   2.183  0.00  0.00     0.025 C 
ATOM      7  O   UNL d   1      -1.493   1.909  -0.317  0.00  0.00    -0.291 OA
ATOM      8  C   UNL d   1       1.516  -0.138   1.804  0.00  0.00     0.085 C 
ATOM      9  O   UNL d   1       2.635  -0.287  -0.301  0.00  0.00    -0.292 OA
ENDROOT
BRANCH   3  10
ATOM     10  N   UNL d   1       2.483   2.078  -1.703  0.00  0.00    -0.365 N 
ATOM     11  H   UNL d   1       3.071   1.274  -1.458  0.00  0.00     0.165 HD
BRANCH  10  12
ATOM     12  C   UNL d   1       3.115   3.072  -2.464  0.00  0.00     0.032 A 
ATOM     13  C   UNL d   1       2.490   4.256  -2.869  0.00  0.00     0.045 A 
ATOM     14  C   UNL d   1       3.168   5.215  -3.645  0.00  0.00     0.050 A 
ATOM     15  C   UNL d   1       4.502   4.981  -4.010  0.00  0.00     0.016 A 
ATOM     16  C   UNL d   1       5.143   3.815  -3.604  0.00  0.00     0.003 A 
ATOM     17  C   UNL d   1       4.453   2.873  -2.839  0.00  0.00     0.029 A 
BRANCH  14  18
ATOM     18  C   UNL d   1       2.478   6.478  -4.093  0.00  0.00     0.417 C 
ATOM     19  F   UNL d   1       1.199   6.595  -3.640  0.00  0.00    -0.166 F 
ATOM     20  F   UNL d   1       3.124   7.602  -3.674  0.00  0.00    -0.166 F 
ATOM     21  F   UNL d   1       2.404   6.576  -5.450  0.00  0.00    -0.166 F 
ENDBRANCH  14  18
ENDBRANCH  10  12
ENDBRANCH   3  10
BRANCH   4  22
ATOM     22  C   UNL d   1      -2.155   0.928   2.338  0.00  0.00    -0.046 A 
ATOM     23  C   UNL d   1      -3.034  -0.051   1.848  0.00  0.00     0.008 A 
ATOM     24  C   UNL d   1      -4.301  -0.215   2.412  0.00  0.00     0.001 A 
ATOM     25  C   UNL d   1      -4.710   0.604   3.462  0.00  0.00     0.000 A 
ATOM     26  C   UNL d   1      -3.860   1.596   3.941  0.00  0.00     0.001 A 
ATOM     27  C   UNL d   1      -2.591   1.759   3.383  0.00  0.00     0.008 A 
ENDBRANCH   4  22
TORSDOF 4
