REMARK  3 active torsions:
REMARK  status: ('A' for Active; 'I' for Inactive)
REMARK    1  A    between atoms: C_2  and  S_1 
REMARK    2  A    between atoms: N_7  and  S_1 
REMARK    3  A    between atoms: C_9  and  N_7 
ROOT
ATOM      1  S   UNL d   1       0.854  -0.166   0.110  0.00  0.00     0.250 S 
ATOM      2  O   UNL d   1       0.362   1.087  -0.413  0.00  0.00    -0.205 OA
ATOM      3  O   UNL d   1       2.272  -0.407   0.264  0.00  0.00    -0.205 OA
ENDROOT
BRANCH   1   4
ATOM      4  C   UNL d   1       0.294  -1.355  -0.975  0.00  0.00     0.130 A 
ATOM      5  C   UNL d   1      -0.852  -1.321  -1.734  0.00  0.00     0.097 A 
ATOM      6  O   UNL d   1      -0.937  -2.480  -2.443  0.00  0.00    -0.241 OA
ATOM      7  C   UNL d   1      -1.953  -0.364  -1.947  0.00  0.00     0.081 C 
ATOM      8  N   UNL d   1       0.140  -3.289  -2.144  0.00  0.00    -0.264 N 
ATOM      9  C   UNL d   1       0.883  -2.608  -1.261  0.00  0.00     0.054 A 
ATOM     10  HN  UNL d   1       0.333  -4.218  -2.520  1.00  0.00     0.194 HD
ATOM     11  C   UNL d   1       2.123  -3.221  -0.728  0.00  0.00     0.072 C 
ENDBRANCH   1   4
BRANCH   1  12
ATOM     12  N   UNL d   1       0.095  -0.395   1.614  0.00  0.00    -0.181 NA
ATOM     13  H   UNL d   1       0.185   0.470   2.150  0.00  0.00     0.146 HD
BRANCH  12  14
ATOM     14  C   UNL d   1       0.451  -1.573   2.342  0.00  0.00     0.026 A 
ATOM     15  C   UNL d   1       1.630  -1.634   3.086  0.00  0.00     0.048 A 
ATOM     16  C   UNL d   1       1.950  -2.810   3.767  0.00  0.00     0.037 A 
ATOM     17 CL   UNL d   1       3.400  -2.895   4.689  0.00  0.00    -0.084 Cl
ATOM     18  C   UNL d   1       1.109  -3.920   3.708  0.00  0.00     0.047 A 
ATOM     19  C   UNL d   1      -0.058  -3.848   2.952  0.00  0.00     0.037 A 
ATOM     20  C   UNL d   1      -0.390  -2.683   2.262  0.00  0.00     0.048 A 
ATOM     21 CL   UNL d   1      -1.105  -5.210   2.869  0.00  0.00    -0.084 Cl
ENDBRANCH  12  14
ENDBRANCH   1  12
TORSDOF 3
