REMARK  4 active torsions:
REMARK  status: ('A' for Active; 'I' for Inactive)
REMARK    1  A    between atoms: C_2  and  C_1 
REMARK    2  A    between atoms: C_5  and  C_2 
REMARK    3  A    between atoms: N_10  and  N_3 
REMARK    4  A    between atoms: C_12  and  N_10 
ROOT
ATOM      1  C   UNL d   1       0.864   0.425  -0.205  0.00  0.00     0.171 C 
ATOM      2  N   UNL d   1       0.399   0.463   1.009  0.00  0.00    -0.304 N 
ATOM      3  HN  UNL d   1       1.006   0.691   1.796  1.00  0.00     0.182 HD
ATOM      4  C   UNL d   1       2.288   0.675  -0.235  0.00  0.00     0.122 C 
ATOM      5  N   UNL d   1       3.432   0.877  -0.255  0.00  0.00    -0.190 NA
ENDROOT
BRANCH   1   6
ATOM      6  C   UNL d   1       0.113   0.144  -1.469  0.00  0.00     0.191 C 
ATOM      7  O   UNL d   1       0.596  -0.600  -2.311  0.00  0.00    -0.290 OA
BRANCH   6   8
ATOM      8  C   UNL d   1      -1.205   0.808  -1.646  0.00  0.00     0.063 A 
ATOM      9  C   UNL d   1      -2.366  -0.029  -2.140  0.00  0.00     0.013 A 
ATOM     10  C   UNL d   1      -1.790   1.043  -3.019  0.00  0.00     0.013 A 
ENDBRANCH   6   8
ENDBRANCH   1   6
BRANCH   2  11
ATOM     11  N   UNL d   1      -0.926   0.188   1.201  0.00  0.00    -0.205 NA
ATOM     12  H   UNL d   1      -1.139  -0.809   1.317  0.00  0.00     0.153 HD
BRANCH  11  13
ATOM     13  C   UNL d   1      -1.540   0.899   2.273  0.00  0.00     0.027 A 
ATOM     14  C   UNL d   1      -1.102   2.172   2.663  0.00  0.00     0.026 A 
ATOM     15  C   UNL d   1      -1.748   2.874   3.685  0.00  0.00     0.008 A 
ATOM     16  C   UNL d   1      -2.863   2.327   4.325  0.00  0.00    -0.062 A 
ATOM     17  C   UNL d   1      -3.340   1.082   3.905  0.00  0.00     0.008 A 
ATOM     18  C   UNL d   1      -3.537   3.084   5.431  0.00  0.00     0.048 C 
ATOM     19  C   UNL d   1      -2.694   0.383   2.878  0.00  0.00     0.026 A 
ENDBRANCH  11  13
ENDBRANCH   2  11
TORSDOF 4
