REMARK  2 active torsions:
REMARK  status: ('A' for Active; 'I' for Inactive)
REMARK    1  A    between atoms: C_3  and  N_1 
REMARK    2  A    between atoms: C_6  and  C_2 
ROOT
ATOM      1  N   UNL d   1      -0.324   1.133  -0.020  0.00  0.00    -0.232 N 
ATOM      2  C   UNL d   1       0.888  -0.579  -0.097  0.00  0.00     0.135 A 
ATOM      3  N   UNL d   1       0.966   0.752  -0.222  0.00  0.00    -0.275 N 
ATOM      4  HN  UNL d   1       1.782   1.331  -0.418  1.00  0.00     0.189 HD
ATOM      5  N   UNL d   1      -0.369  -1.070   0.120  0.00  0.00    -0.335 N 
ATOM      6  HN  UNL d   1      -0.664  -2.041   0.223  1.00  0.00     0.168 HD
ATOM      7  C   UNL d   1      -1.103   0.016   0.164  0.00  0.00     0.210 A 
ENDROOT
BRANCH   2   8
ATOM      8  C   UNL d   1       2.041  -1.470  -0.135  0.00  0.00     0.050 A 
ATOM      9  C   UNL d   1       2.034  -2.877   0.050  0.00  0.00     0.037 A 
ATOM     10  N   UNL d   1       3.274  -3.385  -0.017  0.00  0.00    -0.305 N 
ATOM     11  C   UNL d   1       0.878  -3.776   0.299  0.00  0.00     0.070 C 
ATOM     12  N   UNL d   1       4.054  -2.315  -0.238  0.00  0.00    -0.311 N 
ATOM     13  HN  UNL d   1       3.558  -4.360   0.079  1.00  0.00     0.186 HD
ATOM     14  C   UNL d   1       3.364  -1.145  -0.326  0.00  0.00     0.124 A 
ATOM     15  H   UNL d   1       5.055  -2.461  -0.314  0.00  0.00     0.186 HD
ENDBRANCH   2   8
BRANCH   1  16
ATOM     16  C   UNL d   1      -0.755   2.481   0.011  0.00  0.00     0.150 A 
ATOM     17  N   UNL d   1      -2.035   2.760   0.281  0.00  0.00    -0.243 N 
ATOM     18  O   UNL d   1      -2.109   4.146   0.253  0.00  0.00    -0.241 OA
ATOM     19  HN  UNL d   1      -2.790   2.100   0.467  1.00  0.00     0.196 HD
ATOM     20  C   UNL d   1      -0.882   4.660  -0.044  0.00  0.00     0.076 A 
ATOM     21  C   UNL d   1       0.020   3.635  -0.203  0.00  0.00     0.086 A 
ATOM     22  C   UNL d   1      -0.795   6.129  -0.123  0.00  0.00     0.079 C 
ENDBRANCH   1  16
TORSDOF 2
