REMARK  4 active torsions:
REMARK  status: ('A' for Active; 'I' for Inactive)
REMARK    1  A    between atoms: S_2  and  C_1 
REMARK    2  A    between atoms: C_10  and  S_2 
REMARK    3  A    between atoms: C_7  and  C_4 
REMARK    4  A    between atoms: O_12  and  C_7 
ROOT
ATOM      1  C   UNL d   1       1.424  -0.674   0.007  0.00  0.00     0.067 A 
ATOM      2  C   UNL d   1       1.437   0.752  -0.094  0.00  0.00     0.049 A 
ATOM      3  C   UNL d   1       0.163   1.297  -0.047  0.00  0.00     0.081 A 
ATOM      4  S   UNL d   1      -1.029   0.068   0.073  0.00  0.00    -0.094 SA
ATOM      5  C   UNL d   1       0.143  -1.174   0.082  0.00  0.00     0.074 A 
ENDROOT
BRANCH   1   6
ATOM      6  S   UNL d   1       2.846  -1.671  -0.011  0.00  0.00     0.179 S 
ATOM      7  O   UNL d   1       2.357  -3.017   0.193  0.00  0.00    -0.222 OA
ATOM      8  O   UNL d   1       3.515  -1.266  -1.231  0.00  0.00    -0.222 OA
BRANCH   6   9
ATOM      9  C   UNL d   1       3.830  -1.160   1.400  0.00  0.00     0.105 C 
ATOM     10  C   UNL d   1       3.073  -1.287   2.717  0.00  0.00     0.026 C 
ATOM     11  C   UNL d   1       5.114  -1.988   1.449  0.00  0.00     0.026 C 
ENDBRANCH   6   9
ENDBRANCH   1   6
BRANCH   3  12
ATOM     12  C   UNL d   1      -0.260   2.687  -0.083  0.00  0.00     0.299 C 
ATOM     13  O   UNL d   1      -1.413   3.099  -0.054  0.00  0.00    -0.259 OA
BRANCH  12  14
ATOM     14  O   UNL d   1       0.839   3.499  -0.129  0.00  0.00    -0.322 OA
ATOM     15  C   UNL d   1       0.527   4.893  -0.119  0.00  0.00     0.213 C 
ENDBRANCH  12  14
ENDBRANCH   3  12
TORSDOF 4
