REMARK  3 active torsions:
REMARK  status: ('A' for Active; 'I' for Inactive)
REMARK    1  A    between atoms: C_11  and  C_1 
REMARK    2  A    between atoms: S_13  and  C_2 
REMARK    3  A    between atoms: C_6  and  C_3 
ROOT
ATOM      1  C   UNL d   1       1.313  -0.021   0.000  0.00  0.00     0.040 A 
ATOM      2  C   UNL d   1       0.367  -1.020   0.178  0.00  0.00     0.056 A 
ATOM      3  C   UNL d   1      -0.705   1.230   0.007  0.00  0.00     0.046 A 
ATOM      4  C   UNL d   1       0.681   1.302  -0.041  0.00  0.00    -0.026 A 
ATOM      5  S   UNL d   1      -1.226  -0.392   0.132  0.00  0.00    -0.079 SA
ATOM      6  C   UNL d   1       1.478   2.579  -0.086  0.00  0.00     0.050 C 
ENDROOT
BRANCH   3   7
ATOM      7  C   UNL d   1      -1.653   2.331  -0.028  0.00  0.00     0.092 A 
ATOM      8  N   UNL d   1      -1.384   3.468  -0.641  0.00  0.00    -0.353 N 
ATOM      9  C   UNL d   1      -2.401   4.389  -0.438  0.00  0.00     0.012 A 
ATOM     10  HN  UNL d   1      -0.543   3.645  -1.191  1.00  0.00     0.166 HD
ATOM     11  C   UNL d   1      -2.262   5.753  -1.010  0.00  0.00     0.068 C 
ATOM     12  C   UNL d   1      -3.456   3.922   0.318  0.00  0.00     0.076 A 
ATOM     13  S   UNL d   1      -3.172   2.301   0.786  0.00  0.00    -0.081 SA
ENDBRANCH   3   7
BRANCH   1  14
ATOM     14  C   UNL d   1       2.769  -0.201  -0.126  0.00  0.00     0.158 C 
ATOM     15  O   UNL d   1       3.397   0.444  -0.976  0.00  0.00    -0.293 OA
ATOM     16  C   UNL d   1       3.536  -1.091   0.810  0.00  0.00     0.097 C 
ENDBRANCH   1  14
BRANCH   2  17
ATOM     17  S   UNL d   1       0.534  -2.752   0.470  0.00  0.00    -0.126 SA
ATOM     18  C   UNL d   1       1.487  -3.341  -0.937  0.00  0.00     0.096 C 
ENDBRANCH   2  17
TORSDOF 3
