REMARK  9 active torsions:
REMARK  status: ('A' for Active; 'I' for Inactive)
REMARK    1  A    between atoms: N_10  and  S_1 
REMARK    2  A    between atoms: C_13  and  S_1 
REMARK    3  A    between atoms: N_4  and  C_16 
REMARK    4  A    between atoms: C_22  and  C_7 
REMARK    5  A    between atoms: N_18  and  N_10 
REMARK    6  A    between atoms: C_11  and  C_15 
REMARK    7  A    between atoms: C_12  and  C_14 
REMARK    8  A    between atoms: C_16  and  C_17 
REMARK       I    between atoms: C_17  and  N_18 
REMARK    9  A    between atoms: C_25  and  C_26 
ROOT
ATOM      1  C   UNL d   1       0.423   0.149   3.740  0.00  0.00     0.258 C 
ATOM      2  N   UNL d   1       0.804  -0.185   2.465  0.00  0.00    -0.259 N 
ATOM      3  O   UNL d   1       0.837  -0.485   4.716  0.00  0.00    -0.270 OA
ATOM      4  H   UNL d   1       0.613   0.429   1.660  0.00  0.00     0.190 HD
ENDROOT
BRANCH   1   5
ATOM      5  C   UNL d   1      -0.497   1.325   3.929  0.00  0.00     0.275 C 
BRANCH   5   6
ATOM      6  N   UNL d   1      -0.862   2.116   2.769  0.00  0.00    -0.209 N 
ATOM      7  N   UNL d   1      -0.270   2.057   1.544  0.00  0.00    -0.265 N 
ATOM      8  C   UNL d   1      -0.941   3.044   0.908  0.00  0.00     0.147 A 
ATOM      9  HN  UNL d   1       0.470   1.442   1.204  1.00  0.00     0.190 HD
ATOM     10  N   UNL d   1      -1.857   3.660   1.735  0.00  0.00    -0.268 N 
ATOM     11  N   UNL d   1      -1.791   3.071   2.912  0.00  0.00    -0.224 N 
ATOM     12  HN  UNL d   1      -2.474   4.432   1.481  1.00  0.00     0.190 HD
ATOM     13  HN  UNL d   1      -2.330   3.294   3.749  1.00  0.00     0.210 HD
BRANCH   8  14
ATOM     14  C   UNL d   1      -0.741   3.518  -0.460  0.00  0.00     0.011 A 
ATOM     15  C   UNL d   1       0.178   2.957  -1.354  0.00  0.00     0.016 A 
ATOM     16  C   UNL d   1       0.385   3.532  -2.628  0.00  0.00     0.009 A 
ATOM     17  C   UNL d   1      -0.317   4.679  -3.050  0.00  0.00    -0.051 A 
ATOM     18  C   UNL d   1      -1.288   5.175  -2.169  0.00  0.00     0.009 A 
ATOM     19  C   UNL d   1      -1.491   4.612  -0.905  0.00  0.00     0.016 A 
BRANCH  17  20
ATOM     20  C   UNL d   1      -0.073   5.360  -4.413  0.00  0.00    -0.024 C 
ATOM     21  C   UNL d   1      -0.395   6.876  -4.383  0.00  0.00     0.019 C 
ATOM     22  C   UNL d   1       1.396   5.249  -4.882  0.00  0.00     0.019 C 
ATOM     23  C   UNL d   1      -0.974   4.697  -5.472  0.00  0.00     0.019 C 
ENDBRANCH  17  20
ENDBRANCH   8  14
ENDBRANCH   5   6
ENDBRANCH   1   5
BRANCH   2  24
ATOM     24  N   UNL d   1       1.786  -1.236   2.297  0.00  0.00    -0.220 N 
ATOM     25  H   UNL d   1       2.075  -1.773   3.125  0.00  0.00     0.200 HD
BRANCH  24  26
ATOM     26  S   UNL d   1       2.930  -1.083   1.062  0.00  0.00     0.276 S 
ATOM     27  O   UNL d   1       2.222  -0.711  -0.145  0.00  0.00    -0.199 OA
ATOM     28  O   UNL d   1       3.842  -2.196   1.134  0.00  0.00    -0.199 OA
BRANCH  26  29
ATOM     29  C   UNL d   1       3.805   0.363   1.633  0.00  0.00     0.082 A 
ATOM     30  C   UNL d   1       4.430   0.304   2.884  0.00  0.00     0.041 A 
ATOM     31  C   UNL d   1       5.026   1.446   3.426  0.00  0.00     0.050 A 
ATOM     32  C   UNL d   1       5.005   2.639   2.681  0.00  0.00     0.032 A 
ATOM     33  C   UNL d   1       4.416   2.694   1.401  0.00  0.00     0.050 A 
ATOM     34  C   UNL d   1       3.798   1.543   0.887  0.00  0.00     0.041 A 
BRANCH  31  35
ATOM     35  C   UNL d   1       5.647   1.401   4.805  0.00  0.00     0.417 C 
ATOM     36  F   UNL d   1       5.760   0.139   5.303  0.00  0.00    -0.166 F 
ATOM     37  F   UNL d   1       6.899   1.931   4.833  0.00  0.00    -0.166 F 
ATOM     38  F   UNL d   1       4.917   2.100   5.715  0.00  0.00    -0.166 F 
ENDBRANCH  31  35
BRANCH  33  39
ATOM     39  C   UNL d   1       4.453   3.980   0.603  0.00  0.00     0.417 C 
ATOM     40  F   UNL d   1       3.950   3.852  -0.654  0.00  0.00    -0.166 F 
ATOM     41  F   UNL d   1       3.744   4.977   1.197  0.00  0.00    -0.166 F 
ATOM     42  F   UNL d   1       5.720   4.454   0.455  0.00  0.00    -0.166 F 
ENDBRANCH  33  39
ENDBRANCH  26  29
ENDBRANCH  24  26
ENDBRANCH   2  24
TORSDOF 9
