REMARK  0 active torsions:
REMARK  status: ('A' for Active; 'I' for Inactive)
ROOT
ATOM      1  C   UNL d   1      -0.001  -1.500  -0.010  0.00  0.00     0.008 A 
ATOM      2  C   UNL d   1      -1.187  -0.530   0.020  0.00  0.00    -0.035 A 
ATOM      3  C   UNL d   1       1.185  -0.531   0.014  0.00  0.00    -0.035 A 
ATOM      4  C   UNL d   1      -0.724   0.803   0.022  0.00  0.00    -0.018 A 
ATOM      5  C   UNL d   1       0.723   0.804   0.029  0.00  0.00    -0.018 A 
ATOM      6  C   UNL d   1       0.000  -2.314  -1.310  0.00  0.00     0.025 C 
ATOM      7  C   UNL d   1      -0.005  -2.426   1.211  0.00  0.00     0.025 C 
ATOM      8  C   UNL d   1       2.544  -0.817  -0.009  0.00  0.00     0.009 A 
ATOM      9  C   UNL d   1      -2.543  -0.818   0.021  0.00  0.00     0.009 A 
ATOM     10  C   UNL d   1      -1.620   1.862  -0.004  0.00  0.00     0.013 A 
ATOM     11  C   UNL d   1       1.620   1.861   0.040  0.00  0.00     0.013 A 
ATOM     12  C   UNL d   1       2.987   1.577   0.018  0.00  0.00     0.001 A 
ATOM     13  C   UNL d   1      -2.988   1.577  -0.014  0.00  0.00     0.001 A 
ATOM     14  C   UNL d   1       3.445   0.249  -0.014  0.00  0.00     0.001 A 
ATOM     15  C   UNL d   1      -3.446   0.249   0.005  0.00  0.00     0.001 A 
ENDROOT
TORSDOF 0
