REMARK  1 active torsions:
REMARK  status: ('A' for Active; 'I' for Inactive)
REMARK    1  A    between atoms: C_8  and  C_3 
ROOT
ATOM      1  N   UNL d   1      -1.423  -0.133  -0.100  0.00  0.00    -0.297 N 
ATOM      2  HN  UNL d   1      -2.440  -0.201  -0.128  1.00  0.00     0.187 HD
ATOM      3  C   UNL d   1      -0.666  -1.184  -0.109  0.00  0.00     0.059 A 
ATOM      4  N   UNL d   1      -0.781   1.071  -0.052  0.00  0.00    -0.266 N 
ATOM      5  C   UNL d   1       0.579   1.260  -0.025  0.00  0.00     0.265 A 
ATOM      6  C   UNL d   1       0.809  -1.168  -0.102  0.00  0.00     0.044 A 
ATOM      7  C   UNL d   1       1.413   0.028  -0.073  0.00  0.00     0.010 A 
ATOM      8  O   UNL d   1       1.079   2.379   0.032  0.00  0.00    -0.266 OA
ATOM      9  C   UNL d   1       2.901   0.174  -0.124  0.00  0.00     0.054 C 
ATOM     10  H   UNL d   1      -1.366   1.899  -0.024  0.00  0.00     0.190 HD
ENDROOT
BRANCH   3  11
ATOM     11  C   UNL d   1      -1.288  -2.503  -0.164  0.00  0.00    -0.001 A 
ATOM     12  C   UNL d   1      -2.521  -2.715  -0.762  0.00  0.00     0.063 A 
ATOM     13  S   UNL d   1      -3.019  -4.349  -0.725  0.00  0.00    -0.113 SA
ATOM     14  C   UNL d   1      -1.617  -4.811   0.131  0.00  0.00     0.050 A 
ATOM     15  C   UNL d   1      -0.782  -3.741   0.370  0.00  0.00     0.021 A 
ENDBRANCH   3  11
TORSDOF 1
