REMARK  6 active torsions:
REMARK  status: ('A' for Active; 'I' for Inactive)
REMARK    1  A    between atoms: C_4  and  C_1 
REMARK    2  A    between atoms: N_21  and  C_4 
REMARK    3  A    between atoms: C_6  and  C_12 
REMARK    4  A    between atoms: O_14  and  N_7 
REMARK    5  A    between atoms: C_9  and  O_14 
REMARK       I    between atoms: N_13  and  C_9 
REMARK    6  A    between atoms: C_17  and  N_13 
ROOT
ATOM      1  C   UNL d   1      -5.056   1.018  -0.101  0.00  0.00     0.387 C 
ATOM      2  N   UNL d   1      -6.134   0.161  -0.081  0.00  0.00    -0.301 N 
ATOM      3  O   UNL d   1      -5.234   2.225  -0.256  0.00  0.00    -0.236 OA
ATOM      4  H   UNL d   1      -6.987   0.657  -0.303  0.00  0.00     0.171 HD
ENDROOT
BRANCH   1   5
ATOM      5  O   UNL d   1      -3.828   0.431   0.014  0.00  0.00    -0.179 OA
BRANCH   5   6
ATOM      6  N   UNL d   1      -3.026   0.800  -1.087  0.00  0.00    -0.243 N 
ATOM      7  C   UNL d   1      -1.852   0.270  -0.976  0.00  0.00     0.127 C 
ATOM      8  HN  UNL d   1      -3.329   1.396  -1.858  1.00  0.00     0.196 HD
BRANCH   7   9
ATOM      9  C   UNL d   1      -0.906   0.428  -2.080  0.00  0.00     0.097 A 
ATOM     10  N   UNL d   1       0.354  -0.040  -1.995  0.00  0.00    -0.258 N 
ATOM     11  O   UNL d   1       0.958   0.268  -3.200  0.00  0.00    -0.242 OA
ATOM     12  HN  UNL d   1       0.776  -0.523  -1.202  1.00  0.00     0.195 HD
ATOM     13  C   UNL d   1       0.074   0.920  -3.999  0.00  0.00     0.074 A 
ATOM     14  C   UNL d   1      -1.122   1.048  -3.339  0.00  0.00     0.069 A 
ATOM     15  C   UNL d   1       0.569   1.340  -5.321  0.00  0.00     0.079 C 
ENDBRANCH   7   9
BRANCH   7  16
ATOM     16  N   UNL d   1      -1.352  -0.442   0.085  0.00  0.00    -0.285 NA
ATOM     17  H   UNL d   1      -0.335  -0.489   0.106  0.00  0.00     0.125 HD
ATOM     18  H   UNL d   1      -1.765  -0.192   0.974  0.00  0.00     0.125 HD
ENDBRANCH   7  16
ENDBRANCH   5   6
ENDBRANCH   1   5
BRANCH   2  19
ATOM     19  C   UNL d   1      -6.163  -1.244  -0.129  0.00  0.00     0.037 A 
ATOM     20  C   UNL d   1      -5.108  -2.067   0.268  0.00  0.00     0.045 A 
ATOM     21  C   UNL d   1      -5.163  -3.460   0.083  0.00  0.00     0.050 A 
ATOM     22  C   UNL d   1      -6.313  -4.026  -0.482  0.00  0.00     0.016 A 
ATOM     23  C   UNL d   1      -7.394  -3.218  -0.831  0.00  0.00     0.003 A 
ATOM     24  C   UNL d   1      -7.323  -1.837  -0.643  0.00  0.00     0.029 A 
BRANCH  21  25
ATOM     25  C   UNL d   1      -3.992  -4.332   0.463  0.00  0.00     0.417 C 
ATOM     26  F   UNL d   1      -2.977  -3.653   1.069  0.00  0.00    -0.166 F 
ATOM     27  F   UNL d   1      -4.341  -5.323   1.330  0.00  0.00    -0.166 F 
ATOM     28  F   UNL d   1      -3.437  -4.954  -0.613  0.00  0.00    -0.166 F 
ENDBRANCH  21  25
ENDBRANCH   2  19
TORSDOF 6
