REMARK  6 active torsions:
REMARK  status: ('A' for Active; 'I' for Inactive)
REMARK    1  A    between atoms: C_7  and  C_1 
REMARK    2  A    between atoms: C_6  and  C_2 
REMARK    3  A    between atoms: C_10  and  C_5 
REMARK       I    between atoms: N_8  and  C_7 
REMARK    4  A    between atoms: C_19  and  N_8 
REMARK    5  A    between atoms: C_11  and  C_19 
REMARK    6  A    between atoms: O_25  and  C_22 
ROOT
ATOM      1  C   UNL d   1       1.186   0.639  -0.049  0.00  0.00     0.073 A 
ATOM      2  C   UNL d   1      -0.115   1.122  -0.031  0.00  0.00     0.175 A 
ATOM      3  O   UNL d   1      -0.995   0.069   0.008  0.00  0.00    -0.304 OA
ATOM      4  C   UNL d   1       1.069  -0.784  -0.055  0.00  0.00     0.058 A 
ATOM      5  C   UNL d   1      -0.275  -1.088   0.013  0.00  0.00     0.087 A 
ENDROOT
BRANCH   1   6
ATOM      6  C   UNL d   1       2.393   1.451  -0.019  0.00  0.00     0.254 C 
ATOM      7  N   UNL d   1       3.493   0.865  -0.593  0.00  0.00    -0.352 N 
ATOM      8  H   UNL d   1       3.423  -0.033  -1.049  0.00  0.00     0.163 HD
ATOM      9  O   UNL d   1       2.426   2.562   0.496  0.00  0.00    -0.268 OA
BRANCH   7  10
ATOM     10  C   UNL d   1       4.768   1.541  -0.583  0.00  0.00     0.169 C 
BRANCH  10  11
ATOM     11  C   UNL d   1       5.802   0.689  -1.247  0.00  0.00     0.000 A 
ATOM     12  S   UNL d   1       6.224  -0.842  -0.594  0.00  0.00    -0.105 SA
ATOM     13  C   UNL d   1       7.386  -1.118  -1.817  0.00  0.00     0.050 A 
ATOM     14  C   UNL d   1       7.465  -0.066  -2.702  0.00  0.00     0.008 A 
ATOM     15  C   UNL d   1       6.550   0.977  -2.373  0.00  0.00     0.017 A 
ENDBRANCH  10  11
ENDBRANCH   7  10
ENDBRANCH   1   6
BRANCH   2  16
ATOM     16  C   UNL d   1      -0.734   2.475  -0.063  0.00  0.00     0.440 C 
ATOM     17  F   UNL d   1       0.149   3.498  -0.094  0.00  0.00    -0.164 F 
ATOM     18  F   UNL d   1      -1.517   2.626  -1.167  0.00  0.00    -0.164 F 
ATOM     19  F   UNL d   1      -1.541   2.685   1.011  0.00  0.00    -0.164 F 
ENDBRANCH   2  16
BRANCH   5  20
ATOM     20  C   UNL d   1      -1.026  -2.334   0.124  0.00  0.00    -0.002 A 
ATOM     21  C   UNL d   1      -2.329  -2.360   0.642  0.00  0.00     0.017 A 
ATOM     22  C   UNL d   1      -3.008  -3.571   0.834  0.00  0.00     0.037 A 
ATOM     23  C   UNL d   1      -2.397  -4.779   0.503  0.00  0.00     0.068 A 
ATOM     24  C   UNL d   1      -1.115  -4.760  -0.047  0.00  0.00     0.037 A 
ATOM     25  C   UNL d   1      -0.434  -3.552  -0.234  0.00  0.00     0.017 A 
BRANCH  23  26
ATOM     26  O   UNL d   1      -2.928  -6.027   0.665  0.00  0.00    -0.356 OA
ATOM     27  C   UNL d   1      -4.205  -6.109   1.287  0.00  0.00     0.210 C 
ENDBRANCH  23  26
ENDBRANCH   5  20
TORSDOF 6
