REMARK  3 active torsions:
REMARK  status: ('A' for Active; 'I' for Inactive)
REMARK    1  A    between atoms: C_8  and  N_2 
REMARK    2  A    between atoms: C_10  and  C_7 
REMARK    3  A    between atoms: O_17  and  C_11 
ROOT
ATOM      1  C   UNL d   1       0.034  -0.779  -0.007  0.00  0.00     0.058 A 
ATOM      2  N   UNL d   1      -1.167   1.128  -0.080  0.00  0.00    -0.220 N 
ATOM      3  C   UNL d   1      -1.353  -0.257   0.028  0.00  0.00     0.279 A 
ATOM      4  N   UNL d   1       0.170   1.516  -0.161  0.00  0.00    -0.294 N 
ATOM      5  HN  UNL d   1       0.525   2.468  -0.250  1.00  0.00     0.187 HD
ATOM      6  C   UNL d   1       0.879   0.420  -0.101  0.00  0.00     0.038 A 
ATOM      7  C   UNL d   1       0.276  -2.093   0.062  0.00  0.00     0.030 C 
ATOM      8  O   UNL d   1      -2.357  -0.941   0.141  0.00  0.00    -0.265 OA
ATOM      9  C   UNL d   1       2.371   0.430  -0.092  0.00  0.00     0.071 C 
ENDROOT
BRANCH   7  10
ATOM     10  C   UNL d   1       1.592  -2.717   0.115  0.00  0.00    -0.035 A 
ATOM     11  C   UNL d   1       2.182  -2.954   1.359  0.00  0.00     0.014 A 
ATOM     12  C   UNL d   1       3.442  -3.550   1.442  0.00  0.00     0.037 A 
ATOM     13  C   UNL d   1       4.123  -3.914   0.280  0.00  0.00     0.068 A 
ATOM     14  C   UNL d   1       3.522  -3.692  -0.963  0.00  0.00     0.037 A 
ATOM     15  C   UNL d   1       2.260  -3.097  -1.050  0.00  0.00     0.014 A 
BRANCH  13  16
ATOM     16  O   UNL d   1       5.363  -4.488   0.227  0.00  0.00    -0.356 OA
ATOM     17  C   UNL d   1       6.019  -4.704   1.471  0.00  0.00     0.210 C 
ENDBRANCH  13  16
ENDBRANCH   7  10
BRANCH   2  18
ATOM     18  C   UNL d   1      -2.156   2.139  -0.017  0.00  0.00     0.060 A 
ATOM     19  C   UNL d   1      -3.487   1.850   0.311  0.00  0.00     0.031 A 
ATOM     20  C   UNL d   1      -4.439   2.870   0.411  0.00  0.00     0.002 A 
ATOM     21  C   UNL d   1      -4.077   4.192   0.166  0.00  0.00     0.000 A 
ATOM     22  C   UNL d   1      -2.764   4.496  -0.179  0.00  0.00     0.002 A 
ATOM     23  C   UNL d   1      -1.811   3.478  -0.263  0.00  0.00     0.031 A 
ENDBRANCH   2  18
TORSDOF 3
