REMARK  4 active torsions:
REMARK  status: ('A' for Active; 'I' for Inactive)
REMARK    1  A    between atoms: C_3  and  C_1 
REMARK    2  A    between atoms: C_6  and  N_2 
REMARK    3  A    between atoms: S_17  and  C_7 
REMARK    4  A    between atoms: C_15  and  C_11 
ROOT
ATOM      1  C   UNL d   1      -0.176  -1.477   0.240  0.00  0.00     0.148 A 
ATOM      2  N   UNL d   1       1.030  -0.840  -0.048  0.00  0.00    -0.274 N 
ATOM      3  N   UNL d   1      -1.116  -0.571   0.429  0.00  0.00    -0.282 N 
ATOM      4  HN  UNL d   1      -2.093  -0.764   0.651  1.00  0.00     0.188 HD
ATOM      5  C   UNL d   1       0.702   0.509  -0.021  0.00  0.00     0.165 A 
ATOM      6  N   UNL d   1      -0.564   0.670   0.277  0.00  0.00    -0.278 N 
ATOM      7  HN  UNL d   1      -1.050   1.562   0.377  1.00  0.00     0.189 HD
ENDROOT
BRANCH   2   8
ATOM      8  C   UNL d   1       2.327  -1.413  -0.188  0.00  0.00     0.058 A 
ATOM      9  C   UNL d   1       2.627  -2.458  -1.087  0.00  0.00     0.075 A 
ATOM     10  C   UNL d   1       3.931  -3.002  -1.060  0.00  0.00     0.018 A 
ATOM     11  C   UNL d   1       4.918  -2.496  -0.214  0.00  0.00     0.001 A 
ATOM     12  C   UNL d   1       4.624  -1.438   0.635  0.00  0.00     0.002 A 
ATOM     13  C   UNL d   1       3.336  -0.906   0.659  0.00  0.00     0.031 A 
BRANCH   9  14
ATOM     14  C   UNL d   1       1.703  -2.999  -2.159  0.00  0.00     0.419 C 
ATOM     15  F   UNL d   1       0.636  -2.201  -2.418  0.00  0.00    -0.166 F 
ATOM     16  F   UNL d   1       2.340  -3.143  -3.356  0.00  0.00    -0.166 F 
ATOM     17  F   UNL d   1       1.214  -4.229  -1.859  0.00  0.00    -0.166 F 
ENDBRANCH   9  14
ENDBRANCH   2   8
BRANCH   1  18
ATOM     18  C   UNL d   1      -0.435  -2.879   0.363  0.00  0.00     0.074 A 
ATOM     19  C   UNL d   1       0.185  -3.869   1.114  0.00  0.00     0.027 A 
ATOM     20  N   UNL d   1      -0.313  -5.150   0.906  0.00  0.00    -0.357 N 
ATOM     21  C   UNL d   1       1.304  -3.738   2.083  0.00  0.00     0.070 C 
ATOM     22  C   UNL d   1      -1.317  -5.122   0.059  0.00  0.00     0.048 A 
ATOM     23  HN  UNL d   1       0.051  -5.994   1.348  1.00  0.00     0.166 HD
ATOM     24  S   UNL d   1      -1.761  -3.566  -0.498  0.00  0.00    -0.071 SA
ATOM     25  C   UNL d   1      -2.043  -6.329  -0.422  0.00  0.00     0.076 C 
ENDBRANCH   1  18
BRANCH   5  26
ATOM     26  S   UNL d   1       1.746   1.825  -0.463  0.00  0.00    -0.105 SA
ATOM     27  H   UNL d   1       2.754   1.143  -1.022  0.00  0.00     0.110 HD
ENDBRANCH   5  26
TORSDOF 4
