REMARK  4 active torsions:
REMARK  status: ('A' for Active; 'I' for Inactive)
REMARK    1  A    between atoms: C_7  and  C_1 
REMARK    2  A    between atoms: C_4  and  C_2 
REMARK    3  A    between atoms: N_3  and  O_8 
REMARK    4  A    between atoms: O_8  and  C_4 
ROOT
ATOM      1  C   UNL d   1      -1.334  -0.262   0.472  0.00  0.00     0.087 A 
ATOM      2  C   UNL d   1      -0.025  -0.763   0.188  0.00  0.00     0.102 A 
ATOM      3  N   UNL d   1      -1.271   1.028   0.843  0.00  0.00    -0.259 N 
ATOM      4  HN  UNL d   1      -2.049   1.612   1.151  1.00  0.00     0.195 HD
ATOM      5  O   UNL d   1       0.041   1.407   0.728  0.00  0.00    -0.241 OA
ATOM      6  C   UNL d   1       0.789   0.350   0.325  0.00  0.00     0.091 A 
ATOM      7  C   UNL d   1       2.216   0.664   0.101  0.00  0.00     0.080 C 
ENDROOT
BRANCH   2   8
ATOM      8  C   UNL d   1       0.401  -2.090  -0.201  0.00  0.00     0.320 C 
ATOM      9  O   UNL d   1      -0.327  -2.935  -0.706  0.00  0.00    -0.257 OA
BRANCH   8  10
ATOM     10  O   UNL d   1       1.731  -2.267   0.066  0.00  0.00    -0.182 OA
BRANCH  10  11
ATOM     11  N   UNL d   1       2.333  -3.324  -0.622  0.00  0.00    -0.145 N 
ATOM     12  C   UNL d   1       2.676  -3.118  -1.922  0.00  0.00     0.251 C 
ATOM     13  C   UNL d   1       3.585  -4.243  -2.315  0.00  0.00     0.115 C 
ATOM     14  O   UNL d   1       2.381  -2.168  -2.633  0.00  0.00    -0.271 OA
ATOM     15  C   UNL d   1       4.170  -4.684  -0.979  0.00  0.00     0.115 C 
ATOM     16  C   UNL d   1       3.285  -4.028   0.046  0.00  0.00     0.251 C 
ATOM     17  O   UNL d   1       3.514  -4.031   1.247  0.00  0.00    -0.271 OA
ENDBRANCH  10  11
ENDBRANCH   8  10
ENDBRANCH   2   8
BRANCH   1  18
ATOM     18  C   UNL d   1      -2.639  -0.919   0.453  0.00  0.00     0.037 A 
ATOM     19  C   UNL d   1      -2.961  -1.935   1.368  0.00  0.00     0.048 A 
ATOM     20 CL   UNL d   1      -1.817  -2.560   2.509  0.00  0.00    -0.083 Cl
ATOM     21  C   UNL d   1      -4.259  -2.463   1.423  0.00  0.00     0.025 A 
ATOM     22  C   UNL d   1      -5.255  -1.980   0.578  0.00  0.00     0.003 A 
ATOM     23  C   UNL d   1      -4.950  -0.984  -0.344  0.00  0.00     0.025 A 
ATOM     24  C   UNL d   1      -3.652  -0.463  -0.416  0.00  0.00     0.048 A 
ATOM     25 CL   UNL d   1      -3.373   0.748  -1.627  0.00  0.00    -0.083 Cl
ENDBRANCH   1  18
TORSDOF 4
