REMARK  4 active torsions:
REMARK  status: ('A' for Active; 'I' for Inactive)
REMARK    1  A    between atoms: N_4  and  C_1 
REMARK    2  A    between atoms: N_3  and  C_2 
REMARK    3  A    between atoms: N_5  and  N_4 
REMARK       I    between atoms: C_6  and  N_5 
REMARK    4  A    between atoms: C_10  and  C_6 
ROOT
ATOM      1  N   UNL d   1      -1.481   2.423  -0.015  0.00  0.00    -0.180 NA
ATOM      2  C   UNL d   1      -1.102   3.816  -0.266  0.00  0.00     0.144 C 
ENDROOT
BRANCH   1   3
ATOM      3  C   UNL d   1      -0.565   1.413  -0.371  0.00  0.00     0.134 A 
ATOM      4  C   UNL d   1       0.691   1.246   0.216  0.00  0.00     0.142 A 
ATOM      5  C   UNL d   1       1.471   0.109  -0.039  0.00  0.00     0.041 A 
ATOM      6  C   UNL d   1       0.998  -0.841  -0.931  0.00  0.00     0.020 A 
ATOM      7  C   UNL d   1      -0.225  -0.606  -1.532  0.00  0.00     0.089 A 
ATOM      8  N   UNL d   1      -1.005   0.471  -1.268  0.00  0.00    -0.353 N 
ATOM      9  HN  UNL d   1      -1.908   0.581  -1.730  1.00  0.00     0.166 HD
BRANCH   4  10
ATOM     10  N   UNL d   1       1.235   2.217   1.127  0.00  0.00    -0.112 N 
ATOM     11  O   UNL d   1       1.677   3.267   0.642  0.00  0.00    -0.532 OA
ATOM     12  O   UNL d   1       1.329   1.882   2.319  0.00  0.00    -0.532 OA
ENDBRANCH   4  10
ENDBRANCH   1   3
BRANCH   1  13
ATOM     13  N   UNL d   1      -2.793   2.125  -0.467  0.00  0.00    -0.280 N 
ATOM     14  C   UNL d   1      -3.866   2.434   0.350  0.00  0.00     0.266 C 
ATOM     15  O   UNL d   1      -3.780   3.077   1.393  0.00  0.00    -0.266 OA
ATOM     16  H   UNL d   1      -2.828   1.524  -1.286  0.00  0.00     0.184 HD
BRANCH  14  17
ATOM     17  C   UNL d   1      -5.211   1.994  -0.130  0.00  0.00     0.033 A 
ATOM     18  C   UNL d   1      -5.393   0.916  -1.005  0.00  0.00     0.018 A 
ATOM     19  C   UNL d   1      -6.682   0.561  -1.422  0.00  0.00     0.025 A 
ATOM     20  C   UNL d   1      -7.787   1.274  -0.959  0.00  0.00     0.034 A 
ATOM     21  C   UNL d   1      -7.619   2.341  -0.081  0.00  0.00     0.025 A 
ATOM     22 CL   UNL d   1      -9.368   0.824  -1.468  0.00  0.00    -0.084 Cl
ATOM     23  C   UNL d   1      -6.333   2.698   0.335  0.00  0.00     0.018 A 
ENDBRANCH  14  17
ENDBRANCH   1  13
TORSDOF 4
