REMARK  4 active torsions:
REMARK  status: ('A' for Active; 'I' for Inactive)
REMARK    1  A    between atoms: C_2  and  C_1 
REMARK       I    between atoms: N_3  and  C_2 
REMARK       I    between atoms: C_4  and  N_3 
REMARK       I    between atoms: N_8  and  C_4 
REMARK    2  A    between atoms: O_18  and  C_5 
REMARK    3  A    between atoms: O_19  and  C_6 
REMARK    4  A    between atoms: C_7  and  N_8 
ROOT
ATOM      1  C   UNL d   1       0.245  -3.777  -0.729  0.00  0.00     0.265 C 
ATOM      2  N   UNL d   1       1.608  -3.958  -1.031  0.00  0.00    -0.275 N 
ATOM      3  C   UNL d   1       2.264  -4.817  -1.869  0.00  0.00     0.327 C 
ATOM      4  N   UNL d   1       2.019  -6.159  -1.771  0.00  0.00    -0.305 N 
ATOM      5  O   UNL d   1      -0.519  -4.732  -0.546  0.00  0.00    -0.267 OA
ATOM      6  O   UNL d   1       3.053  -4.292  -2.662  0.00  0.00    -0.247 OA
ATOM      7  H   UNL d   1       2.072  -3.081  -1.230  0.00  0.00     0.173 HD
ATOM      8  H   UNL d   1       1.054  -6.383  -1.545  0.00  0.00     0.171 HD
ENDROOT
BRANCH   1   9
ATOM      9  C   UNL d   1      -0.169  -2.274  -0.584  0.00  0.00     0.102 C 
ATOM     10  C   UNL d   1       0.821  -1.258  -0.631  0.00  0.00     0.108 C 
ATOM     11  C   UNL d   1       0.485   0.089  -0.807  0.00  0.00     0.070 C 
ATOM     12 CL   UNL d   1       1.683   1.297  -1.113  0.00  0.00    -0.081 Cl
ATOM     13  C   UNL d   1      -0.841   0.469  -0.825  0.00  0.00     0.053 C 
ATOM     14  C   UNL d   1      -1.844  -0.495  -0.670  0.00  0.00     0.070 C 
ATOM     15  C   UNL d   1      -1.537  -1.871  -0.507  0.00  0.00     0.108 C 
ATOM     16 CL   UNL d   1      -3.452   0.146  -0.862  0.00  0.00    -0.081 Cl
BRANCH  10  17
ATOM     17  O   UNL d   1       2.159  -1.585  -0.600  0.00  0.00    -0.353 OA
ATOM     18  C   UNL d   1       2.758  -1.290   0.669  0.00  0.00     0.210 C 
ENDBRANCH  10  17
BRANCH  15  19
ATOM     19  O   UNL d   1      -2.473  -2.865  -0.369  0.00  0.00    -0.353 OA
ATOM     20  C   UNL d   1      -3.669  -2.637   0.368  0.00  0.00     0.210 C 
ENDBRANCH  15  19
ENDBRANCH   1   9
BRANCH   4  21
ATOM     21  C   UNL d   1       2.718  -7.058  -2.647  0.00  0.00     0.080 C 
ATOM     22  C   UNL d   1       4.106  -6.973  -2.906  0.00  0.00     0.062 C 
ATOM     23 CL   UNL d   1       5.211  -6.166  -1.841  0.00  0.00    -0.082 Cl
ATOM     24  C   UNL d   1       4.680  -7.660  -3.986  0.00  0.00     0.026 C 
ATOM     25  C   UNL d   1       3.901  -8.505  -4.771  0.00  0.00     0.003 C 
ATOM     26  C   UNL d   1       2.567  -8.719  -4.428  0.00  0.00     0.026 C 
ATOM     27  C   UNL d   1       1.982  -8.012  -3.364  0.00  0.00     0.062 C 
ATOM     28 CL   UNL d   1       0.320  -8.316  -3.006  0.00  0.00    -0.082 Cl
ENDBRANCH   4  21
TORSDOF 4
