REMARK  4 active torsions:
REMARK  status: ('A' for Active; 'I' for Inactive)
REMARK    1  A    between atoms: N_4  and  C_1 
REMARK    2  A    between atoms: C_8  and  C_2 
REMARK    3  A    between atoms: O_12  and  C_3 
REMARK    4  A    between atoms: O_15  and  C_6 
REMARK       I    between atoms: N_13  and  C_8 
ROOT
ATOM      1  C   UNL d   1       2.587   1.055   0.099  0.00  0.00     0.138 A 
ATOM      2  C   UNL d   1       2.347  -1.331   0.054  0.00  0.00     0.102 A 
ATOM      3  C   UNL d   1       3.182  -0.201   0.125  0.00  0.00     0.119 A 
ATOM      4  C   UNL d   1       1.202   1.209   0.015  0.00  0.00     0.061 A 
ATOM      5  C   UNL d   1       0.927  -1.213  -0.002  0.00  0.00     0.104 A 
ATOM      6  C   UNL d   1       0.368   0.079  -0.025  0.00  0.00     0.048 A 
ATOM      7 BR   UNL d   1      -1.482   0.520  -0.097  0.00  0.00    -0.048 Br
ENDROOT
BRANCH   2   8
ATOM      8  C   UNL d   1       2.957  -2.685  -0.012  0.00  0.00     0.255 C 
ATOM      9  O   UNL d   1       2.738  -3.446  -0.944  0.00  0.00    -0.268 OA
ATOM     10  N   UNL d   1       3.834  -3.015   0.985  0.00  0.00    -0.366 N 
ATOM     11  H   UNL d   1       4.200  -2.324   1.626  0.00  0.00     0.159 HD
ATOM     12  H   UNL d   1       4.337  -3.886   0.878  0.00  0.00     0.159 HD
ENDBRANCH   2   8
BRANCH   3  13
ATOM     13  O   UNL d   1       4.527  -0.304   0.367  0.00  0.00    -0.352 OA
ATOM     14  C   UNL d   1       5.280  -0.613  -0.810  0.00  0.00     0.210 C 
ENDBRANCH   3  13
BRANCH   5  15
ATOM     15  O   UNL d   1       0.294  -2.424   0.028  0.00  0.00    -0.353 OA
ATOM     16  C   UNL d   1      -1.109  -2.579  -0.011  0.00  0.00     0.210 C 
ENDBRANCH   5  15
BRANCH   1  17
ATOM     17  N   UNL d   1       3.401   2.252   0.141  0.00  0.00    -0.113 N 
ATOM     18  O   UNL d   1       4.224   2.408  -0.772  0.00  0.00    -0.532 OA
ATOM     19  O   UNL d   1       3.168   3.057   1.050  0.00  0.00    -0.532 OA
ENDBRANCH   1  17
TORSDOF 4
