REMARK  3 active torsions:
REMARK  status: ('A' for Active; 'I' for Inactive)
REMARK    1  A    between atoms: C_2  and  N_1 
REMARK    2  A    between atoms: O_7  and  C_3 
REMARK    3  A    between atoms: C_12  and  O_7 
ROOT
ATOM      1  C   UNL d   1       0.250   1.163   0.599  0.00  0.00     0.138 A 
ATOM      2  C   UNL d   1      -0.794   0.846   1.473  0.00  0.00     0.109 A 
ATOM      3  N   UNL d   1       1.047   5.920   1.071  0.00  0.00    -0.191 NA
ATOM      4  C   UNL d   1       0.643   4.833   1.135  0.00  0.00     0.099 C 
ATOM      5  C   UNL d   1       0.741   2.471   0.475  0.00  0.00     0.061 A 
ATOM      6  C   UNL d   1      -1.421   1.891   2.163  0.00  0.00     0.041 A 
ATOM      7  C   UNL d   1       0.147   3.492   1.222  0.00  0.00     0.047 A 
ATOM      8  C   UNL d   1      -0.943   3.201   2.052  0.00  0.00     0.025 A 
ENDROOT
BRANCH   1   9
ATOM      9  N   UNL d   1       0.855   0.130  -0.220  0.00  0.00    -0.113 N 
ATOM     10  O   UNL d   1       0.112  -0.503  -0.980  0.00  0.00    -0.532 OA
ATOM     11  O   UNL d   1       2.084   0.003  -0.138  0.00  0.00    -0.532 OA
ENDBRANCH   1   9
BRANCH   2  12
ATOM     12  O   UNL d   1      -1.190  -0.466   1.597  0.00  0.00    -0.308 OA
BRANCH  12  13
ATOM     13  C   UNL d   1      -1.610  -0.925   2.827  0.00  0.00     0.076 A 
ATOM     14  C   UNL d   1      -2.673  -1.830   2.818  0.00  0.00     0.039 A 
ATOM     15  C   UNL d   1      -3.172  -2.335   4.021  0.00  0.00     0.026 A 
ATOM     16  C   UNL d   1      -2.599  -1.939   5.228  0.00  0.00     0.034 A 
ATOM     17  C   UNL d   1      -1.513  -1.064   5.241  0.00  0.00     0.026 A 
ATOM     18 CL   UNL d   1      -3.231  -2.536   6.712  0.00  0.00    -0.084 Cl
ATOM     19  C   UNL d   1      -1.002  -0.573   4.037  0.00  0.00     0.039 A 
ENDBRANCH  12  13
ENDBRANCH   2  12
TORSDOF 3
