REMARK  5 active torsions:
REMARK  status: ('A' for Active; 'I' for Inactive)
REMARK    1  A    between atoms: C_3  and  C_1 
REMARK    2  A    between atoms: S_4  and  C_2 
REMARK    3  A    between atoms: O_7  and  C_3 
REMARK    4  A    between atoms: C_10  and  S_4 
REMARK    5  A    between atoms: C_11  and  O_7 
ROOT
ATOM      1  C   UNL d   1       1.370   0.624   0.079  0.00  0.00     0.064 A 
ATOM      2  C   UNL d   1       1.790  -0.757   0.086  0.00  0.00     0.029 A 
ATOM      3  S   UNL d   1      -0.376  -0.713  -1.300  0.00  0.00    -0.111 SA
ATOM      4  C   UNL d   1       0.205   0.761  -0.666  0.00  0.00     0.068 A 
ATOM      5  C   UNL d   1       0.920  -1.576  -0.602  0.00  0.00     0.069 A 
ENDROOT
BRANCH   1   6
ATOM      6  C   UNL d   1       1.996   1.758   0.760  0.00  0.00     0.300 C 
ATOM      7  O   UNL d   1       2.866   1.645   1.617  0.00  0.00    -0.259 OA
BRANCH   6   8
ATOM      8  O   UNL d   1       1.500   2.983   0.302  0.00  0.00    -0.275 OA
BRANCH   8   9
ATOM      9  C   UNL d   1       1.921   4.120   1.000  0.00  0.00     0.079 A 
ATOM     10  C   UNL d   1       2.513   5.153   0.275  0.00  0.00     0.039 A 
ATOM     11  C   UNL d   1       2.880   6.327   0.936  0.00  0.00     0.026 A 
ATOM     12  C   UNL d   1       2.639   6.457   2.305  0.00  0.00     0.034 A 
ATOM     13  C   UNL d   1       2.031   5.426   3.023  0.00  0.00     0.026 A 
ATOM     14 CL   UNL d   1       3.086   7.907   3.118  0.00  0.00    -0.084 Cl
ATOM     15  C   UNL d   1       1.660   4.254   2.367  0.00  0.00     0.039 A 
ENDBRANCH   8   9
ENDBRANCH   6   8
ENDBRANCH   1   6
BRANCH   2  16
ATOM     16  S   UNL d   1       3.143  -1.430   0.992  0.00  0.00    -0.089 SA
BRANCH  16  17
ATOM     17  C   UNL d   1       4.607  -1.157   0.007  0.00  0.00     0.005 A 
ATOM     18  C   UNL d   1       4.974   0.097  -0.494  0.00  0.00     0.020 A 
ATOM     19  C   UNL d   1       6.227   0.295  -1.086  0.00  0.00     0.025 A 
ATOM     20  C   UNL d   1       7.124  -0.764  -1.184  0.00  0.00     0.034 A 
ATOM     21  C   UNL d   1       6.768  -2.026  -0.719  0.00  0.00     0.025 A 
ATOM     22 CL   UNL d   1       8.689  -0.503  -1.849  0.00  0.00    -0.084 Cl
ATOM     23  C   UNL d   1       5.515  -2.220  -0.126  0.00  0.00     0.020 A 
ENDBRANCH  16  17
ENDBRANCH   2  16
TORSDOF 5
