REMARK  6 active torsions:
REMARK  status: ('A' for Active; 'I' for Inactive)
REMARK    1  A    between atoms: C_3  and  S_1 
REMARK    2  A    between atoms: N_9  and  S_1 
REMARK    3  A    between atoms: C_11  and  C_2 
REMARK    4  A    between atoms: C_8  and  C_12 
REMARK       I    between atoms: C_13  and  N_9 
REMARK    5  A    between atoms: O_22  and  C_13 
REMARK    6  A    between atoms: C_24  and  O_22 
ROOT
ATOM      1  C   UNL d   1       0.459  -1.140   1.414  0.00  0.00     0.121 A 
ATOM      2  S   UNL d   1      -0.456  -0.618   2.762  0.00  0.00    -0.074 SA
ATOM      3  C   UNL d   1      -0.347  -2.146   3.515  0.00  0.00     0.034 A 
ATOM      4  C   UNL d   1       0.737  -2.491   1.483  0.00  0.00     0.034 A 
ATOM      5  C   UNL d   1       0.282  -3.070   2.705  0.00  0.00     0.023 A 
ENDROOT
BRANCH   3   6
ATOM      6  C   UNL d   1      -0.847  -2.443   4.896  0.00  0.00     0.067 A 
ATOM      7  C   UNL d   1      -1.556  -1.566   5.745  0.00  0.00     0.068 A 
ATOM      8  C   UNL d   1      -1.762  -2.269   6.917  0.00  0.00     0.136 A 
ATOM      9  N   UNL d   1      -1.137  -3.470   6.733  0.00  0.00    -0.292 N 
ATOM     10  N   UNL d   1      -0.625  -3.619   5.496  0.00  0.00    -0.297 N 
ATOM     11  C   UNL d   1      -0.921  -4.526   7.698  0.00  0.00     0.178 C 
ATOM     12  HN  UNL d   1      -0.170  -4.443   5.103  1.00  0.00     0.187 HD
BRANCH   8  13
ATOM     13  C   UNL d   1      -2.466  -1.877   8.151  0.00  0.00     0.434 C 
ATOM     14  F   UNL d   1      -2.498  -2.854   9.090  0.00  0.00    -0.165 F 
ATOM     15  F   UNL d   1      -1.887  -0.797   8.732  0.00  0.00    -0.165 F 
ATOM     16  F   UNL d   1      -3.756  -1.541   7.897  0.00  0.00    -0.165 F 
ENDBRANCH   8  13
ENDBRANCH   3   6
BRANCH   1  17
ATOM     17  S   UNL d   1       0.863   0.110   0.224  0.00  0.00     0.273 S 
ATOM     18  O   UNL d   1       1.553  -0.575  -0.850  0.00  0.00    -0.200 OA
ATOM     19  O   UNL d   1       1.520   1.162   0.968  0.00  0.00    -0.200 OA
BRANCH  17  20
ATOM     20  N   UNL d   1      -0.533   0.759  -0.371  0.00  0.00    -0.225 N 
ATOM     21  C   UNL d   1      -1.421   0.024  -1.132  0.00  0.00     0.374 C 
ATOM     22  O   UNL d   1      -1.415  -1.194  -1.200  0.00  0.00    -0.237 OA
ATOM     23  H   UNL d   1      -0.517   1.764  -0.493  0.00  0.00     0.184 HD
BRANCH  21  24
ATOM     24  O   UNL d   1      -2.253   0.843  -1.819  0.00  0.00    -0.304 OA
BRANCH  24  25
ATOM     25  C   UNL d   1      -2.957   0.221  -2.902  0.00  0.00     0.176 C 
ATOM     26  C   UNL d   1      -2.082   0.305  -4.140  0.00  0.00     0.034 C 
ENDBRANCH  24  25
ENDBRANCH  21  24
ENDBRANCH  17  20
ENDBRANCH   1  17
TORSDOF 6
