REMARK  2 active torsions:
REMARK  status: ('A' for Active; 'I' for Inactive)
REMARK    1  A    between atoms: N_3  and  C_1 
REMARK    2  A    between atoms: C_8  and  C_2 
REMARK       I    between atoms: N_12  and  C_8 
ROOT
ATOM      1  C   UNL d   1       0.156  -1.270  -0.048  0.00  0.00     0.207 A 
ATOM      2  C   UNL d   1       1.465  -0.829  -0.044  0.00  0.00     0.100 A 
ATOM      3  N   UNL d   1      -0.660  -0.176  -0.042  0.00  0.00    -0.276 N 
ATOM      4  N   UNL d   1       0.040   0.979  -0.022  0.00  0.00    -0.307 N 
ATOM      5  HN  UNL d   1      -0.321   1.933  -0.005  1.00  0.00     0.186 HD
ATOM      6  C   UNL d   1       1.315   0.581  -0.031  0.00  0.00     0.128 A 
ATOM      7  C   UNL d   1      -2.102  -0.076  -0.029  0.00  0.00     0.179 C 
ENDROOT
BRANCH   2   8
ATOM      8  C   UNL d   1       2.733  -1.528  -0.091  0.00  0.00     0.254 C 
ATOM      9  O   UNL d   1       3.802  -0.930  -0.159  0.00  0.00    -0.268 OA
ATOM     10  N   UNL d   1       2.727  -2.890  -0.062  0.00  0.00    -0.366 N 
ATOM     11  H   UNL d   1       1.938  -3.435   0.268  0.00  0.00     0.159 HD
ATOM     12  H   UNL d   1       3.635  -3.334  -0.004  0.00  0.00     0.159 HD
ENDBRANCH   2   8
BRANCH   1  13
ATOM     13  N   UNL d   1      -0.365  -2.583  -0.059  0.00  0.00    -0.095 N 
ATOM     14  O   UNL d   1       0.147  -3.388   0.725  0.00  0.00    -0.530 OA
ATOM     15  O   UNL d   1      -1.267  -2.826  -0.867  0.00  0.00    -0.530 OA
ENDBRANCH   1  13
TORSDOF 2
