REMARK  3 active torsions:
REMARK  status: ('A' for Active; 'I' for Inactive)
REMARK    1  A    between atoms: C_2  and  S_1 
REMARK    2  A    between atoms: N_10  and  S_1 
REMARK    3  A    between atoms: N_4  and  C_5 
REMARK       I    between atoms: C_9  and  N_4 
ROOT
ATOM      1  C   UNL d   1       0.568   0.886  -1.395  0.00  0.00     0.076 A 
ATOM      2  C   UNL d   1       0.779   2.265  -1.331  0.00  0.00     0.050 A 
ATOM      3  C   UNL d   1      -0.101   2.492  -3.602  0.00  0.00     0.056 A 
ATOM      4  C   UNL d   1       0.454   3.058  -2.436  0.00  0.00     0.062 A 
ATOM      5  C   UNL d   1       0.022   0.306  -2.539  0.00  0.00     0.027 A 
ATOM      6  C   UNL d   1      -0.308   1.107  -3.635  0.00  0.00     0.033 A 
ATOM      7 CL   UNL d   1       0.748   4.761  -2.333  0.00  0.00    -0.082 Cl
ENDROOT
BRANCH   1   8
ATOM      8  S   UNL d   1       1.019  -0.143  -0.035  0.00  0.00     0.239 S 
ATOM      9  O   UNL d   1       0.857  -1.529  -0.403  0.00  0.00    -0.206 OA
ATOM     10  O   UNL d   1       0.462   0.417   1.171  0.00  0.00    -0.206 OA
BRANCH   8  11
ATOM     11  N   UNL d   1       2.679   0.100   0.050  0.00  0.00    -0.225 NA
ATOM     12  H   UNL d   1       3.166  -0.744  -0.250  0.00  0.00     0.136 HD
ATOM     13  H   UNL d   1       2.930   0.404   0.991  0.00  0.00     0.136 HD
ENDBRANCH   8  11
ENDBRANCH   1   8
BRANCH   3  14
ATOM     14  N   UNL d   1      -0.404   3.326  -4.707  0.00  0.00    -0.326 N 
ATOM     15  C   UNL d   1      -1.119   2.978  -5.837  0.00  0.00     0.218 C 
ATOM     16  O   UNL d   1      -1.685   1.906  -6.036  0.00  0.00    -0.274 OA
ATOM     17  C   UNL d   1      -1.173   4.057  -6.884  0.00  0.00     0.117 C 
ATOM     18  H   UNL d   1      -0.122   4.296  -4.604  0.00  0.00     0.169 HD
ENDBRANCH   3  14
TORSDOF 3
