REMARK  5 active torsions:
REMARK  status: ('A' for Active; 'I' for Inactive)
REMARK    1  A    between atoms: N_6  and  S_1 
REMARK    2  A    between atoms: C_12  and  S_1 
REMARK    3  A    between atoms: C_2  and  C_11 
REMARK    4  A    between atoms: N_9  and  N_6 
REMARK    5  A    between atoms: C_15  and  C_8 
ROOT
ATOM      1  N   UNL d   1       0.684   2.587   0.468  0.00  0.00    -0.293 N 
ATOM      2  HN  UNL d   1       0.338   1.809  -0.094  1.00  0.00     0.187 HD
ATOM      3  C   UNL d   1       0.325   3.805   0.192  0.00  0.00     0.058 C 
ATOM      4  C   UNL d   1       0.745   5.020   0.983  0.00  0.00     0.072 C 
ENDROOT
BRANCH   1   5
ATOM      5  N   UNL d   1       1.566   2.346   1.562  0.00  0.00    -0.223 N 
ATOM      6  H   UNL d   1       2.056   3.067   2.095  0.00  0.00     0.200 HD
BRANCH   5   7
ATOM      7  S   UNL d   1       1.984   0.754   1.972  0.00  0.00     0.276 S 
ATOM      8  O   UNL d   1       0.786  -0.052   2.052  0.00  0.00    -0.199 OA
ATOM      9  O   UNL d   1       2.908   0.850   3.086  0.00  0.00    -0.199 OA
BRANCH   7  10
ATOM     10  C   UNL d   1       2.911   0.238   0.543  0.00  0.00     0.081 A 
ATOM     11  C   UNL d   1       4.299   0.409   0.525  0.00  0.00     0.027 A 
ATOM     12  C   UNL d   1       5.032  -0.012  -0.586  0.00  0.00     0.025 A 
ATOM     13  C   UNL d   1       4.377  -0.610  -1.664  0.00  0.00     0.034 A 
ATOM     14  C   UNL d   1       2.995  -0.801  -1.639  0.00  0.00     0.025 A 
ATOM     15 CL   UNL d   1       5.287  -1.118  -3.034  0.00  0.00    -0.084 Cl
ATOM     16  C   UNL d   1       2.254  -0.380  -0.530  0.00  0.00     0.027 A 
ENDBRANCH   7  10
ENDBRANCH   5   7
ENDBRANCH   1   5
BRANCH   3  17
ATOM     17  C   UNL d   1      -0.568   3.979  -0.916  0.00  0.00     0.124 A 
ATOM     18  C   UNL d   1      -1.510   3.142  -1.465  0.00  0.00     0.073 A 
ATOM     19  C   UNL d   1      -2.105   3.891  -2.511  0.00  0.00     0.068 A 
ATOM     20  N   UNL d   1      -1.506   5.091  -2.616  0.00  0.00    -0.260 N 
ATOM     21  O   UNL d   1      -0.556   5.143  -1.618  0.00  0.00    -0.235 OA
ATOM     22  HN  UNL d   1      -1.714   5.819  -3.299  1.00  0.00     0.195 HD
BRANCH  19  23
ATOM     23  C   UNL d   1      -3.236   3.507  -3.353  0.00  0.00    -0.007 A 
ATOM     24  C   UNL d   1      -4.056   4.489  -3.925  0.00  0.00     0.014 A 
ATOM     25  C   UNL d   1      -5.174   4.134  -4.678  0.00  0.00     0.001 A 
ATOM     26  C   UNL d   1      -5.483   2.789  -4.876  0.00  0.00     0.000 A 
ATOM     27  C   UNL d   1      -4.670   1.801  -4.324  0.00  0.00     0.001 A 
ATOM     28  C   UNL d   1      -3.552   2.156  -3.566  0.00  0.00     0.014 A 
ENDBRANCH  19  23
ENDBRANCH   3  17
TORSDOF 5
