REMARK  5 active torsions:
REMARK  status: ('A' for Active; 'I' for Inactive)
REMARK    1  A    between atoms: C_8  and  N_1 
REMARK    2  A    between atoms: S_7  and  C_2 
REMARK    3  A    between atoms: C_12  and  S_7 
REMARK    4  A    between atoms: C_9  and  C_12 
REMARK    5  A    between atoms: C_11  and  C_9 
ROOT
ATOM      1  N   UNL d   1       0.955  -0.713  -0.011  0.00  0.00    -0.241 N 
ATOM      2  C   UNL d   1       0.899   0.648  -0.171  0.00  0.00     0.170 A 
ATOM      3  C   UNL d   1      -0.369  -1.087   0.125  0.00  0.00     0.347 A 
ATOM      4  N   UNL d   1      -0.298   1.165  -0.107  0.00  0.00    -0.275 N 
ATOM      5  HN  UNL d   1      -0.565   2.146  -0.187  1.00  0.00     0.189 HD
ATOM      6  N   UNL d   1      -1.106   0.092   0.093  0.00  0.00    -0.249 N 
ATOM      7  O   UNL d   1      -0.876  -2.192   0.263  0.00  0.00    -0.245 OA
ATOM      8  H   UNL d   1      -2.116   0.151   0.124  0.00  0.00     0.192 HD
ENDROOT
BRANCH   2   9
ATOM      9  S   UNL d   1       2.275   1.627  -0.558  0.00  0.00    -0.084 SA
BRANCH   9  10
ATOM     10  C   UNL d   1       1.542   3.278  -0.652  0.00  0.00     0.166 C 
BRANCH  10  11
ATOM     11  C   UNL d   1       2.588   4.340  -0.969  0.00  0.00     0.169 C 
ATOM     12  O   UNL d   1       3.795   4.121  -1.022  0.00  0.00    -0.291 OA
BRANCH  11  13
ATOM     13  C   UNL d   1       2.115   5.738  -1.223  0.00  0.00     0.011 A 
ATOM     14  C   UNL d   1       0.774   6.116  -1.073  0.00  0.00     0.017 A 
ATOM     15  C   UNL d   1       0.382   7.433  -1.337  0.00  0.00     0.025 A 
ATOM     16  C   UNL d   1       1.325   8.375  -1.748  0.00  0.00     0.034 A 
ATOM     17  C   UNL d   1       2.662   8.014  -1.890  0.00  0.00     0.025 A 
ATOM     18 CL   UNL d   1       0.832   9.987  -2.084  0.00  0.00    -0.084 Cl
ATOM     19  C   UNL d   1       3.056   6.699  -1.626  0.00  0.00     0.017 A 
ENDBRANCH  11  13
ENDBRANCH  10  11
ENDBRANCH   9  10
ENDBRANCH   2   9
BRANCH   1  20
ATOM     20  C   UNL d   1       2.058  -1.611  -0.064  0.00  0.00     0.046 A 
ATOM     21  C   UNL d   1       1.880  -2.938  -0.488  0.00  0.00     0.030 A 
ATOM     22  C   UNL d   1       2.970  -3.800  -0.667  0.00  0.00     0.002 A 
ATOM     23  C   UNL d   1       4.261  -3.359  -0.405  0.00  0.00     0.000 A 
ATOM     24  C   UNL d   1       4.456  -2.076   0.088  0.00  0.00     0.002 A 
ATOM     25  C   UNL d   1       3.362  -1.223   0.277  0.00  0.00     0.030 A 
ENDBRANCH   1  20
TORSDOF 5
