REMARK  1 active torsions:
REMARK  status: ('A' for Active; 'I' for Inactive)
REMARK       I    between atoms: N_2  and  C_1 
REMARK    1  A    between atoms: C_3  and  C_1 
ROOT
ATOM      1  C   UNL d   1       0.890  -0.179   0.082  0.00  0.00     0.253 C 
ATOM      2  N   UNL d   1       0.195  -1.245  -0.501  0.00  0.00    -0.346 N 
ATOM      3  O   UNL d   1       0.618   0.996  -0.154  0.00  0.00    -0.267 OA
ATOM      4  S   UNL d   1      -2.110  -3.422  -0.706  0.00  0.00    -0.166 SA
ATOM      5  C   UNL d   1      -0.941  -0.950  -1.383  0.00  0.00     0.136 C 
ATOM      6  C   UNL d   1       0.537  -2.670  -0.418  0.00  0.00     0.136 C 
ATOM      7  C   UNL d   1      -0.573  -3.460   0.278  0.00  0.00     0.093 C 
ATOM      8  C   UNL d   1      -2.244  -1.609  -0.916  0.00  0.00     0.093 C 
ENDROOT
BRANCH   1   9
ATOM      9  C   UNL d   1       2.027  -0.429   1.010  0.00  0.00     0.032 A 
ATOM     10  C   UNL d   1       3.180   0.358   0.874  0.00  0.00     0.018 A 
ATOM     11  C   UNL d   1       4.285   0.140   1.703  0.00  0.00     0.025 A 
ATOM     12  C   UNL d   1       4.238  -0.866   2.667  0.00  0.00     0.034 A 
ATOM     13  C   UNL d   1       3.079  -1.618   2.844  0.00  0.00     0.025 A 
ATOM     14 CL   UNL d   1       5.613  -1.175   3.652  0.00  0.00    -0.084 Cl
ATOM     15  C   UNL d   1       1.962  -1.374   2.040  0.00  0.00     0.018 A 
ENDBRANCH   1   9
TORSDOF 1
