REMARK  4 active torsions:
REMARK  status: ('A' for Active; 'I' for Inactive)
REMARK    1  A    between atoms: S_2  and  N_1 
REMARK    2  A    between atoms: C_12  and  S_2 
REMARK    3  A    between atoms: C_4  and  C_3 
REMARK    4  A    between atoms: C_17  and  C_7 
ROOT
ATOM      1  N   UNL d   1       1.102  -0.702   0.146  0.00  0.00    -0.176 N 
ATOM      2  C   UNL d   1      -0.188  -1.215   0.188  0.00  0.00     0.085 A 
ATOM      3  N   UNL d   1       1.124   0.667   0.204  0.00  0.00    -0.295 N 
ATOM      4  HN  UNL d   1       1.939   1.281   0.207  1.00  0.00     0.187 HD
ATOM      5  C   UNL d   1      -1.009  -0.102   0.269  0.00  0.00     0.052 A 
ATOM      6  C   UNL d   1      -0.159   1.012   0.256  0.00  0.00     0.111 A 
ENDROOT
BRANCH   2   7
ATOM      7  C   UNL d   1      -0.709  -2.620   0.112  0.00  0.00     0.054 A 
ATOM      8  C   UNL d   1      -1.915  -3.077  -0.537  0.00  0.00     0.080 A 
ATOM      9  N   UNL d   1      -2.079  -4.393  -0.333  0.00  0.00    -0.259 N 
ATOM     10  O   UNL d   1      -1.018  -4.807   0.427  0.00  0.00    -0.241 OA
ATOM     11  HN  UNL d   1      -2.845  -4.972  -0.676  1.00  0.00     0.195 HD
ATOM     12  C   UNL d   1      -0.207  -3.756   0.717  0.00  0.00     0.087 A 
ATOM     13  C   UNL d   1       0.891  -4.102   1.642  0.00  0.00     0.080 C 
BRANCH   8  14
ATOM     14  C   UNL d   1      -2.902  -2.353  -1.346  0.00  0.00    -0.007 A 
ATOM     15  C   UNL d   1      -4.267  -2.659  -1.222  0.00  0.00     0.014 A 
ATOM     16  C   UNL d   1      -5.226  -1.964  -1.962  0.00  0.00     0.001 A 
ATOM     17  C   UNL d   1      -4.833  -0.950  -2.832  0.00  0.00     0.000 A 
ATOM     18  C   UNL d   1      -3.481  -0.652  -2.985  0.00  0.00     0.001 A 
ATOM     19  C   UNL d   1      -2.519  -1.363  -2.262  0.00  0.00     0.014 A 
ENDBRANCH   8  14
ENDBRANCH   2   7
BRANCH   1  20
ATOM     20  S   UNL d   1       2.537  -1.637  -0.049  0.00  0.00     0.282 S 
ATOM     21  O   UNL d   1       3.005  -1.916   1.298  0.00  0.00    -0.198 OA
ATOM     22  O   UNL d   1       2.214  -2.688  -1.000  0.00  0.00    -0.198 OA
BRANCH  20  23
ATOM     23  C   UNL d   1       3.693  -0.542  -0.833  0.00  0.00     0.081 A 
ATOM     24  C   UNL d   1       4.545   0.247  -0.052  0.00  0.00     0.027 A 
ATOM     25  C   UNL d   1       5.477   1.078  -0.677  0.00  0.00     0.025 A 
ATOM     26  C   UNL d   1       5.562   1.101  -2.071  0.00  0.00     0.034 A 
ATOM     27  C   UNL d   1       4.722   0.301  -2.847  0.00  0.00     0.025 A 
ATOM     28 CL   UNL d   1       6.715   2.120  -2.840  0.00  0.00    -0.084 Cl
ATOM     29  C   UNL d   1       3.786  -0.529  -2.229  0.00  0.00     0.027 A 
ENDBRANCH  20  23
ENDBRANCH   1  20
TORSDOF 4
