REMARK  2 active torsions:
REMARK  status: ('A' for Active; 'I' for Inactive)
REMARK    1  A    between atoms: N_18  and  C_11 
REMARK    2  A    between atoms: C_22  and  N_18 
ROOT
ATOM      1  C   UNL d   1       0.062  -0.777  -0.135  0.00  0.00     0.135 C 
ATOM      2  C   UNL d   1       0.035   0.578  -0.133  0.00  0.00     0.128 C 
ATOM      3  N   UNL d   1       1.309  -1.409   0.050  0.00  0.00    -0.288 N 
ATOM      4  N   UNL d   1       2.459   0.650  -0.106  0.00  0.00    -0.270 N 
ATOM      5  N   UNL d   1      -1.143  -1.498  -0.304  0.00  0.00    -0.303 N 
ATOM      6  C   UNL d   1       2.531  -0.725  -0.035  0.00  0.00     0.332 C 
ATOM      7  C   UNL d   1       1.286   1.331   0.113  0.00  0.00     0.269 C 
ATOM      8  C   UNL d   1      -2.428   0.536  -0.552  0.00  0.00     0.099 C 
ATOM      9  C   UNL d   1      -2.410  -0.906  -0.275  0.00  0.00     0.264 C 
ATOM     10  C   UNL d   1      -1.213   1.339  -0.395  0.00  0.00     0.208 C 
ATOM     11  C   UNL d   1      -3.516   1.089  -1.122  0.00  0.00     0.109 C 
ATOM     12  O   UNL d   1       3.612  -1.313  -0.006  0.00  0.00    -0.246 OA
ATOM     13  O   UNL d   1       1.271   2.494   0.511  0.00  0.00    -0.267 OA
ATOM     14  O   UNL d   1      -3.458  -1.540  -0.141  0.00  0.00    -0.267 OA
ATOM     15  O   UNL d   1      -1.237   2.556  -0.535  0.00  0.00    -0.286 OA
ATOM     16  C   UNL d   1       1.463  -2.817   0.387  0.00  0.00     0.163 C 
ATOM     17  C   UNL d   1       3.688   1.418  -0.043  0.00  0.00     0.164 C 
ATOM     18  C   UNL d   1      -1.209  -2.916  -0.627  0.00  0.00     0.161 C 
ENDROOT
BRANCH  11  19
ATOM     19  N   UNL d   1      -4.721   0.482  -1.403  0.00  0.00    -0.365 N 
ATOM     20  H   UNL d   1      -4.813  -0.466  -1.021  0.00  0.00     0.165 HD
BRANCH  19  21
ATOM     21  C   UNL d   1      -5.611   0.767  -2.453  0.00  0.00     0.033 A 
ATOM     22  C   UNL d   1      -5.316   1.653  -3.496  0.00  0.00     0.055 A 
ATOM     23  C   UNL d   1      -6.262   1.931  -4.492  0.00  0.00     0.058 A 
ATOM     24 CL   UNL d   1      -5.794   3.001  -5.768  0.00  0.00    -0.082 Cl
ATOM     25  C   UNL d   1      -7.531   1.347  -4.437  0.00  0.00     0.055 A 
ATOM     26  C   UNL d   1      -7.843   0.478  -3.392  0.00  0.00     0.028 A 
ATOM     27 CL   UNL d   1      -8.753   1.660  -5.616  0.00  0.00    -0.083 Cl
ATOM     28  C   UNL d   1      -6.889   0.193  -2.411  0.00  0.00     0.031 A 
ENDBRANCH  19  21
ENDBRANCH  11  19
TORSDOF 2
