REMARK  4 active torsions:
REMARK  status: ('A' for Active; 'I' for Inactive)
REMARK    1  A    between atoms: C_7  and  C_1 
REMARK    2  A    between atoms: O_10  and  C_8 
REMARK    3  A    between atoms: N_14  and  C_9 
REMARK    4  A    between atoms: C_15  and  O_10 
ROOT
ATOM      1  C   UNL d   1      -1.120   2.513  -0.270  0.00  0.00     0.067 A 
ATOM      2  C   UNL d   1      -1.877   2.719   0.875  0.00  0.00     0.162 A 
ATOM      3  N   UNL d   1      -2.685   3.802   1.036  0.00  0.00    -0.346 N 
ATOM      4  HN  UNL d   1      -3.263   3.909   1.869  1.00  0.00     0.167 HD
ATOM      5  C   UNL d   1      -1.143   3.508  -1.259  0.00  0.00     0.021 A 
ATOM      6  C   UNL d   1      -2.695   4.731   0.054  0.00  0.00     0.090 A 
ATOM      7  C   UNL d   1      -1.938   4.638  -1.095  0.00  0.00     0.018 A 
ENDROOT
BRANCH   1   8
ATOM      8  C   UNL d   1      -0.306   1.326  -0.545  0.00  0.00     0.167 A 
ATOM      9  N   UNL d   1       0.662   1.292  -1.403  0.00  0.00    -0.330 N 
ATOM     10  C   UNL d   1       1.001  -0.032  -1.439  0.00  0.00     0.126 A 
ATOM     11  HN  UNL d   1       1.073   2.066  -1.925  1.00  0.00     0.168 HD
ATOM     12  C   UNL d   1       1.851  -0.623  -2.292  0.00  0.00     0.120 C 
ATOM     13  C   UNL d   1       0.172  -0.798  -0.466  0.00  0.00     0.318 A 
ATOM     14  O   UNL d   1      -0.649   0.165   0.055  0.00  0.00    -0.255 OA
ATOM     15  O   UNL d   1       0.181  -1.981  -0.199  0.00  0.00    -0.257 OA
BRANCH  12  16
ATOM     16  N   UNL d   1       2.641  -0.095  -3.317  0.00  0.00    -0.396 N 
ATOM     17  C   UNL d   1       2.959   1.330  -3.437  0.00  0.00     0.148 C 
ATOM     18  C   UNL d   1       3.454  -0.954  -4.178  0.00  0.00     0.148 C 
ENDBRANCH  12  16
ENDBRANCH   1   8
BRANCH   2  19
ATOM     19  O   UNL d   1      -1.814   1.786   1.903  0.00  0.00    -0.293 OA
BRANCH  19  20
ATOM     20  C   UNL d   1      -2.117   2.204   3.180  0.00  0.00     0.077 A 
ATOM     21  C   UNL d   1      -2.877   1.333   3.965  0.00  0.00     0.039 A 
ATOM     22  C   UNL d   1      -3.199   1.676   5.281  0.00  0.00     0.026 A 
ATOM     23  C   UNL d   1      -2.749   2.884   5.812  0.00  0.00     0.034 A 
ATOM     24  C   UNL d   1      -1.967   3.745   5.046  0.00  0.00     0.026 A 
ATOM     25 CL   UNL d   1      -3.156   3.313   7.429  0.00  0.00    -0.084 Cl
ATOM     26  C   UNL d   1      -1.636   3.397   3.734  0.00  0.00     0.039 A 
ENDBRANCH  19  20
ENDBRANCH   2  19
TORSDOF 4
