REMARK  4 active torsions:
REMARK  status: ('A' for Active; 'I' for Inactive)
REMARK    1  A    between atoms: C_2  and  C_1 
REMARK    2  A    between atoms: N_7  and  C_2 
REMARK    3  A    between atoms: O_8  and  C_5 
REMARK    4  A    between atoms: C_10  and  O_8 
ROOT
ATOM      1  C   UNL d   1       0.274   0.548   0.031  0.00  0.00     0.110 C 
ATOM      2  C   UNL d   1      -1.098   0.141   0.079  0.00  0.00     0.105 C 
ATOM      3  N   UNL d   1      -2.228  -0.135   0.094  0.00  0.00    -0.191 NA
ATOM      4  C   UNL d   1       1.235  -0.405  -0.009  0.00  0.00     0.066 C 
ATOM      5  C   UNL d   1       2.717  -0.177  -0.156  0.00  0.00     0.078 C 
ENDROOT
BRANCH   1   6
ATOM      6  C   UNL d   1       0.505   2.038   0.029  0.00  0.00     0.117 C 
ATOM      7  S   UNL d   1       1.671   2.914   0.853  0.00  0.00    -0.059 SA
BRANCH   6   8
ATOM      8  N   UNL d   1      -0.404   2.766  -0.701  0.00  0.00    -0.389 N 
ATOM      9  H   UNL d   1      -1.210   2.376  -1.179  0.00  0.00     0.157 HD
ATOM     10  H   UNL d   1      -0.333   3.778  -0.694  0.00  0.00     0.157 HD
ENDBRANCH   6   8
ENDBRANCH   1   6
BRANCH   4  11
ATOM     11  O   UNL d   1       0.826  -1.742  -0.051  0.00  0.00    -0.354 OA
BRANCH  11  12
ATOM     12  C   UNL d   1       1.654  -2.683   0.640  0.00  0.00     0.171 C 
ATOM     13  C   UNL d   1       0.955  -4.032   0.614  0.00  0.00     0.034 C 
ENDBRANCH  11  12
ENDBRANCH   4  11
TORSDOF 4
