REMARK  6 active torsions:
REMARK  status: ('A' for Active; 'I' for Inactive)
REMARK    1  A    between atoms: C_18  and  N_1 
REMARK    2  A    between atoms: C_20  and  N_4 
REMARK    3  A    between atoms: C_16  and  C_5 
REMARK    4  A    between atoms: C_8  and  C_14 
REMARK    5  A    between atoms: C_15  and  C_9 
REMARK       I    between atoms: C_14  and  N_17 
REMARK    6  A    between atoms: N_17  and  C_30 
ROOT
ATOM      1  C   UNL d   1       2.069  -1.384  -0.086  0.00  0.00     0.057 A 
ATOM      2  C   UNL d   1       2.134  -2.451  -0.991  0.00  0.00     0.034 A 
ATOM      3  C   UNL d   1       3.195  -1.058   0.670  0.00  0.00     0.034 A 
ATOM      4  C   UNL d   1       4.433  -2.907  -0.334  0.00  0.00     0.035 A 
ATOM      5  C   UNL d   1       4.357  -1.831   0.560  0.00  0.00     0.032 A 
ATOM      6  C   UNL d   1       3.309  -3.205  -1.112  0.00  0.00     0.032 A 
ENDROOT
BRANCH   4   7
ATOM      7  N   UNL d   1       5.579  -3.716  -0.494  0.00  0.00    -0.322 N 
ATOM      8  C   UNL d   1       6.811  -3.528   0.106  0.00  0.00     0.276 C 
ATOM      9  O   UNL d   1       7.110  -2.585   0.836  0.00  0.00    -0.266 OA
ATOM     10  H   UNL d   1       5.526  -4.516  -1.116  0.00  0.00     0.169 HD
BRANCH   8  11
ATOM     11  C   UNL d   1       7.798  -4.572  -0.188  0.00  0.00     0.141 A 
ATOM     12  N   UNL d   1       7.573  -5.652  -0.967  0.00  0.00    -0.272 N 
ATOM     13  N   UNL d   1       8.752  -6.341  -0.847  0.00  0.00    -0.196 N 
ATOM     14  HN  UNL d   1       6.740  -5.893  -1.505  1.00  0.00     0.189 HD
ATOM     15  N   UNL d   1       9.716  -5.745  -0.100  0.00  0.00    -0.281 N 
ATOM     16  C   UNL d   1       9.121  -4.625   0.312  0.00  0.00     0.057 A 
ATOM     17  HN  UNL d   1      10.662  -6.073   0.098  1.00  0.00     0.189 HD
ATOM     18  C   UNL d   1       9.826  -3.656   1.183  0.00  0.00     0.072 C 
BRANCH  13  19
ATOM     19  C   UNL d   1       8.967  -7.619  -1.428  0.00  0.00     0.074 A 
ATOM     20  C   UNL d   1       8.020  -8.184  -2.291  0.00  0.00     0.033 A 
ATOM     21  C   UNL d   1       8.246  -9.451  -2.837  0.00  0.00     0.002 A 
ATOM     22  C   UNL d   1       9.407 -10.160  -2.518  0.00  0.00     0.000 A 
ATOM     23  C   UNL d   1      10.352  -9.603  -1.659  0.00  0.00     0.002 A 
ATOM     24  C   UNL d   1      10.139  -8.332  -1.121  0.00  0.00     0.033 A 
ENDBRANCH  13  19
ENDBRANCH   8  11
ENDBRANCH   4   7
BRANCH   1  25
ATOM     25  N   UNL d   1       0.876  -0.623   0.071  0.00  0.00    -0.255 N 
ATOM     26  C   UNL d   1      -0.442  -1.038  -0.060  0.00  0.00     0.076 C 
ATOM     27  C   UNL d   1      -1.191   0.119  -0.121  0.00  0.00     0.069 C 
ATOM     28  C   UNL d   1      -0.297   1.173   0.195  0.00  0.00     0.135 C 
ATOM     29  N   UNL d   1       0.948   0.699   0.391  0.00  0.00    -0.289 N 
ATOM     30  HN  UNL d   1       1.766   1.217   0.710  1.00  0.00     0.187 HD
BRANCH  26  31
ATOM     31  C   UNL d   1      -0.903  -2.399   0.000  0.00  0.00     0.033 A 
ATOM     32  S   UNL d   1      -2.203  -2.961  -0.962  0.00  0.00    -0.100 SA
ATOM     33  C   UNL d   1      -2.120  -4.527  -0.278  0.00  0.00     0.050 A 
ATOM     34  C   UNL d   1      -1.127  -4.626   0.670  0.00  0.00     0.008 A 
ATOM     35  C   UNL d   1      -0.434  -3.395   0.839  0.00  0.00     0.021 A 
ENDBRANCH  26  31
BRANCH  28  36
ATOM     36  C   UNL d   1      -0.678   2.621   0.360  0.00  0.00     0.434 C 
ATOM     37  F   UNL d   1       0.337   3.413   0.792  0.00  0.00    -0.165 F 
ATOM     38  F   UNL d   1      -1.122   3.156  -0.811  0.00  0.00    -0.165 F 
ATOM     39  F   UNL d   1      -1.695   2.768   1.254  0.00  0.00    -0.165 F 
ENDBRANCH  28  36
ENDBRANCH   1  25
TORSDOF 6
