REMARK  6 active torsions:
REMARK  status: ('A' for Active; 'I' for Inactive)
REMARK    1  A    between atoms: C_2  and  C_1 
REMARK       I    between atoms: N_8  and  C_2 
REMARK    2  A    between atoms: N_7  and  C_3 
REMARK    3  A    between atoms: C_11  and  N_8 
REMARK    4  A    between atoms: C_9  and  C_11 
REMARK    5  A    between atoms: C_12  and  C_9 
REMARK    6  A    between atoms: O_10  and  C_12 
ROOT
ATOM      1  C   UNL d   1       0.940   0.131  -0.042  0.00  0.00     0.127 C 
ATOM      2  C   UNL d   1       0.229  -0.769   0.663  0.00  0.00     0.113 C 
ATOM      3  C   UNL d   1       0.323   1.118  -0.848  0.00  0.00     0.106 C 
ATOM      4  N   UNL d   1      -0.144   1.942  -1.523  0.00  0.00    -0.191 NA
ENDROOT
BRANCH   1   5
ATOM      5  C   UNL d   1       2.441   0.035  -0.001  0.00  0.00     0.263 C 
ATOM      6  O   UNL d   1       3.010  -0.831   0.660  0.00  0.00    -0.267 OA
ATOM      7  N   UNL d   1       3.135   0.979  -0.731  0.00  0.00    -0.356 N 
ATOM      8  H   UNL d   1       2.653   1.671  -1.290  0.00  0.00     0.162 HD
BRANCH   7   9
ATOM      9  C   UNL d   1       4.590   1.035  -0.727  0.00  0.00     0.125 C 
BRANCH   9  10
ATOM     10  C   UNL d   1       5.199   0.148  -1.811  0.00  0.00     0.046 C 
BRANCH  10  11
ATOM     11  C   UNL d   1       6.723   0.235  -1.827  0.00  0.00     0.168 C 
BRANCH  11  12
ATOM     12  O   UNL d   1       7.232  -0.203  -0.571  0.00  0.00    -0.396 OA
ATOM     13  C   UNL d   1       8.651  -0.160  -0.521  0.00  0.00     0.201 C 
ENDBRANCH  11  12
ENDBRANCH  10  11
ENDBRANCH   9  10
ENDBRANCH   7   9
ENDBRANCH   1   5
BRANCH   2  14
ATOM     14  N   UNL d   1      -1.140  -0.945   0.874  0.00  0.00    -0.397 N 
ATOM     15  C   UNL d   1      -2.152   0.106   0.756  0.00  0.00     0.148 C 
ATOM     16  C   UNL d   1      -1.696  -2.263   1.197  0.00  0.00     0.148 C 
ENDBRANCH   2  14
TORSDOF 6
