REMARK  6 active torsions:
REMARK  status: ('A' for Active; 'I' for Inactive)
REMARK    1  A    between atoms: C_5  and  C_3 
REMARK    2  A    between atoms: C_12  and  N_4 
REMARK    3  A    between atoms: S_17  and  C_11 
REMARK    4  A    between atoms: C_13  and  C_23 
REMARK       I    between atoms: N_16  and  C_13 
REMARK    5  A    between atoms: C_24  and  N_16 
REMARK    6  A    between atoms: C_23  and  S_17 
ROOT
ATOM      1  C   UNL d   1       2.452   1.256  -0.161  0.00  0.00     0.067 A 
ATOM      2  N   UNL d   1       2.840   1.209  -1.450  0.00  0.00    -0.335 N 
ATOM      3  HN  UNL d   1       2.367   0.611  -2.128  1.00  0.00     0.168 HD
ATOM      4  C   UNL d   1       3.873   1.981  -1.798  0.00  0.00     0.145 A 
ATOM      5  N   UNL d   1       4.596   2.719  -0.947  0.00  0.00    -0.347 N 
ATOM      6  HN  UNL d   1       5.418   3.239  -1.252  1.00  0.00     0.167 HD
ATOM      7  C   UNL d   1       3.075   2.048   0.776  0.00  0.00     0.049 A 
ATOM      8  C   UNL d   1       4.179   2.736   0.330  0.00  0.00     0.092 A 
ENDROOT
BRANCH   1   9
ATOM      9  C   UNL d   1       1.180   0.521   0.098  0.00  0.00     0.125 C 
ATOM     10  N   UNL d   1       0.374   0.274  -0.905  0.00  0.00    -0.288 N 
ATOM     11  N   UNL d   1      -0.863  -0.269  -0.633  0.00  0.00    -0.267 N 
ATOM     12  HN  UNL d   1       0.656   0.477  -1.864  1.00  0.00     0.188 HD
ATOM     13  C   UNL d   1      -1.295  -0.478   0.664  0.00  0.00     0.120 C 
ATOM     14  C   UNL d   1      -0.554  -0.307   1.756  0.00  0.00     0.076 C 
ATOM     15  C   UNL d   1       0.827   0.126   1.510  0.00  0.00     0.203 C 
ATOM     16  O   UNL d   1       1.647   0.150   2.417  0.00  0.00    -0.286 OA
BRANCH  11  17
ATOM     17  C   UNL d   1      -1.701  -0.446  -1.780  0.00  0.00     0.056 A 
ATOM     18  C   UNL d   1      -1.132  -0.751  -3.034  0.00  0.00     0.034 A 
ATOM     19  C   UNL d   1      -1.929  -0.964  -4.163  0.00  0.00     0.044 A 
ATOM     20  C   UNL d   1      -3.308  -0.858  -4.057  0.00  0.00     0.116 A 
ATOM     21  C   UNL d   1      -3.903  -0.533  -2.846  0.00  0.00     0.044 A 
ATOM     22  F   UNL d   1      -4.075  -1.071  -5.134  0.00  0.00    -0.206 F 
ATOM     23  C   UNL d   1      -3.105  -0.326  -1.716  0.00  0.00     0.034 A 
ENDBRANCH  11  17
ENDBRANCH   1   9
BRANCH   4  24
ATOM     24  S   UNL d   1       4.122   2.203  -3.534  0.00  0.00    -0.085 SA
BRANCH  24  25
ATOM     25  C   UNL d   1       2.360   2.261  -4.029  0.00  0.00     0.185 C 
BRANCH  25  26
ATOM     26  C   UNL d   1       1.626   3.416  -3.346  0.00  0.00     0.231 C 
ATOM     27  N   UNL d   1       0.555   3.034  -2.538  0.00  0.00    -0.327 N 
ATOM     28  H   UNL d   1       0.472   2.043  -2.313  0.00  0.00     0.169 HD
ATOM     29  O   UNL d   1       2.005   4.574  -3.512  0.00  0.00    -0.272 OA
BRANCH  27  30
ATOM     30  C   UNL d   1      -0.233   3.922  -1.761  0.00  0.00     0.034 A 
ATOM     31  C   UNL d   1      -0.283   5.300  -1.985  0.00  0.00     0.031 A 
ATOM     32  C   UNL d   1      -0.950   6.148  -1.093  0.00  0.00     0.026 A 
ATOM     33  C   UNL d   1      -1.583   5.620   0.026  0.00  0.00     0.034 A 
ATOM     34  C   UNL d   1      -1.618   4.244   0.219  0.00  0.00     0.026 A 
ATOM     35 CL   UNL d   1      -2.311   6.666   1.179  0.00  0.00    -0.084 Cl
ATOM     36  C   UNL d   1      -0.966   3.402  -0.689  0.00  0.00     0.031 A 
ENDBRANCH  27  30
ENDBRANCH  25  26
ENDBRANCH  24  25
ENDBRANCH   4  24
TORSDOF 6
