REMARK  8 active torsions:
REMARK  status: ('A' for Active; 'I' for Inactive)
REMARK    1  A    between atoms: C_8  and  C_1 
REMARK    2  A    between atoms: N_11  and  C_2 
REMARK    3  A    between atoms: C_14  and  C_4 
REMARK    4  A    between atoms: C_6  and  C_9 
REMARK    5  A    between atoms: C_7  and  C_10 
REMARK       I    between atoms: N_29  and  C_8 
REMARK       I    between atoms: C_13  and  N_11 
REMARK    6  A    between atoms: C_30  and  C_13 
REMARK    7  A    between atoms: C_17  and  S_19 
REMARK    8  A    between atoms: S_19  and  C_30 
ROOT
ATOM      1  N   UNL d   1       2.645   1.455   0.152  0.00  0.00    -0.325 N 
ATOM      2  C   UNL d   1       2.792   2.788   0.490  0.00  0.00     0.231 C 
ATOM      3  O   UNL d   1       1.890   3.486   0.957  0.00  0.00    -0.272 OA
ATOM      4  H   UNL d   1       3.466   0.852   0.172  0.00  0.00     0.169 HD
ENDROOT
BRANCH   1   5
ATOM      5  C   UNL d   1       1.403   0.827   0.067  0.00  0.00     0.058 A 
ATOM      6  C   UNL d   1       1.221  -0.517   0.340  0.00  0.00     0.100 A 
ATOM      7  S   UNL d   1      -0.415  -0.975   0.159  0.00  0.00    -0.082 SA
ATOM      8  C   UNL d   1      -0.904   0.585  -0.352  0.00  0.00     0.018 A 
ATOM      9  C   UNL d   1       0.173   1.454  -0.319  0.00  0.00     0.051 A 
BRANCH   6  10
ATOM     10  C   UNL d   1       2.214  -1.468   0.809  0.00  0.00     0.258 C 
ATOM     11  O   UNL d   1       3.409  -1.219   0.886  0.00  0.00    -0.267 OA
ATOM     12  N   UNL d   1       1.750  -2.697   1.203  0.00  0.00    -0.365 N 
ATOM     13  H   UNL d   1       0.762  -2.902   1.229  0.00  0.00     0.159 HD
ATOM     14  H   UNL d   1       2.402  -3.344   1.622  0.00  0.00     0.159 HD
ENDBRANCH   6  10
BRANCH   8  15
ATOM     15  C   UNL d   1      -2.310   0.842  -0.715  0.00  0.00    -0.019 A 
ATOM     16  C   UNL d   1      -2.866   2.121  -0.549  0.00  0.00     0.014 A 
ATOM     17  C   UNL d   1      -4.206   2.370  -0.873  0.00  0.00     0.024 A 
ATOM     18  C   UNL d   1      -5.005   1.342  -1.366  0.00  0.00     0.034 A 
ATOM     19  C   UNL d   1      -4.475   0.070  -1.549  0.00  0.00     0.024 A 
ATOM     20 CL   UNL d   1      -6.654   1.641  -1.749  0.00  0.00    -0.084 Cl
ATOM     21  C   UNL d   1      -3.135  -0.173  -1.234  0.00  0.00     0.014 A 
ENDBRANCH   8  15
ENDBRANCH   1   5
BRANCH   2  22
ATOM     22  C   UNL d   1       4.200   3.349   0.350  0.00  0.00     0.182 C 
BRANCH  22  23
ATOM     23  S   UNL d   1       4.858   3.030  -1.323  0.00  0.00    -0.121 SA
BRANCH  23  24
ATOM     24  C   UNL d   1       6.395   3.940  -1.351  0.00  0.00     0.002 A 
ATOM     25  C   UNL d   1       7.407   3.453  -2.189  0.00  0.00     0.034 A 
ATOM     26  C   UNL d   1       8.625   4.138  -2.344  0.00  0.00     0.050 A 
ATOM     27  C   UNL d   1       8.824   5.332  -1.638  0.00  0.00     0.032 A 
ATOM     28  C   UNL d   1       7.819   5.850  -0.808  0.00  0.00     0.050 A 
ATOM     29  C   UNL d   1       6.609   5.142  -0.671  0.00  0.00     0.034 A 
BRANCH  26  30
ATOM     30  C   UNL d   1       9.679   3.602  -3.284  0.00  0.00     0.417 C 
ATOM     31  F   UNL d   1      10.785   4.392  -3.362  0.00  0.00    -0.166 F 
ATOM     32  F   UNL d   1      10.124   2.369  -2.920  0.00  0.00    -0.166 F 
ATOM     33  F   UNL d   1       9.220   3.476  -4.559  0.00  0.00    -0.166 F 
ENDBRANCH  26  30
BRANCH  28  34
ATOM     34  C   UNL d   1       7.998   7.171  -0.096  0.00  0.00     0.417 C 
ATOM     35  F   UNL d   1       9.197   7.765  -0.348  0.00  0.00    -0.166 F 
ATOM     36  F   UNL d   1       7.049   8.080  -0.451  0.00  0.00    -0.166 F 
ATOM     37  F   UNL d   1       7.915   7.048   1.256  0.00  0.00    -0.166 F 
ENDBRANCH  28  34
ENDBRANCH  23  24
ENDBRANCH  22  23
ENDBRANCH   2  22
TORSDOF 8
