REMARK  3 active torsions:
REMARK  status: ('A' for Active; 'I' for Inactive)
REMARK    1  A    between atoms: C_2  and  C_1 
REMARK       I    between atoms: N_3  and  C_2 
REMARK    2  A    between atoms: C_4  and  N_3 
REMARK    3  A    between atoms: O_18  and  C_5 
ROOT
ATOM      1  C   UNL d   1      -1.889  -2.482  -0.359  0.00  0.00     0.259 C 
ATOM      2  N   UNL d   1      -1.189  -3.600   0.065  0.00  0.00    -0.323 N 
ATOM      3  O   UNL d   1      -3.053  -2.478  -0.755  0.00  0.00    -0.267 OA
ATOM      4  H   UNL d   1      -0.277  -3.461   0.479  0.00  0.00     0.169 HD
ENDROOT
BRANCH   1   5
ATOM      5  C   UNL d   1      -1.204  -1.156  -0.271  0.00  0.00     0.067 A 
ATOM      6  C   UNL d   1      -1.983   0.018  -0.284  0.00  0.00     0.081 A 
ATOM      7  C   UNL d   1      -1.392   1.278  -0.192  0.00  0.00     0.039 A 
ATOM      8  C   UNL d   1      -0.008   1.388  -0.091  0.00  0.00     0.026 A 
ATOM      9  C   UNL d   1       0.774   0.235  -0.093  0.00  0.00     0.035 A 
ATOM     10  C   UNL d   1       0.191  -1.033  -0.190  0.00  0.00     0.043 A 
ATOM     11 CL   UNL d   1       2.486   0.373   0.024  0.00  0.00    -0.084 Cl
BRANCH   6  12
ATOM     12  O   UNL d   1      -3.349   0.017  -0.385  0.00  0.00    -0.360 OA
ATOM     13  H   UNL d   1      -3.641  -0.906  -0.568  0.00  0.00     0.217 HD
ENDBRANCH   6  12
ENDBRANCH   1   5
BRANCH   2  14
ATOM     14  C   UNL d   1      -1.685  -4.926   0.136  0.00  0.00     0.038 A 
ATOM     15  C   UNL d   1      -2.928  -5.324  -0.365  0.00  0.00     0.053 A 
ATOM     16  C   UNL d   1      -3.371  -6.639  -0.195  0.00  0.00     0.037 A 
ATOM     17 CL   UNL d   1      -4.917  -7.102  -0.796  0.00  0.00    -0.084 Cl
ATOM     18  C   UNL d   1      -2.584  -7.577   0.462  0.00  0.00     0.048 A 
ATOM     19  C   UNL d   1      -1.335  -7.192   0.935  0.00  0.00     0.037 A 
ATOM     20  C   UNL d   1      -0.880  -5.881   0.770  0.00  0.00     0.053 A 
ATOM     21 CL   UNL d   1      -0.343  -8.339   1.749  0.00  0.00    -0.084 Cl
ENDBRANCH   2  14
TORSDOF 3
