REMARK  2 active torsions:
REMARK  status: ('A' for Active; 'I' for Inactive)
REMARK    1  A    between atoms: C_3  and  C_1 
REMARK       I    between atoms: N_5  and  C_1 
REMARK    2  A    between atoms: C_6  and  N_5 
ROOT
ATOM      1  C   UNL d   1       0.815   0.035   0.494  0.00  0.00     0.257 C 
ATOM      2  N   UNL d   1       0.301  -1.203   0.160  0.00  0.00    -0.321 N 
ATOM      3  O   UNL d   1       1.781   0.185   1.240  0.00  0.00    -0.267 OA
ATOM      4  H   UNL d   1      -0.302  -1.266  -0.655  0.00  0.00     0.169 HD
ENDROOT
BRANCH   2   5
ATOM      5  C   UNL d   1       0.581  -2.432   0.816  0.00  0.00     0.058 A 
ATOM      6  C   UNL d   1       0.222  -3.651   0.200  0.00  0.00     0.084 A 
ATOM      7  C   UNL d   1       0.457  -4.879   0.850  0.00  0.00     0.079 A 
ATOM      8 CL   UNL d   1      -0.495  -3.606  -1.387  0.00  0.00    -0.080 Cl
ATOM      9 CL   UNL d   1       0.042  -6.382   0.083  0.00  0.00    -0.081 Cl
ATOM     10  C   UNL d   1       1.029  -4.880   2.131  0.00  0.00     0.057 A 
ATOM     11  C   UNL d   1       1.367  -3.678   2.749  0.00  0.00     0.028 A 
ATOM     12 CL   UNL d   1       1.336  -6.334   3.019  0.00  0.00    -0.082 Cl
ATOM     13  C   UNL d   1       1.147  -2.466   2.094  0.00  0.00     0.033 A 
ENDBRANCH   2   5
BRANCH   1  14
ATOM     14  C   UNL d   1       0.174   1.265  -0.080  0.00  0.00     0.054 A 
ATOM     15  C   UNL d   1      -0.984   1.325  -0.871  0.00  0.00     0.049 A 
ATOM     16 CL   UNL d   1      -1.850  -0.055  -1.449  0.00  0.00    -0.083 Cl
ATOM     17  C   UNL d   1      -1.522   2.570  -1.241  0.00  0.00     0.025 A 
ATOM     18  C   UNL d   1      -0.920   3.761  -0.838  0.00  0.00     0.002 A 
ATOM     19  C   UNL d   1       0.238   3.719  -0.074  0.00  0.00     0.001 A 
ATOM     20  C   UNL d   1       0.777   2.486   0.297  0.00  0.00     0.019 A 
ENDBRANCH   1  14
TORSDOF 2
