REMARK  4 active torsions:
REMARK  status: ('A' for Active; 'I' for Inactive)
REMARK    1  A    between atoms: C_12  and  C_4 
REMARK    2  A    between atoms: C_7  and  C_9 
REMARK    3  A    between atoms: C_9  and  O_11 
REMARK    4  A    between atoms: O_11  and  C_12 
ROOT
ATOM      1  C   UNL d   1       3.746   0.384   0.216  0.00  0.00     0.225 C 
ENDROOT
BRANCH   1   2
ATOM      2  O   UNL d   1       4.132   1.689  -0.234  0.00  0.00    -0.312 OA
BRANCH   2   3
ATOM      3  C   UNL d   1       4.760   2.480   0.661  0.00  0.00     0.295 C 
ATOM      4  O   UNL d   1       5.088   2.167   1.794  0.00  0.00    -0.259 OA
BRANCH   3   5
ATOM      5  C   UNL d   1       5.128   3.784   0.053  0.00  0.00     0.061 A 
ATOM      6  C   UNL d   1       4.353   4.477  -0.887  0.00  0.00     0.050 A 
ATOM      7 CL   UNL d   1       2.788   3.966  -1.414  0.00  0.00    -0.083 Cl
ATOM      8  C   UNL d   1       4.816   5.694  -1.407  0.00  0.00     0.025 A 
ATOM      9  C   UNL d   1       6.026   6.240  -0.977  0.00  0.00     0.002 A 
ATOM     10  C   UNL d   1       6.783   5.574  -0.017  0.00  0.00     0.001 A 
ATOM     11  C   UNL d   1       6.338   4.354   0.495  0.00  0.00     0.019 A 
ENDBRANCH   3   5
ENDBRANCH   2   3
ENDBRANCH   1   2
BRANCH   1  12
ATOM     12  C   UNL d   1       2.247   0.308   0.126  0.00  0.00     0.015 A 
ATOM     13  S   UNL d   1       1.535  -0.153  -1.380  0.00  0.00    -0.084 SA
ATOM     14  C   UNL d   1       0.012  -0.028  -0.717  0.00  0.00     0.057 A 
ATOM     15  C   UNL d   1      -0.009   0.334   0.580  0.00  0.00     0.001 A 
ATOM     16  S   UNL d   1      -1.490  -0.282  -1.398  0.00  0.00    -0.093 SA
ATOM     17  C   UNL d   1       1.289   0.563   1.124  0.00  0.00    -0.034 A 
ATOM     18  C   UNL d   1      -1.325   0.406   1.122  0.00  0.00    -0.043 A 
ATOM     19  C   UNL d   1       1.688   1.007   2.491  0.00  0.00     0.050 C 
ATOM     20  C   UNL d   1      -1.812   0.727   2.493  0.00  0.00     0.049 C 
ATOM     21  C   UNL d   1      -2.235   0.098   0.106  0.00  0.00     0.058 A 
ENDBRANCH   1  12
TORSDOF 4
