REMARK  10 active torsions:
REMARK  status: ('A' for Active; 'I' for Inactive)
REMARK    1  A    between atoms: C_6  and  C_1 
REMARK    2  A    between atoms: C_7  and  C_1 
REMARK    3  A    between atoms: N_8  and  N_2 
REMARK    4  A    between atoms: C_4  and  C_5 
REMARK    5  A    between atoms: C_17  and  C_6 
REMARK    6  A    between atoms: O_28  and  C_7 
REMARK    7  A    between atoms: C_9  and  N_8 
REMARK    8  A    between atoms: C_14  and  S_16 
REMARK    9  A    between atoms: S_16  and  C_17 
REMARK   10  A    between atoms: C_31  and  O_28 
ROOT
ATOM      1  C   UNL d   1       1.041  -0.110   0.111  0.00  0.00     0.170 C 
ATOM      2  N   UNL d   1       0.382  -1.240   0.081  0.00  0.00    -0.292 N 
ATOM      3  HN  UNL d   1      -0.636  -1.240   0.019  1.00  0.00     0.187 HD
ENDROOT
BRANCH   1   4
ATOM      4  C   UNL d   1       2.555  -0.044   0.213  0.00  0.00     0.193 C 
ATOM      5  O   UNL d   1       3.208  -0.925  -0.356  0.00  0.00    -0.290 OA
BRANCH   4   6
ATOM      6  C   UNL d   1       3.254   1.113   0.878  0.00  0.00     0.166 C 
BRANCH   6   7
ATOM      7  S   UNL d   1       2.384   2.073   2.137  0.00  0.00    -0.104 SA
BRANCH   7   8
ATOM      8  C   UNL d   1       2.111   0.868   3.410  0.00  0.00     0.069 A 
ATOM      9  N   UNL d   1       1.885  -0.405   3.032  0.00  0.00    -0.360 N 
ATOM     10  C   UNL d   1       1.490  -1.280   3.991  0.00  0.00     0.105 A 
ATOM     11  HN  UNL d   1       2.006  -0.700   2.063  1.00  0.00     0.166 HD
ATOM     12  C   UNL d   1       1.313  -0.940   5.325  0.00  0.00     0.063 A 
ATOM     13  C   UNL d   1       1.598   0.377   5.696  0.00  0.00     0.020 A 
ATOM     14  C   UNL d   1       1.995   1.294   4.726  0.00  0.00     0.038 A 
BRANCH  12  15
ATOM     15  C   UNL d   1       0.802  -1.935   6.323  0.00  0.00     0.418 C 
ATOM     16  F   UNL d   1       0.528  -3.156   5.790  0.00  0.00    -0.166 F 
ATOM     17  F   UNL d   1       1.683  -2.155   7.337  0.00  0.00    -0.166 F 
ATOM     18  F   UNL d   1      -0.351  -1.519   6.917  0.00  0.00    -0.166 F 
ENDBRANCH  12  15
ENDBRANCH   7   8
ENDBRANCH   6   7
ENDBRANCH   4   6
ENDBRANCH   1   4
BRANCH   1  19
ATOM     19  C   UNL d   1       0.180   1.133  -0.012  0.00  0.00     0.315 C 
ATOM     20  O   UNL d   1       0.538   2.108  -0.646  0.00  0.00    -0.257 OA
BRANCH  19  21
ATOM     21  O   UNL d   1      -0.984   0.940   0.643  0.00  0.00    -0.317 OA
BRANCH  21  22
ATOM     22  C   UNL d   1      -1.979   1.962   0.534  0.00  0.00     0.175 C 
ATOM     23  C   UNL d   1      -2.693   1.883  -0.803  0.00  0.00     0.034 C 
ENDBRANCH  21  22
ENDBRANCH  19  21
ENDBRANCH   1  19
BRANCH   2  24
ATOM     24  N   UNL d   1       1.062  -2.406   0.131  0.00  0.00    -0.298 N 
ATOM     25  H   UNL d   1       2.069  -2.468  -0.059  0.00  0.00     0.187 HD
BRANCH  24  26
ATOM     26  C   UNL d   1       0.410  -3.557   0.604  0.00  0.00     0.070 A 
ATOM     27  C   UNL d   1       1.080  -4.790   0.700  0.00  0.00     0.063 A 
ATOM     28  C   UNL d   1       0.432  -5.928   1.188  0.00  0.00     0.050 A 
ATOM     29 CL   UNL d   1       2.739  -4.935   0.232  0.00  0.00    -0.082 Cl
ATOM     30  C   UNL d   1      -0.900  -5.846   1.580  0.00  0.00     0.035 A 
ATOM     31  C   UNL d   1      -1.594  -4.643   1.480  0.00  0.00     0.026 A 
ATOM     32 CL   UNL d   1      -1.701  -7.236   2.199  0.00  0.00    -0.084 Cl
ATOM     33  C   UNL d   1      -0.941  -3.510   0.989  0.00  0.00     0.034 A 
ENDBRANCH  24  26
ENDBRANCH   2  24
TORSDOF 10
