REMARK  2 active torsions:
REMARK  status: ('A' for Active; 'I' for Inactive)
REMARK    1  A    between atoms: C_4  and  C_1 
REMARK    2  A    between atoms: C_14  and  C_7 
ROOT
ATOM      1  C   UNL d   1       0.272   1.120  -0.046  0.00  0.00     0.156 A 
ATOM      2  N   UNL d   1       1.283   0.185  -0.033  0.00  0.00    -0.317 N 
ATOM      3  HN  UNL d   1       2.292   0.333  -0.032  1.00  0.00     0.169 HD
ATOM      4  N   UNL d   1      -0.966   0.606  -0.051  0.00  0.00    -0.241 N 
ATOM      5  HN  UNL d   1      -1.858   1.101  -0.063  1.00  0.00     0.196 HD
ATOM      6  C   UNL d   1       0.615  -0.948  -0.021  0.00  0.00     0.182 A 
ATOM      7  O   UNL d   1      -0.741  -0.771  -0.036  0.00  0.00    -0.217 OA
ENDROOT
BRANCH   1   8
ATOM      8  C   UNL d   1       0.587   2.551  -0.044  0.00  0.00     0.103 A 
ATOM      9  N   UNL d   1      -0.325   3.531  -0.001  0.00  0.00    -0.257 N 
ATOM     10  O   UNL d   1       0.399   4.713  -0.013  0.00  0.00    -0.242 OA
ATOM     11  HN  UNL d   1      -1.339   3.429   0.034  1.00  0.00     0.195 HD
ATOM     12  C   UNL d   1       1.728   4.430  -0.066  0.00  0.00     0.074 A 
ATOM     13  C   UNL d   1       1.902   3.069  -0.085  0.00  0.00     0.070 A 
ATOM     14  C   UNL d   1       2.643   5.584  -0.090  0.00  0.00     0.079 C 
ENDBRANCH   1   8
BRANCH   6  15
ATOM     15  C   UNL d   1       1.107  -2.320   0.031  0.00  0.00     0.017 A 
ATOM     16  C   UNL d   1       2.487  -2.557   0.122  0.00  0.00     0.016 A 
ATOM     17  C   UNL d   1       2.987  -3.860   0.198  0.00  0.00     0.001 A 
ATOM     18  C   UNL d   1       2.112  -4.943   0.181  0.00  0.00     0.000 A 
ATOM     19  C   UNL d   1       0.739  -4.726   0.083  0.00  0.00     0.001 A 
ATOM     20  C   UNL d   1       0.239  -3.423   0.007  0.00  0.00     0.016 A 
ENDBRANCH   6  15
TORSDOF 2
