REMARK  3 active torsions:
REMARK  status: ('A' for Active; 'I' for Inactive)
REMARK    1  A    between atoms: N_6  and  C_1 
REMARK    2  A    between atoms: C_11  and  C_3 
REMARK    3  A    between atoms: C_7  and  C_4 
ROOT
ATOM      1  C   UNL d   1       1.801   0.870  -0.078  0.00  0.00     0.167 A 
ATOM      2  C   UNL d   1      -0.322   0.117   0.080  0.00  0.00     0.095 A 
ATOM      3  C   UNL d   1       0.478   1.308   0.009  0.00  0.00     0.050 A 
ATOM      4  C   UNL d   1       0.531  -0.974   0.057  0.00  0.00     0.116 A 
ATOM      5  O   UNL d   1       1.813  -0.501   0.005  0.00  0.00    -0.289 OA
ATOM      6  C   UNL d   1      -1.747   0.036   0.166  0.00  0.00     0.103 C 
ATOM      7  N   UNL d   1      -2.901  -0.022   0.230  0.00  0.00    -0.191 NA
ENDROOT
BRANCH   3   8
ATOM      8  C   UNL d   1       0.021   2.696   0.086  0.00  0.00    -0.020 A 
ATOM      9  C   UNL d   1       0.659   3.628   0.921  0.00  0.00     0.014 A 
ATOM     10  C   UNL d   1       0.291   4.977   0.900  0.00  0.00     0.023 A 
ATOM     11  C   UNL d   1      -0.776   5.401   0.106  0.00  0.00     0.044 A 
ATOM     12  C   UNL d   1      -1.133   6.788   0.054  0.00  0.00     0.099 C 
ATOM     13  C   UNL d   1      -1.480   4.465  -0.655  0.00  0.00     0.023 A 
ATOM     14  N   UNL d   1      -1.409   7.914  -0.001  0.00  0.00    -0.191 NA
ATOM     15  C   UNL d   1      -1.076   3.125  -0.675  0.00  0.00     0.014 A 
ENDBRANCH   3   8
BRANCH   4  16
ATOM     16  C   UNL d   1       0.241  -2.386   0.092  0.00  0.00     0.040 A 
ATOM     17  S   UNL d   1       1.235  -3.505  -0.750  0.00  0.00    -0.099 SA
ATOM     18  C   UNL d   1       0.286  -4.837  -0.247  0.00  0.00     0.050 A 
ATOM     19  C   UNL d   1      -0.762  -4.447   0.554  0.00  0.00     0.008 A 
ATOM     20  C   UNL d   1      -0.790  -3.033   0.747  0.00  0.00     0.022 A 
ENDBRANCH   4  16
BRANCH   1  21
ATOM     21  N   UNL d   1       2.991   1.607  -0.204  0.00  0.00    -0.312 N 
ATOM     22  C   UNL d   1       4.240   1.138   0.165  0.00  0.00     0.098 C 
ATOM     23  C   UNL d   1       5.160   2.159   0.058  0.00  0.00     0.019 C 
ATOM     24  C   UNL d   1       4.486   3.267  -0.492  0.00  0.00     0.019 C 
ATOM     25  C   UNL d   1       3.179   2.884  -0.700  0.00  0.00     0.098 C 
ENDBRANCH   1  21
TORSDOF 3
