REMARK  4 active torsions:
REMARK  status: ('A' for Active; 'I' for Inactive)
REMARK    1  A    between atoms: C_2  and  S_1 
REMARK    2  A    between atoms: N_4  and  S_1 
REMARK    3  A    between atoms: S_14  and  C_9 
REMARK    4  A    between atoms: S_15  and  C_9 
ROOT
ATOM      1  S   UNL d   1       0.751  -0.162  -0.013  0.00  0.00     0.266 S 
ATOM      2  O   UNL d   1       1.942  -0.251  -0.828  0.00  0.00    -0.200 OA
ATOM      3  O   UNL d   1       0.567  -0.942   1.183  0.00  0.00    -0.200 OA
ENDROOT
BRANCH   1   4
ATOM      4  C   UNL d   1      -0.514  -0.659  -1.081  0.00  0.00     0.110 A 
ATOM      5  C   UNL d   1      -1.794  -0.996  -0.711  0.00  0.00     0.099 A 
ATOM      6  S   UNL d   1      -2.774  -1.418  -2.039  0.00  0.00    -0.064 SA
ATOM      7 CL   UNL d   1      -2.517  -1.020   0.850  0.00  0.00    -0.075 Cl
ATOM      8  C   UNL d   1      -1.510  -1.111  -3.119  0.00  0.00     0.077 A 
ATOM      9  C   UNL d   1      -0.354  -0.706  -2.506  0.00  0.00     0.059 A 
ATOM     10 CL   UNL d   1      -1.757  -1.306  -4.805  0.00  0.00    -0.076 Cl
ENDBRANCH   1   4
BRANCH   1  11
ATOM     11  N   UNL d   1       0.289   1.351   0.176  0.00  0.00    -0.269 N 
ATOM     12  C   UNL d   1       1.050   2.257   0.679  0.00  0.00     0.116 C 
ATOM     13  HN  UNL d   1      -0.653   1.612  -0.115  1.00  0.00     0.180 HD
BRANCH  12  14
ATOM     14  S   UNL d   1       2.663   2.158   1.334  0.00  0.00    -0.109 SA
ATOM     15  C   UNL d   1       2.467   0.947   2.654  0.00  0.00     0.097 C 
ENDBRANCH  12  14
BRANCH  12  16
ATOM     16  S   UNL d   1       0.429   3.906   0.646  0.00  0.00    -0.109 SA
ATOM     17  C   UNL d   1      -0.122   3.959  -1.077  0.00  0.00     0.097 C 
ENDBRANCH  12  16
ENDBRANCH   1  11
TORSDOF 4
