REMARK  5 active torsions:
REMARK  status: ('A' for Active; 'I' for Inactive)
REMARK       I    between atoms: N_2  and  C_1 
REMARK    1  A    between atoms: O_3  and  C_1 
REMARK    2  A    between atoms: C_8  and  O_3 
REMARK    3  A    between atoms: N_7  and  C_11 
REMARK    4  A    between atoms: C_12  and  N_7 
REMARK    5  A    between atoms: O_18  and  C_13 
ROOT
ATOM      1  C   UNL d   1       0.993  -0.097  -0.033  0.00  0.00     0.363 C 
ATOM      2  N   UNL d   1       0.362  -0.629  -1.146  0.00  0.00    -0.328 N 
ATOM      3  O   UNL d   1       1.887  -0.676   0.571  0.00  0.00    -0.238 OA
ATOM      4  C   UNL d   1      -0.731   0.012  -1.863  0.00  0.00     0.130 C 
ATOM      5  C   UNL d   1       0.732  -1.948  -1.633  0.00  0.00     0.130 C 
ATOM      6  C   UNL d   1      -1.986  -0.851  -1.779  0.00  0.00     0.045 C 
ATOM      7  C   UNL d   1      -0.463  -2.893  -1.579  0.00  0.00     0.045 C 
ATOM      8  C   UNL d   1      -1.736  -2.304  -2.210  0.00  0.00     0.084 C 
ENDROOT
BRANCH   8   9
ATOM      9  N   UNL d   1      -1.678  -2.429  -3.671  0.00  0.00    -0.385 N 
ATOM     10  H   UNL d   1      -0.892  -1.965  -4.118  0.00  0.00     0.160 HD
BRANCH   9  11
ATOM     11  C   UNL d   1      -2.816  -2.491  -4.473  0.00  0.00     0.028 A 
ATOM     12  C   UNL d   1      -4.114  -2.671  -3.982  0.00  0.00     0.032 A 
ATOM     13  C   UNL d   1      -5.214  -2.833  -4.835  0.00  0.00     0.039 A 
ATOM     14  C   UNL d   1      -5.032  -2.844  -6.213  0.00  0.00     0.068 A 
ATOM     15  C   UNL d   1      -3.751  -2.664  -6.727  0.00  0.00     0.039 A 
ATOM     16  C   UNL d   1      -2.656  -2.509  -5.866  0.00  0.00     0.032 A 
BRANCH  14  17
ATOM     17  O   UNL d   1      -6.027  -3.000  -7.141  0.00  0.00    -0.356 OA
ATOM     18  C   UNL d   1      -7.162  -3.738  -6.702  0.00  0.00     0.210 C 
ENDBRANCH  14  17
ENDBRANCH   9  11
ENDBRANCH   8   9
BRANCH   1  19
ATOM     19  O   UNL d   1       0.512   1.129   0.306  0.00  0.00    -0.294 OA
BRANCH  19  20
ATOM     20  C   UNL d   1       1.102   1.881   1.401  0.00  0.00     0.061 C 
ATOM     21  C   UNL d   1       2.567   2.227   1.108  0.00  0.00     0.046 C 
ATOM     22  C   UNL d   1       0.302   3.193   1.465  0.00  0.00     0.046 C 
ATOM     23  C   UNL d   1       0.940   1.156   2.743  0.00  0.00     0.046 C 
ENDBRANCH  19  20
ENDBRANCH   1  19
TORSDOF 5
