REMARK  7 active torsions:
REMARK  status: ('A' for Active; 'I' for Inactive)
REMARK    1  A    between atoms: C_7  and  C_1 
REMARK    2  A    between atoms: C_8  and  C_2 
REMARK    3  A    between atoms: C_11  and  C_6 
REMARK    4  A    between atoms: O_15  and  C_7 
REMARK    5  A    between atoms: C_9  and  C_8 
REMARK    6  A    between atoms: N_14  and  C_10 
REMARK    7  A    between atoms: C_20  and  O_15 
ROOT
ATOM      1  C   UNL d   1       1.378   0.828  -0.032  0.00  0.00     0.130 A 
ATOM      2  C   UNL d   1       0.072   1.297  -0.038  0.00  0.00     0.090 A 
ATOM      3  N   UNL d   1       1.492  -0.571   0.003  0.00  0.00    -0.344 N 
ATOM      4  HN  UNL d   1       2.375  -1.079   0.045  1.00  0.00     0.167 HD
ATOM      5  S   UNL d   1      -1.008  -0.030   0.019  0.00  0.00    -0.065 SA
ATOM      6  C   UNL d   1       0.306  -1.137  -0.027  0.00  0.00     0.086 A 
ENDROOT
BRANCH   2   7
ATOM      7  C   UNL d   1      -0.391   2.668   0.074  0.00  0.00     0.192 C 
ATOM      8  O   UNL d   1       0.244   3.505   0.720  0.00  0.00    -0.287 OA
BRANCH   7   9
ATOM      9  C   UNL d   1      -1.696   3.145  -0.490  0.00  0.00     0.073 C 
ATOM     10  C   UNL d   1      -2.421   2.621  -1.489  0.00  0.00     0.088 C 
BRANCH  10  11
ATOM     11  N   UNL d   1      -3.639   3.052  -2.009  0.00  0.00    -0.398 N 
ATOM     12  C   UNL d   1      -4.371   4.235  -1.549  0.00  0.00     0.148 C 
ATOM     13  C   UNL d   1      -4.339   2.311  -3.063  0.00  0.00     0.148 C 
ENDBRANCH  10  11
ENDBRANCH   7   9
ENDBRANCH   2   7
BRANCH   1  14
ATOM     14  C   UNL d   1       2.578   1.661  -0.143  0.00  0.00     0.311 C 
ATOM     15  O   UNL d   1       2.607   2.728  -0.752  0.00  0.00    -0.258 OA
BRANCH  14  16
ATOM     16  O   UNL d   1       3.679   1.039   0.375  0.00  0.00    -0.317 OA
BRANCH  16  17
ATOM     17  C   UNL d   1       4.940   1.510  -0.113  0.00  0.00     0.175 C 
ATOM     18  C   UNL d   1       5.254   0.758  -1.395  0.00  0.00     0.034 C 
ENDBRANCH  16  17
ENDBRANCH  14  16
ENDBRANCH   1  14
BRANCH   6  19
ATOM     19  C   UNL d   1       0.064  -2.589  -0.034  0.00  0.00    -0.002 A 
ATOM     20  C   UNL d   1       0.964  -3.453   0.608  0.00  0.00     0.014 A 
ATOM     21  C   UNL d   1       0.720  -4.829   0.663  0.00  0.00     0.001 A 
ATOM     22  C   UNL d   1      -0.419  -5.362   0.062  0.00  0.00     0.000 A 
ATOM     23  C   UNL d   1      -1.302  -4.525  -0.614  0.00  0.00     0.001 A 
ATOM     24  C   UNL d   1      -1.058  -3.151  -0.668  0.00  0.00     0.014 A 
ENDBRANCH   6  19
TORSDOF 7
