REMARK  6 active torsions:
REMARK  status: ('A' for Active; 'I' for Inactive)
REMARK    1  A    between atoms: C_2  and  S_1 
REMARK    2  A    between atoms: N_10  and  S_1 
REMARK    3  A    between atoms: N_6  and  C_4 
REMARK    4  A    between atoms: N_8  and  C_12 
REMARK    5  A    between atoms: O_16  and  N_10 
REMARK    6  A    between atoms: C_13  and  O_16 
ROOT
ATOM      1  O   UNL d   1       0.824   0.655   2.513  0.00  0.00    -0.247 OA
ENDROOT
BRANCH   1   2
ATOM      2  C   UNL d   1       0.509   1.556   3.507  0.00  0.00     0.126 A 
ATOM      3  C   UNL d   1      -0.814   1.997   3.684  0.00  0.00     0.140 A 
ATOM      4  C   UNL d   1      -1.132   2.911   4.709  0.00  0.00     0.075 A 
ATOM      5  C   UNL d   1      -0.118   3.375   5.559  0.00  0.00     0.105 A 
ATOM      6  C   UNL d   1       1.195   2.916   5.412  0.00  0.00     0.039 A 
ATOM      7  C   UNL d   1       1.499   2.003   4.399  0.00  0.00     0.044 A 
BRANCH   3   8
ATOM      8  N   UNL d   1      -1.901   1.543   2.800  0.00  0.00    -0.113 N 
ATOM      9  O   UNL d   1      -3.052   1.895   3.092  0.00  0.00    -0.532 OA
ATOM     10  O   UNL d   1      -1.616   0.854   1.813  0.00  0.00    -0.532 OA
ENDBRANCH   3   8
BRANCH   5  11
ATOM     11  N   UNL d   1      -0.430   4.357   6.607  0.00  0.00    -0.116 N 
ATOM     12  O   UNL d   1      -1.605   4.735   6.705  0.00  0.00    -0.532 OA
ATOM     13  O   UNL d   1       0.502   4.752   7.320  0.00  0.00    -0.532 OA
ENDBRANCH   5  11
ENDBRANCH   1   2
BRANCH   1  14
ATOM     14  N   UNL d   1       2.114   0.961   1.958  0.00  0.00    -0.084 NA
ATOM     15  H   UNL d   1       2.033   1.501   1.093  0.00  0.00     0.173 HD
BRANCH  14  16
ATOM     16  S   UNL d   1       2.889  -0.527   1.673  0.00  0.00     0.270 S 
ATOM     17  O   UNL d   1       4.180  -0.234   1.093  0.00  0.00    -0.203 OA
ATOM     18  O   UNL d   1       2.750  -1.359   2.849  0.00  0.00    -0.203 OA
BRANCH  16  19
ATOM     19  C   UNL d   1       1.996  -1.379   0.395  0.00  0.00     0.119 A 
ATOM     20  S   UNL d   1       1.772  -0.515  -1.069  0.00  0.00    -0.068 SA
ATOM     21  C   UNL d   1       0.948  -1.821  -1.779  0.00  0.00     0.070 A 
ATOM     22 BR   UNL d   1       0.298  -1.743  -3.537  0.00  0.00    -0.042 Br
ATOM     23  C   UNL d   1       0.829  -2.889  -0.928  0.00  0.00     0.037 A 
ATOM     24  C   UNL d   1       1.436  -2.642   0.333  0.00  0.00     0.053 A 
ATOM     25 BR   UNL d   1      -0.017  -4.542  -1.276  0.00  0.00    -0.049 Br
ENDBRANCH  16  19
ENDBRANCH  14  16
ENDBRANCH   1  14
TORSDOF 6
