REMARK  4 active torsions:
REMARK  status: ('A' for Active; 'I' for Inactive)
REMARK    1  A    between atoms: O_9  and  C_3 
REMARK    2  A    between atoms: O_11  and  C_4 
REMARK    3  A    between atoms: N_10  and  C_5 
REMARK    4  A    between atoms: C_12  and  O_9 
ROOT
ATOM      1  N   UNL d   1      -0.500   1.252   0.449  0.00  0.00    -0.311 N 
ATOM      2  HN  UNL d   1      -0.845   2.125   0.848  1.00  0.00     0.170 HD
ATOM      3  C   UNL d   1      -0.767  -1.108   0.048  0.00  0.00     0.149 A 
ATOM      4  C   UNL d   1      -1.164   0.097   0.599  0.00  0.00     0.179 A 
ATOM      5  C   UNL d   1       0.631   1.199  -0.248  0.00  0.00     0.157 A 
ATOM      6  N   UNL d   1       1.171   0.080  -0.740  0.00  0.00    -0.334 N 
ATOM      7  HN  UNL d   1       2.074   0.089  -1.213  1.00  0.00     0.168 HD
ATOM      8  C   UNL d   1       0.467  -1.067  -0.584  0.00  0.00     0.046 A 
ATOM      9  C   UNL d   1       1.116  -2.318  -1.099  0.00  0.00     0.071 C 
ENDROOT
BRANCH   3  10
ATOM     10  O   UNL d   1      -1.391  -2.318   0.164  0.00  0.00    -0.304 OA
BRANCH  10  11
ATOM     11  C   UNL d   1      -2.752  -2.433   0.007  0.00  0.00     0.076 A 
ATOM     12  C   UNL d   1      -3.561  -1.569  -0.732  0.00  0.00     0.038 A 
ATOM     13  C   UNL d   1      -4.951  -1.730  -0.710  0.00  0.00     0.009 A 
ATOM     14  C   UNL d   1      -5.538  -2.780   0.007  0.00  0.00    -0.062 A 
ATOM     15  C   UNL d   1      -4.713  -3.689   0.678  0.00  0.00     0.009 A 
ATOM     16  C   UNL d   1      -7.032  -2.896   0.087  0.00  0.00     0.048 C 
ATOM     17  C   UNL d   1      -3.329  -3.518   0.672  0.00  0.00     0.038 A 
ENDBRANCH  10  11
ENDBRANCH   3  10
BRANCH   4  18
ATOM     18  O   UNL d   1      -2.259   0.219   1.411  0.00  0.00    -0.344 OA
ATOM     19  H   UNL d   1      -2.593  -0.669   1.607  0.00  0.00     0.219 HD
ENDBRANCH   4  18
BRANCH   5  20
ATOM     20  N   UNL d   1       1.336   2.372  -0.410  0.00  0.00    -0.274 NA
ATOM     21  H   UNL d   1       1.062   3.024   0.311  0.00  0.00     0.127 HD
ATOM     22  H   UNL d   1       2.320   2.167  -0.502  0.00  0.00     0.127 HD
ENDBRANCH   5  20
TORSDOF 4
