REMARK  1 active torsions:
REMARK  status: ('A' for Active; 'I' for Inactive)
REMARK    1  A    between atoms: S_9  and  C_4 
ROOT
ATOM      1  N   UNL d   1       1.266  -1.409  -0.022  0.00  0.00    -0.337 N 
ATOM      2  HN  UNL d   1       1.288  -2.427  -0.077  1.00  0.00     0.168 HD
ATOM      3  C   UNL d   1       0.021   0.705   0.010  0.00  0.00     0.025 A 
ATOM      4  C   UNL d   1       2.348  -0.710   0.030  0.00  0.00     0.138 C 
ATOM      5  C   UNL d   1       0.056  -0.695  -0.001  0.00  0.00     0.045 A 
ATOM      6  N   UNL d   1       2.445   0.641   0.114  0.00  0.00    -0.366 N 
ATOM      7  C   UNL d   1       1.292   1.495  -0.007  0.00  0.00     0.166 C 
ATOM      8  C   UNL d   1      -1.212   1.358   0.012  0.00  0.00     0.126 A 
ATOM      9  F   UNL d   1      -1.252   2.698   0.009  0.00  0.00    -0.205 F 
ATOM     10  C   UNL d   1      -1.147  -1.410   0.002  0.00  0.00     0.030 A 
ATOM     11  C   UNL d   1      -2.376  -0.745   0.009  0.00  0.00     0.005 A 
ATOM     12  C   UNL d   1      -2.408   0.647   0.013  0.00  0.00     0.043 A 
ATOM     13  H   UNL d   1       3.362   1.052   0.008  0.00  0.00     0.161 HD
ENDROOT
BRANCH   4  14
ATOM     14  S   UNL d   1       3.873  -1.554  -0.004  0.00  0.00    -0.107 SA
ATOM     15  H   UNL d   1       3.322  -2.775  -0.013  0.00  0.00     0.110 HD
ENDBRANCH   4  14
TORSDOF 1
