REMARK  4 active torsions:
REMARK  status: ('A' for Active; 'I' for Inactive)
REMARK    1  A    between atoms: N_2  and  S_1 
REMARK    2  A    between atoms: C_7  and  S_1 
REMARK    3  A    between atoms: S_4  and  N_2 
REMARK    4  A    between atoms: C_11  and  S_4 
REMARK       I    between atoms: C_9  and  N_5 
ROOT
ATOM      1  S   UNL d   1       1.231  -0.034   0.061  0.00  0.00     0.269 S 
ATOM      2  O   UNL d   1       0.607  -1.261  -0.392  0.00  0.00    -0.200 OA
ATOM      3  O   UNL d   1       2.668   0.108   0.047  0.00  0.00    -0.200 OA
ENDROOT
BRANCH   1   4
ATOM      4  N   UNL d   1       0.571   0.354   1.566  0.00  0.00    -0.236 N 
ATOM      5  HN  UNL d   1      -0.442   0.434   1.655  1.00  0.00     0.189 HD
BRANCH   4   6
ATOM      6  S   UNL d   1       1.515   0.610   2.905  0.00  0.00     0.061 S 
ATOM      7  O   UNL d   1       2.415   1.727   2.748  0.00  0.00    -0.244 OA
ATOM      8  C   UNL d   1       0.369   0.942   4.210  0.00  0.00     0.143 C 
BRANCH   6   9
ATOM      9  C   UNL d   1       2.341  -0.882   3.285  0.00  0.00     0.038 A 
ATOM     10  C   UNL d   1       3.733  -0.912   3.282  0.00  0.00     0.022 A 
ATOM     11  C   UNL d   1       4.399  -2.072   3.687  0.00  0.00     0.008 A 
ATOM     12  C   UNL d   1       3.678  -3.201   4.097  0.00  0.00    -0.062 A 
ATOM     13  C   UNL d   1       2.278  -3.163   4.072  0.00  0.00     0.008 A 
ATOM     14  C   UNL d   1       4.408  -4.423   4.575  0.00  0.00     0.048 C 
ATOM     15  C   UNL d   1       1.607  -2.007   3.664  0.00  0.00     0.022 A 
ENDBRANCH   6   9
ENDBRANCH   4   6
ENDBRANCH   1   4
BRANCH   1  16
ATOM     16  C   UNL d   1       0.564   1.287  -0.947  0.00  0.00     0.081 A 
ATOM     17  C   UNL d   1       1.242   2.504  -1.023  0.00  0.00     0.034 A 
ATOM     18  C   UNL d   1       0.765   3.459  -1.917  0.00  0.00    -0.028 A 
ATOM     19  C   UNL d   1       1.387   4.792  -2.194  0.00  0.00     0.061 C 
ATOM     20  C   UNL d   1      -0.350   3.231  -2.739  0.00  0.00     0.043 A 
ATOM     21  C   UNL d   1       0.389   5.403  -3.174  0.00  0.00     0.137 C 
ATOM     22  N   UNL d   1      -0.542   4.340  -3.588  0.00  0.00    -0.318 N 
ATOM     23  C   UNL d   1      -1.380   4.595  -4.651  0.00  0.00     0.220 C 
ATOM     24  O   UNL d   1      -1.392   5.709  -5.192  0.00  0.00    -0.273 OA
ATOM     25  C   UNL d   1      -2.302   3.544  -5.203  0.00  0.00     0.117 C 
ATOM     26  C   UNL d   1      -1.049   2.041  -2.618  0.00  0.00     0.032 A 
ATOM     27  C   UNL d   1      -0.577   1.058  -1.732  0.00  0.00     0.027 A 
ENDBRANCH   1  16
TORSDOF 4
