REMARK  7 active torsions:
REMARK  status: ('A' for Active; 'I' for Inactive)
REMARK    1  A    between atoms: C_3  and  S_1 
REMARK    2  A    between atoms: C_8  and  S_1 
REMARK    3  A    between atoms: C_2  and  C_4 
REMARK    4  A    between atoms: C_7  and  O_19 
REMARK    5  A    between atoms: C_15  and  C_7 
REMARK    6  A    between atoms: C_20  and  C_8 
REMARK    7  A    between atoms: O_19  and  C_20 
ROOT
ATOM      1  S   UNL d   1       0.997   0.060   0.011  0.00  0.00     0.193 S 
ATOM      2  O   UNL d   1       2.428  -0.169  -0.097  0.00  0.00    -0.221 OA
ATOM      3  O   UNL d   1       0.479   1.248   0.668  0.00  0.00    -0.221 OA
ENDROOT
BRANCH   1   4
ATOM      4  C   UNL d   1       0.335  -1.330   0.904  0.00  0.00     0.128 A 
ATOM      5  N   UNL d   1      -0.512  -2.125   0.202  0.00  0.00    -0.356 N 
ATOM      6  C   UNL d   1      -1.008  -3.192   0.869  0.00  0.00     0.105 A 
ATOM      7  HN  UNL d   1      -0.759  -1.930  -0.768  1.00  0.00     0.166 HD
ATOM      8  C   UNL d   1      -0.693  -3.500   2.188  0.00  0.00     0.063 A 
ATOM      9  C   UNL d   1       0.182  -2.643   2.872  0.00  0.00     0.020 A 
ATOM     10  C   UNL d   1       0.710  -1.532   2.222  0.00  0.00     0.042 A 
BRANCH   8  11
ATOM     11  C   UNL d   1      -1.267  -4.717   2.850  0.00  0.00     0.418 C 
ATOM     12  F   UNL d   1      -2.077  -5.448   2.036  0.00  0.00    -0.166 F 
ATOM     13  F   UNL d   1      -0.302  -5.574   3.283  0.00  0.00    -0.166 F 
ATOM     14  F   UNL d   1      -2.015  -4.410   3.945  0.00  0.00    -0.166 F 
ENDBRANCH   8  11
ENDBRANCH   1   4
BRANCH   1  15
ATOM     15  C   UNL d   1       0.294  -0.057  -1.619  0.00  0.00     0.174 C 
BRANCH  15  16
ATOM     16  C   UNL d   1       0.848   1.031  -2.519  0.00  0.00     0.194 C 
BRANCH  16  17
ATOM     17  O   UNL d   1       0.430   2.338  -2.096  0.00  0.00    -0.317 OA
BRANCH  17  18
ATOM     18  C   UNL d   1      -0.832   2.699  -2.432  0.00  0.00     0.293 C 
ATOM     19  O   UNL d   1      -1.616   2.032  -3.087  0.00  0.00    -0.259 OA
BRANCH  18  20
ATOM     20  C   UNL d   1      -1.117   4.062  -1.927  0.00  0.00     0.039 A 
ATOM     21  C   UNL d   1      -0.499   4.571  -0.777  0.00  0.00     0.017 A 
ATOM     22  C   UNL d   1      -0.798   5.862  -0.341  0.00  0.00     0.001 A 
ATOM     23  C   UNL d   1      -1.710   6.646  -1.048  0.00  0.00     0.000 A 
ATOM     24  C   UNL d   1      -2.335   6.138  -2.187  0.00  0.00     0.001 A 
ATOM     25  C   UNL d   1      -2.045   4.845  -2.624  0.00  0.00     0.017 A 
ENDBRANCH  18  20
ENDBRANCH  17  18
ENDBRANCH  16  17
ENDBRANCH  15  16
ENDBRANCH   1  15
TORSDOF 7
