REMARK  10 active torsions:
REMARK  status: ('A' for Active; 'I' for Inactive)
REMARK    1  A    between atoms: C_2  and  C_1 
REMARK    2  A    between atoms: C_10  and  C_7 
REMARK    3  A    between atoms: C_11  and  C_10 
REMARK    4  A    between atoms: C_17  and  C_11 
REMARK    5  A    between atoms: C_12  and  C_13 
REMARK    6  A    between atoms: C_13  and  C_16 
REMARK    7  A    between atoms: C_14  and  C_18 
REMARK    8  A    between atoms: C_15  and  C_14 
REMARK    9  A    between atoms: C_16  and  C_15 
REMARK   10  A    between atoms: C_18  and  C_17 
ROOT
ATOM      1  C   UNL d   1       1.398  -0.357   0.237  0.00  0.00    -0.026 A 
ATOM      2  C   UNL d   1       0.569  -0.217   1.366  0.00  0.00     0.013 A 
ATOM      3  C   UNL d   1       0.790  -0.208  -1.022  0.00  0.00     0.013 A 
ATOM      4  C   UNL d   1      -0.571   0.082  -1.153  0.00  0.00     0.008 A 
ATOM      5  C   UNL d   1      -0.798   0.057   1.242  0.00  0.00     0.008 A 
ATOM      6  C   UNL d   1      -1.375   0.221  -0.019  0.00  0.00    -0.058 A 
ENDROOT
BRANCH   6   7
ATOM      7  C   UNL d   1      -2.849   0.486  -0.162  0.00  0.00     0.038 C 
BRANCH   7   8
ATOM      8  C   UNL d   1      -3.620  -0.825  -0.291  0.00  0.00     0.005 C 
BRANCH   8   9
ATOM      9  C   UNL d   1      -5.113  -0.573  -0.478  0.00  0.00     0.000 C 
BRANCH   9  10
ATOM     10  C   UNL d   1      -5.861  -1.897  -0.599  0.00  0.00     0.000 C 
BRANCH  10  11
ATOM     11  C   UNL d   1      -7.357  -1.670  -0.786  0.00  0.00     0.000 C 
BRANCH  11  12
ATOM     12  C   UNL d   1      -8.091  -3.003  -0.901  0.00  0.00     0.000 C 
BRANCH  12  13
ATOM     13  C   UNL d   1      -9.590  -2.785  -1.087  0.00  0.00     0.000 C 
BRANCH  13  14
ATOM     14  C   UNL d   1     -10.325  -4.118  -1.201  0.00  0.00    -0.000 C 
BRANCH  14  15
ATOM     15  C   UNL d   1     -11.824  -3.900  -1.385  0.00  0.00    -0.005 C 
ATOM     16  C   UNL d   1     -12.563  -5.223  -1.499  0.00  0.00     0.005 C 
ENDBRANCH  14  15
ENDBRANCH  13  14
ENDBRANCH  12  13
ENDBRANCH  11  12
ENDBRANCH  10  11
ENDBRANCH   9  10
ENDBRANCH   8   9
ENDBRANCH   7   8
ENDBRANCH   6   7
BRANCH   1  17
ATOM     17  C   UNL d   1       2.845  -0.653   0.365  0.00  0.00    -0.026 A 
ATOM     18  C   UNL d   1       3.347  -1.442   1.414  0.00  0.00     0.012 A 
ATOM     19  C   UNL d   1       4.715  -1.719   1.532  0.00  0.00     0.001 A 
ATOM     20  C   UNL d   1       5.610  -1.223   0.593  0.00  0.00     0.000 A 
ATOM     21  C   UNL d   1       5.142  -0.443  -0.459  0.00  0.00     0.001 A 
ATOM     22  C   UNL d   1       3.778  -0.155  -0.566  0.00  0.00     0.012 A 
ENDBRANCH   1  17
TORSDOF 10
