REMARK  2 active torsions:
REMARK  status: ('A' for Active; 'I' for Inactive)
REMARK    1  A    between atoms: N_2  and  C_1 
REMARK       I    between atoms: C_3  and  N_2 
REMARK    2  A    between atoms: C_9  and  C_3 
ROOT
ATOM      1  N   UNL d   1       4.579  -4.410  -2.490  0.00  0.00    -0.197 NA
ATOM      2  C   UNL d   1       4.208  -4.202  -1.415  0.00  0.00     0.068 C 
ATOM      3  C   UNL d   1       3.790  -3.934  -0.033  0.00  0.00     0.227 C 
ENDROOT
BRANCH   3   4
ATOM      4  C   UNL d   1       2.418  -3.274  -0.025  0.00  0.00     0.237 C 
ATOM      5  N   UNL d   1       2.336  -1.863   0.035  0.00  0.00    -0.319 N 
ATOM      6  C   UNL d   1       3.564  -1.061   0.039  0.00  0.00     0.159 C 
ATOM      7  O   UNL d   1       1.453  -4.032  -0.143  0.00  0.00    -0.272 OA
BRANCH   5   8
ATOM      8  C   UNL d   1       1.051  -1.160   0.012  0.00  0.00     0.075 A 
ATOM      9  C   UNL d   1      -0.175  -1.734   0.421  0.00  0.00     0.146 A 
ATOM     10  C   UNL d   1      -1.387  -1.037   0.375  0.00  0.00     0.086 A 
ATOM     11  F   UNL d   1      -0.244  -2.948   0.982  0.00  0.00    -0.204 F 
ATOM     12  C   UNL d   1      -1.407   0.276  -0.052  0.00  0.00     0.119 A 
ATOM     13  C   UNL d   1      -0.236   0.897  -0.444  0.00  0.00     0.044 A 
ATOM     14  F   UNL d   1      -2.561   0.955  -0.076  0.00  0.00    -0.206 F 
ATOM     15  C   UNL d   1       0.974   0.184  -0.423  0.00  0.00     0.036 A 
ENDBRANCH   5   8
ENDBRANCH   3   4
TORSDOF 2
