REMARK  4 active torsions:
REMARK  status: ('A' for Active; 'I' for Inactive)
REMARK    1  A    between atoms: C_2  and  C_1 
REMARK    2  A    between atoms: C_5  and  C_2 
REMARK    3  A    between atoms: C_7  and  C_3 
REMARK    4  A    between atoms: O_16  and  C_14 
ROOT
ATOM      1  C   UNL d   1       1.772  -1.361   0.119  0.00  0.00     0.096 C 
ATOM      2  C   UNL d   1       0.690  -1.645  -0.648  0.00  0.00     0.045 C 
ATOM      3  C   UNL d   1       2.336  -2.294   1.084  0.00  0.00     0.103 C 
ATOM      4  N   UNL d   1       2.766  -3.050   1.872  0.00  0.00    -0.191 NA
ENDROOT
BRANCH   1   5
ATOM      5  C   UNL d   1       2.425  -0.019  -0.144  0.00  0.00     0.203 C 
ATOM      6  O   UNL d   1       2.340   0.554  -1.231  0.00  0.00    -0.286 OA
BRANCH   5   7
ATOM      7  C   UNL d   1       3.221   0.620   0.942  0.00  0.00     0.018 A 
ATOM      8  C   UNL d   1       2.842   0.518   2.289  0.00  0.00     0.052 A 
ATOM      9  C   UNL d   1       3.605   1.135   3.281  0.00  0.00     0.069 A 
ATOM     10  C   UNL d   1       4.733   1.876   2.919  0.00  0.00     0.037 A 
ATOM     11  C   UNL d   1       5.101   2.005   1.579  0.00  0.00     0.004 A 
ATOM     12  C   UNL d   1       4.342   1.381   0.590  0.00  0.00     0.015 A 
BRANCH   9  13
ATOM     13  O   UNL d   1       3.347   1.104   4.624  0.00  0.00    -0.356 OA
ATOM     14  C   UNL d   1       2.247   0.310   5.054  0.00  0.00     0.210 C 
ENDBRANCH   9  13
ENDBRANCH   5   7
ENDBRANCH   1   5
BRANCH   2  15
ATOM     15  C   UNL d   1      -0.025  -2.864  -0.463  0.00  0.00     0.006 A 
ATOM     16  S   UNL d   1      -1.436  -2.880   0.521  0.00  0.00    -0.102 SA
ATOM     17  C   UNL d   1      -1.640  -4.566   0.332  0.00  0.00     0.050 A 
ATOM     18  C   UNL d   1      -0.674  -5.114  -0.480  0.00  0.00     0.008 A 
ATOM     19  C   UNL d   1       0.254  -4.133  -0.942  0.00  0.00     0.019 A 
ENDBRANCH   2  15
TORSDOF 4
