REMARK  4 active torsions:
REMARK  status: ('A' for Active; 'I' for Inactive)
REMARK    1  A    between atoms: C_4  and  C_1 
REMARK    2  A    between atoms: N_3  and  C_2 
REMARK       I    between atoms: N_6  and  C_4 
REMARK       I    between atoms: C_8  and  N_6 
REMARK       I    between atoms: N_12  and  C_8 
REMARK    3  A    between atoms: C_15  and  N_12 
REMARK    4  A    between atoms: C_18  and  C_15 
ROOT
ATOM      1  C   UNL d   1       2.533  -1.357  -0.234  0.00  0.00     0.260 C 
ATOM      2  N   UNL d   1       2.199  -2.712  -0.182  0.00  0.00    -0.275 N 
ATOM      3  C   UNL d   1       1.205  -3.652  -0.105  0.00  0.00     0.323 C 
ATOM      4  N   UNL d   1      -0.073  -3.290   0.203  0.00  0.00    -0.339 N 
ATOM      5  O   UNL d   1       3.741  -1.110  -0.282  0.00  0.00    -0.267 OA
ATOM      6  O   UNL d   1       1.524  -4.821  -0.335  0.00  0.00    -0.247 OA
ATOM      7  H   UNL d   1       3.065  -3.220  -0.320  0.00  0.00     0.173 HD
ATOM      8  H   UNL d   1      -0.151  -2.596   0.932  0.00  0.00     0.164 HD
ENDROOT
BRANCH   1   9
ATOM      9  C   UNL d   1       1.576  -0.260  -0.221  0.00  0.00     0.042 A 
ATOM     10  C   UNL d   1       2.013   1.109  -0.016  0.00  0.00     0.061 A 
ATOM     11  C   UNL d   1       0.977   2.011  -0.042  0.00  0.00     0.144 A 
ATOM     12  S   UNL d   1      -0.519   1.274  -0.331  0.00  0.00    -0.077 SA
ATOM     13  C   UNL d   1       0.221  -0.273  -0.488  0.00  0.00     0.069 A 
BRANCH  11  14
ATOM     14  N   UNL d   1       1.081   3.434   0.104  0.00  0.00    -0.108 N 
ATOM     15  O   UNL d   1       2.118   3.955  -0.324  0.00  0.00    -0.531 OA
ATOM     16  O   UNL d   1       0.151   4.024   0.667  0.00  0.00    -0.531 OA
ENDBRANCH  11  14
ENDBRANCH   1   9
BRANCH   4  17
ATOM     17  C   UNL d   1      -1.014  -4.398   0.277  0.00  0.00     0.162 C 
BRANCH  17  18
ATOM     18  C   UNL d   1      -2.486  -4.090   0.397  0.00  0.00    -0.039 A 
ATOM     19  C   UNL d   1      -3.043  -2.807   0.392  0.00  0.00     0.032 A 
ATOM     20  C   UNL d   1      -4.431  -2.646   0.491  0.00  0.00     0.034 A 
ATOM     21 CL   UNL d   1      -5.100  -1.060   0.487  0.00  0.00    -0.084 Cl
ATOM     22  C   UNL d   1      -5.281  -3.747   0.592  0.00  0.00     0.024 A 
ATOM     23  C   UNL d   1      -4.740  -5.029   0.589  0.00  0.00     0.002 A 
ATOM     24  C   UNL d   1      -3.357  -5.195   0.491  0.00  0.00     0.009 A 
ENDBRANCH  17  18
ENDBRANCH   4  17
TORSDOF 4
