REMARK  5 active torsions:
REMARK  status: ('A' for Active; 'I' for Inactive)
REMARK    1  A    between atoms: C_7  and  C_1 
REMARK    2  A    between atoms: S_11  and  C_8 
REMARK    3  A    between atoms: C_9  and  C_14 
REMARK    4  A    between atoms: C_19  and  C_10 
REMARK    5  A    between atoms: C_22  and  S_11 
ROOT
ATOM      1  C   UNL d   1      -0.319   1.151  -0.514  0.00  0.00     0.165 A 
ATOM      2  N   UNL d   1      -0.857  -0.028  -0.493  0.00  0.00    -0.331 N 
ATOM      3  HN  UNL d   1      -1.843  -0.276  -0.406  1.00  0.00     0.168 HD
ATOM      4  O   UNL d   1       1.025   1.220  -0.634  0.00  0.00    -0.255 OA
ATOM      5  C   UNL d   1       0.224  -0.857  -0.615  0.00  0.00     0.111 A 
ATOM      6  C   UNL d   1       1.474  -0.060  -0.718  0.00  0.00     0.316 A 
ATOM      7  C   UNL d   1       0.240  -2.194  -0.596  0.00  0.00     0.047 C 
ATOM      8  O   UNL d   1       2.623  -0.440  -0.824  0.00  0.00    -0.257 OA
ENDROOT
BRANCH   1   9
ATOM      9  C   UNL d   1      -1.026   2.419  -0.286  0.00  0.00     0.049 A 
ATOM     10  C   UNL d   1      -0.636   3.674  -0.760  0.00  0.00     0.089 A 
ATOM     11  N   UNL d   1      -1.306   4.808  -0.412  0.00  0.00    -0.359 N 
ATOM     12  C   UNL d   1      -2.369   4.703   0.415  0.00  0.00     0.089 A 
ATOM     13  HN  UNL d   1      -1.012   5.717  -0.769  1.00  0.00     0.166 HD
ATOM     14  C   UNL d   1      -2.837   3.502   0.905  0.00  0.00     0.018 A 
ATOM     15  C   UNL d   1      -2.162   2.344   0.538  0.00  0.00     0.020 A 
BRANCH  10  16
ATOM     16  S   UNL d   1       0.783   3.991  -1.785  0.00  0.00    -0.072 SA
BRANCH  16  17
ATOM     17  C   UNL d   1       0.175   3.947  -3.462  0.00  0.00     0.007 A 
ATOM     18  C   UNL d   1      -1.141   4.238  -3.835  0.00  0.00     0.020 A 
ATOM     19  C   UNL d   1      -1.527   4.192  -5.182  0.00  0.00     0.025 A 
ATOM     20  C   UNL d   1      -0.592   3.873  -6.165  0.00  0.00     0.034 A 
ATOM     21  C   UNL d   1       0.728   3.608  -5.814  0.00  0.00     0.025 A 
ATOM     22 CL   UNL d   1      -1.067   3.810  -7.817  0.00  0.00    -0.084 Cl
ATOM     23  C   UNL d   1       1.107   3.648  -4.469  0.00  0.00     0.020 A 
ENDBRANCH  16  17
ENDBRANCH  10  16
ENDBRANCH   1   9
BRANCH   7  24
ATOM     24  C   UNL d   1      -0.961  -3.018  -0.450  0.00  0.00    -0.034 A 
ATOM     25  C   UNL d   1      -1.596  -3.538  -1.581  0.00  0.00     0.012 A 
ATOM     26  C   UNL d   1      -2.728  -4.348  -1.443  0.00  0.00     0.017 A 
ATOM     27  C   UNL d   1      -3.240  -4.649  -0.172  0.00  0.00     0.048 A 
ATOM     28  C   UNL d   1      -2.601  -4.117   0.958  0.00  0.00     0.017 A 
ATOM     29  C   UNL d   1      -1.471  -3.307   0.819  0.00  0.00     0.012 A 
BRANCH  27  30
ATOM     30  C   UNL d   1      -4.453  -5.537  -0.039  0.00  0.00     0.417 C 
ATOM     31  F   UNL d   1      -4.852  -5.729   1.250  0.00  0.00    -0.166 F 
ATOM     32  F   UNL d   1      -5.539  -5.041  -0.694  0.00  0.00    -0.166 F 
ATOM     33  F   UNL d   1      -4.245  -6.782  -0.552  0.00  0.00    -0.166 F 
ENDBRANCH  27  30
ENDBRANCH   7  24
TORSDOF 5
