REMARK  6 active torsions:
REMARK  status: ('A' for Active; 'I' for Inactive)
REMARK    1  A    between atoms: C_2  and  S_1 
REMARK    2  A    between atoms: C_7  and  S_1 
REMARK    3  A    between atoms: C_8  and  C_2 
REMARK    4  A    between atoms: S_3  and  N_5 
REMARK    5  A    between atoms: C_9  and  S_3 
REMARK    6  A    between atoms: N_5  and  C_4 
ROOT
ATOM      1  C   UNL d   1       0.382   0.648  -1.494  0.00  0.00     0.125 C 
ATOM      2  C   UNL d   1      -0.376  -0.076  -2.332  0.00  0.00     0.124 C 
ENDROOT
BRANCH   1   3
ATOM      3  S   UNL d   1       0.787   2.244  -2.061  0.00  0.00     0.211 S 
ATOM      4  O   UNL d   1       0.217   3.218  -1.145  0.00  0.00    -0.217 OA
ATOM      5  O   UNL d   1       0.478   2.361  -3.479  0.00  0.00    -0.217 OA
BRANCH   3   6
ATOM      6  C   UNL d   1       2.563   2.384  -1.980  0.00  0.00     0.064 A 
ATOM      7  C   UNL d   1       3.355   1.569  -2.798  0.00  0.00     0.025 A 
ATOM      8  C   UNL d   1       4.744   1.722  -2.781  0.00  0.00     0.025 A 
ATOM      9  C   UNL d   1       5.329   2.690  -1.962  0.00  0.00     0.034 A 
ATOM     10  C   UNL d   1       4.537   3.509  -1.155  0.00  0.00     0.025 A 
ATOM     11 CL   UNL d   1       7.038   2.887  -1.960  0.00  0.00    -0.084 Cl
ATOM     12  C   UNL d   1       3.149   3.360  -1.164  0.00  0.00     0.025 A 
ENDBRANCH   3   6
ENDBRANCH   1   3
BRANCH   1  13
ATOM     13  C   UNL d   1       0.856   0.276  -0.139  0.00  0.00     0.168 C 
ATOM     14  O   UNL d   1       1.795   0.893   0.366  0.00  0.00    -0.292 OA
ATOM     15  C   UNL d   1       0.241  -0.856   0.647  0.00  0.00     0.097 C 
ENDBRANCH   1  13
BRANCH   2  16
ATOM     16  N   UNL d   1      -0.843  -1.398  -2.012  0.00  0.00    -0.322 N 
ATOM     17  HN  UNL d   1      -0.646  -1.793  -1.092  1.00  0.00     0.175 HD
BRANCH  16  18
ATOM     18  S   UNL d   1      -1.642  -2.229  -3.046  0.00  0.00     0.052 S 
ATOM     19  O   UNL d   1      -1.183  -2.478  -4.400  0.00  0.00    -0.245 OA
ATOM     20  C   UNL d   1      -1.985  -3.812  -2.316  0.00  0.00     0.142 C 
BRANCH  18  21
ATOM     21  C   UNL d   1      -3.257  -1.474  -3.183  0.00  0.00     0.038 A 
ATOM     22  C   UNL d   1      -3.724  -1.071  -4.438  0.00  0.00     0.023 A 
ATOM     23  C   UNL d   1      -4.995  -0.496  -4.550  0.00  0.00     0.025 A 
ATOM     24  C   UNL d   1      -5.784  -0.330  -3.413  0.00  0.00     0.034 A 
ATOM     25  C   UNL d   1      -5.314  -0.726  -2.158  0.00  0.00     0.025 A 
ATOM     26 CL   UNL d   1      -7.349   0.369  -3.554  0.00  0.00    -0.084 Cl
ATOM     27  C   UNL d   1      -4.042  -1.297  -2.039  0.00  0.00     0.023 A 
ENDBRANCH  18  21
ENDBRANCH  16  18
ENDBRANCH   2  16
TORSDOF 6
