REMARK  6 active torsions:
REMARK  status: ('A' for Active; 'I' for Inactive)
REMARK    1  A    between atoms: S_2  and  C_1 
REMARK    2  A    between atoms: N_8  and  S_2 
REMARK    3  A    between atoms: C_7  and  C_4 
REMARK    4  A    between atoms: O_19  and  C_7 
REMARK    5  A    between atoms: C_13  and  N_8 
REMARK    6  A    between atoms: C_11  and  C_13 
ROOT
ATOM      1  S   UNL d   1       0.300   2.951   0.008  0.00  0.00     0.257 S 
ATOM      2  O   UNL d   1      -0.593   3.478   1.014  0.00  0.00    -0.204 OA
ATOM      3  O   UNL d   1       1.734   3.095   0.102  0.00  0.00    -0.204 OA
ENDROOT
BRANCH   1   4
ATOM      4  C   UNL d   1       0.011   1.190   0.011  0.00  0.00     0.146 A 
ATOM      5  N   UNL d   1      -1.239   0.598  -0.057  0.00  0.00    -0.336 N 
ATOM      6  C   UNL d   1      -1.128  -0.789   0.041  0.00  0.00     0.109 A 
ATOM      7  C   UNL d   1      -2.516   1.284  -0.162  0.00  0.00     0.157 C 
ATOM      8  C   UNL d   1       0.229  -1.069   0.109  0.00  0.00     0.039 A 
ATOM      9  C   UNL d   1       0.929   0.153   0.097  0.00  0.00     0.046 A 
BRANCH   6  10
ATOM     10  C   UNL d   1      -2.255  -1.704   0.030  0.00  0.00     0.193 C 
ATOM     11  O   UNL d   1      -3.355  -1.476  -0.450  0.00  0.00    -0.645 OA
BRANCH  10  12
ATOM     12  O   UNL d   1      -1.974  -2.874   0.650  0.00  0.00    -0.772 OA
ATOM     13  H   UNL d   1      -1.119  -2.865   1.115  0.00  0.00     0.167 HD
ENDBRANCH  10  12
ENDBRANCH   6  10
ENDBRANCH   1   4
BRANCH   1  14
ATOM     14  N   UNL d   1      -0.203   3.539  -1.481  0.00  0.00    -0.208 NA
ATOM     15  H   UNL d   1      -0.534   4.502  -1.386  0.00  0.00     0.140 HD
BRANCH  14  16
ATOM     16  C   UNL d   1       0.790   3.415  -2.560  0.00  0.00     0.169 C 
BRANCH  16  17
ATOM     17  C   UNL d   1       0.222   3.998  -3.806  0.00  0.00     0.066 A 
ATOM     18  O   UNL d   1      -0.158   5.310  -3.755  0.00  0.00    -0.326 OA
ATOM     19  C   UNL d   1      -0.586   5.648  -5.000  0.00  0.00     0.142 A 
ATOM     20  C   UNL d   1      -0.487   4.573  -5.851  0.00  0.00     0.027 A 
ATOM     21  C   UNL d   1       0.028   3.503  -5.079  0.00  0.00     0.036 A 
ENDBRANCH  16  17
ENDBRANCH  14  16
ENDBRANCH   1  14
TORSDOF 6
