REMARK  1 active torsions:
REMARK  status: ('A' for Active; 'I' for Inactive)
REMARK    1  A    between atoms: N_9  and  N_2 
ROOT
ATOM      1  C   UNL d   1       1.353  -1.390  -0.177  0.00  0.00     0.275 A 
ATOM      2  N   UNL d   1       2.452  -0.540  -0.285  0.00  0.00    -0.237 N 
ATOM      3  C   UNL d   1       0.048  -0.710  -0.020  0.00  0.00     0.060 A 
ATOM      4  N   UNL d   1       1.207   1.461  -0.076  0.00  0.00    -0.350 N 
ATOM      5  HN  UNL d   1       1.176   2.479  -0.008  1.00  0.00     0.166 HD
ATOM      6  C   UNL d   1       2.323   0.832  -0.243  0.00  0.00     0.204 A 
ATOM      7  C   UNL d   1       0.038   0.689   0.009  0.00  0.00     0.048 A 
ATOM      8  O   UNL d   1       1.424  -2.616  -0.241  0.00  0.00    -0.266 OA
ATOM      9  C   UNL d   1      -1.144  -1.442   0.030  0.00  0.00     0.019 A 
ATOM     10  C   UNL d   1      -1.194   1.347   0.079  0.00  0.00     0.030 A 
ATOM     11  C   UNL d   1      -2.365  -0.770   0.091  0.00  0.00     0.001 A 
ATOM     12  C   UNL d   1      -2.389   0.625   0.111  0.00  0.00     0.002 A 
ENDROOT
BRANCH   2  13
ATOM     13  N   UNL d   1       3.701  -1.101  -0.680  0.00  0.00    -0.234 NA
ATOM     14  C   UNL d   1       4.650  -1.160   0.426  0.00  0.00     0.133 C 
ATOM     15  H   UNL d   1       3.496  -2.066  -0.972  0.00  0.00     0.146 HD
ENDBRANCH   2  13
TORSDOF 1
