REMARK  4 active torsions:
REMARK  status: ('A' for Active; 'I' for Inactive)
REMARK    1  A    between atoms: N_3  and  C_1 
REMARK    2  A    between atoms: S_4  and  C_1 
REMARK    3  A    between atoms: C_2  and  C_5 
REMARK    4  A    between atoms: C_5  and  S_4 
ROOT
ATOM      1  S   UNL d   1       0.234  -0.873  -1.167  0.00  0.00    -0.096 SA
ENDROOT
BRANCH   1   2
ATOM      2  C   UNL d   1       1.087   0.138   0.025  0.00  0.00     0.137 C 
ATOM      3  S   UNL d   1       2.774   0.189   0.103  0.00  0.00    -0.053 SA
BRANCH   2   4
ATOM      4  N   UNL d   1       0.246   0.927   0.847  0.00  0.00    -0.365 N 
ATOM      5  C   UNL d   1       0.787   1.945   1.781  0.00  0.00     0.134 C 
ATOM      6  C   UNL d   1       0.149   3.326   1.606  0.00  0.00     0.093 C 
ATOM      7  S   UNL d   1      -1.643   3.298   1.917  0.00  0.00    -0.166 SA
ATOM      8  C   UNL d   1      -2.061   1.938   0.781  0.00  0.00     0.093 C 
ATOM      9  C   UNL d   1      -1.206   0.693   1.032  0.00  0.00     0.134 C 
ENDBRANCH   2   4
ENDBRANCH   1   2
BRANCH   1  10
ATOM     10  C   UNL d   1       1.516  -1.960  -1.856  0.00  0.00     0.123 C 
BRANCH  10  11
ATOM     11  C   UNL d   1       0.963  -2.935  -2.874  0.00  0.00    -0.005 A 
ATOM     12  C   UNL d   1       0.890  -2.603  -4.242  0.00  0.00     0.042 A 
ATOM     13 CL   UNL d   1       1.369  -1.051  -4.841  0.00  0.00    -0.084 Cl
ATOM     14  C   UNL d   1       0.429  -3.525  -5.190  0.00  0.00     0.024 A 
ATOM     15  C   UNL d   1       0.019  -4.795  -4.795  0.00  0.00     0.003 A 
ATOM     16  C   UNL d   1       0.055  -5.135  -3.446  0.00  0.00     0.024 A 
ATOM     17  C   UNL d   1       0.514  -4.216  -2.494  0.00  0.00     0.042 A 
ATOM     18 CL   UNL d   1       0.506  -4.738  -0.844  0.00  0.00    -0.084 Cl
ENDBRANCH  10  11
ENDBRANCH   1  10
TORSDOF 4
