REMARK  3 active torsions:
REMARK  status: ('A' for Active; 'I' for Inactive)
REMARK    1  A    between atoms: N_5  and  C_1 
REMARK    2  A    between atoms: C_6  and  S_12 
REMARK    3  A    between atoms: S_12  and  C_7 
ROOT
ATOM      1  N   UNL d   1       2.474  -3.492   0.950  0.00  0.00    -0.319 N 
ATOM      2  C   UNL d   1       3.549  -4.219   0.518  0.00  0.00     0.139 A 
ATOM      3  C   UNL d   1       1.539  -3.582  -0.031  0.00  0.00     0.167 A 
ATOM      4  N   UNL d   1       3.286  -4.686  -0.688  0.00  0.00    -0.282 N 
ATOM      5  HN  UNL d   1       3.915  -5.245  -1.264  1.00  0.00     0.188 HD
ATOM      6  N   UNL d   1       2.007  -4.284  -1.034  0.00  0.00    -0.278 N 
ATOM      7  HN  UNL d   1       1.520  -4.495  -1.905  1.00  0.00     0.189 HD
ATOM      8  C   UNL d   1       4.740  -4.457   1.276  0.00  0.00     0.050 A 
ATOM      9  S   UNL d   1       4.993  -3.758   2.823  0.00  0.00    -0.098 SA
ATOM     10  C   UNL d   1       5.809  -5.253   0.910  0.00  0.00     0.023 A 
ATOM     11  C   UNL d   1       6.513  -4.520   2.998  0.00  0.00     0.050 A 
ATOM     12  C   UNL d   1       6.831  -5.292   1.904  0.00  0.00     0.009 A 
ATOM     13  H   UNL d   1       2.380  -3.024   1.838  0.00  0.00     0.169 HD
ENDROOT
BRANCH   3  14
ATOM     14  S   UNL d   1      -0.042  -2.952   0.203  0.00  0.00    -0.027 SA
BRANCH  14  15
ATOM     15  C   UNL d   1      -0.071  -1.889  -1.184  0.00  0.00     0.121 A 
ATOM     16  S   UNL d   1      -1.232  -2.058  -2.440  0.00  0.00    -0.039 SA
ATOM     17  C   UNL d   1      -0.629  -0.638  -3.150  0.00  0.00     0.161 A 
ATOM     18  C   UNL d   1       0.413  -0.124  -2.415  0.00  0.00     0.133 A 
ATOM     19  N   UNL d   1       0.724  -0.841  -1.270  0.00  0.00    -0.352 N 
ATOM     20  HN  UNL d   1       1.453  -0.597  -0.599  1.00  0.00     0.166 HD
BRANCH  17  21
ATOM     21  N   UNL d   1      -1.194  -0.089  -4.341  0.00  0.00    -0.107 N 
ATOM     22  O   UNL d   1      -0.692   0.965  -4.750  0.00  0.00    -0.531 OA
ATOM     23  O   UNL d   1      -2.143  -0.684  -4.867  0.00  0.00    -0.531 OA
ENDBRANCH  17  21
ENDBRANCH  14  15
ENDBRANCH   3  14
TORSDOF 3
