REMARK  5 active torsions:
REMARK  status: ('A' for Active; 'I' for Inactive)
REMARK    1  A    between atoms: N_7  and  C_1 
REMARK    2  A    between atoms: C_9  and  C_6 
REMARK    3  A    between atoms: C_15  and  N_7 
REMARK    4  A    between atoms: O_19  and  C_12 
REMARK    5  A    between atoms: O_20  and  C_14 
ROOT
ATOM      1  C   UNL d   1      -0.500  -1.355  -0.118  0.00  0.00     0.079 C 
ATOM      2  C   UNL d   1      -1.412  -0.348  -0.021  0.00  0.00     0.140 C 
ATOM      3  S   UNL d   1       1.159  -1.061  -0.622  0.00  0.00    -0.086 SA
ATOM      4  C   UNL d   1      -1.013   1.085  -0.093  0.00  0.00     0.265 C 
ATOM      5  N   UNL d   1       0.293   1.454  -0.214  0.00  0.00    -0.339 N 
ATOM      6  C   UNL d   1       1.460   0.627  -0.124  0.00  0.00     0.186 C 
ATOM      7  C   UNL d   1      -2.836  -0.651   0.051  0.00  0.00     0.107 C 
ATOM      8  N   UNL d   1      -3.971  -0.885   0.085  0.00  0.00    -0.191 NA
ATOM      9  O   UNL d   1      -1.851   1.982  -0.033  0.00  0.00    -0.267 OA
ATOM     10  H   UNL d   1       0.441   2.451  -0.209  0.00  0.00     0.164 HD
ENDROOT
BRANCH   1  11
ATOM     11  N   UNL d   1      -0.882  -2.692   0.021  0.00  0.00    -0.253 NA
ATOM     12  H   UNL d   1      -0.359  -3.280  -0.631  0.00  0.00     0.134 HD
BRANCH  11  13
ATOM     13  C   UNL d   1      -0.915  -3.359   1.279  0.00  0.00     0.013 A 
ATOM     14  C   UNL d   1      -1.294  -4.711   1.304  0.00  0.00     0.030 A 
ATOM     15  C   UNL d   1      -1.408  -5.414   2.515  0.00  0.00    -0.060 A 
ATOM     16  C   UNL d   1      -1.840  -6.850   2.545  0.00  0.00     0.048 C 
ATOM     17  C   UNL d   1      -1.138  -4.750   3.715  0.00  0.00     0.007 A 
ATOM     18  C   UNL d   1      -0.765  -3.409   3.706  0.00  0.00     0.002 A 
ATOM     19  C   UNL d   1      -0.665  -2.715   2.498  0.00  0.00     0.024 A 
ENDBRANCH  11  13
ENDBRANCH   1  11
BRANCH   6  20
ATOM     20  C   UNL d   1       2.212   0.740   1.193  0.00  0.00    -0.022 A 
ATOM     21  C   UNL d   1       1.565   1.026   2.410  0.00  0.00     0.049 A 
ATOM     22  C   UNL d   1       2.290   1.135   3.605  0.00  0.00     0.101 A 
ATOM     23  C   UNL d   1       3.678   0.943   3.580  0.00  0.00     0.099 A 
ATOM     24  C   UNL d   1       4.339   0.646   2.390  0.00  0.00     0.040 A 
ATOM     25  C   UNL d   1       3.606   0.541   1.207  0.00  0.00     0.013 A 
BRANCH  22  26
ATOM     26  O   UNL d   1       1.744   1.427   4.827  0.00  0.00    -0.353 OA
ATOM     27  C   UNL d   1       0.342   1.644   4.886  0.00  0.00     0.210 C 
ENDBRANCH  22  26
BRANCH  23  28
ATOM     28  O   UNL d   1       4.393   1.051   4.742  0.00  0.00    -0.358 OA
ATOM     29  H   UNL d   1       5.332   0.898   4.558  0.00  0.00     0.217 HD
ENDBRANCH  23  28
ENDBRANCH   6  20
TORSDOF 5
