REMARK  2 active torsions:
REMARK  status: ('A' for Active; 'I' for Inactive)
REMARK    1  A    between atoms: C_2  and  S_1 
REMARK    2  A    between atoms: N_4  and  S_1 
ROOT
ATOM      1  C   UNL d   1       0.664   0.538   1.837  0.00  0.00     0.083 A 
ATOM      2  C   UNL d   1       1.005   1.752   2.461  0.00  0.00     0.001 A 
ATOM      3  C   UNL d   1       0.533   1.967   3.768  0.00  0.00     0.145 A 
ATOM      4  C   UNL d   1      -0.066  -0.442   2.535  0.00  0.00     0.027 A 
ATOM      5  C   UNL d   1      -0.202   1.001   4.457  0.00  0.00     0.073 A 
ATOM      6  C   UNL d   1      -0.492  -0.214   3.845  0.00  0.00     0.028 A 
ATOM      7  F   UNL d   1       0.805   3.138   4.367  0.00  0.00    -0.204 F 
ATOM      8 CL   UNL d   1      -0.754   1.289   6.062  0.00  0.00    -0.081 Cl
ATOM      9  C   UNL d   1       1.823   2.847   1.840  0.00  0.00     0.053 C 
ENDROOT
BRANCH   1  10
ATOM     10  S   UNL d   1       1.147   0.145   0.161  0.00  0.00     0.244 S 
ATOM     11  O   UNL d   1       0.453  -1.069  -0.223  0.00  0.00    -0.206 OA
ATOM     12  O   UNL d   1       2.590   0.211   0.104  0.00  0.00    -0.206 OA
BRANCH  10  13
ATOM     13  N   UNL d   1       0.503   1.408  -0.780  0.00  0.00    -0.202 NA
ATOM     14  C   UNL d   1      -0.987   1.580  -0.790  0.00  0.00     0.134 C 
ATOM     15  C   UNL d   1      -1.680   0.632  -1.777  0.00  0.00     0.183 C 
ATOM     16  O   UNL d   1      -1.137   0.763  -3.098  0.00  0.00    -0.389 OA
ATOM     17  C   UNL d   1       0.268   0.472  -3.097  0.00  0.00     0.183 C 
ATOM     18  C   UNL d   1       1.024   1.448  -2.190  0.00  0.00     0.134 C 
ENDBRANCH  10  13
ENDBRANCH   1  10
TORSDOF 2
