REMARK  4 active torsions:
REMARK  status: ('A' for Active; 'I' for Inactive)
REMARK    1  A    between atoms: C_2  and  C_1 
REMARK    2  A    between atoms: N_8  and  C_5 
REMARK    3  A    between atoms: C_16  and  N_8 
REMARK    4  A    between atoms: C_15  and  C_16 
ROOT
ATOM      1  C   UNL d   1       1.137   1.626  -0.457  0.00  0.00     0.065 A 
ATOM      2  N   UNL d   1       1.202   3.908  -1.267  0.00  0.00    -0.355 N 
ATOM      3  HN  UNL d   1       1.705   4.791  -1.356  1.00  0.00     0.166 HD
ATOM      4  C   UNL d   1      -0.041   3.763  -1.783  0.00  0.00     0.102 A 
ATOM      5  C   UNL d   1      -0.135   1.473  -1.009  0.00  0.00     0.044 A 
ATOM      6  C   UNL d   1      -0.727   2.541  -1.680  0.00  0.00     0.073 A 
ATOM      7  C   UNL d   1       1.762   2.852  -0.629  0.00  0.00     0.105 A 
ATOM      8 CL   UNL d   1      -2.307   2.325  -2.346  0.00  0.00    -0.081 Cl
ENDROOT
BRANCH   4   9
ATOM      9  N   UNL d   1      -0.672   4.870  -2.372  0.00  0.00    -0.273 NA
ATOM     10  H   UNL d   1      -1.006   4.611  -3.296  0.00  0.00     0.129 HD
BRANCH   9  11
ATOM     11  C   UNL d   1       0.080   6.117  -2.366  0.00  0.00     0.134 C 
BRANCH  11  12
ATOM     12  C   UNL d   1      -0.792   7.303  -2.708  0.00  0.00    -0.029 A 
ATOM     13  C   UNL d   1      -0.272   8.585  -2.538  0.00  0.00     0.096 A 
ATOM     14  N   UNL d   1      -0.944   9.731  -2.802  0.00  0.00    -0.375 N 
ATOM     15  C   UNL d   1      -2.205   9.598  -3.260  0.00  0.00     0.087 A 
ATOM     16  HN  UNL d   1      -0.518  10.647  -2.662  1.00  0.00     0.164 HD
ATOM     17  C   UNL d   1      -2.818   8.377  -3.475  0.00  0.00     0.018 A 
ATOM     18  C   UNL d   1      -2.100   7.216  -3.195  0.00  0.00     0.011 A 
ENDBRANCH  11  12
ENDBRANCH   9  11
ENDBRANCH   4   9
BRANCH   1  19
ATOM     19  C   UNL d   1       1.832   0.538   0.298  0.00  0.00     0.418 C 
ATOM     20  F   UNL d   1       1.047  -0.551   0.522  0.00  0.00    -0.166 F 
ATOM     21  F   UNL d   1       2.264   0.945   1.523  0.00  0.00    -0.166 F 
ATOM     22  F   UNL d   1       2.933   0.078  -0.353  0.00  0.00    -0.166 F 
ENDBRANCH   1  19
TORSDOF 4
