REMARK  4 active torsions:
REMARK  status: ('A' for Active; 'I' for Inactive)
REMARK    1  A    between atoms: C_6  and  S_1 
REMARK    2  A    between atoms: C_8  and  S_1 
REMARK    3  A    between atoms: C_4  and  C_6 
REMARK    4  A    between atoms: C_10  and  C_5 
ROOT
ATOM      1  C   UNL d   1       0.328   0.218   1.599  0.00  0.00     0.212 C 
ENDROOT
BRANCH   1   2
ATOM      2  C   UNL d   1       0.716  -0.917   2.473  0.00  0.00     0.065 A 
ATOM      3  N   UNL d   1       0.371  -2.165   2.247  0.00  0.00    -0.355 N 
ATOM      4  C   UNL d   1       0.843  -3.002   3.246  0.00  0.00     0.024 A 
ATOM      5  HN  UNL d   1      -0.172  -2.476   1.442  1.00  0.00     0.166 HD
ATOM      6  C   UNL d   1       1.549  -2.345   4.240  0.00  0.00     0.077 A 
ATOM      7  S   UNL d   1       1.604  -0.663   3.923  0.00  0.00    -0.086 SA
BRANCH   4   8
ATOM      8  C   UNL d   1       0.558  -4.493   3.155  0.00  0.00    -0.008 C 
ATOM      9  C   UNL d   1      -0.295  -4.820   1.909  0.00  0.00     0.021 C 
ATOM     10  C   UNL d   1       1.879  -5.278   3.050  0.00  0.00     0.021 C 
ATOM     11  C   UNL d   1      -0.217  -4.970   4.399  0.00  0.00     0.021 C 
ENDBRANCH   4   8
ENDBRANCH   1   2
BRANCH   1  12
ATOM     12  S   UNL d   1       1.535   0.405   0.319  0.00  0.00     0.196 S 
ATOM     13  O   UNL d   1       2.850   0.518   0.929  0.00  0.00    -0.221 OA
ATOM     14  O   UNL d   1       1.084   1.468  -0.569  0.00  0.00    -0.221 OA
BRANCH  12  15
ATOM     15  C   UNL d   1       1.499  -1.113  -0.618  0.00  0.00     0.128 A 
ATOM     16  N   UNL d   1       0.287  -1.407  -1.157  0.00  0.00    -0.357 N 
ATOM     17  C   UNL d   1       0.250  -2.500  -1.949  0.00  0.00     0.089 A 
ATOM     18  HN  UNL d   1      -0.541  -0.840  -0.976  1.00  0.00     0.166 HD
ATOM     19  C   UNL d   1       1.355  -3.296  -2.221  0.00  0.00     0.017 A 
ATOM     20  C   UNL d   1       2.577  -2.965  -1.639  0.00  0.00     0.004 A 
ATOM     21  C   UNL d   1       2.659  -1.848  -0.815  0.00  0.00     0.042 A 
ENDBRANCH  12  15
ENDBRANCH   1  12
TORSDOF 4
