REMARK  5 active torsions:
REMARK  status: ('A' for Active; 'I' for Inactive)
REMARK       I    between atoms: N_4  and  C_1 
REMARK       I    between atoms: N_9  and  C_1 
REMARK    1  A    between atoms: C_2  and  C_3 
REMARK    2  A    between atoms: O_10  and  C_2 
REMARK    3  A    between atoms: C_7  and  N_4 
REMARK    4  A    between atoms: C_14  and  N_9 
REMARK    5  A    between atoms: C_16  and  C_14 
ROOT
ATOM      1  C   UNL d   1       2.727   2.852   3.013  0.00  0.00     0.041 A 
ATOM      2  C   UNL d   1       2.006   2.330   1.932  0.00  0.00     0.047 A 
ATOM      3  C   UNL d   1       1.054   1.328   2.122  0.00  0.00     0.037 A 
ATOM      4  C   UNL d   1       2.420   2.434   4.312  0.00  0.00     0.018 A 
ATOM      5  C   UNL d   1       1.405   1.499   4.519  0.00  0.00     0.003 A 
ATOM      6  C   UNL d   1       0.726   0.945   3.427  0.00  0.00     0.029 A 
ENDROOT
BRANCH   3   7
ATOM      7  N   UNL d   1       0.450   0.640   1.045  0.00  0.00    -0.309 N 
ATOM      8  C   UNL d   1       0.899   0.642  -0.262  0.00  0.00     0.320 C 
ATOM      9  O   UNL d   1       1.873   1.248  -0.698  0.00  0.00    -0.247 OA
ATOM     10  N   UNL d   1       0.119  -0.141  -1.080  0.00  0.00    -0.343 N 
ATOM     11  H   UNL d   1      -0.638  -0.679  -0.692  0.00  0.00     0.164 HD
ATOM     12  H   UNL d   1      -0.233  -0.062   1.282  0.00  0.00     0.170 HD
BRANCH  10  13
ATOM     13  C   UNL d   1       0.400  -0.258  -2.500  0.00  0.00     0.124 C 
BRANCH  13  14
ATOM     14  C   UNL d   1       1.345  -1.415  -2.830  0.00  0.00     0.015 C 
ATOM     15  C   UNL d   1       0.742  -2.774  -2.506  0.00  0.00     0.006 C 
ENDBRANCH  13  14
ENDBRANCH  10  13
ENDBRANCH   3   7
BRANCH   1  16
ATOM     16  C   UNL d   1       3.883   3.764   2.797  0.00  0.00     0.293 C 
ATOM     17  O   UNL d   1       4.523   4.278   3.702  0.00  0.00    -0.259 OA
BRANCH  16  18
ATOM     18  O   UNL d   1       4.160   3.849   1.474  0.00  0.00    -0.323 OA
ATOM     19  C   UNL d   1       5.394   4.484   1.149  0.00  0.00     0.213 C 
ENDBRANCH  16  18
ENDBRANCH   1  16
TORSDOF 5
