REMARK  15 active torsions:
REMARK  status: ('A' for Active; 'I' for Inactive)
REMARK    1  A    between atoms: C_3  and  N_1 
REMARK    2  A    between atoms: S_11  and  C_2 
REMARK    3  A    between atoms: C_9  and  C_4 
REMARK    4  A    between atoms: C_25  and  C_10 
REMARK    5  A    between atoms: C_15  and  S_11 
REMARK    6  A    between atoms: C_17  and  C_15 
REMARK    7  A    between atoms: C_26  and  C_25 
REMARK    8  A    between atoms: C_36  and  C_26 
REMARK    9  A    between atoms: C_27  and  C_30 
REMARK   10  A    between atoms: C_30  and  C_34 
REMARK   11  A    between atoms: C_31  and  C_35 
REMARK   12  A    between atoms: C_33  and  C_31 
REMARK   13  A    between atoms: C_32  and  C_36 
REMARK   14  A    between atoms: C_35  and  C_32 
REMARK   15  A    between atoms: C_34  and  C_33 
ROOT
ATOM      1  N   UNL d   1      -0.246   0.762  -0.247  0.00  0.00    -0.278 N 
ATOM      2  C   UNL d   1       1.007   0.151  -0.408  0.00  0.00     0.167 A 
ATOM      3  N   UNL d   1       0.883  -1.153  -0.439  0.00  0.00    -0.278 N 
ATOM      4  HN  UNL d   1       1.640  -1.825  -0.571  1.00  0.00     0.189 HD
ATOM      5  N   UNL d   1      -0.430  -1.453  -0.262  0.00  0.00    -0.286 N 
ATOM      6  HN  UNL d   1      -0.824  -2.393  -0.241  1.00  0.00     0.188 HD
ATOM      7  C   UNL d   1      -1.118  -0.332  -0.123  0.00  0.00     0.104 A 
ENDROOT
BRANCH   7   8
ATOM      8  C   UNL d   1      -2.572  -0.313   0.247  0.00  0.00     0.078 C 
BRANCH   8   9
ATOM      9  C   UNL d   1      -3.223  -1.701   0.152  0.00  0.00     0.007 C 
BRANCH   9  10
ATOM     10  C   UNL d   1      -4.757  -1.643   0.219  0.00  0.00     0.000 C 
BRANCH  10  11
ATOM     11  C   UNL d   1      -5.335  -3.058   0.147  0.00  0.00     0.000 C 
BRANCH  11  12
ATOM     12  C   UNL d   1      -6.864  -3.091   0.222  0.00  0.00     0.000 C 
BRANCH  12  13
ATOM     13  C   UNL d   1      -7.355  -4.542   0.193  0.00  0.00     0.000 C 
BRANCH  13  14
ATOM     14  C   UNL d   1      -8.877  -4.638   0.295  0.00  0.00     0.000 C 
BRANCH  14  15
ATOM     15  C   UNL d   1      -9.336  -6.099   0.275  0.00  0.00     0.000 C 
BRANCH  15  16
ATOM     16  C   UNL d   1     -10.858  -6.198   0.379  0.00  0.00    -0.000 C 
BRANCH  16  17
ATOM     17  C   UNL d   1     -11.329  -7.652   0.357  0.00  0.00    -0.005 C 
ATOM     18  C   UNL d   1     -12.843  -7.740   0.460  0.00  0.00     0.005 C 
ENDBRANCH  16  17
ENDBRANCH  15  16
ENDBRANCH  14  15
ENDBRANCH  13  14
ENDBRANCH  12  13
ENDBRANCH  11  12
ENDBRANCH  10  11
ENDBRANCH   9  10
ENDBRANCH   8   9
ENDBRANCH   7   8
BRANCH   1  19
ATOM     19  C   UNL d   1      -0.522   2.172  -0.128  0.00  0.00     0.058 A 
ATOM     20  C   UNL d   1      -1.589   2.851  -0.763  0.00  0.00     0.075 A 
ATOM     21  C   UNL d   1      -1.730   4.248  -0.543  0.00  0.00     0.018 A 
ATOM     22  C   UNL d   1      -0.808   4.979   0.198  0.00  0.00     0.001 A 
ATOM     23  C   UNL d   1       0.259   4.322   0.783  0.00  0.00     0.002 A 
ATOM     24  C   UNL d   1       0.378   2.936   0.652  0.00  0.00     0.031 A 
BRANCH  20  25
ATOM     25  C   UNL d   1      -2.580   2.295  -1.760  0.00  0.00     0.419 C 
ATOM     26  F   UNL d   1      -2.224   1.108  -2.314  0.00  0.00    -0.166 F 
ATOM     27  F   UNL d   1      -3.814   2.126  -1.207  0.00  0.00    -0.166 F 
ATOM     28  F   UNL d   1      -2.785   3.134  -2.818  0.00  0.00    -0.166 F 
ENDBRANCH  20  25
ENDBRANCH   1  19
BRANCH   2  29
ATOM     29  S   UNL d   1       2.528   0.970  -0.643  0.00  0.00    -0.087 SA
BRANCH  29  30
ATOM     30  C   UNL d   1       3.612  -0.357  -1.254  0.00  0.00     0.121 C 
BRANCH  30  31
ATOM     31  C   UNL d   1       5.045   0.124  -1.399  0.00  0.00    -0.048 A 
ATOM     32  C   UNL d   1       6.015  -0.204  -0.446  0.00  0.00     0.009 A 
ATOM     33  C   UNL d   1       7.335   0.247  -0.583  0.00  0.00     0.024 A 
ATOM     34  C   UNL d   1       7.686   1.037  -1.676  0.00  0.00     0.034 A 
ATOM     35  C   UNL d   1       6.732   1.383  -2.628  0.00  0.00     0.024 A 
ATOM     36 CL   UNL d   1       9.307   1.593  -1.845  0.00  0.00    -0.084 Cl
ATOM     37  C   UNL d   1       5.416   0.923  -2.494  0.00  0.00     0.009 A 
ENDBRANCH  30  31
ENDBRANCH  29  30
ENDBRANCH   2  29
TORSDOF 15
