REMARK  6 active torsions:
REMARK  status: ('A' for Active; 'I' for Inactive)
REMARK       I    between atoms: N_3  and  C_1 
REMARK    1  A    between atoms: O_6  and  C_1 
REMARK    2  A    between atoms: C_2  and  C_5 
REMARK       I    between atoms: N_4  and  C_2 
REMARK    3  A    between atoms: C_5  and  N_3 
REMARK    4  A    between atoms: C_10  and  N_4 
REMARK    5  A    between atoms: C_9  and  O_6 
REMARK    6  A    between atoms: C_11  and  C_10 
ROOT
ATOM      1  C   UNL d   1       1.889   1.825  -2.436  0.00  0.00     0.240 C 
ATOM      2  N   UNL d   1       3.156   1.304  -2.274  0.00  0.00    -0.355 N 
ATOM      3  O   UNL d   1       1.347   1.932  -3.535  0.00  0.00    -0.271 OA
ATOM      4  H   UNL d   1       3.516   1.153  -1.337  0.00  0.00     0.162 HD
ENDROOT
BRANCH   1   5
ATOM      5  C   UNL d   1       1.175   2.203  -1.121  0.00  0.00     0.174 C 
ATOM      6  C   UNL d   1       0.154   3.310  -1.355  0.00  0.00     0.042 C 
BRANCH   5   7
ATOM      7  N   UNL d   1       0.509   1.039  -0.560  0.00  0.00    -0.324 N 
ATOM      8  C   UNL d   1       1.085   0.258   0.390  0.00  0.00     0.362 C 
ATOM      9  O   UNL d   1       2.188   0.465   0.867  0.00  0.00    -0.238 OA
ATOM     10  H   UNL d   1      -0.341   0.688  -0.981  0.00  0.00     0.165 HD
BRANCH   8  11
ATOM     11  O   UNL d   1       0.246  -0.756   0.708  0.00  0.00    -0.294 OA
BRANCH  11  12
ATOM     12  C   UNL d   1       0.621  -1.729   1.721  0.00  0.00     0.061 C 
ATOM     13  C   UNL d   1       0.752  -1.076   3.103  0.00  0.00     0.046 C 
ATOM     14  C   UNL d   1      -0.541  -2.736   1.773  0.00  0.00     0.046 C 
ATOM     15  C   UNL d   1       1.892  -2.483   1.317  0.00  0.00     0.046 C 
ENDBRANCH  11  12
ENDBRANCH   8  11
ENDBRANCH   5   7
ENDBRANCH   1   5
BRANCH   2  16
ATOM     16  C   UNL d   1       4.029   1.032  -3.399  0.00  0.00     0.161 C 
BRANCH  16  17
ATOM     17  C   UNL d   1       4.551  -0.382  -3.409  0.00  0.00    -0.041 A 
ATOM     18  C   UNL d   1       3.662  -1.466  -3.411  0.00  0.00     0.009 A 
ATOM     19  C   UNL d   1       4.136  -2.777  -3.502  0.00  0.00     0.001 A 
ATOM     20  C   UNL d   1       5.505  -3.019  -3.597  0.00  0.00     0.000 A 
ATOM     21  C   UNL d   1       6.401  -1.952  -3.598  0.00  0.00     0.001 A 
ATOM     22  C   UNL d   1       5.928  -0.640  -3.507  0.00  0.00     0.009 A 
ENDBRANCH  16  17
ENDBRANCH   2  16
TORSDOF 6
