REMARK  4 active torsions:
REMARK  status: ('A' for Active; 'I' for Inactive)
REMARK    1  A    between atoms: C_2  and  C_1 
REMARK       I    between atoms: N_3  and  C_1 
REMARK       I    between atoms: C_4  and  N_3 
REMARK       I    between atoms: N_6  and  C_4 
REMARK    2  A    between atoms: O_16  and  C_5 
REMARK    3  A    between atoms: C_7  and  N_6 
REMARK    4  A    between atoms: O_18  and  C_8 
ROOT
ATOM      1  C   UNL d   1       0.972  -0.222  -0.278  0.00  0.00     0.265 C 
ATOM      2  N   UNL d   1       0.116   0.790  -0.690  0.00  0.00    -0.275 N 
ATOM      3  C   UNL d   1      -1.250   0.694  -0.852  0.00  0.00     0.327 C 
ATOM      4  N   UNL d   1      -1.905  -0.031   0.110  0.00  0.00    -0.308 N 
ATOM      5  O   UNL d   1       0.638  -1.166   0.425  0.00  0.00    -0.267 OA
ATOM      6  O   UNL d   1      -1.771   1.266  -1.805  0.00  0.00    -0.247 OA
ATOM      7  H   UNL d   1       0.483   1.375  -1.431  0.00  0.00     0.173 HD
ATOM      8  H   UNL d   1      -1.373  -0.092   0.969  0.00  0.00     0.170 HD
ENDROOT
BRANCH   1   9
ATOM      9  C   UNL d   1       2.394  -0.038  -0.718  0.00  0.00     0.100 A 
ATOM     10  C   UNL d   1       2.609   0.180  -2.113  0.00  0.00     0.108 A 
ATOM     11  C   UNL d   1       3.893   0.490  -2.591  0.00  0.00     0.068 A 
ATOM     12 CL   UNL d   1       4.220   0.975  -4.217  0.00  0.00    -0.081 Cl
ATOM     13  C   UNL d   1       4.971   0.514  -1.714  0.00  0.00     0.029 A 
ATOM     14  C   UNL d   1       4.768   0.271  -0.359  0.00  0.00     0.039 A 
ATOM     15  C   UNL d   1       3.490   0.004   0.167  0.00  0.00     0.086 A 
BRANCH  10  16
ATOM     16  O   UNL d   1       1.485   0.229  -2.906  0.00  0.00    -0.353 OA
ATOM     17  C   UNL d   1       1.519  -0.537  -4.110  0.00  0.00     0.210 C 
ENDBRANCH  10  16
BRANCH  15  18
ATOM     18  O   UNL d   1       3.566  -0.056   1.529  0.00  0.00    -0.355 OA
ATOM     19  C   UNL d   1       2.548  -0.650   2.310  0.00  0.00     0.210 C 
ENDBRANCH  15  18
ENDBRANCH   1   9
BRANCH   4  20
ATOM     20  C   UNL d   1      -3.312   0.016   0.239  0.00  0.00     0.048 A 
ATOM     21  C   UNL d   1      -4.156  -0.586  -0.716  0.00  0.00    -0.035 A 
ATOM     22  C   UNL d   1      -5.543  -0.612  -0.478  0.00  0.00     0.009 A 
ATOM     23  C   UNL d   1      -3.670  -1.217  -1.992  0.00  0.00     0.050 C 
ATOM     24  C   UNL d   1      -6.083  -0.051   0.676  0.00  0.00     0.001 A 
ATOM     25  C   UNL d   1      -5.249   0.570   1.599  0.00  0.00     0.009 A 
ATOM     26  C   UNL d   1      -3.862   0.624   1.389  0.00  0.00    -0.035 A 
ATOM     27  C   UNL d   1      -3.028   1.374   2.392  0.00  0.00     0.050 C 
ENDBRANCH   4  20
TORSDOF 4
