REMARK  3 active torsions:
REMARK  status: ('A' for Active; 'I' for Inactive)
REMARK    1  A    between atoms: N_4  and  N_1 
REMARK    2  A    between atoms: C_8  and  C_9 
REMARK    3  A    between atoms: O_17  and  C_13 
ROOT
ATOM      1  N   UNL d   1       3.299   0.048  -0.429  0.00  0.00    -0.298 N 
ATOM      2  HN  UNL d   1       3.745  -0.817  -0.734  1.00  0.00     0.186 HD
ATOM      3  C   UNL d   1       4.017   1.088  -0.145  0.00  0.00     0.123 C 
ENDROOT
BRANCH   1   4
ATOM      4  N   UNL d   1       1.931   0.120  -0.316  0.00  0.00    -0.182 N 
ATOM      5  C   UNL d   1       1.151   1.198   0.051  0.00  0.00     0.280 A 
ATOM      6  C   UNL d   1      -0.233   0.737  -0.018  0.00  0.00     0.050 A 
ATOM      7  O   UNL d   1       1.432   2.335   0.388  0.00  0.00    -0.265 OA
ATOM      8  C   UNL d   1      -1.407   1.429   0.211  0.00  0.00     0.018 A 
ATOM      9  C   UNL d   1      -0.225  -0.594  -0.390  0.00  0.00     0.050 A 
ATOM     10  C   UNL d   1      -2.604   0.727   0.052  0.00  0.00     0.001 A 
ATOM     11  C   UNL d   1      -2.599  -0.634  -0.320  0.00  0.00     0.001 A 
ATOM     12  C   UNL d   1      -1.396  -1.312  -0.544  0.00  0.00     0.018 A 
ATOM     13  C   UNL d   1       1.167  -0.999  -0.579  0.00  0.00     0.280 A 
ATOM     14  O   UNL d   1       1.494  -2.124  -0.911  0.00  0.00    -0.265 OA
ENDBRANCH   1   4
BRANCH   3  15
ATOM     15  C   UNL d   1       5.496   1.052  -0.234  0.00  0.00     0.025 A 
ATOM     16  C   UNL d   1       6.273   1.936   0.570  0.00  0.00    -0.011 A 
ATOM     17  C   UNL d   1       7.682   1.916   0.406  0.00  0.00    -0.025 A 
ATOM     18  C   UNL d   1       5.746   2.824   1.545  0.00  0.00     0.013 A 
ATOM     19  C   UNL d   1       8.494   2.761   1.181  0.00  0.00     0.012 A 
ATOM     20  C   UNL d   1       8.270   1.045  -0.524  0.00  0.00     0.015 A 
ATOM     21  C   UNL d   1       7.942   3.627   2.123  0.00  0.00     0.001 A 
ATOM     22  C   UNL d   1       6.568   3.657   2.307  0.00  0.00     0.001 A 
ATOM     23  C   UNL d   1       7.492   0.179  -1.290  0.00  0.00     0.038 A 
ATOM     24  C   UNL d   1       6.113   0.174  -1.138  0.00  0.00     0.078 A 
BRANCH  24  25
ATOM     25  O   UNL d   1       5.426  -0.709  -1.926  0.00  0.00    -0.360 OA
ATOM     26  H   UNL d   1       4.505  -0.767  -1.591  0.00  0.00     0.217 HD
ENDBRANCH  24  25
ENDBRANCH   3  15
TORSDOF 3
