REMARK  9 active torsions:
REMARK  status: ('A' for Active; 'I' for Inactive)
REMARK    1  A    between atoms: N_10  and  C_1 
REMARK    2  A    between atoms: C_2  and  N_9 
REMARK       I    between atoms: N_9  and  C_16 
REMARK       I    between atoms: C_15  and  N_10 
REMARK    3  A    between atoms: C_30  and  C_15 
REMARK    4  A    between atoms: C_16  and  C_29 
REMARK    5  A    between atoms: O_27  and  C_23 
REMARK    6  A    between atoms: O_28  and  C_24 
REMARK    7  A    between atoms: C_29  and  C_33 
REMARK    8  A    between atoms: C_34  and  C_30 
REMARK    9  A    between atoms: C_33  and  C_34 
ROOT
ATOM      1  C   UNL d   1      -8.236  -0.532  -0.163  0.00  0.00     0.010 C 
ENDROOT
BRANCH   1   2
ATOM      2  C   UNL d   1      -9.373   0.478  -0.119  0.00  0.00     0.103 C 
BRANCH   2   3
ATOM      3  C   UNL d   1     -10.758  -0.119  -0.307  0.00  0.00     0.223 C 
ATOM      4  N   UNL d   1     -11.015  -1.262   0.419  0.00  0.00    -0.307 N 
ATOM      5  H   UNL d   1     -10.364  -1.580   1.124  0.00  0.00     0.171 HD
ATOM      6  O   UNL d   1     -11.551   0.488  -1.026  0.00  0.00    -0.273 OA
BRANCH   4   7
ATOM      7  C   UNL d   1     -12.217  -1.941   0.441  0.00  0.00     0.152 C 
ATOM      8  N   UNL d   1     -12.483  -2.890   1.310  0.00  0.00    -0.335 N 
ATOM      9  C   UNL d   1     -13.825  -3.250   1.203  0.00  0.00     0.051 A 
ATOM     10  HN  UNL d   1     -11.812  -3.299   1.961  1.00  0.00     0.168 HD
ATOM     11  C   UNL d   1     -14.534  -4.161   2.015  0.00  0.00     0.034 A 
ATOM     12  C   UNL d   1     -14.527  -2.592   0.193  0.00  0.00     0.037 A 
ATOM     13  C   UNL d   1     -15.923  -4.322   1.844  0.00  0.00     0.039 A 
ATOM     14  C   UNL d   1     -16.606  -3.606   0.863  0.00  0.00     0.069 A 
ATOM     15  C   UNL d   1     -15.906  -2.758   0.005  0.00  0.00     0.058 A 
ATOM     16  S   UNL d   1     -13.450  -1.602  -0.683  0.00  0.00    -0.052 SA
BRANCH  14  17
ATOM     17  O   UNL d   1     -17.953  -3.629   0.626  0.00  0.00    -0.356 OA
ATOM     18  C   UNL d   1     -18.763  -4.367   1.528  0.00  0.00     0.210 C 
ENDBRANCH  14  17
ENDBRANCH   4   7
ENDBRANCH   2   3
ENDBRANCH   1   2
BRANCH   1  19
ATOM     19  C   UNL d   1      -6.874   0.157  -0.294  0.00  0.00     0.010 C 
BRANCH  19  20
ATOM     20  C   UNL d   1      -5.763  -0.886  -0.340  0.00  0.00     0.103 C 
BRANCH  20  21
ATOM     21  C   UNL d   1      -4.396  -0.247  -0.261  0.00  0.00     0.223 C 
ATOM     22  N   UNL d   1      -3.852   0.035  -1.496  0.00  0.00    -0.307 N 
ATOM     23  H   UNL d   1      -4.427   0.001  -2.324  0.00  0.00     0.171 HD
ATOM     24  O   UNL d   1      -3.909  -0.002   0.839  0.00  0.00    -0.273 OA
BRANCH  22  25
ATOM     25  C   UNL d   1      -2.591   0.535  -1.717  0.00  0.00     0.152 A 
ATOM     26  N   UNL d   1      -2.228   1.010  -2.885  0.00  0.00    -0.335 N 
ATOM     27  C   UNL d   1      -0.925   1.496  -2.799  0.00  0.00     0.051 A 
ATOM     28  HN  UNL d   1      -2.809   1.023  -3.724  1.00  0.00     0.168 HD
ATOM     29  C   UNL d   1      -0.202   2.158  -3.813  0.00  0.00     0.034 A 
ATOM     30  C   UNL d   1      -0.304   1.304  -1.566  0.00  0.00     0.037 A 
ATOM     31  C   UNL d   1       1.103   2.617  -3.559  0.00  0.00     0.039 A 
ATOM     32  C   UNL d   1       1.700   2.410  -2.318  0.00  0.00     0.069 A 
ATOM     33  C   UNL d   1       1.003   1.740  -1.309  0.00  0.00     0.058 A 
ATOM     34  S   UNL d   1      -1.389   0.500  -0.513  0.00  0.00    -0.052 SA
BRANCH  32  35
ATOM     35  O   UNL d   1       2.954   2.808  -1.943  0.00  0.00    -0.356 OA
ATOM     36  C   UNL d   1       3.729   3.516  -2.900  0.00  0.00     0.210 C 
ENDBRANCH  32  35
ENDBRANCH  22  25
ENDBRANCH  20  21
ENDBRANCH  19  20
ENDBRANCH   1  19
TORSDOF 9
