REMARK  3 active torsions:
REMARK  status: ('A' for Active; 'I' for Inactive)
REMARK    1  A    between atoms: C_5  and  C_1 
REMARK    2  A    between atoms: C_10  and  C_4 
REMARK       I    between atoms: N_8  and  C_5 
REMARK    3  A    between atoms: C_11  and  N_8 
ROOT
ATOM      1  C   UNL d   1       1.268   0.774  -0.137  0.00  0.00     0.108 A 
ATOM      2  N   UNL d   1       1.441  -0.604   0.045  0.00  0.00    -0.345 N 
ATOM      3  HN  UNL d   1       2.325  -1.057   0.280  1.00  0.00     0.167 HD
ATOM      4  C   UNL d   1       0.288  -1.234  -0.131  0.00  0.00     0.085 A 
ATOM      5  S   UNL d   1      -1.037  -0.210  -0.563  0.00  0.00    -0.081 SA
ATOM      6  C   UNL d   1      -0.020   1.149  -0.481  0.00  0.00     0.087 A 
ENDROOT
BRANCH   1   7
ATOM      7  C   UNL d   1       2.344   1.767  -0.001  0.00  0.00     0.273 C 
ATOM      8  N   UNL d   1       3.575   1.218   0.307  0.00  0.00    -0.322 N 
ATOM      9  H   UNL d   1       3.581   0.206   0.402  0.00  0.00     0.169 HD
ATOM     10  O   UNL d   1       2.108   2.959  -0.171  0.00  0.00    -0.266 OA
BRANCH   8  11
ATOM     11  C   UNL d   1       4.798   1.910   0.450  0.00  0.00     0.035 A 
ATOM     12  C   UNL d   1       4.918   3.302   0.359  0.00  0.00     0.029 A 
ATOM     13  C   UNL d   1       6.165   3.926   0.475  0.00  0.00     0.002 A 
ATOM     14  C   UNL d   1       7.309   3.166   0.689  0.00  0.00     0.000 A 
ATOM     15  C   UNL d   1       7.203   1.782   0.799  0.00  0.00     0.002 A 
ATOM     16  C   UNL d   1       5.955   1.157   0.682  0.00  0.00     0.029 A 
ENDBRANCH   8  11
ENDBRANCH   1   7
BRANCH   4  17
ATOM     17  C   UNL d   1       0.083  -2.695  -0.070  0.00  0.00    -0.002 A 
ATOM     18  C   UNL d   1      -1.146  -3.266   0.311  0.00  0.00     0.014 A 
ATOM     19  C   UNL d   1      -1.339  -4.650   0.286  0.00  0.00     0.001 A 
ATOM     20  C   UNL d   1      -0.301  -5.488  -0.109  0.00  0.00     0.000 A 
ATOM     21  C   UNL d   1       0.933  -4.945  -0.461  0.00  0.00     0.001 A 
ATOM     22  C   UNL d   1       1.125  -3.559  -0.435  0.00  0.00     0.014 A 
ENDBRANCH   4  17
TORSDOF 3
