REMARK  6 active torsions:
REMARK  status: ('A' for Active; 'I' for Inactive)
REMARK    1  A    between atoms: C_2  and  C_1 
REMARK    2  A    between atoms: N_12  and  C_5 
REMARK    3  A    between atoms: C_16  and  N_12 
REMARK    4  A    between atoms: N_14  and  C_17 
REMARK    5  A    between atoms: C_15  and  C_16 
REMARK    6  A    between atoms: C_17  and  C_15 
ROOT
ATOM      1  C   UNL d   1       0.617   1.050  -1.058  0.00  0.00     0.065 A 
ATOM      2  N   UNL d   1       0.094   2.626  -2.818  0.00  0.00    -0.355 N 
ATOM      3  HN  UNL d   1      -0.072   3.590  -3.107  1.00  0.00     0.166 HD
ATOM      4  C   UNL d   1       0.039   1.616  -3.718  0.00  0.00     0.102 A 
ATOM      5  C   UNL d   1       0.544   0.006  -1.982  0.00  0.00     0.044 A 
ATOM      6  C   UNL d   1       0.251   0.287  -3.317  0.00  0.00     0.073 A 
ATOM      7  C   UNL d   1       0.373   2.331  -1.526  0.00  0.00     0.105 A 
ATOM      8 CL   UNL d   1       0.176  -1.027  -4.437  0.00  0.00    -0.081 Cl
ENDROOT
BRANCH   4   9
ATOM      9  N   UNL d   1      -0.175   1.914  -5.072  0.00  0.00    -0.277 NA
ATOM     10  H   UNL d   1      -0.936   1.344  -5.431  0.00  0.00     0.129 HD
BRANCH   9  11
ATOM     11  C   UNL d   1      -0.266   3.323  -5.444  0.00  0.00     0.095 C 
BRANCH  11  12
ATOM     12  C   UNL d   1       1.135   3.929  -5.571  0.00  0.00     0.044 C 
BRANCH  12  13
ATOM     13  C   UNL d   1       1.075   5.360  -6.094  0.00  0.00     0.268 C 
BRANCH  13  14
ATOM     14  N   UNL d   1       2.419   5.918  -6.213  0.00  0.00     0.078 N 
ATOM     15  H   UNL d   1       2.371   6.837  -6.650  0.00  0.00     0.312 HD
ATOM     16  H   UNL d   1       2.983   5.333  -6.828  0.00  0.00     0.312 HD
ENDBRANCH  13  14
ENDBRANCH  12  13
ENDBRANCH  11  12
ENDBRANCH   9  11
ENDBRANCH   4   9
BRANCH   1  17
ATOM     17  C   UNL d   1       0.940   0.837   0.387  0.00  0.00     0.418 C 
ATOM     18  F   UNL d   1       1.271  -0.450   0.683  0.00  0.00    -0.166 F 
ATOM     19  F   UNL d   1      -0.102   1.153   1.203  0.00  0.00    -0.166 F 
ATOM     20  F   UNL d   1       1.988   1.598   0.805  0.00  0.00    -0.166 F 
ENDBRANCH   1  17
TORSDOF 6
