REMARK  8 active torsions:
REMARK  status: ('A' for Active; 'I' for Inactive)
REMARK    1  A    between atoms: N_2  and  C_1 
REMARK    2  A    between atoms: C_8  and  C_1 
REMARK    3  A    between atoms: C_3  and  C_6 
REMARK    4  A    between atoms: C_4  and  C_7 
REMARK    5  A    between atoms: N_11  and  C_5 
REMARK    6  A    between atoms: O_23  and  C_8 
REMARK    7  A    between atoms: C_13  and  N_11 
REMARK    8  A    between atoms: C_24  and  O_23 
ROOT
ATOM      1  C   UNL d   1      -2.141  -3.090  -3.643  0.00  0.00     0.050 A 
ATOM      2  C   UNL d   1      -4.114  -1.919  -2.833  0.00  0.00     0.050 A 
ATOM      3  C   UNL d   1      -3.521  -2.852  -3.692  0.00  0.00     0.032 A 
ATOM      4  C   UNL d   1      -1.926  -1.473  -1.814  0.00  0.00     0.033 A 
ATOM      5  C   UNL d   1      -1.361  -2.397  -2.700  0.00  0.00     0.045 A 
ATOM      6  C   UNL d   1      -3.310  -1.253  -1.890  0.00  0.00     0.045 A 
ENDROOT
BRANCH   4   7
ATOM      7  N   UNL d   1      -1.184  -0.748  -0.866  0.00  0.00    -0.363 N 
ATOM      8  H   UNL d   1      -1.725  -0.100  -0.287  0.00  0.00     0.165 HD
BRANCH   7   9
ATOM      9  C   UNL d   1       0.182  -0.694  -0.693  0.00  0.00     0.131 C 
ATOM     10  C   UNL d   1       0.878   0.044   0.189  0.00  0.00     0.193 C 
BRANCH  10  11
ATOM     11  N   UNL d   1       2.307  -0.023   0.085  0.00  0.00    -0.108 N 
ATOM     12  O   UNL d   1       2.838  -1.137   0.213  0.00  0.00    -0.532 OA
ATOM     13  O   UNL d   1       2.907   1.030  -0.170  0.00  0.00    -0.532 OA
ENDBRANCH  10  11
BRANCH  10  14
ATOM     14  C   UNL d   1       0.302   0.991   1.145  0.00  0.00     0.317 C 
ATOM     15  O   UNL d   1      -0.840   1.425   1.050  0.00  0.00    -0.257 OA
BRANCH  14  16
ATOM     16  O   UNL d   1       1.194   1.319   2.108  0.00  0.00    -0.317 OA
BRANCH  16  17
ATOM     17  C   UNL d   1       0.960   2.567   2.774  0.00  0.00     0.175 C 
ATOM     18  C   UNL d   1       1.579   3.663   1.927  0.00  0.00     0.034 C 
ENDBRANCH  16  17
ENDBRANCH  14  16
ENDBRANCH  10  14
ENDBRANCH   7   9
ENDBRANCH   4   7
BRANCH   1  19
ATOM     19  C   UNL d   1      -1.474  -4.042  -4.607  0.00  0.00     0.417 C 
ATOM     20  F   UNL d   1      -2.344  -4.649  -5.460  0.00  0.00    -0.166 F 
ATOM     21  F   UNL d   1      -0.555  -3.416  -5.393  0.00  0.00    -0.166 F 
ATOM     22  F   UNL d   1      -0.806  -5.045  -3.974  0.00  0.00    -0.166 F 
ENDBRANCH   1  19
BRANCH   2  23
ATOM     23  C   UNL d   1      -5.583  -1.585  -2.937  0.00  0.00     0.417 C 
ATOM     24  F   UNL d   1      -6.221  -2.252  -3.938  0.00  0.00    -0.166 F 
ATOM     25  F   UNL d   1      -6.268  -1.870  -1.798  0.00  0.00    -0.166 F 
ATOM     26  F   UNL d   1      -5.790  -0.261  -3.180  0.00  0.00    -0.166 F 
ENDBRANCH   2  23
TORSDOF 8
