REMARK  5 active torsions:
REMARK  status: ('A' for Active; 'I' for Inactive)
REMARK    1  A    between atoms: C_8  and  C_1 
REMARK    2  A    between atoms: S_9  and  C_5 
REMARK    3  A    between atoms: C_11  and  S_9 
REMARK    4  A    between atoms: C_10  and  C_11 
REMARK    5  A    between atoms: C_16  and  C_10 
ROOT
ATOM      1  C   UNL d   1      -0.836   0.844   0.284  0.00  0.00     0.209 A 
ATOM      2  N   UNL d   1      -1.074  -0.514   0.208  0.00  0.00    -0.312 N 
ATOM      3  N   UNL d   1       0.473   1.037   0.188  0.00  0.00    -0.279 N 
ATOM      4  HN  UNL d   1       0.941   1.943   0.205  1.00  0.00     0.188 HD
ATOM      5  C   UNL d   1       0.163  -1.097   0.083  0.00  0.00     0.163 A 
ATOM      6  N   UNL d   1       1.093  -0.176   0.062  0.00  0.00    -0.278 N 
ATOM      7  HN  UNL d   1       2.096  -0.334  -0.031  1.00  0.00     0.189 HD
ATOM      8  C   UNL d   1      -2.326  -1.227   0.252  0.00  0.00     0.160 C 
ENDROOT
BRANCH   5   9
ATOM      9  S   UNL d   1       0.417  -2.802  -0.023  0.00  0.00    -0.085 SA
BRANCH   9  10
ATOM     10  C   UNL d   1       2.233  -2.877  -0.165  0.00  0.00     0.166 C 
BRANCH  10  11
ATOM     11  C   UNL d   1       2.728  -4.312  -0.277  0.00  0.00     0.169 C 
ATOM     12  O   UNL d   1       1.988  -5.295  -0.221  0.00  0.00    -0.291 OA
BRANCH  11  13
ATOM     13  C   UNL d   1       4.199  -4.548  -0.455  0.00  0.00     0.010 A 
ATOM     14  C   UNL d   1       5.128  -3.505  -0.550  0.00  0.00     0.015 A 
ATOM     15  C   UNL d   1       6.488  -3.788  -0.719  0.00  0.00     0.001 A 
ATOM     16  C   UNL d   1       6.930  -5.109  -0.789  0.00  0.00     0.000 A 
ATOM     17  C   UNL d   1       6.013  -6.153  -0.694  0.00  0.00     0.001 A 
ATOM     18  C   UNL d   1       4.655  -5.874  -0.528  0.00  0.00     0.015 A 
ENDBRANCH  11  13
ENDBRANCH  10  11
ENDBRANCH   9  10
ENDBRANCH   5   9
BRANCH   1  19
ATOM     19  C   UNL d   1      -1.844   1.927   0.449  0.00  0.00     0.450 C 
ATOM     20  F   UNL d   1      -3.120   1.482   0.588  0.00  0.00    -0.163 F 
ATOM     21  F   UNL d   1      -1.596   2.686   1.550  0.00  0.00    -0.163 F 
ATOM     22  F   UNL d   1      -1.857   2.772  -0.615  0.00  0.00    -0.163 F 
ENDBRANCH   1  19
TORSDOF 5
