REMARK  4 active torsions:
REMARK  status: ('A' for Active; 'I' for Inactive)
REMARK    1  A    between atoms: C_8  and  C_1 
REMARK    2  A    between atoms: C_10  and  C_5 
REMARK    3  A    between atoms: C_7  and  C_8 
REMARK    4  A    between atoms: N_12  and  C_9 
ROOT
ATOM      1  C   UNL d   1      -0.831   0.943   0.015  0.00  0.00     0.151 A 
ATOM      2  C   UNL d   1      -1.353  -0.329  -0.038  0.00  0.00     0.075 A 
ATOM      3  N   UNL d   1       0.897  -0.487   0.126  0.00  0.00    -0.260 N 
ATOM      4  HN  UNL d   1       1.846  -0.854   0.201  1.00  0.00     0.195 HD
ATOM      5  C   UNL d   1      -0.236  -1.202   0.021  0.00  0.00     0.068 A 
ATOM      6  O   UNL d   1       0.523   0.844   0.111  0.00  0.00    -0.233 OA
ENDROOT
BRANCH   1   7
ATOM      7  C   UNL d   1      -1.481   2.233  -0.019  0.00  0.00     0.208 C 
ATOM      8  O   UNL d   1      -2.705   2.340  -0.095  0.00  0.00    -0.285 OA
BRANCH   7   9
ATOM      9  C   UNL d   1      -0.625   3.457   0.040  0.00  0.00     0.074 C 
ATOM     10  C   UNL d   1      -1.165   4.685   0.016  0.00  0.00     0.088 C 
BRANCH  10  11
ATOM     11  N   UNL d   1      -0.539   5.925   0.059  0.00  0.00    -0.398 N 
ATOM     12  C   UNL d   1       0.905   6.126   0.148  0.00  0.00     0.148 C 
ATOM     13  C   UNL d   1      -1.305   7.176   0.029  0.00  0.00     0.148 C 
ENDBRANCH  10  11
ENDBRANCH   7   9
ENDBRANCH   1   7
BRANCH   5  14
ATOM     14  C   UNL d   1      -0.234  -2.665  -0.032  0.00  0.00    -0.007 A 
ATOM     15  C   UNL d   1      -1.260  -3.355  -0.698  0.00  0.00     0.015 A 
ATOM     16  C   UNL d   1      -1.253  -4.752  -0.770  0.00  0.00     0.024 A 
ATOM     17  C   UNL d   1      -0.223  -5.472  -0.171  0.00  0.00     0.034 A 
ATOM     18  C   UNL d   1       0.797  -4.807   0.505  0.00  0.00     0.024 A 
ATOM     19 CL   UNL d   1      -0.209  -7.189  -0.274  0.00  0.00    -0.084 Cl
ATOM     20  C   UNL d   1       0.793  -3.408   0.571  0.00  0.00     0.015 A 
ENDBRANCH   5  14
TORSDOF 4
