REMARK  2 active torsions:
REMARK  status: ('A' for Active; 'I' for Inactive)
REMARK    1  A    between atoms: C_2  and  C_1 
REMARK       I    between atoms: N_3  and  C_1 
REMARK    2  A    between atoms: C_8  and  N_3 
ROOT
ATOM      1  C   UNL d   1      -3.377   0.556  -0.959  0.00  0.00     0.104 A 
ATOM      2  C   UNL d   1      -1.985   0.592  -0.897  0.00  0.00     0.069 A 
ATOM      3  C   UNL d   1      -4.042  -0.652  -1.175  0.00  0.00     0.102 A 
ATOM      4  C   UNL d   1      -1.239  -0.584  -1.002  0.00  0.00     0.037 A 
ATOM      5  O   UNL d   1      -4.027   1.752  -0.789  0.00  0.00    -0.346 OA
ATOM      6  O   UNL d   1      -5.407  -0.761  -1.223  0.00  0.00    -0.346 OA
ATOM      7  C   UNL d   1      -3.307  -1.824  -1.329  0.00  0.00     0.042 A 
ATOM      8  C   UNL d   1      -1.909  -1.790  -1.253  0.00  0.00     0.032 A 
ATOM      9  C   UNL d   1      -5.388   1.539  -0.404  0.00  0.00     0.202 C 
ATOM     10  C   UNL d   1      -6.043   0.520  -1.322  0.00  0.00     0.202 C 
ENDROOT
BRANCH   4  11
ATOM     11  N   UNL d   1       0.162  -0.631  -0.842  0.00  0.00    -0.322 N 
ATOM     12  C   UNL d   1       0.964   0.361  -0.292  0.00  0.00     0.263 C 
ATOM     13  O   UNL d   1       0.542   1.441   0.118  0.00  0.00    -0.267 OA
ATOM     14  H   UNL d   1       0.621  -1.514  -1.028  0.00  0.00     0.169 HD
BRANCH  12  15
ATOM     15  C   UNL d   1       2.382   0.034  -0.170  0.00  0.00     0.072 A 
ATOM     16  S   UNL d   1       3.062  -1.433  -0.734  0.00  0.00    -0.097 SA
ATOM     17  C   UNL d   1       4.627  -0.995  -0.198  0.00  0.00     0.050 A 
ATOM     18  C   UNL d   1       4.641   0.245   0.399  0.00  0.00     0.009 A 
ATOM     19  C   UNL d   1       3.348   0.839   0.411  0.00  0.00     0.025 A 
ENDBRANCH  12  15
ENDBRANCH   4  11
TORSDOF 2
