REMARK  4 active torsions:
REMARK  status: ('A' for Active; 'I' for Inactive)
REMARK    1  A    between atoms: C_11  and  C_6 
REMARK    2  A    between atoms: C_13  and  C_8 
REMARK    3  A    between atoms: O_15  and  C_11 
REMARK    4  A    between atoms: C_18  and  O_15 
ROOT
ATOM      1  N   UNL d   1      -0.292  -0.600   0.070  0.00  0.00    -0.203 N 
ATOM      2  C   UNL d   1      -0.229   0.777   0.040  0.00  0.00     0.132 A 
ATOM      3  N   UNL d   1      -1.569  -1.052   0.065  0.00  0.00    -0.289 N 
ATOM      4  HN  UNL d   1      -1.883  -2.022   0.091  1.00  0.00     0.188 HD
ATOM      5  C   UNL d   1       0.820  -1.460   0.079  0.00  0.00     0.285 A 
ATOM      6  C   UNL d   1       2.131  -0.743   0.067  0.00  0.00     0.124 A 
ATOM      7  C   UNL d   1      -1.521   1.227   0.004  0.00  0.00     0.082 A 
ATOM      8  C   UNL d   1      -2.332   0.053   0.017  0.00  0.00     0.062 A 
ATOM      9  C   UNL d   1       2.127   0.605   0.035  0.00  0.00     0.113 A 
ATOM     10  N   UNL d   1       0.983   1.373   0.035  0.00  0.00    -0.350 N 
ATOM     11  O   UNL d   1       0.665  -2.674   0.058  0.00  0.00    -0.265 OA
ATOM     12  H   UNL d   1       1.097   2.385  -0.021  0.00  0.00     0.166 HD
ENDROOT
BRANCH   8  13
ATOM     13  C   UNL d   1      -3.798  -0.037  -0.022  0.00  0.00    -0.008 A 
ATOM     14  C   UNL d   1      -4.439  -1.285   0.016  0.00  0.00     0.014 A 
ATOM     15  C   UNL d   1      -5.833  -1.375  -0.029  0.00  0.00     0.001 A 
ATOM     16  C   UNL d   1      -6.604  -0.221  -0.115  0.00  0.00     0.000 A 
ATOM     17  C   UNL d   1      -5.983   1.025  -0.152  0.00  0.00     0.001 A 
ATOM     18  C   UNL d   1      -4.590   1.117  -0.103  0.00  0.00     0.014 A 
ENDBRANCH   8  13
BRANCH   6  19
ATOM     19  C   UNL d   1       3.429  -1.437  -0.007  0.00  0.00     0.300 C 
ATOM     20  O   UNL d   1       4.458  -0.912  -0.408  0.00  0.00    -0.259 OA
BRANCH  19  21
ATOM     21  O   UNL d   1       3.294  -2.729   0.363  0.00  0.00    -0.318 OA
BRANCH  21  22
ATOM     22  C   UNL d   1       4.269  -3.642  -0.154  0.00  0.00     0.174 C 
ATOM     23  C   UNL d   1       3.808  -4.095  -1.529  0.00  0.00     0.034 C 
ENDBRANCH  21  22
ENDBRANCH  19  21
ENDBRANCH   6  19
TORSDOF 4
