REMARK  6 active torsions:
REMARK  status: ('A' for Active; 'I' for Inactive)
REMARK    1  A    between atoms: C_5  and  C_1 
REMARK    2  A    between atoms: N_8  and  N_2 
REMARK    3  A    between atoms: C_4  and  O_10 
REMARK    4  A    between atoms: C_9  and  C_5 
REMARK    5  A    between atoms: C_17  and  N_8 
REMARK    6  A    between atoms: O_10  and  C_18 
ROOT
ATOM      1  C   UNL d   1       0.997   0.726   0.261  0.00  0.00     0.179 C 
ATOM      2  N   UNL d   1       0.419   0.797  -0.902  0.00  0.00    -0.287 N 
ATOM      3  HN  UNL d   1      -0.555   0.516  -1.014  1.00  0.00     0.188 HD
ATOM      4  C   UNL d   1       2.358   1.174   0.418  0.00  0.00     0.123 C 
ATOM      5  N   UNL d   1       3.469   1.508   0.519  0.00  0.00    -0.190 NA
ENDROOT
BRANCH   1   6
ATOM      6  C   UNL d   1       0.213   0.178   1.420  0.00  0.00     0.220 C 
ATOM      7  O   UNL d   1       0.262   0.780   2.486  0.00  0.00    -0.284 OA
BRANCH   6   8
ATOM      8  C   UNL d   1      -0.614  -1.045   1.257  0.00  0.00     0.017 A 
ATOM      9  C   UNL d   1      -0.382  -1.975   0.234  0.00  0.00     0.017 A 
ATOM     10  C   UNL d   1      -1.199  -3.105   0.118  0.00  0.00     0.025 A 
ATOM     11  C   UNL d   1      -2.240  -3.308   1.022  0.00  0.00     0.034 A 
ATOM     12  C   UNL d   1      -2.472  -2.393   2.047  0.00  0.00     0.025 A 
ATOM     13 CL   UNL d   1      -3.244  -4.696   0.871  0.00  0.00    -0.084 Cl
ATOM     14  C   UNL d   1      -1.657  -1.266   2.171  0.00  0.00     0.017 A 
ENDBRANCH   6   8
ENDBRANCH   1   6
BRANCH   2  15
ATOM     15  N   UNL d   1       1.137   1.252  -1.972  0.00  0.00    -0.300 N 
ATOM     16  H   UNL d   1       1.933   0.686  -2.277  0.00  0.00     0.187 HD
BRANCH  15  17
ATOM     17  C   UNL d   1       0.377   1.712  -3.074  0.00  0.00     0.048 A 
ATOM     18  C   UNL d   1      -0.868   2.333  -2.902  0.00  0.00     0.034 A 
ATOM     19  C   UNL d   1      -1.563   2.884  -3.987  0.00  0.00     0.039 A 
ATOM     20  C   UNL d   1      -1.000   2.850  -5.260  0.00  0.00     0.078 A 
ATOM     21  C   UNL d   1       0.219   2.196  -5.447  0.00  0.00     0.039 A 
ATOM     22  C   UNL d   1       0.913   1.651  -4.364  0.00  0.00     0.034 A 
BRANCH  20  23
ATOM     23  O   UNL d   1      -1.534   3.386  -6.391  0.00  0.00    -0.255 OA
BRANCH  23  24
ATOM     24  C   UNL d   1      -2.377   4.523  -6.283  0.00  0.00     0.530 C 
ATOM     25  F   UNL d   1      -2.246   5.195  -5.120  0.00  0.00    -0.144 F 
ATOM     26  F   UNL d   1      -2.068   5.377  -7.286  0.00  0.00    -0.144 F 
ATOM     27  F   UNL d   1      -3.665   4.148  -6.434  0.00  0.00    -0.144 F 
ENDBRANCH  23  24
ENDBRANCH  20  23
ENDBRANCH  15  17
ENDBRANCH   2  15
TORSDOF 6
