REMARK  3 active torsions:
REMARK  status: ('A' for Active; 'I' for Inactive)
REMARK       I    between atoms: C_3  and  N_4 
REMARK    1  A    between atoms: C_13  and  C_3 
REMARK    2  A    between atoms: N_4  and  C_5 
REMARK    3  A    between atoms: S_12  and  C_13 
ROOT
ATOM      1  C   UNL d   1      -1.565  -1.056  -0.368  0.00  0.00     0.074 A 
ATOM      2  C   UNL d   1      -2.489  -0.009  -0.342  0.00  0.00     0.056 A 
ATOM      3  C   UNL d   1      -2.090   1.278   0.033  0.00  0.00     0.036 A 
ATOM      4  C   UNL d   1      -0.240  -0.822  -0.015  0.00  0.00     0.138 A 
ATOM      5  C   UNL d   1       0.177   0.455   0.344  0.00  0.00     0.046 A 
ATOM      6 CL   UNL d   1      -2.080  -2.628  -0.848  0.00  0.00    -0.081 Cl
ATOM      7  C   UNL d   1      -0.744   1.507   0.357  0.00  0.00     0.032 A 
ATOM      8  F   UNL d   1       0.659  -1.817  -0.019  0.00  0.00    -0.204 F 
ENDROOT
BRANCH   3   9
ATOM      9  N   UNL d   1      -2.970   2.378   0.085  0.00  0.00    -0.326 N 
ATOM     10  C   UNL d   1      -4.352   2.338   0.000  0.00  0.00     0.231 C 
ATOM     11  O   UNL d   1      -5.045   1.322  -0.023  0.00  0.00    -0.272 OA
ATOM     12  H   UNL d   1      -2.552   3.296   0.204  0.00  0.00     0.169 HD
BRANCH  10  13
ATOM     13  C   UNL d   1      -5.003   3.711  -0.036  0.00  0.00     0.176 C 
BRANCH  13  14
ATOM     14  S   UNL d   1      -4.506   4.636  -1.525  0.00  0.00    -0.164 SA
ATOM     15  C   UNL d   1      -5.132   3.494  -2.790  0.00  0.00     0.090 C 
ENDBRANCH  13  14
ENDBRANCH  10  13
ENDBRANCH   3   9
TORSDOF 3
