REMARK  4 active torsions:
REMARK  status: ('A' for Active; 'I' for Inactive)
REMARK    1  A    between atoms: S_14  and  C_5 
REMARK    2  A    between atoms: C_9  and  C_6 
REMARK       I    between atoms: N_13  and  C_9 
REMARK    3  A    between atoms: C_17  and  N_13 
REMARK    4  A    between atoms: C_26  and  S_14 
ROOT
ATOM      1  C   UNL d   1      -0.152  -0.574  -0.783  0.00  0.00     0.051 C 
ATOM      2  C   UNL d   1      -0.062   0.712  -0.259  0.00  0.00     0.135 C 
ATOM      3  N   UNL d   1       2.049   0.087  -0.802  0.00  0.00    -0.301 N 
ATOM      4  HN  UNL d   1       3.060   0.108  -0.939  1.00  0.00     0.187 HD
ATOM      5  C   UNL d   1      -1.427  -1.170  -0.800  0.00  0.00     0.034 C 
ATOM      6  C   UNL d   1      -2.314  -0.662   0.153  0.00  0.00     0.065 C 
ATOM      7  N   UNL d   1       1.237   1.101  -0.432  0.00  0.00    -0.280 N 
ATOM      8  C   UNL d   1       1.214  -0.954  -0.946  0.00  0.00     0.037 C 
ATOM      9  N   UNL d   1      -1.045   1.409   0.348  0.00  0.00    -0.349 N 
ATOM     10  HN  UNL d   1      -0.985   2.402   0.573  1.00  0.00     0.167 HD
ATOM     11  C   UNL d   1      -2.122   0.633   0.621  0.00  0.00     0.108 C 
ATOM     12  C   UNL d   1       1.805   2.381  -0.095  0.00  0.00     0.179 C 
ATOM     13  C   UNL d   1       1.782  -2.330  -0.951  0.00  0.00     0.070 C 
ENDROOT
BRANCH   6  14
ATOM     14  C   UNL d   1      -3.343  -1.511   0.821  0.00  0.00     0.258 C 
ATOM     15  N   UNL d   1      -3.090  -2.873   0.781  0.00  0.00    -0.323 N 
ATOM     16  H   UNL d   1      -2.325  -3.175   0.184  0.00  0.00     0.169 HD
ATOM     17  O   UNL d   1      -4.281  -0.959   1.380  0.00  0.00    -0.267 OA
BRANCH  15  18
ATOM     18  C   UNL d   1      -3.800  -3.918   1.387  0.00  0.00     0.036 A 
ATOM     19  C   UNL d   1      -4.851  -3.713   2.292  0.00  0.00     0.056 A 
ATOM     20  C   UNL d   1      -5.500  -4.812   2.861  0.00  0.00     0.074 A 
ATOM     21 CL   UNL d   1      -6.779  -4.548   3.980  0.00  0.00    -0.081 Cl
ATOM     22  C   UNL d   1      -5.107  -6.108   2.526  0.00  0.00     0.138 A 
ATOM     23  C   UNL d   1      -4.064  -6.321   1.632  0.00  0.00     0.046 A 
ATOM     24  F   UNL d   1      -5.724  -7.171   3.062  0.00  0.00    -0.204 F 
ATOM     25  C   UNL d   1      -3.412  -5.229   1.068  0.00  0.00     0.032 A 
ENDBRANCH  15  18
ENDBRANCH   6  14
BRANCH   5  26
ATOM     26  S   UNL d   1      -1.804  -2.493  -1.930  0.00  0.00    -0.124 SA
BRANCH  26  27
ATOM     27  C   UNL d   1      -3.251  -1.795  -2.918  0.00  0.00     0.044 C 
ATOM     28  C   UNL d   1      -3.692  -2.854  -3.935  0.00  0.00     0.021 C 
ATOM     29  C   UNL d   1      -4.489  -1.383  -2.117  0.00  0.00     0.021 C 
ENDBRANCH  26  27
ENDBRANCH   5  26
TORSDOF 4
