REMARK  1 active torsions:
REMARK  status: ('A' for Active; 'I' for Inactive)
REMARK    1  A    between atoms: C_7  and  C_1 
REMARK       I    between atoms: N_9  and  C_7 
ROOT
ATOM      1  C   UNL d   1       0.051  -1.614   0.034  0.00  0.00     0.149 A 
ATOM      2  O   UNL d   1       0.004   1.312   0.099  0.00  0.00    -0.310 OA
ATOM      3  C   UNL d   1      -1.223  -0.796   0.005  0.00  0.00    -0.007 A 
ATOM      4  C   UNL d   1       1.297  -0.757   0.007  0.00  0.00    -0.007 A 
ATOM      5  C   UNL d   1      -1.166   0.598   0.042  0.00  0.00     0.083 A 
ATOM      6  C   UNL d   1       1.196   0.635   0.052  0.00  0.00     0.083 A 
ATOM      7  C   UNL d   1      -2.479  -1.424  -0.048  0.00  0.00     0.011 A 
ATOM      8  C   UNL d   1       2.573  -1.343  -0.058  0.00  0.00     0.011 A 
ATOM      9  C   UNL d   1       2.346   1.429   0.056  0.00  0.00     0.038 A 
ATOM     10  C   UNL d   1      -2.340   1.355   0.034  0.00  0.00     0.038 A 
ATOM     11  C   UNL d   1       3.721  -0.548  -0.051  0.00  0.00     0.001 A 
ATOM     12  C   UNL d   1      -3.651  -0.666  -0.046  0.00  0.00     0.001 A 
ATOM     13  C   UNL d   1       3.607   0.839   0.010  0.00  0.00     0.003 A 
ATOM     14  C   UNL d   1      -3.582   0.725  -0.006  0.00  0.00     0.003 A 
ENDROOT
BRANCH   1  15
ATOM     15  C   UNL d   1       0.065  -2.572   1.234  0.00  0.00     0.228 C 
ATOM     16  O   UNL d   1       0.131  -3.795   1.116  0.00  0.00    -0.273 OA
ATOM     17  N   UNL d   1       0.006  -2.005   2.477  0.00  0.00    -0.369 N 
ATOM     18  H   UNL d   1      -0.084  -1.005   2.610  0.00  0.00     0.159 HD
ATOM     19  H   UNL d   1      -0.003  -2.612   3.284  0.00  0.00     0.159 HD
ENDBRANCH   1  15
TORSDOF 1
