REMARK  3 active torsions:
REMARK  status: ('A' for Active; 'I' for Inactive)
REMARK    1  A    between atoms: O_3  and  N_1 
REMARK    2  A    between atoms: S_2  and  O_3 
REMARK    3  A    between atoms: C_7  and  S_2 
ROOT
ATOM      1  S   UNL d   1       1.567   2.894   0.189  0.00  0.00     0.319 S 
ATOM      2  O   UNL d   1       2.479   2.642  -0.909  0.00  0.00    -0.191 OA
ATOM      3  O   UNL d   1       1.153   4.248   0.508  0.00  0.00    -0.191 OA
ENDROOT
BRANCH   1   4
ATOM      4  O   UNL d   1       0.220   1.991  -0.027  0.00  0.00    -0.133 OA
BRANCH   4   5
ATOM      5  N   UNL d   1      -0.570   2.478  -1.062  0.00  0.00    -0.116 N 
ATOM      6  C   UNL d   1      -0.579   1.923  -2.298  0.00  0.00     0.351 C 
ATOM      7  N   UNL d   1      -1.621   2.500  -3.008  0.00  0.00    -0.332 N 
ATOM      8  O   UNL d   1       0.116   1.020  -2.731  0.00  0.00    -0.244 OA
ATOM      9  C   UNL d   1      -2.452   3.300  -2.144  0.00  0.00     0.230 C 
ATOM     10  H   UNL d   1      -1.880   2.143  -3.920  0.00  0.00     0.164 HD
ATOM     11  C   UNL d   1      -1.716   3.166  -0.817  0.00  0.00     0.271 C 
ATOM     12  O   UNL d   1      -2.133   3.568   0.259  0.00  0.00    -0.269 OA
ENDBRANCH   4   5
ENDBRANCH   1   4
BRANCH   1  13
ATOM     13  C   UNL d   1       2.337   2.223   1.645  0.00  0.00     0.088 A 
ATOM     14  C   UNL d   1       2.162   0.878   1.981  0.00  0.00     0.026 A 
ATOM     15  C   UNL d   1       2.792   0.371   3.121  0.00  0.00     0.008 A 
ATOM     16  C   UNL d   1       3.589   1.199   3.926  0.00  0.00    -0.062 A 
ATOM     17  C   UNL d   1       3.743   2.548   3.581  0.00  0.00     0.008 A 
ATOM     18  C   UNL d   1       4.290   0.629   5.126  0.00  0.00     0.048 C 
ATOM     19  C   UNL d   1       3.115   3.063   2.446  0.00  0.00     0.026 A 
ENDBRANCH   1  13
TORSDOF 3
