REMARK  4 active torsions:
REMARK  status: ('A' for Active; 'I' for Inactive)
REMARK    1  A    between atoms: C_2  and  C_1 
REMARK       I    between atoms: N_6  and  C_2 
REMARK    2  A    between atoms: C_3  and  N_5 
REMARK    3  A    between atoms: S_14  and  C_4 
REMARK    4  A    between atoms: N_5  and  N_6 
ROOT
ATOM      1  C   UNL d   1       1.048   2.600   1.001  0.00  0.00     0.269 C 
ATOM      2  N   UNL d   1       0.129   3.577   1.360  0.00  0.00    -0.282 N 
ATOM      3  O   UNL d   1       2.255   2.756   1.186  0.00  0.00    -0.266 OA
ATOM      4  H   UNL d   1      -0.842   3.570   1.060  0.00  0.00     0.184 HD
ENDROOT
BRANCH   2   5
ATOM      5  N   UNL d   1       0.682   4.849   1.625  0.00  0.00    -0.201 NA
ATOM      6  H   UNL d   1       1.689   4.732   1.806  0.00  0.00     0.153 HD
BRANCH   5   7
ATOM      7  C   UNL d   1       0.045   5.583   2.660  0.00  0.00     0.051 A 
ATOM      8  C   UNL d   1       0.874   6.363   3.496  0.00  0.00     0.050 A 
ATOM      9  C   UNL d   1       0.334   7.204   4.473  0.00  0.00     0.035 A 
ATOM     10 CL   UNL d   1       1.379   8.131   5.477  0.00  0.00    -0.084 Cl
ATOM     11  C   UNL d   1      -1.042   7.310   4.628  0.00  0.00     0.026 A 
ATOM     12  C   UNL d   1      -1.885   6.574   3.796  0.00  0.00     0.027 A 
ATOM     13  C   UNL d   1      -1.351   5.728   2.812  0.00  0.00     0.057 A 
ATOM     14 CL   UNL d   1      -2.496   4.938   1.776  0.00  0.00    -0.082 Cl
ENDBRANCH   5   7
ENDBRANCH   2   5
BRANCH   1  15
ATOM     15  C   UNL d   1       0.531   1.409   0.287  0.00  0.00     0.066 A 
ATOM     16  C   UNL d   1       1.068   0.132   0.493  0.00  0.00     0.085 A 
ATOM     17  N   UNL d   1       0.729  -0.925  -0.295  0.00  0.00    -0.360 N 
ATOM     18  C   UNL d   1      -0.163  -0.722  -1.288  0.00  0.00     0.089 A 
ATOM     19  HN  UNL d   1       1.138  -1.847  -0.139  1.00  0.00     0.166 HD
ATOM     20  C   UNL d   1      -0.784   0.490  -1.522  0.00  0.00     0.018 A 
ATOM     21  C   UNL d   1      -0.425   1.575  -0.726  0.00  0.00     0.021 A 
BRANCH  16  22
ATOM     22  S   UNL d   1       2.089  -0.270   1.911  0.00  0.00    -0.116 SA
ATOM     23  C   UNL d   1       2.988  -1.711   1.285  0.00  0.00     0.097 C 
ENDBRANCH  16  22
ENDBRANCH   1  15
TORSDOF 4
