REMARK  5 active torsions:
REMARK  status: ('A' for Active; 'I' for Inactive)
REMARK    1  A    between atoms: C_17  and  C_4 
REMARK    2  A    between atoms: C_11  and  N_16 
REMARK    3  A    between atoms: N_16  and  C_12 
REMARK    4  A    between atoms: O_19  and  C_13 
REMARK    5  A    between atoms: O_20  and  C_14 
ROOT
ATOM      1  C   UNL d   1       0.376  -0.760   0.026  0.00  0.00     0.126 A 
ATOM      2  N   UNL d   1       1.556  -0.072   0.054  0.00  0.00    -0.330 N 
ATOM      3  HN  UNL d   1       2.507  -0.436   0.115  1.00  0.00     0.168 HD
ATOM      4  C   UNL d   1       1.163   1.158  -0.017  0.00  0.00     0.162 A 
ATOM      5  O   UNL d   1      -0.172   1.391  -0.073  0.00  0.00    -0.255 OA
ATOM      6  C   UNL d   1      -0.773   0.172  -0.054  0.00  0.00     0.318 A 
ATOM      7  C   UNL d   1       0.265  -2.087   0.047  0.00  0.00     0.142 C 
ATOM      8  O   UNL d   1      -1.964  -0.071  -0.099  0.00  0.00    -0.257 OA
ENDROOT
BRANCH   7   9
ATOM      9  N   UNL d   1      -0.850  -2.880  -0.009  0.00  0.00    -0.199 N 
ATOM     10  H   UNL d   1      -1.767  -2.458  -0.108  0.00  0.00     0.183 HD
BRANCH   9  11
ATOM     11  C   UNL d   1      -0.862  -4.265   0.079  0.00  0.00     0.686 A 
ATOM     12  N   UNL d   1       0.296  -4.907   0.265  0.00  0.00    -0.170 N 
ATOM     13  C   UNL d   1       0.262  -6.241   0.356  0.00  0.00     0.161 A 
ATOM     14  HN  UNL d   1       1.176  -4.396   0.336  1.00  0.00     0.186 HD
ATOM     15  C   UNL d   1      -0.889  -6.971   0.265  0.00  0.00     0.113 A 
ATOM     16  C   UNL d   1      -2.025  -6.225   0.074  0.00  0.00     0.161 A 
ATOM     17  N   UNL d   1      -2.041  -4.883  -0.020  0.00  0.00    -0.170 N 
ATOM     18  HN  UNL d   1      -2.909  -4.365  -0.160  1.00  0.00     0.186 HD
BRANCH  13  19
ATOM     19  O   UNL d   1       1.446  -6.925   0.550  0.00  0.00    -0.340 OA
ATOM     20  C   UNL d   1       2.571  -6.047   0.639  0.00  0.00     0.211 C 
ENDBRANCH  13  19
BRANCH  16  21
ATOM     21  O   UNL d   1      -3.211  -6.928  -0.024  0.00  0.00    -0.340 OA
ATOM     22  C   UNL d   1      -4.344  -6.082  -0.211  0.00  0.00     0.211 C 
ENDBRANCH  16  21
ENDBRANCH   9  11
ENDBRANCH   7   9
BRANCH   4  23
ATOM     23  C   UNL d   1       2.020   2.348  -0.078  0.00  0.00     0.015 A 
ATOM     24  C   UNL d   1       3.409   2.178  -0.124  0.00  0.00     0.016 A 
ATOM     25  C   UNL d   1       4.243   3.290  -0.242  0.00  0.00     0.001 A 
ATOM     26  C   UNL d   1       3.692   4.569  -0.309  0.00  0.00     0.000 A 
ATOM     27  C   UNL d   1       2.310   4.742  -0.247  0.00  0.00     0.001 A 
ATOM     28  C   UNL d   1       1.471   3.633  -0.130  0.00  0.00     0.016 A 
ENDBRANCH   4  23
TORSDOF 5
