REMARK  4 active torsions:
REMARK  status: ('A' for Active; 'I' for Inactive)
REMARK    1  A    between atoms: C_2  and  C_1 
REMARK       I    between atoms: N_3  and  C_2 
REMARK       I    between atoms: C_4  and  N_3 
REMARK       I    between atoms: N_10  and  C_4 
REMARK    2  A    between atoms: O_22  and  C_5 
REMARK    3  A    between atoms: O_21  and  C_6 
REMARK    4  A    between atoms: C_14  and  N_10 
ROOT
ATOM      1  C   UNL d   1       0.083  -3.733  -0.561  0.00  0.00     0.265 C 
ATOM      2  N   UNL d   1       1.076  -3.739  -1.531  0.00  0.00    -0.275 N 
ATOM      3  C   UNL d   1       1.949  -4.763  -1.776  0.00  0.00     0.327 C 
ATOM      4  N   UNL d   1       1.385  -5.996  -1.967  0.00  0.00    -0.309 N 
ATOM      5  O   UNL d   1      -0.560  -4.723  -0.225  0.00  0.00    -0.267 OA
ATOM      6  O   UNL d   1       3.140  -4.483  -1.870  0.00  0.00    -0.247 OA
ATOM      7  H   UNL d   1       1.617  -2.882  -1.570  0.00  0.00     0.173 HD
ATOM      8  H   UNL d   1       0.454  -6.115  -1.578  0.00  0.00     0.170 HD
ENDROOT
BRANCH   1   9
ATOM      9  C   UNL d   1      -0.181  -2.356  -0.008  0.00  0.00     0.102 A 
ATOM     10  C   UNL d   1       0.925  -1.565   0.367  0.00  0.00     0.108 A 
ATOM     11  C   UNL d   1       0.752  -0.221   0.692  0.00  0.00     0.070 A 
ATOM     12 CL   UNL d   1       2.094   0.819   0.998  0.00  0.00    -0.081 Cl
ATOM     13  C   UNL d   1      -0.526   0.319   0.720  0.00  0.00     0.053 A 
ATOM     14  C   UNL d   1      -1.643  -0.472   0.411  0.00  0.00     0.070 A 
ATOM     15  C   UNL d   1      -1.492  -1.827   0.046  0.00  0.00     0.108 A 
ATOM     16 CL   UNL d   1      -3.142   0.394   0.407  0.00  0.00    -0.081 Cl
BRANCH  10  17
ATOM     17  O   UNL d   1       2.200  -2.072   0.284  0.00  0.00    -0.353 OA
ATOM     18  C   UNL d   1       2.570  -2.710   1.511  0.00  0.00     0.210 C 
ENDBRANCH  10  17
BRANCH  15  19
ATOM     19  O   UNL d   1      -2.479  -2.667  -0.392  0.00  0.00    -0.353 OA
ATOM     20  C   UNL d   1      -3.794  -2.537   0.132  0.00  0.00     0.210 C 
ENDBRANCH  15  19
ENDBRANCH   1   9
BRANCH   4  21
ATOM     21  C   UNL d   1       1.963  -7.056  -2.702  0.00  0.00     0.038 A 
ATOM     22  C   UNL d   1       3.180  -6.938  -3.387  0.00  0.00     0.055 A 
ATOM     23  C   UNL d   1       3.642  -7.963  -4.221  0.00  0.00     0.058 A 
ATOM     24 CL   UNL d   1       5.130  -7.704  -5.064  0.00  0.00    -0.082 Cl
ATOM     25  C   UNL d   1       2.890  -9.128  -4.370  0.00  0.00     0.055 A 
ATOM     26  C   UNL d   1       1.694  -9.271  -3.661  0.00  0.00     0.028 A 
ATOM     27 CL   UNL d   1       3.367 -10.410  -5.424  0.00  0.00    -0.083 Cl
ATOM     28  C   UNL d   1       1.234  -8.241  -2.830  0.00  0.00     0.031 A 
ENDBRANCH   4  21
TORSDOF 4
