REMARK  9 active torsions:
REMARK  status: ('A' for Active; 'I' for Inactive)
REMARK    1  A    between atoms: C_2  and  S_1 
REMARK    2  A    between atoms: N_3  and  S_1 
REMARK    3  A    between atoms: C_14  and  N_3 
REMARK    4  A    between atoms: C_4  and  C_11 
REMARK    5  A    between atoms: C_5  and  C_13 
REMARK    6  A    between atoms: O_10  and  C_9 
REMARK    7  A    between atoms: C_11  and  O_10 
REMARK    8  A    between atoms: O_22  and  C_12 
REMARK    9  A    between atoms: C_13  and  O_22 
ROOT
ATOM      1  C   UNL d   1       0.361  -1.078   1.143  0.00  0.00     0.115 A 
ATOM      2  C   UNL d   1       0.574  -2.443   0.841  0.00  0.00     0.065 A 
ATOM      3  C   UNL d   1      -0.128  -0.714   2.400  0.00  0.00     0.092 A 
ATOM      4  C   UNL d   1       0.374  -3.429   1.806  0.00  0.00     0.070 A 
ATOM      5  C   UNL d   1      -0.279  -1.715   3.374  0.00  0.00     0.041 A 
ATOM      6  C   UNL d   1      -0.019  -3.054   3.085  0.00  0.00     0.039 A 
ENDROOT
BRANCH   1   7
ATOM      7  S   UNL d   1       1.038   0.087  -0.022  0.00  0.00     0.266 S 
ATOM      8  O   UNL d   1       2.113  -0.555  -0.746  0.00  0.00    -0.200 OA
ATOM      9  O   UNL d   1       1.286   1.343   0.645  0.00  0.00    -0.200 OA
BRANCH   7  10
ATOM     10  N   UNL d   1      -0.238   0.370  -1.090  0.00  0.00    -0.281 N 
ATOM     11  H   UNL d   1      -0.310   1.338  -1.401  0.00  0.00     0.179 HD
BRANCH  10  12
ATOM     12  C   UNL d   1      -0.661  -0.666  -1.959  0.00  0.00     0.042 A 
ATOM     13  C   UNL d   1      -1.948  -1.173  -1.784  0.00  0.00     0.032 A 
ATOM     14  C   UNL d   1      -2.374  -2.266  -2.537  0.00  0.00     0.026 A 
ATOM     15  C   UNL d   1      -1.519  -2.829  -3.483  0.00  0.00     0.034 A 
ATOM     16  C   UNL d   1      -0.265  -2.268  -3.722  0.00  0.00     0.026 A 
ATOM     17 CL   UNL d   1      -2.003  -4.242  -4.334  0.00  0.00    -0.084 Cl
ATOM     18  C   UNL d   1       0.159  -1.169  -2.970  0.00  0.00     0.032 A 
ENDBRANCH  10  12
ENDBRANCH   7  10
ENDBRANCH   1   7
BRANCH   3  19
ATOM     19  O   UNL d   1      -0.347   0.541   2.882  0.00  0.00    -0.341 OA
BRANCH  19  20
ATOM     20  C   UNL d   1      -1.343   1.347   2.233  0.00  0.00     0.293 C 
BRANCH  20  21
ATOM     21  C   UNL d   1      -2.779   0.831   2.215  0.00  0.00     0.408 C 
ATOM     22  F   UNL d   1      -2.990  -0.221   3.030  0.00  0.00    -0.169 F 
ATOM     23  F   UNL d   1      -3.641   1.808   2.585  0.00  0.00    -0.169 F 
ATOM     24  F   UNL d   1      -3.131   0.454   0.961  0.00  0.00    -0.169 F 
ENDBRANCH  20  21
ENDBRANCH  19  20
ENDBRANCH   3  19
BRANCH   4  25
ATOM     25  O   UNL d   1       0.640  -4.759   1.640  0.00  0.00    -0.342 OA
BRANCH  25  26
ATOM     26  C   UNL d   1       0.371  -5.300   0.340  0.00  0.00     0.293 C 
BRANCH  26  27
ATOM     27  C   UNL d   1       0.551  -6.818   0.323  0.00  0.00     0.408 C 
ATOM     28  F   UNL d   1       0.921  -7.322   1.520  0.00  0.00    -0.169 F 
ATOM     29  F   UNL d   1      -0.598  -7.436  -0.039  0.00  0.00    -0.169 F 
ATOM     30  F   UNL d   1       1.498  -7.178  -0.577  0.00  0.00    -0.169 F 
ENDBRANCH  26  27
ENDBRANCH  25  26
ENDBRANCH   4  25
TORSDOF 9
