REMARK  2 active torsions:
REMARK  status: ('A' for Active; 'I' for Inactive)
REMARK    1  A    between atoms: C_6  and  C_3 
REMARK    2  A    between atoms: C_9  and  C_4 
ROOT
ATOM      1  N   UNL d   1       1.381  -0.614   0.027  0.00  0.00    -0.348 N 
ATOM      2  HN  UNL d   1       2.260  -1.131   0.064  1.00  0.00     0.166 HD
ATOM      3  C   UNL d   1       0.182  -1.169   0.005  0.00  0.00     0.091 A 
ATOM      4  C   UNL d   1       1.279   0.771  -0.007  0.00  0.00     0.050 A 
ATOM      5  S   UNL d   1      -1.126  -0.048  -0.020  0.00  0.00    -0.081 SA
ATOM      6  C   UNL d   1      -0.015   1.250  -0.011  0.00  0.00     0.082 A 
ENDROOT
BRANCH   4   7
ATOM      7  C   UNL d   1       2.462   1.627  -0.014  0.00  0.00    -0.009 A 
ATOM      8  C   UNL d   1       2.437   2.905  -0.599  0.00  0.00     0.017 A 
ATOM      9  C   UNL d   1       3.579   3.712  -0.594  0.00  0.00     0.043 A 
ATOM     10  C   UNL d   1       4.747   3.242  -0.009  0.00  0.00     0.116 A 
ATOM     11  C   UNL d   1       4.798   1.980   0.569  0.00  0.00     0.043 A 
ATOM     12  F   UNL d   1       5.840   4.016  -0.005  0.00  0.00    -0.206 F 
ATOM     13  C   UNL d   1       3.657   1.171   0.563  0.00  0.00     0.017 A 
ENDBRANCH   4   7
BRANCH   3  14
ATOM     14  C   UNL d   1       0.008  -2.606   0.008  0.00  0.00     0.038 A 
ATOM     15  S   UNL d   1      -1.529  -3.378  -0.046  0.00  0.00    -0.099 SA
ATOM     16  C   UNL d   1      -0.839  -4.939  -0.005  0.00  0.00     0.050 A 
ATOM     17  C   UNL d   1       0.535  -4.892   0.045  0.00  0.00     0.008 A 
ATOM     18  C   UNL d   1       1.021  -3.551   0.049  0.00  0.00     0.022 A 
ENDBRANCH   3  14
TORSDOF 2
