REMARK  9 active torsions:
REMARK  status: ('A' for Active; 'I' for Inactive)
REMARK    1  A    between atoms: C_11  and  N_1 
REMARK    2  A    between atoms: C_16  and  C_4 
REMARK    3  A    between atoms: C_13  and  C_6 
REMARK    4  A    between atoms: C_9  and  C_11 
REMARK    5  A    between atoms: C_17  and  C_13 
REMARK    6  A    between atoms: O_21  and  C_16 
REMARK    7  A    between atoms: O_22  and  C_17 
REMARK    8  A    between atoms: C_25  and  O_21 
REMARK    9  A    between atoms: C_26  and  O_22 
ROOT
ATOM      1  N   UNL d   1       2.405  -0.661   0.001  0.00  0.00    -0.251 N 
ATOM      2  N   UNL d   1       2.410   0.713   0.033  0.00  0.00    -0.298 N 
ATOM      3  HN  UNL d   1       3.294   1.221   0.067  1.00  0.00     0.187 HD
ATOM      4  C   UNL d   1       1.252  -1.437   0.013  0.00  0.00     0.273 A 
ATOM      5  C   UNL d   1       1.285   1.359   0.019  0.00  0.00     0.046 A 
ATOM      6  C   UNL d   1      -0.031  -0.707  -0.008  0.00  0.00     0.046 A 
ATOM      7  C   UNL d   1      -0.033   0.683  -0.040  0.00  0.00     0.004 A 
ATOM      8  O   UNL d   1       1.245  -2.664   0.031  0.00  0.00    -0.266 OA
ATOM      9  C   UNL d   1      -1.241  -1.417  -0.017  0.00  0.00     0.018 A 
ATOM     10  C   UNL d   1      -1.254   1.368  -0.120  0.00  0.00     0.014 A 
ATOM     11  C   UNL d   1      -2.454  -0.731  -0.067  0.00  0.00     0.001 A 
ATOM     12  C   UNL d   1      -2.459   0.660  -0.123  0.00  0.00     0.001 A 
ENDROOT
BRANCH   1  13
ATOM     13  C   UNL d   1       3.716  -1.312  -0.024  0.00  0.00     0.217 C 
BRANCH  13  14
ATOM     14  C   UNL d   1       4.208  -1.548  -1.430  0.00  0.00     0.071 A 
ATOM     15  N   UNL d   1       4.601  -2.721  -1.891  0.00  0.00    -0.347 N 
ATOM     16  C   UNL d   1       5.057  -2.614  -3.210  0.00  0.00     0.115 A 
ATOM     17  HN  UNL d   1       4.575  -3.590  -1.357  1.00  0.00     0.166 HD
ATOM     18  C   UNL d   1       5.016  -1.325  -3.710  0.00  0.00     0.087 A 
ATOM     19  S   UNL d   1       4.405  -0.240  -2.537  0.00  0.00    -0.084 SA
BRANCH  16  20
ATOM     20  C   UNL d   1       5.495  -3.766  -3.993  0.00  0.00     0.310 C 
ATOM     21  O   UNL d   1       5.876  -3.675  -5.155  0.00  0.00    -0.258 OA
BRANCH  20  22
ATOM     22  O   UNL d   1       5.369  -4.939  -3.309  0.00  0.00    -0.317 OA
BRANCH  22  23
ATOM     23  C   UNL d   1       5.452  -6.129  -4.101  0.00  0.00     0.175 C 
ATOM     24  C   UNL d   1       4.071  -6.443  -4.647  0.00  0.00     0.034 C 
ENDBRANCH  22  23
ENDBRANCH  20  22
ENDBRANCH  16  20
ENDBRANCH  13  14
ENDBRANCH   1  13
BRANCH   5  25
ATOM     25  C   UNL d   1       1.378   2.869   0.023  0.00  0.00     0.170 C 
BRANCH  25  26
ATOM     26  C   UNL d   1       0.745   3.543   1.206  0.00  0.00     0.264 C 
ATOM     27  O   UNL d   1       0.205   2.975   2.144  0.00  0.00    -0.265 OA
BRANCH  26  28
ATOM     28  O   UNL d   1       0.765   4.892   1.008  0.00  0.00    -0.322 OA
BRANCH  28  29
ATOM     29  C   UNL d   1      -0.135   5.657   1.822  0.00  0.00     0.174 C 
ATOM     30  C   UNL d   1      -1.424   5.838   1.040  0.00  0.00     0.034 C 
ENDBRANCH  28  29
ENDBRANCH  26  28
ENDBRANCH  25  26
ENDBRANCH   5  25
TORSDOF 9
