REMARK  4 active torsions:
REMARK  status: ('A' for Active; 'I' for Inactive)
REMARK    1  A    between atoms: C_2  and  S_1 
REMARK    2  A    between atoms: C_4  and  S_1 
REMARK    3  A    between atoms: N_3  and  C_2 
REMARK       I    between atoms: C_8  and  N_10 
REMARK    4  A    between atoms: N_10  and  C_14 
ROOT
ATOM      1  C   UNL d   1       0.401   1.513  -0.847  0.00  0.00     0.061 A 
ATOM      2  C   UNL d   1      -0.709   1.483  -1.694  0.00  0.00     0.026 A 
ATOM      3  C   UNL d   1       1.053   2.713  -0.577  0.00  0.00     0.026 A 
ATOM      4  C   UNL d   1      -0.462   3.876  -2.083  0.00  0.00     0.034 A 
ATOM      5  C   UNL d   1      -1.133   2.665  -2.314  0.00  0.00     0.031 A 
ATOM      6  C   UNL d   1       0.618   3.887  -1.196  0.00  0.00     0.031 A 
ENDROOT
BRANCH   1   7
ATOM      7  S   UNL d   1       1.001  -0.003  -0.120  0.00  0.00     0.198 S 
ATOM      8  O   UNL d   1       2.147   0.350   0.693  0.00  0.00    -0.221 OA
ATOM      9  O   UNL d   1      -0.165  -0.640   0.458  0.00  0.00    -0.221 OA
BRANCH   7  10
ATOM     10  C   UNL d   1       1.541  -0.894  -1.535  0.00  0.00     0.346 C 
BRANCH  10  11
ATOM     11  N   UNL d   1       2.086  -2.167  -1.040  0.00  0.00    -0.141 N 
ATOM     12  O   UNL d   1       3.306  -2.224  -0.847  0.00  0.00    -0.536 OA
ATOM     13  O   UNL d   1       1.302  -3.121  -0.951  0.00  0.00    -0.536 OA
ENDBRANCH  10  11
ENDBRANCH   7  10
ENDBRANCH   1   7
BRANCH   4  14
ATOM     14  N   UNL d   1      -0.917   5.024  -2.772  0.00  0.00    -0.328 N 
ATOM     15  C   UNL d   1      -0.361   6.291  -2.727  0.00  0.00     0.218 C 
ATOM     16  O   UNL d   1       0.609   6.642  -2.063  0.00  0.00    -0.274 OA
ATOM     17  C   UNL d   1      -1.059   7.291  -3.614  0.00  0.00     0.117 C 
ATOM     18  H   UNL d   1      -1.717   4.893  -3.378  0.00  0.00     0.169 HD
ENDBRANCH   4  14
TORSDOF 4
