REMARK  4 active torsions:
REMARK  status: ('A' for Active; 'I' for Inactive)
REMARK    1  A    between atoms: C_9  and  C_2 
REMARK    2  A    between atoms: S_13  and  C_5 
REMARK    3  A    between atoms: C_11  and  C_12 
REMARK    4  A    between atoms: C_19  and  S_13 
ROOT
ATOM      1  N   UNL d   1      -0.927  -6.172  -1.590  0.00  0.00    -0.197 NA
ATOM      2  C   UNL d   1      -1.069  -5.051  -1.289  0.00  0.00     0.069 C 
ATOM      3  C   UNL d   1      -1.255  -3.625  -0.911  0.00  0.00     0.206 C 
ENDROOT
BRANCH   3   4
ATOM      4  S   UNL d   1       0.344  -2.741  -0.824  0.00  0.00    -0.078 SA
BRANCH   4   5
ATOM      5  C   UNL d   1      -0.131  -1.145  -0.346  0.00  0.00     0.163 A 
ATOM      6  N   UNL d   1       0.648  -0.030  -0.541  0.00  0.00    -0.315 N 
ATOM      7  C   UNL d   1      -0.105   1.045  -0.102  0.00  0.00     0.134 A 
ATOM      8  C   UNL d   1       1.994  -0.016  -1.057  0.00  0.00     0.160 C 
ATOM      9  N   UNL d   1      -1.218   0.560   0.429  0.00  0.00    -0.283 N 
ATOM     10  N   UNL d   1      -1.243  -0.807   0.257  0.00  0.00    -0.278 N 
ATOM     11  HN  UNL d   1      -1.941   1.111   0.891  1.00  0.00     0.188 HD
ATOM     12  HN  UNL d   1      -1.990  -1.438   0.546  1.00  0.00     0.189 HD
BRANCH   7  13
ATOM     13  C   UNL d   1       0.252   2.469  -0.159  0.00  0.00     0.009 A 
ATOM     14  C   UNL d   1       0.916   3.040  -1.249  0.00  0.00     0.016 A 
ATOM     15  C   UNL d   1       1.285   4.393  -1.246  0.00  0.00     0.009 A 
ATOM     16  C   UNL d   1       0.970   5.241  -0.170  0.00  0.00    -0.051 A 
ATOM     17  C   UNL d   1       0.248   4.675   0.892  0.00  0.00     0.009 A 
ATOM     18  C   UNL d   1      -0.104   3.315   0.897  0.00  0.00     0.016 A 
BRANCH  16  19
ATOM     19  C   UNL d   1       1.421   6.714  -0.183  0.00  0.00    -0.024 C 
ATOM     20  C   UNL d   1       0.938   7.519   1.045  0.00  0.00     0.019 C 
ATOM     21  C   UNL d   1       2.964   6.779  -0.196  0.00  0.00     0.019 C 
ATOM     22  C   UNL d   1       0.880   7.432  -1.438  0.00  0.00     0.019 C 
ENDBRANCH  16  19
ENDBRANCH   7  13
ENDBRANCH   4   5
ENDBRANCH   3   4
TORSDOF 4
