REMARK  6 active torsions:
REMARK  status: ('A' for Active; 'I' for Inactive)
REMARK    1  A    between atoms: C_6  and  C_1 
REMARK    2  A    between atoms: C_9  and  C_3 
REMARK    3  A    between atoms: O_12  and  C_3 
REMARK    4  A    between atoms: C_10  and  C_5 
REMARK    5  A    between atoms: O_13  and  C_6 
REMARK    6  A    between atoms: C_18  and  O_13 
ROOT
ATOM      1  C   UNL d   1      -0.819  -1.117   0.176  0.00  0.00     0.188 C 
ATOM      2  C   UNL d   1       1.250   0.393   0.024  0.00  0.00     0.151 C 
ATOM      3  C   UNL d   1       0.736  -1.105   0.204  0.00  0.00     0.124 C 
ATOM      4  S   UNL d   1      -1.380   0.591   0.493  0.00  0.00    -0.140 SA
ATOM      5  C   UNL d   1       0.059   1.327  -0.318  0.00  0.00     0.102 C 
ATOM      6  C   UNL d   1       2.333   0.564  -0.996  0.00  0.00     0.069 C 
ATOM      7  N   UNL d   1       3.096   0.724  -1.853  0.00  0.00    -0.197 NA
ENDROOT
BRANCH   3   8
ATOM      8  C   UNL d   1       1.287  -1.740   1.497  0.00  0.00    -0.021 A 
ATOM      9  C   UNL d   1       1.012  -1.185   2.762  0.00  0.00     0.010 A 
ATOM     10  C   UNL d   1       1.476  -1.785   3.937  0.00  0.00     0.001 A 
ATOM     11  C   UNL d   1       2.228  -2.953   3.876  0.00  0.00     0.000 A 
ATOM     12  C   UNL d   1       2.510  -3.527   2.641  0.00  0.00     0.001 A 
ATOM     13  C   UNL d   1       2.043  -2.929   1.466  0.00  0.00     0.010 A 
ENDBRANCH   3   8
BRANCH   3  14
ATOM     14  O   UNL d   1       1.182  -1.928  -0.895  0.00  0.00    -0.382 OA
ATOM     15  H   UNL d   1       1.183  -1.439  -1.735  0.00  0.00     0.211 HD
ENDBRANCH   3  14
BRANCH   5  16
ATOM     16  C   UNL d   1      -0.229   1.624  -1.785  0.00  0.00    -0.043 A 
ATOM     17  C   UNL d   1      -0.156   2.954  -2.234  0.00  0.00     0.008 A 
ATOM     18  C   UNL d   1      -0.401   3.282  -3.572  0.00  0.00     0.001 A 
ATOM     19  C   UNL d   1      -0.728   2.291  -4.491  0.00  0.00     0.000 A 
ATOM     20  C   UNL d   1      -0.798   0.969  -4.075  0.00  0.00     0.001 A 
ATOM     21  C   UNL d   1      -0.542   0.640  -2.741  0.00  0.00     0.008 A 
ENDBRANCH   5  16
BRANCH   1  22
ATOM     22  C   UNL d   1      -1.571  -2.157   0.990  0.00  0.00     0.276 C 
ATOM     23  O   UNL d   1      -1.833  -3.279   0.566  0.00  0.00    -0.264 OA
BRANCH  22  24
ATOM     24  O   UNL d   1      -2.034  -1.651   2.166  0.00  0.00    -0.321 OA
BRANCH  24  25
ATOM     25  C   UNL d   1      -3.236  -2.246   2.667  0.00  0.00     0.174 C 
ATOM     26  C   UNL d   1      -4.418  -1.534   2.027  0.00  0.00     0.034 C 
ENDBRANCH  24  25
ENDBRANCH  22  24
ENDBRANCH   1  22
TORSDOF 6
