REMARK  4 active torsions:
REMARK  status: ('A' for Active; 'I' for Inactive)
REMARK    1  A    between atoms: C_8  and  C_4 
REMARK    2  A    between atoms: C_9  and  C_8 
REMARK    3  A    between atoms: O_13  and  C_9 
REMARK    4  A    between atoms: C_16  and  O_13 
ROOT
ATOM      1  N   UNL d   1       2.398  -0.665  -0.066  0.00  0.00    -0.299 N 
ATOM      2  HN  UNL d   1       3.293  -1.152  -0.116  1.00  0.00     0.187 HD
ATOM      3  N   UNL d   1       2.354   0.701  -0.025  0.00  0.00    -0.261 N 
ATOM      4  C   UNL d   1       1.285  -1.338  -0.040  0.00  0.00     0.046 A 
ATOM      5  C   UNL d   1       1.186   1.451   0.032  0.00  0.00     0.272 A 
ATOM      6  C   UNL d   1      -0.078   0.692   0.018  0.00  0.00     0.046 A 
ATOM      7  C   UNL d   1      -0.046  -0.699   0.015  0.00  0.00     0.004 A 
ATOM      8  O   UNL d   1       1.158   2.679   0.078  0.00  0.00    -0.266 OA
ATOM      9  C   UNL d   1       3.628   1.393  -0.073  0.00  0.00     0.181 C 
ATOM     10  C   UNL d   1      -1.302   1.373  -0.008  0.00  0.00     0.018 A 
ATOM     11  C   UNL d   1      -1.249  -1.417   0.029  0.00  0.00     0.014 A 
ATOM     12  C   UNL d   1      -2.497   0.656  -0.039  0.00  0.00     0.001 A 
ATOM     13  C   UNL d   1      -2.470  -0.737  -0.010  0.00  0.00     0.001 A 
ENDROOT
BRANCH   4  14
ATOM     14  C   UNL d   1       1.413  -2.846  -0.080  0.00  0.00     0.170 C 
BRANCH  14  15
ATOM     15  C   UNL d   1       1.607  -3.415   1.295  0.00  0.00     0.264 C 
ATOM     16  O   UNL d   1       1.097  -2.961   2.313  0.00  0.00    -0.265 OA
BRANCH  15  17
ATOM     17  O   UNL d   1       2.433  -4.493   1.235  0.00  0.00    -0.322 OA
BRANCH  17  18
ATOM     18  C   UNL d   1       3.037  -4.872   2.478  0.00  0.00     0.174 C 
ATOM     19  C   UNL d   1       4.322  -4.080   2.637  0.00  0.00     0.034 C 
ENDBRANCH  17  18
ENDBRANCH  15  17
ENDBRANCH  14  15
ENDBRANCH   4  14
TORSDOF 4
