REMARK  6 active torsions:
REMARK  status: ('A' for Active; 'I' for Inactive)
REMARK    1  A    between atoms: C_7  and  C_4 
REMARK    2  A    between atoms: C_8  and  C_5 
REMARK    3  A    between atoms: C_13  and  C_6 
REMARK    4  A    between atoms: O_18  and  C_7 
REMARK    5  A    between atoms: O_19  and  C_8 
REMARK    6  A    between atoms: O_23  and  C_20 
ROOT
ATOM      1  S   UNL d   1       0.893   1.507  -0.422  0.00  0.00     0.171 S 
ATOM      2  S   UNL d   1       0.879  -1.423  -0.324  0.00  0.00     0.171 S 
ATOM      3  C   UNL d   1       1.746   0.054   0.068  0.00  0.00     0.281 C 
ATOM      4  C   UNL d   1      -0.718  -1.242   0.423  0.00  0.00     0.218 C 
ATOM      5  C   UNL d   1      -0.776   1.355   0.177  0.00  0.00     0.218 C 
ATOM      6  C   UNL d   1      -1.458  -0.002  -0.119  0.00  0.00     0.075 C 
ATOM      7  O   UNL d   1       1.518   2.599   0.309  0.00  0.00    -0.226 OA
ATOM      8  O   UNL d   1       0.876   1.537  -1.867  0.00  0.00    -0.226 OA
ATOM      9  O   UNL d   1       0.678  -1.492  -1.758  0.00  0.00    -0.226 OA
ATOM     10  O   UNL d   1       1.559  -2.520   0.344  0.00  0.00    -0.226 OA
ENDROOT
BRANCH   6  11
ATOM     11  C   UNL d   1      -2.912  -0.051   0.374  0.00  0.00    -0.050 A 
ATOM     12  C   UNL d   1      -3.302   0.518   1.597  0.00  0.00     0.010 A 
ATOM     13  C   UNL d   1      -4.634   0.478   2.010  0.00  0.00     0.037 A 
ATOM     14  C   UNL d   1      -5.587  -0.140   1.214  0.00  0.00     0.065 A 
ATOM     15  C   UNL d   1      -5.228  -0.729   0.008  0.00  0.00     0.037 A 
ATOM     16  C   UNL d   1      -3.892  -0.688  -0.409  0.00  0.00     0.010 A 
BRANCH  14  17
ATOM     17  O   UNL d   1      -6.874  -0.143   1.661  0.00  0.00    -0.361 OA
ATOM     18  H   UNL d   1      -7.436  -0.576   0.997  0.00  0.00     0.217 HD
ENDBRANCH  14  17
ENDBRANCH   6  11
BRANCH   4  19
ATOM     19  C   UNL d   1      -0.500  -1.216   1.906  0.00  0.00     0.278 C 
ATOM     20  O   UNL d   1       0.055  -0.279   2.472  0.00  0.00    -0.264 OA
BRANCH  19  21
ATOM     21  O   UNL d   1      -0.983  -2.319   2.524  0.00  0.00    -0.325 OA
ATOM     22  C   UNL d   1      -0.731  -2.376   3.933  0.00  0.00     0.213 C 
ENDBRANCH  19  21
ENDBRANCH   4  19
BRANCH   5  23
ATOM     23  C   UNL d   1      -1.534   2.497  -0.461  0.00  0.00     0.278 C 
ATOM     24  O   UNL d   1      -2.114   2.438  -1.536  0.00  0.00    -0.264 OA
BRANCH  23  25
ATOM     25  O   UNL d   1      -1.523   3.584   0.361  0.00  0.00    -0.325 OA
ATOM     26  C   UNL d   1      -2.215   4.726  -0.150  0.00  0.00     0.213 C 
ENDBRANCH  23  25
ENDBRANCH   5  23
TORSDOF 6
