REMARK  3 active torsions:
REMARK  status: ('A' for Active; 'I' for Inactive)
REMARK    1  A    between atoms: C_8  and  C_1 
REMARK    2  A    between atoms: S_14  and  C_4 
REMARK    3  A    between atoms: C_12  and  C_5 
ROOT
ATOM      1  C   UNL d   1      -0.720   1.089  -0.050  0.00  0.00     0.118 A 
ATOM      2  N   UNL d   1      -1.429  -0.035   0.094  0.00  0.00    -0.336 N 
ATOM      3  HN  UNL d   1      -2.447  -0.014   0.150  1.00  0.00     0.168 HD
ATOM      4  C   UNL d   1      -0.750  -1.200   0.161  0.00  0.00     0.084 A 
ATOM      5  C   UNL d   1       0.633  -1.276   0.092  0.00  0.00     0.065 A 
ATOM      6  N   UNL d   1       0.623   1.118  -0.109  0.00  0.00    -0.345 N 
ATOM      7  HN  UNL d   1       1.125   2.001  -0.203  1.00  0.00     0.167 HD
ATOM      8  C   UNL d   1       1.292  -0.062  -0.040  0.00  0.00     0.023 A 
ATOM      9  C   UNL d   1       2.787   0.086  -0.081  0.00  0.00     0.069 C 
ENDROOT
BRANCH   1  10
ATOM     10  C   UNL d   1      -1.432   2.377  -0.022  0.00  0.00     0.030 A 
ATOM     11  C   UNL d   1      -2.698   2.591  -0.607  0.00  0.00     0.049 A 
ATOM     12  C   UNL d   1      -3.344   3.833  -0.504  0.00  0.00     0.048 A 
ATOM     13 CL   UNL d   1      -3.527   1.383  -1.535  0.00  0.00    -0.083 Cl
ATOM     14  C   UNL d   1      -2.734   4.883   0.171  0.00  0.00     0.035 A 
ATOM     15  C   UNL d   1      -1.480   4.714   0.738  0.00  0.00     0.025 A 
ATOM     16 CL   UNL d   1      -3.531   6.401   0.292  0.00  0.00    -0.084 Cl
ATOM     17  C   UNL d   1      -0.837   3.476   0.640  0.00  0.00     0.018 A 
ENDBRANCH   1  10
BRANCH   4  18
ATOM     18  S   UNL d   1      -1.837  -2.586   0.410  0.00  0.00    -0.124 SA
ATOM     19  H   UNL d   1      -2.951  -1.864   0.213  0.00  0.00     0.108 HD
ENDBRANCH   4  18
BRANCH   5  20
ATOM     20  C   UNL d   1       1.378  -2.546   0.217  0.00  0.00     0.160 C 
ATOM     21  O   UNL d   1       2.280  -2.625   1.044  0.00  0.00    -0.293 OA
ATOM     22  C   UNL d   1       1.044  -3.696  -0.699  0.00  0.00     0.097 C 
ENDBRANCH   5  20
TORSDOF 3
