REMARK  3 active torsions:
REMARK  status: ('A' for Active; 'I' for Inactive)
REMARK    1  A    between atoms: N_2  and  S_1 
REMARK    2  A    between atoms: C_4  and  S_1 
REMARK       I    between atoms: C_3  and  N_2 
REMARK       I    between atoms: N_5  and  C_3 
REMARK    3  A    between atoms: N_6  and  N_5 
ROOT
ATOM      1  N   UNL d   1       0.033  -0.466   1.583  0.00  0.00    -0.231 N 
ATOM      2  C   UNL d   1       0.647  -1.307   2.503  0.00  0.00     0.344 C 
ATOM      3  N   UNL d   1       1.704  -2.087   2.071  0.00  0.00    -0.270 N 
ATOM      4  O   UNL d   1       0.178  -1.339   3.633  0.00  0.00    -0.245 OA
ATOM      5  H   UNL d   1      -0.735   0.078   1.965  0.00  0.00     0.183 HD
ATOM      6  H   UNL d   1       2.126  -1.905   1.167  0.00  0.00     0.185 HD
ENDROOT
BRANCH   1   7
ATOM      7  S   UNL d   1       0.587   0.122   0.149  0.00  0.00     0.266 S 
ATOM      8  O   UNL d   1       2.013   0.323   0.288  0.00  0.00    -0.200 OA
ATOM      9  O   UNL d   1      -0.302   1.194  -0.230  0.00  0.00    -0.200 OA
BRANCH   7  10
ATOM     10  C   UNL d   1       0.351  -1.185  -1.027  0.00  0.00     0.080 A 
ATOM     11  C   UNL d   1      -0.821  -1.943  -1.035  0.00  0.00     0.026 A 
ATOM     12  C   UNL d   1      -1.022  -2.875  -2.059  0.00  0.00     0.008 A 
ATOM     13  C   UNL d   1      -0.062  -3.048  -3.070  0.00  0.00    -0.062 A 
ATOM     14  C   UNL d   1       1.131  -2.319  -3.014  0.00  0.00     0.008 A 
ATOM     15  C   UNL d   1      -0.343  -3.959  -4.230  0.00  0.00     0.048 C 
ATOM     16  C   UNL d   1       1.341  -1.392  -1.993  0.00  0.00     0.026 A 
ENDBRANCH   7  10
ENDBRANCH   1   7
BRANCH   3  17
ATOM     17  N   UNL d   1       2.334  -3.064   2.889  0.00  0.00    -0.227 NA
ATOM     18  C   UNL d   1       3.075  -2.476   4.008  0.00  0.00     0.113 C 
ATOM     19  C   UNL d   1       4.394  -3.222   4.228  0.00  0.00     0.016 C 
ATOM     20  C   UNL d   1       4.286  -4.584   4.909  0.00  0.00     0.001 C 
ATOM     21  C   UNL d   1       3.317  -5.570   4.262  0.00  0.00     0.001 C 
ATOM     22  C   UNL d   1       1.866  -5.111   4.359  0.00  0.00     0.016 C 
ATOM     23  C   UNL d   1       1.428  -4.169   3.233  0.00  0.00     0.113 C 
ENDBRANCH   3  17
TORSDOF 3
