REMARK  7 active torsions:
REMARK  status: ('A' for Active; 'I' for Inactive)
REMARK    1  A    between atoms: N_12  and  C_3 
REMARK    2  A    between atoms: C_6  and  C_4 
REMARK    3  A    between atoms: S_10  and  C_5 
REMARK    4  A    between atoms: O_13  and  C_6 
REMARK    5  A    between atoms: C_14  and  S_10 
REMARK    6  A    between atoms: C_22  and  O_13 
REMARK    7  A    between atoms: C_16  and  C_14 
ROOT
ATOM      1  N   UNL d   1       0.407  -1.109   0.103  0.00  0.00    -0.327 N 
ATOM      2  HN  UNL d   1       0.985  -1.949   0.102  1.00  0.00     0.169 HD
ATOM      3  C   UNL d   1       0.967   0.116   0.126  0.00  0.00     0.097 A 
ATOM      4  C   UNL d   1       0.204   1.266   0.138  0.00  0.00     0.092 A 
ATOM      5  C   UNL d   1      -0.936  -1.195   0.083  0.00  0.00     0.145 A 
ATOM      6  N   UNL d   1      -1.763  -0.139   0.073  0.00  0.00    -0.346 N 
ATOM      7  HN  UNL d   1      -2.777  -0.244   0.039  1.00  0.00     0.167 HD
ATOM      8  C   UNL d   1      -1.165   1.076   0.111  0.00  0.00     0.111 A 
ENDROOT
BRANCH   5   9
ATOM      9  S   UNL d   1      -1.598  -2.836   0.208  0.00  0.00    -0.089 SA
BRANCH   9  10
ATOM     10  C   UNL d   1      -3.182  -2.658  -0.669  0.00  0.00     0.121 C 
BRANCH  10  11
ATOM     11  C   UNL d   1      -3.910  -3.991  -0.718  0.00  0.00    -0.048 A 
ATOM     12  C   UNL d   1      -4.816  -4.348   0.294  0.00  0.00     0.009 A 
ATOM     13  C   UNL d   1      -5.457  -5.590   0.270  0.00  0.00     0.024 A 
ATOM     14  C   UNL d   1      -5.194  -6.488  -0.761  0.00  0.00     0.034 A 
ATOM     15  C   UNL d   1      -4.293  -6.154  -1.769  0.00  0.00     0.024 A 
ATOM     16 CL   UNL d   1      -5.982  -8.017  -0.789  0.00  0.00    -0.084 Cl
ATOM     17  C   UNL d   1      -3.651  -4.911  -1.747  0.00  0.00     0.009 A 
ENDBRANCH  10  11
ENDBRANCH   9  10
ENDBRANCH   5   9
BRANCH   3  18
ATOM     18  N   UNL d   1       2.352   0.114   0.236  0.00  0.00    -0.288 NA
ATOM     19  H   UNL d   1       2.691  -0.841   0.121  0.00  0.00     0.125 HD
ATOM     20  H   UNL d   1       2.803   0.775  -0.391  0.00  0.00     0.125 HD
ENDBRANCH   3  18
BRANCH   4  21
ATOM     21  C   UNL d   1       0.714   2.643   0.132  0.00  0.00     0.298 C 
ATOM     22  O   UNL d   1       0.065   3.591   0.546  0.00  0.00    -0.259 OA
BRANCH  21  23
ATOM     23  O   UNL d   1       1.881   2.710  -0.560  0.00  0.00    -0.318 OA
BRANCH  23  24
ATOM     24  C   UNL d   1       2.261   4.023  -1.003  0.00  0.00     0.174 C 
ATOM     25  C   UNL d   1       1.634   4.258  -2.366  0.00  0.00     0.034 C 
ENDBRANCH  23  24
ENDBRANCH  21  23
ENDBRANCH   4  21
TORSDOF 7
