REMARK  1 active torsions:
REMARK  status: ('A' for Active; 'I' for Inactive)
REMARK    1  A    between atoms: N_2  and  C_3 
ROOT
ATOM      1  C   UNL d   1       1.332  -0.615   1.151  0.00  0.00     0.070 A 
ATOM      2  C   UNL d   1       1.501  -1.420   0.009  0.00  0.00     0.103 A 
ATOM      3  S   UNL d   1       1.175  -1.075   2.805  0.00  0.00    -0.096 SA
ATOM      4  C   UNL d   1       1.232   0.766   1.012  0.00  0.00     0.060 A 
ATOM      5  C   UNL d   1       1.027   1.438   2.268  0.00  0.00    -0.027 A 
ATOM      6  C   UNL d   1       0.991   0.537   3.315  0.00  0.00     0.059 A 
ATOM      7  N   UNL d   1       1.544  -0.796  -1.190  0.00  0.00    -0.342 N 
ATOM      8  HN  UNL d   1       1.640  -1.332  -2.053  1.00  0.00     0.167 HD
ATOM      9  N   UNL d   1       1.307   1.381  -0.195  0.00  0.00    -0.351 N 
ATOM     10  HN  UNL d   1       1.254   2.393  -0.306  1.00  0.00     0.166 HD
ATOM     11  C   UNL d   1       1.456   0.542  -1.224  0.00  0.00     0.182 A 
ATOM     12  C   UNL d   1       0.858   2.909   2.435  0.00  0.00     0.051 C 
ENDROOT
BRANCH   2  13
ATOM     13  N   UNL d   1       1.536  -2.812   0.090  0.00  0.00    -0.263 NA
ATOM     14  C   UNL d   1       1.052  -3.526  -1.105  0.00  0.00     0.128 C 
ATOM     15  C   UNL d   1       0.907  -5.020  -0.731  0.00  0.00     0.131 C 
ATOM     16  C   UNL d   1       0.431  -5.847  -1.915  0.00  0.00     0.040 C 
ATOM     17  O   UNL d   1       2.170  -5.565  -0.287  0.00  0.00    -0.379 OA
ATOM     18  C   UNL d   1       2.663  -4.841   0.860  0.00  0.00     0.131 C 
ATOM     19  C   UNL d   1       2.842  -3.341   0.531  0.00  0.00     0.128 C 
ATOM     20  C   UNL d   1       3.980  -5.475   1.282  0.00  0.00     0.040 C 
ENDBRANCH   2  13
TORSDOF 1
