REMARK  4 active torsions:
REMARK  status: ('A' for Active; 'I' for Inactive)
REMARK    1  A    between atoms: C_7  and  O_9 
REMARK    2  A    between atoms: C_11  and  C_7 
REMARK    3  A    between atoms: O_9  and  C_12 
REMARK    4  A    between atoms: O_23  and  C_18 
ROOT
ATOM      1  C   UNL d   1      -0.614   2.153  -0.152  0.00  0.00     0.299 C 
ATOM      2  C   UNL d   1       1.401   0.739  -0.065  0.00  0.00     0.093 A 
ATOM      3  O   UNL d   1       0.762   1.982  -0.276  0.00  0.00    -0.274 OA
ATOM      4  C   UNL d   1       0.643  -0.408   0.178  0.00  0.00     0.009 A 
ATOM      5  C   UNL d   1      -0.814  -0.336   0.071  0.00  0.00    -0.007 A 
ATOM      6  C   UNL d   1      -1.432   0.917  -0.035  0.00  0.00     0.051 A 
ATOM      7  C   UNL d   1       2.801   0.728  -0.082  0.00  0.00     0.075 A 
ATOM      8  C   UNL d   1       1.343  -1.567   0.535  0.00  0.00     0.018 A 
ATOM      9  C   UNL d   1       3.469  -0.466   0.204  0.00  0.00     0.082 A 
ATOM     10  O   UNL d   1      -1.130   3.266  -0.175  0.00  0.00    -0.259 OA
ATOM     11  C   UNL d   1       2.740  -1.595   0.559  0.00  0.00     0.038 A 
ATOM     12  C   UNL d   1      -1.637  -1.478   0.036  0.00  0.00     0.013 A 
ATOM     13  C   UNL d   1      -2.833   1.026  -0.074  0.00  0.00     0.018 A 
ATOM     14  C   UNL d   1      -3.028  -1.372  -0.030  0.00  0.00     0.001 A 
ATOM     15  C   UNL d   1      -3.628  -0.119  -0.063  0.00  0.00     0.001 A 
ENDROOT
BRANCH   9  16
ATOM     16  O   UNL d   1       4.884  -0.438   0.101  0.00  0.00    -0.275 OA
BRANCH  16  17
ATOM     17  C   UNL d   1       5.703  -1.562   0.193  0.00  0.00     0.298 C 
ATOM     18  O   UNL d   1       5.363  -2.706   0.457  0.00  0.00    -0.259 OA
BRANCH  17  19
ATOM     19  C   UNL d   1       7.126  -1.214  -0.063  0.00  0.00     0.040 A 
ATOM     20  C   UNL d   1       8.079  -2.237   0.043  0.00  0.00     0.020 A 
ATOM     21  C   UNL d   1       9.438  -1.957  -0.114  0.00  0.00     0.038 A 
ATOM     22  C   UNL d   1       9.864  -0.655  -0.377  0.00  0.00     0.068 A 
ATOM     23  C   UNL d   1       8.914   0.356  -0.542  0.00  0.00     0.038 A 
ATOM     24  C   UNL d   1       7.549   0.080  -0.385  0.00  0.00     0.020 A 
BRANCH  22  25
ATOM     25  O   UNL d   1      11.220  -0.499  -0.448  0.00  0.00    -0.356 OA
ATOM     26  C   UNL d   1      11.707   0.838  -0.473  0.00  0.00     0.210 C 
ENDBRANCH  22  25
ENDBRANCH  17  19
ENDBRANCH  16  17
ENDBRANCH   9  16
TORSDOF 4
