REMARK  7 active torsions:
REMARK  status: ('A' for Active; 'I' for Inactive)
REMARK    1  A    between atoms: S_4  and  C_1 
REMARK    2  A    between atoms: C_7  and  C_2 
REMARK    3  A    between atoms: N_10  and  C_3 
REMARK    4  A    between atoms: C_11  and  S_4 
REMARK    5  A    between atoms: S_12  and  C_5 
REMARK    6  A    between atoms: O_14  and  C_7 
REMARK    7  A    between atoms: C_18  and  O_14 
ROOT
ATOM      1  C   UNL d   1      -0.657  -1.239   0.082  0.00  0.00     0.111 A 
ATOM      2  C   UNL d   1      -0.132   1.051   0.073  0.00  0.00     0.109 A 
ATOM      3  C   UNL d   1      -1.145   0.111   0.228  0.00  0.00     0.072 A 
ATOM      4  C   UNL d   1       0.734  -1.269  -0.007  0.00  0.00     0.065 A 
ATOM      5  S   UNL d   1       1.393   0.305  -0.046  0.00  0.00    -0.073 SA
ENDROOT
BRANCH   1   6
ATOM      6  S   UNL d   1      -1.583  -2.710   0.001  0.00  0.00     0.183 S 
ATOM      7  O   UNL d   1      -1.234  -3.280  -1.289  0.00  0.00    -0.222 OA
ATOM      8  O   UNL d   1      -1.238  -3.376   1.247  0.00  0.00    -0.222 OA
BRANCH   6   9
ATOM      9  C   UNL d   1      -3.339  -2.436   0.010  0.00  0.00     0.105 C 
ATOM     10  C   UNL d   1      -3.848  -1.720  -1.236  0.00  0.00     0.026 C 
ATOM     11  C   UNL d   1      -4.062  -3.784   0.130  0.00  0.00     0.026 C 
ENDBRANCH   6   9
ENDBRANCH   1   6
BRANCH   3  12
ATOM     12  N   UNL d   1      -2.423   0.519   0.431  0.00  0.00    -0.397 N 
ATOM     13  H   UNL d   1      -2.614   1.528   0.490  0.00  0.00     0.156 HD
ATOM     14  H   UNL d   1      -3.076   0.017   1.024  0.00  0.00     0.156 HD
ENDBRANCH   3  12
BRANCH   4  15
ATOM     15  S   UNL d   1       1.790  -2.685  -0.163  0.00  0.00    -0.126 SA
ATOM     16  C   UNL d   1       3.280  -2.202   0.735  0.00  0.00     0.096 C 
ENDBRANCH   4  15
BRANCH   2  17
ATOM     17  C   UNL d   1      -0.263   2.499  -0.014  0.00  0.00     0.302 C 
ATOM     18  O   UNL d   1      -1.329   3.109   0.036  0.00  0.00    -0.259 OA
BRANCH  17  19
ATOM     19  O   UNL d   1       0.946   3.090  -0.241  0.00  0.00    -0.317 OA
BRANCH  19  20
ATOM     20  C   UNL d   1       0.918   4.407  -0.804  0.00  0.00     0.174 C 
ATOM     21  C   UNL d   1       0.899   4.266  -2.315  0.00  0.00     0.034 C 
ENDBRANCH  19  20
ENDBRANCH  17  19
ENDBRANCH   2  17
TORSDOF 7
