REMARK  7 active torsions:
REMARK  status: ('A' for Active; 'I' for Inactive)
REMARK    1  A    between atoms: C_12  and  C_2 
REMARK    2  A    between atoms: S_10  and  C_3 
REMARK       I    between atoms: C_8  and  N_11 
REMARK    3  A    between atoms: C_16  and  C_8 
REMARK    4  A    between atoms: C_9  and  C_22 
REMARK       I    between atoms: N_14  and  C_9 
REMARK    5  A    between atoms: C_22  and  S_10 
REMARK    6  A    between atoms: N_11  and  N_14 
REMARK    7  A    between atoms: C_13  and  C_12 
ROOT
ATOM      1  C   UNL d   1       2.091  -2.939  -0.225  0.00  0.00     0.186 C 
ENDROOT
BRANCH   1   2
ATOM      2  C   UNL d   1       2.565  -4.386  -0.185  0.00  0.00     0.245 C 
ATOM      3  N   UNL d   1       1.875  -5.296  -0.959  0.00  0.00    -0.267 N 
ATOM      4  H   UNL d   1       1.026  -5.076  -1.477  0.00  0.00     0.190 HD
ATOM      5  O   UNL d   1       3.578  -4.720   0.437  0.00  0.00    -0.271 OA
BRANCH   3   6
ATOM      6  N   UNL d   1       2.339  -6.618  -1.005  0.00  0.00    -0.263 N 
ATOM      7  C   UNL d   1       1.602  -7.565  -1.687  0.00  0.00     0.270 C 
ATOM      8  O   UNL d   1       0.532  -7.310  -2.238  0.00  0.00    -0.266 OA
ATOM      9  H   UNL d   1       3.128  -6.839  -0.401  0.00  0.00     0.190 HD
BRANCH   7  10
ATOM     10  C   UNL d   1       2.161  -8.946  -1.721  0.00  0.00     0.033 A 
ATOM     11  C   UNL d   1       1.275 -10.030  -1.799  0.00  0.00     0.019 A 
ATOM     12  C   UNL d   1       1.769 -11.339  -1.874  0.00  0.00     0.025 A 
ATOM     13  C   UNL d   1       3.145 -11.561  -1.888  0.00  0.00     0.034 A 
ATOM     14  C   UNL d   1       4.033 -10.488  -1.821  0.00  0.00     0.025 A 
ATOM     15 CL   UNL d   1       3.751 -13.166  -2.004  0.00  0.00    -0.084 Cl
ATOM     16  C   UNL d   1       3.545  -9.179  -1.736  0.00  0.00     0.019 A 
ENDBRANCH   7  10
ENDBRANCH   3   6
ENDBRANCH   1   2
BRANCH   1  17
ATOM     17  S   UNL d   1       0.279  -2.785  -0.237  0.00  0.00    -0.083 SA
BRANCH  17  18
ATOM     18  C   UNL d   1       0.093  -1.075  -0.019  0.00  0.00     0.162 A 
ATOM     19  N   UNL d   1      -1.120  -0.444   0.086  0.00  0.00    -0.319 N 
ATOM     20  C   UNL d   1      -0.836   0.876   0.358  0.00  0.00     0.104 A 
ATOM     21  C   UNL d   1      -2.422  -1.047  -0.036  0.00  0.00     0.159 C 
ATOM     22  N   UNL d   1       0.476   1.027   0.351  0.00  0.00    -0.286 N 
ATOM     23  N   UNL d   1       1.056  -0.195   0.113  0.00  0.00    -0.278 N 
ATOM     24  HN  UNL d   1       0.974   1.905   0.498  1.00  0.00     0.188 HD
ATOM     25  HN  UNL d   1       2.057  -0.383   0.050  1.00  0.00     0.189 HD
BRANCH  20  26
ATOM     26  C   UNL d   1      -1.838   1.941   0.676  0.00  0.00     0.117 C 
BRANCH  26  27
ATOM     27  C   UNL d   1      -2.393   2.634  -0.540  0.00  0.00    -0.044 A 
ATOM     28  C   UNL d   1      -3.741   2.775  -0.826  0.00  0.00     0.057 A 
ATOM     29  S   UNL d   1      -4.031   3.632  -2.278  0.00  0.00    -0.113 SA
ATOM     30  C   UNL d   1      -2.360   3.863  -2.538  0.00  0.00     0.050 A 
ATOM     31  C   UNL d   1      -1.600   3.295  -1.540  0.00  0.00     0.015 A 
ENDBRANCH  26  27
ENDBRANCH  20  26
ENDBRANCH  17  18
ENDBRANCH   1  17
TORSDOF 7
