REMARK  8 active torsions:
REMARK  status: ('A' for Active; 'I' for Inactive)
REMARK    1  A    between atoms: C_4  and  C_1 
REMARK    2  A    between atoms: C_9  and  C_2 
REMARK    3  A    between atoms: S_3  and  N_10 
REMARK    4  A    between atoms: C_17  and  S_3 
REMARK       I    between atoms: N_13  and  C_9 
REMARK    5  A    between atoms: N_10  and  N_13 
REMARK    6  A    between atoms: C_23  and  C_15 
REMARK    7  A    between atoms: O_24  and  C_23 
REMARK    8  A    between atoms: C_29  and  O_24 
ROOT
ATOM      1  C   UNL d   1      -0.011  -1.344   0.017  0.00  0.00     0.057 A 
ATOM      2  C   UNL d   1      -1.375  -0.897   0.066  0.00  0.00     0.139 A 
ATOM      3  N   UNL d   1      -1.396   0.451   0.117  0.00  0.00    -0.255 N 
ATOM      4  HN  UNL d   1      -2.226   1.043   0.155  1.00  0.00     0.195 HD
ATOM      5  O   UNL d   1      -0.090   0.876   0.108  0.00  0.00    -0.241 OA
ATOM      6  C   UNL d   1       0.742  -0.191   0.051  0.00  0.00     0.087 A 
ATOM      7  C   UNL d   1       2.184   0.116   0.012  0.00  0.00     0.080 C 
ENDROOT
BRANCH   2   8
ATOM      8  C   UNL d   1      -2.664  -1.615   0.126  0.00  0.00     0.290 C 
ATOM      9  N   UNL d   1      -2.604  -2.988   0.284  0.00  0.00    -0.255 N 
ATOM     10  H   UNL d   1      -1.725  -3.498   0.214  0.00  0.00     0.191 HD
ATOM     11  O   UNL d   1      -3.760  -1.046   0.117  0.00  0.00    -0.264 OA
BRANCH   9  12
ATOM     12  N   UNL d   1      -3.814  -3.760   0.457  0.00  0.00    -0.220 N 
ATOM     13  H   UNL d   1      -4.718  -3.276   0.447  0.00  0.00     0.200 HD
BRANCH  12  14
ATOM     14  S   UNL d   1      -3.748  -5.292   1.153  0.00  0.00     0.276 S 
ATOM     15  O   UNL d   1      -5.099  -5.798   1.263  0.00  0.00    -0.199 OA
ATOM     16  O   UNL d   1      -2.692  -6.045   0.510  0.00  0.00    -0.199 OA
BRANCH  14  17
ATOM     17  C   UNL d   1      -3.189  -4.905   2.797  0.00  0.00     0.081 A 
ATOM     18  C   UNL d   1      -3.993  -4.100   3.607  0.00  0.00     0.027 A 
ATOM     19  C   UNL d   1      -3.573  -3.791   4.901  0.00  0.00     0.025 A 
ATOM     20  C   UNL d   1      -2.361  -4.293   5.376  0.00  0.00     0.034 A 
ATOM     21  C   UNL d   1      -1.557  -5.097   4.565  0.00  0.00     0.025 A 
ATOM     22 CL   UNL d   1      -1.855  -3.924   6.978  0.00  0.00    -0.084 Cl
ATOM     23  C   UNL d   1      -1.969  -5.407   3.266  0.00  0.00     0.027 A 
ENDBRANCH  14  17
ENDBRANCH  12  14
ENDBRANCH   9  12
ENDBRANCH   2   8
BRANCH   1  24
ATOM     24  C   UNL d   1       0.484  -2.713  -0.080  0.00  0.00     0.054 A 
ATOM     25  N   UNL d   1      -0.319  -3.631  -0.721  0.00  0.00    -0.351 N 
ATOM     26  C   UNL d   1       0.268  -4.812  -0.778  0.00  0.00     0.075 A 
ATOM     27  HN  UNL d   1      -1.243  -3.426  -1.101  1.00  0.00     0.166 HD
ATOM     28  S   UNL d   1       1.785  -4.897   0.027  0.00  0.00    -0.084 SA
ATOM     29  C   UNL d   1       1.662  -3.227   0.419  0.00  0.00     0.082 A 
BRANCH  26  30
ATOM     30  C   UNL d   1      -0.357  -6.031  -1.393  0.00  0.00     0.240 C 
BRANCH  30  31
ATOM     31  O   UNL d   1       0.217  -6.218  -2.686  0.00  0.00    -0.345 OA
BRANCH  31  32
ATOM     32  C   UNL d   1      -0.377  -7.194  -3.445  0.00  0.00     0.069 A 
ATOM     33  C   UNL d   1      -1.237  -8.190  -2.971  0.00  0.00     0.037 A 
ATOM     34  C   UNL d   1      -1.746  -9.154  -3.845  0.00  0.00     0.003 A 
ATOM     35  C   UNL d   1      -1.404  -9.125  -5.195  0.00  0.00     0.000 A 
ATOM     36  C   UNL d   1      -0.559  -8.127  -5.675  0.00  0.00     0.003 A 
ATOM     37  C   UNL d   1      -0.046  -7.167  -4.801  0.00  0.00     0.037 A 
ENDBRANCH  31  32
ENDBRANCH  30  31
ENDBRANCH  26  30
ENDBRANCH   1  24
TORSDOF 8
