REMARK  5 active torsions:
REMARK  status: ('A' for Active; 'I' for Inactive)
REMARK    1  A    between atoms: C_9  and  C_3 
REMARK    2  A    between atoms: C_12  and  C_4 
REMARK    3  A    between atoms: C_6  and  C_11 
REMARK    4  A    between atoms: C_8  and  C_9 
REMARK    5  A    between atoms: N_21  and  C_10 
ROOT
ATOM      1  N   UNL d   1       1.440  -0.656   0.010  0.00  0.00    -0.346 N 
ATOM      2  HN  UNL d   1       2.333  -1.148   0.028  1.00  0.00     0.167 HD
ATOM      3  C   UNL d   1       1.301   0.735   0.027  0.00  0.00     0.090 A 
ATOM      4  C   UNL d   1       0.261  -1.248  -0.033  0.00  0.00     0.085 A 
ATOM      5  S   UNL d   1      -1.083  -0.173   0.013  0.00  0.00    -0.081 SA
ATOM      6  C   UNL d   1      -0.015   1.162   0.041  0.00  0.00     0.085 A 
ENDROOT
BRANCH   4   7
ATOM      7  C   UNL d   1       0.070  -2.708  -0.068  0.00  0.00    -0.002 A 
ATOM      8  C   UNL d   1       0.991  -3.537   0.592  0.00  0.00     0.015 A 
ATOM      9  C   UNL d   1       0.848  -4.929   0.578  0.00  0.00     0.017 A 
ATOM     10  C   UNL d   1      -0.217  -5.528  -0.106  0.00  0.00     0.048 A 
ATOM     11  C   UNL d   1      -1.131  -4.706  -0.782  0.00  0.00     0.017 A 
ATOM     12  C   UNL d   1      -0.988  -3.314  -0.763  0.00  0.00     0.015 A 
BRANCH  10  13
ATOM     13  C   UNL d   1      -0.394  -7.027  -0.128  0.00  0.00     0.417 C 
ATOM     14  F   UNL d   1       0.560  -7.700   0.574  0.00  0.00    -0.166 F 
ATOM     15  F   UNL d   1      -1.588  -7.416   0.400  0.00  0.00    -0.166 F 
ATOM     16  F   UNL d   1      -0.359  -7.538  -1.390  0.00  0.00    -0.166 F 
ENDBRANCH  10  13
ENDBRANCH   4   7
BRANCH   3  17
ATOM     17  C   UNL d   1       2.442   1.659   0.029  0.00  0.00     0.200 C 
ATOM     18  O   UNL d   1       2.314   2.879   0.039  0.00  0.00    -0.286 OA
BRANCH  17  19
ATOM     19  C   UNL d   1       3.769   0.983   0.015  0.00  0.00     0.074 C 
ATOM     20  C   UNL d   1       4.905   1.695   0.005  0.00  0.00     0.088 C 
BRANCH  20  21
ATOM     21  N   UNL d   1       6.226   1.260  -0.003  0.00  0.00    -0.398 N 
ATOM     22  C   UNL d   1       6.641  -0.142   0.007  0.00  0.00     0.148 C 
ATOM     23  C   UNL d   1       7.346   2.205   0.005  0.00  0.00     0.148 C 
ENDBRANCH  20  21
ENDBRANCH  17  19
ENDBRANCH   3  17
TORSDOF 5
