REMARK  2 active torsions:
REMARK  status: ('A' for Active; 'I' for Inactive)
REMARK    1  A    between atoms: C_4  and  C_1 
REMARK    2  A    between atoms: C_9  and  N_2 
ROOT
ATOM      1  N   UNL d   1       3.601   0.875  -0.280  0.00  0.00    -0.359 N 
ATOM      2  HN  UNL d   1       4.393   1.441  -0.585  1.00  0.00     0.166 HD
ATOM      3  C   UNL d   1       2.506   1.485   0.075  0.00  0.00     0.016 C 
ATOM      4  C   UNL d   1       1.227   0.806   0.515  0.00  0.00     0.069 C 
ENDROOT
BRANCH   1   5
ATOM      5  C   UNL d   1       3.745  -0.515  -0.265  0.00  0.00     0.032 A 
ATOM      6  C   UNL d   1       2.930  -1.377  -1.008  0.00  0.00     0.031 A 
ATOM      7  C   UNL d   1       3.148  -2.759  -0.984  0.00  0.00     0.026 A 
ATOM      8  C   UNL d   1       4.211  -3.279  -0.248  0.00  0.00     0.034 A 
ATOM      9  C   UNL d   1       5.058  -2.432   0.460  0.00  0.00     0.026 A 
ATOM     10 CL   UNL d   1       4.490  -4.977  -0.232  0.00  0.00    -0.084 Cl
ATOM     11  C   UNL d   1       4.821  -1.054   0.449  0.00  0.00     0.031 A 
ENDBRANCH   1   5
BRANCH   3  12
ATOM     12  C   UNL d   1       2.543   2.953   0.003  0.00  0.00    -0.007 A 
ATOM     13  C   UNL d   1       3.715   3.675  -0.157  0.00  0.00     0.062 A 
ATOM     14  S   UNL d   1       3.471   5.367  -0.179  0.00  0.00    -0.113 SA
ATOM     15  C   UNL d   1       1.786   5.177   0.011  0.00  0.00     0.050 A 
ATOM     16  C   UNL d   1       1.422   3.851   0.093  0.00  0.00     0.021 A 
ENDBRANCH   3  12
TORSDOF 2
