REMARK  3 active torsions:
REMARK  status: ('A' for Active; 'I' for Inactive)
REMARK    1  A    between atoms: C_2  and  S_1 
REMARK    2  A    between atoms: N_8  and  S_1 
REMARK    3  A    between atoms: C_5  and  N_8 
ROOT
ATOM      1  N   UNL d   1       0.545   1.622  -0.583  0.00  0.00    -0.179 NA
ATOM      2  H   UNL d   1      -0.457   1.611  -0.773  0.00  0.00     0.146 HD
ENDROOT
BRANCH   1   3
ATOM      3  C   UNL d   1       1.003   2.848   0.002  0.00  0.00     0.052 A 
ATOM      4  C   UNL d   1       2.236   3.457  -0.360  0.00  0.00     0.089 A 
ATOM      5  N   UNL d   1       3.136   2.993  -1.246  0.00  0.00    -0.309 N 
ATOM      6  C   UNL d   1       2.637   4.777   0.250  0.00  0.00     0.068 A 
ATOM      7  S   UNL d   1       4.350   4.125  -1.319  0.00  0.00     0.068 SA
ATOM      8  HN  UNL d   1       3.084   2.119  -1.769  1.00  0.00     0.176 HD
ATOM      9  N   UNL d   1       3.801   5.246  -0.223  0.00  0.00    -0.310 N 
ATOM     10  HN  UNL d   1       4.260   6.120   0.038  1.00  0.00     0.176 HD
ATOM     11  C   UNL d   1       1.819   5.414   1.214  0.00  0.00     0.032 A 
ATOM     12  C   UNL d   1       0.639   4.737   1.571  0.00  0.00     0.004 A 
ATOM     13  C   UNL d   1       0.248   3.504   0.993  0.00  0.00     0.027 A 
ENDBRANCH   1   3
BRANCH   1  14
ATOM     14  S   UNL d   1       0.927   0.192   0.229  0.00  0.00     0.248 S 
ATOM     15  O   UNL d   1       0.598   0.354   1.628  0.00  0.00    -0.205 OA
ATOM     16  O   UNL d   1       0.330  -0.873  -0.544  0.00  0.00    -0.205 OA
BRANCH  14  17
ATOM     17  C   UNL d   1       2.618  -0.128   0.140  0.00  0.00     0.105 A 
ATOM     18  C   UNL d   1       3.558   0.126   1.110  0.00  0.00     0.099 A 
ATOM     19  S   UNL d   1       5.122  -0.383   0.664  0.00  0.00    -0.064 SA
ATOM     20 CL   UNL d   1       3.388   0.863   2.655  0.00  0.00    -0.075 Cl
ATOM     21  C   UNL d   1       4.563  -0.918  -0.839  0.00  0.00     0.077 A 
ATOM     22  C   UNL d   1       3.218  -0.724  -1.020  0.00  0.00     0.058 A 
ATOM     23 CL   UNL d   1       5.658  -1.626  -1.954  0.00  0.00    -0.076 Cl
ENDBRANCH  14  17
ENDBRANCH   1  14
TORSDOF 3
