REMARK  0 active torsions:
REMARK  status: ('A' for Active; 'I' for Inactive)
ROOT
ATOM      1  N   UNL d   1       1.041  -1.331  -0.312  0.00  0.00    -0.325 N 
ATOM      2  C   UNL d   1       2.308  -0.863  -0.397  0.00  0.00     0.224 C 
ATOM      3  O   UNL d   1       0.541   1.616   0.384  0.00  0.00    -0.344 OA
ATOM      4  C   UNL d   1      -0.191  -0.706  -0.056  0.00  0.00     0.068 A 
ATOM      5  C   UNL d   1       2.662   0.561  -0.098  0.00  0.00     0.135 C 
ATOM      6  C   UNL d   1      -0.399   0.640   0.252  0.00  0.00     0.096 A 
ATOM      7  C   UNL d   1       1.641   1.591  -0.519  0.00  0.00     0.133 C 
ATOM      8  O   UNL d   1       3.201  -1.673  -0.674  0.00  0.00    -0.273 OA
ATOM      9  C   UNL d   1      -1.313  -1.552  -0.141  0.00  0.00     0.032 A 
ATOM     10  C   UNL d   1      -1.701   1.110   0.488  0.00  0.00     0.039 A 
ATOM     11  C   UNL d   1       1.240   1.595  -1.994  0.00  0.00     0.040 C 
ATOM     12  C   UNL d   1      -2.803   0.265   0.380  0.00  0.00     0.003 A 
ATOM     13  C   UNL d   1      -2.608  -1.072   0.064  0.00  0.00     0.002 A 
ATOM     14  H   UNL d   1       1.014  -2.324  -0.512  0.00  0.00     0.169 HD
ENDROOT
TORSDOF 0
