REMARK  1 active torsions:
REMARK  status: ('A' for Active; 'I' for Inactive)
REMARK    1  A    between atoms: C_12  and  N_4 
ROOT
ATOM      1  C   UNL d   1      -0.339   0.567   0.103  0.00  0.00     0.139 A 
ATOM      2  C   UNL d   1       0.682   1.597   0.093  0.00  0.00     0.296 A 
ATOM      3  C   UNL d   1      -0.022  -0.796   0.027  0.00  0.00     0.053 A 
ATOM      4  N   UNL d   1       1.995   1.059  -0.008  0.00  0.00    -0.219 N 
ATOM      5  N   UNL d   1       2.283  -0.321  -0.104  0.00  0.00    -0.294 N 
ATOM      6  HN  UNL d   1       3.253  -0.621  -0.206  1.00  0.00     0.187 HD
ATOM      7  N   UNL d   1      -1.659   0.766   0.178  0.00  0.00    -0.255 N 
ATOM      8  HN  UNL d   1      -2.149   1.659   0.242  1.00  0.00     0.195 HD
ATOM      9  C   UNL d   1       1.340  -1.219  -0.067  0.00  0.00     0.037 A 
ATOM     10  O   UNL d   1      -2.221  -0.501   0.150  0.00  0.00    -0.241 OA
ATOM     11  C   UNL d   1      -1.234  -1.442   0.061  0.00  0.00     0.087 A 
ATOM     12  O   UNL d   1       0.395   2.791   0.138  0.00  0.00    -0.264 OA
ATOM     13  C   UNL d   1       1.720  -2.671  -0.107  0.00  0.00     0.070 C 
ATOM     14  C   UNL d   1      -1.710  -2.836   0.021  0.00  0.00     0.080 C 
ENDROOT
BRANCH   4  15
ATOM     15  C   UNL d   1       3.175   1.877   0.028  0.00  0.00     0.060 A 
ATOM     16  C   UNL d   1       3.186   3.145   0.633  0.00  0.00     0.034 A 
ATOM     17  C   UNL d   1       4.353   3.916   0.677  0.00  0.00     0.044 A 
ATOM     18  C   UNL d   1       5.518   3.432   0.102  0.00  0.00     0.116 A 
ATOM     19  C   UNL d   1       5.542   2.186  -0.507  0.00  0.00     0.044 A 
ATOM     20  F   UNL d   1       6.633   4.174   0.139  0.00  0.00    -0.206 F 
ATOM     21  C   UNL d   1       4.380   1.408  -0.531  0.00  0.00     0.034 A 
ENDBRANCH   4  15
TORSDOF 1
