REMARK  7 active torsions:
REMARK  status: ('A' for Active; 'I' for Inactive)
REMARK    1  A    between atoms: C_10  and  C_1 
REMARK    2  A    between atoms: C_14  and  C_5 
REMARK    3  A    between atoms: S_16  and  C_9 
REMARK    4  A    between atoms: C_11  and  C_23 
REMARK       I    between atoms: N_15  and  C_11 
REMARK    5  A    between atoms: C_24  and  N_15 
REMARK    6  A    between atoms: C_23  and  S_16 
REMARK    7  A    between atoms: C_28  and  C_17 
ROOT
ATOM      1  N   UNL d   1       1.073   7.662  -1.488  0.00  0.00    -0.334 N 
ATOM      2  HN  UNL d   1       1.526   6.963  -2.076  1.00  0.00     0.168 HD
ATOM      3  C   UNL d   1      -0.137   7.460  -0.955  0.00  0.00     0.145 A 
ATOM      4  C   UNL d   1       1.661   8.844  -1.204  0.00  0.00     0.071 A 
ATOM      5  N   UNL d   1      -0.799   8.328  -0.179  0.00  0.00    -0.347 N 
ATOM      6  HN  UNL d   1      -1.722   8.116   0.202  1.00  0.00     0.167 HD
ATOM      7  C   UNL d   1       1.060   9.812  -0.428  0.00  0.00     0.049 A 
ATOM      8  C   UNL d   1      -0.180   9.495   0.069  0.00  0.00     0.092 A 
ENDROOT
BRANCH   3   9
ATOM      9  S   UNL d   1      -0.962   5.981  -1.476  0.00  0.00    -0.085 SA
BRANCH   9  10
ATOM     10  C   UNL d   1      -2.564   6.703  -1.925  0.00  0.00     0.185 C 
BRANCH  10  11
ATOM     11  C   UNL d   1      -2.544   7.745  -3.040  0.00  0.00     0.231 C 
ATOM     12  N   UNL d   1      -1.369   7.869  -3.759  0.00  0.00    -0.327 N 
ATOM     13  H   UNL d   1      -0.638   7.193  -3.558  0.00  0.00     0.169 HD
ATOM     14  O   UNL d   1      -3.573   8.385  -3.256  0.00  0.00    -0.272 OA
BRANCH  12  15
ATOM     15  C   UNL d   1      -1.036   8.885  -4.684  0.00  0.00     0.034 A 
ATOM     16  C   UNL d   1      -1.875   9.957  -4.986  0.00  0.00     0.030 A 
ATOM     17  C   UNL d   1      -1.460  10.968  -5.857  0.00  0.00     0.010 A 
ATOM     18  C   UNL d   1      -0.193  10.935  -6.453  0.00  0.00    -0.055 A 
ATOM     19  C   UNL d   1       0.641   9.845  -6.165  0.00  0.00     0.010 A 
ATOM     20  C   UNL d   1       0.225   8.835  -5.289  0.00  0.00     0.030 A 
BRANCH  18  21
ATOM     21  C   UNL d   1       0.283  12.065  -7.347  0.00  0.00     0.010 C 
ATOM     22  C   UNL d   1      -0.624  12.264  -8.564  0.00  0.00     0.015 C 
ATOM     23  C   UNL d   1       0.411  13.368  -6.552  0.00  0.00     0.015 C 
ENDBRANCH  18  21
ENDBRANCH  12  15
ENDBRANCH  10  11
ENDBRANCH   9  10
ENDBRANCH   3   9
BRANCH   4  24
ATOM     24  C   UNL d   1       2.983   8.995  -1.779  0.00  0.00     0.127 A 
ATOM     25  C   UNL d   1       3.801   8.189  -2.536  0.00  0.00     0.074 A 
ATOM     26  C   UNL d   1       4.994   8.938  -2.725  0.00  0.00     0.068 A 
ATOM     27  N   UNL d   1       4.876  10.136  -2.129  0.00  0.00    -0.260 N 
ATOM     28  O   UNL d   1       3.630  10.167  -1.543  0.00  0.00    -0.235 OA
ATOM     29  HN  UNL d   1       5.574  10.880  -2.113  1.00  0.00     0.195 HD
BRANCH  26  30
ATOM     30  C   UNL d   1       6.216   8.550  -3.438  0.00  0.00    -0.007 A 
ATOM     31  C   UNL d   1       6.330   7.298  -4.062  0.00  0.00     0.015 A 
ATOM     32  C   UNL d   1       7.503   6.941  -4.740  0.00  0.00     0.024 A 
ATOM     33  C   UNL d   1       8.571   7.832  -4.798  0.00  0.00     0.034 A 
ATOM     34  C   UNL d   1       8.481   9.075  -4.180  0.00  0.00     0.024 A 
ATOM     35 CL   UNL d   1      10.008   7.393  -5.635  0.00  0.00    -0.084 Cl
ATOM     36  C   UNL d   1       7.309   9.431  -3.505  0.00  0.00     0.015 A 
ENDBRANCH  26  30
ENDBRANCH   4  24
TORSDOF 7
