REMARK  5 active torsions:
REMARK  status: ('A' for Active; 'I' for Inactive)
REMARK    1  A    between atoms: C_8  and  C_3 
REMARK    2  A    between atoms: C_11  and  C_4 
REMARK    3  A    between atoms: C_10  and  C_5 
REMARK    4  A    between atoms: O_15  and  C_8 
REMARK    5  A    between atoms: C_22  and  O_15 
ROOT
ATOM      1  N   UNL d   1       1.203   0.488  -0.049  0.00  0.00    -0.340 N 
ATOM      2  HN  UNL d   1       2.108   0.956  -0.099  1.00  0.00     0.167 HD
ATOM      3  C   UNL d   1      -0.105  -1.513   0.037  0.00  0.00     0.082 A 
ATOM      4  C   UNL d   1       1.126  -0.875  -0.035  0.00  0.00     0.061 A 
ATOM      5  C   UNL d   1       0.062   1.204   0.004  0.00  0.00     0.116 A 
ATOM      6  N   UNL d   1      -1.162   0.656   0.056  0.00  0.00    -0.351 N 
ATOM      7  HN  UNL d   1      -2.007   1.228   0.081  1.00  0.00     0.166 HD
ATOM      8  C   UNL d   1      -1.215  -0.690   0.075  0.00  0.00     0.109 A 
ENDROOT
BRANCH   5   9
ATOM      9  C   UNL d   1       0.156   2.679   0.021  0.00  0.00     0.008 A 
ATOM     10  C   UNL d   1       1.398   3.342  -0.035  0.00  0.00     0.017 A 
ATOM     11  C   UNL d   1       1.482   4.740  -0.026  0.00  0.00     0.025 A 
ATOM     12  C   UNL d   1       0.321   5.504   0.043  0.00  0.00     0.034 A 
ATOM     13  C   UNL d   1      -0.921   4.883   0.106  0.00  0.00     0.025 A 
ATOM     14 CL   UNL d   1       0.421   7.221   0.045  0.00  0.00    -0.084 Cl
ATOM     15  C   UNL d   1      -0.998   3.485   0.095  0.00  0.00     0.017 A 
ENDBRANCH   5   9
BRANCH   4  16
ATOM     16  C   UNL d   1       2.455  -1.538  -0.102  0.00  0.00    -0.008 A 
ATOM     17  C   UNL d   1       2.682  -2.740  -0.797  0.00  0.00     0.014 A 
ATOM     18  C   UNL d   1       3.929  -3.376  -0.778  0.00  0.00     0.001 A 
ATOM     19  C   UNL d   1       4.999  -2.796  -0.107  0.00  0.00     0.000 A 
ATOM     20  C   UNL d   1       4.827  -1.575   0.534  0.00  0.00     0.001 A 
ATOM     21  C   UNL d   1       3.571  -0.958   0.537  0.00  0.00     0.014 A 
ENDBRANCH   4  16
BRANCH   3  22
ATOM     22  C   UNL d   1      -0.303  -2.966   0.172  0.00  0.00     0.297 C 
ATOM     23  O   UNL d   1       0.426  -3.713   0.795  0.00  0.00    -0.259 OA
BRANCH  22  24
ATOM     24  O   UNL d   1      -1.415  -3.328  -0.518  0.00  0.00    -0.318 OA
BRANCH  24  25
ATOM     25  C   UNL d   1      -1.714  -4.734  -0.535  0.00  0.00     0.174 C 
ATOM     26  C   UNL d   1      -2.295  -5.194   0.790  0.00  0.00     0.034 C 
ENDBRANCH  24  25
ENDBRANCH  22  24
ENDBRANCH   3  22
TORSDOF 5
