REMARK  5 active torsions:
REMARK  status: ('A' for Active; 'I' for Inactive)
REMARK    1  A    between atoms: C_3  and  S_1 
REMARK    2  A    between atoms: C_4  and  S_1 
REMARK    3  A    between atoms: C_2  and  C_5 
REMARK    4  A    between atoms: C_6  and  C_3 
REMARK       I    between atoms: N_11  and  C_6 
REMARK    5  A    between atoms: N_14  and  N_11 
REMARK       I    between atoms: C_13  and  N_14 
ROOT
ATOM      1  S   UNL d   1       1.147   0.172   0.053  0.00  0.00     0.199 S 
ATOM      2  O   UNL d   1       0.675  -0.391  -1.203  0.00  0.00    -0.221 OA
ATOM      3  O   UNL d   1       2.571   0.333   0.287  0.00  0.00    -0.221 OA
ENDROOT
BRANCH   1   4
ATOM      4  C   UNL d   1       0.492  -0.820   1.335  0.00  0.00     0.251 C 
BRANCH   4   5
ATOM      5  C   UNL d   1       0.852  -0.418   2.730  0.00  0.00     0.250 C 
ATOM      6  N   UNL d   1       2.070   0.174   2.969  0.00  0.00    -0.267 N 
ATOM      7  H   UNL d   1       2.753   0.435   2.249  0.00  0.00     0.190 HD
ATOM      8  O   UNL d   1       0.126  -0.751   3.676  0.00  0.00    -0.271 OA
BRANCH   6   9
ATOM      9  N   UNL d   1       2.458   0.334   4.308  0.00  0.00    -0.268 N 
ATOM     10  C   UNL d   1       3.221   1.428   4.656  0.00  0.00     0.232 C 
ATOM     11  O   UNL d   1       3.689   2.224   3.847  0.00  0.00    -0.272 OA
ATOM     12  C   UNL d   1       3.449   1.552   6.141  0.00  0.00     0.119 C 
ATOM     13  H   UNL d   1       1.834  -0.100   4.989  0.00  0.00     0.190 HD
ENDBRANCH   6   9
ENDBRANCH   4   5
ENDBRANCH   1   4
BRANCH   1  14
ATOM     14  C   UNL d   1       0.410   1.784   0.179  0.00  0.00     0.128 A 
ATOM     15  N   UNL d   1      -0.358   1.995   1.274  0.00  0.00    -0.356 N 
ATOM     16  C   UNL d   1      -0.933   3.221   1.358  0.00  0.00     0.105 A 
ATOM     17  HN  UNL d   1      -0.495   1.280   1.988  1.00  0.00     0.166 HD
ATOM     18  C   UNL d   1      -0.787   4.220   0.399  0.00  0.00     0.063 A 
ATOM     19  C   UNL d   1       0.012   3.942  -0.719  0.00  0.00     0.020 A 
ATOM     20  C   UNL d   1       0.626   2.701  -0.836  0.00  0.00     0.042 A 
BRANCH  18  21
ATOM     21  C   UNL d   1      -1.468   5.549   0.549  0.00  0.00     0.418 C 
ATOM     22  F   UNL d   1      -2.199   5.662   1.692  0.00  0.00    -0.166 F 
ATOM     23  F   UNL d   1      -0.588   6.587   0.562  0.00  0.00    -0.166 F 
ATOM     24  F   UNL d   1      -2.331   5.804  -0.472  0.00  0.00    -0.166 F 
ENDBRANCH  18  21
ENDBRANCH   1  14
TORSDOF 5
