REMARK  2 active torsions:
REMARK  status: ('A' for Active; 'I' for Inactive)
REMARK       I    between atoms: N_4  and  C_1 
REMARK       I    between atoms: N_7  and  C_1 
REMARK    1  A    between atoms: N_2  and  N_6 
REMARK    2  A    between atoms: C_9  and  C_8 
ROOT
ATOM      1  N   UNL d   1      -1.179   0.356   1.506  0.00  0.00    -0.309 N 
ATOM      2  HN  UNL d   1      -1.646  -0.522   1.281  1.00  0.00     0.186 HD
ATOM      3  C   UNL d   1      -1.832   1.409   1.881  0.00  0.00     0.118 C 
ENDROOT
BRANCH   1   4
ATOM      4  N   UNL d   1       0.176   0.500   1.431  0.00  0.00    -0.277 N 
ATOM      5  C   UNL d   1       0.995  -0.545   1.125  0.00  0.00     0.163 C 
ATOM      6  N   UNL d   1       0.587  -1.728   0.819  0.00  0.00    -0.375 N 
ATOM      7  N   UNL d   1       2.316  -0.267   1.143  0.00  0.00    -0.273 NA
ATOM      8  H   UNL d   1      -0.441  -1.648   0.885  0.00  0.00     0.158 HD
ATOM      9  HN  UNL d   1       1.144  -2.546   0.570  1.00  0.00     0.158 HD
ATOM     10  H   UNL d   1       2.813  -1.084   0.796  0.00  0.00     0.127 HD
ATOM     11  H   UNL d   1       2.554   0.538   0.578  0.00  0.00     0.127 HD
ATOM     12  H   UNL d   1       0.629   1.232   1.971  0.00  0.00     0.189 HD
ENDBRANCH   1   4
BRANCH   3  13
ATOM     13  C   UNL d   1      -3.303   1.389   2.017  0.00  0.00    -0.019 A 
ATOM     14  C   UNL d   1      -4.020   0.211   1.784  0.00  0.00     0.013 A 
ATOM     15  C   UNL d   1      -5.408   0.205   1.918  0.00  0.00     0.001 A 
ATOM     16  C   UNL d   1      -6.077   1.372   2.283  0.00  0.00     0.000 A 
ATOM     17  C   UNL d   1      -5.361   2.548   2.514  0.00  0.00     0.001 A 
ATOM     18  C   UNL d   1      -3.970   2.560   2.382  0.00  0.00     0.013 A 
ENDBRANCH   3  13
TORSDOF 2
