REMARK  5 active torsions:
REMARK  status: ('A' for Active; 'I' for Inactive)
REMARK    1  A    between atoms: C_2  and  C_1 
REMARK       I    between atoms: N_6  and  C_1 
REMARK    2  A    between atoms: O_18  and  C_3 
REMARK    3  A    between atoms: O_21  and  C_4 
REMARK    4  A    between atoms: O_20  and  C_5 
REMARK    5  A    between atoms: C_13  and  N_6 
ROOT
ATOM      1  C   UNL d   1       0.625  -0.122  -0.059  0.00  0.00     0.256 C 
ATOM      2  N   UNL d   1       0.928  -0.204   1.292  0.00  0.00    -0.323 N 
ATOM      3  O   UNL d   1       0.933  -0.932  -0.931  0.00  0.00    -0.267 OA
ATOM      4  H   UNL d   1       0.860   0.658   1.821  0.00  0.00     0.169 HD
ENDROOT
BRANCH   1   5
ATOM      5  C   UNL d   1      -0.029   1.133  -0.487  0.00  0.00     0.037 A 
ATOM      6  C   UNL d   1       0.429   1.765  -1.646  0.00  0.00     0.057 A 
ATOM      7  C   UNL d   1      -0.170   2.945  -2.109  0.00  0.00     0.105 A 
ATOM      8  C   UNL d   1      -1.270   3.483  -1.399  0.00  0.00     0.135 A 
ATOM      9  C   UNL d   1      -1.732   2.817  -0.239  0.00  0.00     0.105 A 
ATOM     10  C   UNL d   1      -1.099   1.661   0.225  0.00  0.00     0.057 A 
BRANCH   7  11
ATOM     11  O   UNL d   1       0.275   3.609  -3.221  0.00  0.00    -0.353 OA
ATOM     12  C   UNL d   1       1.409   3.108  -3.919  0.00  0.00     0.210 C 
ENDBRANCH   7  11
BRANCH   8  13
ATOM     13  O   UNL d   1      -1.921   4.656  -1.692  0.00  0.00    -0.351 OA
ATOM     14  C   UNL d   1      -1.758   5.261  -2.966  0.00  0.00     0.210 C 
ENDBRANCH   8  13
BRANCH   9  15
ATOM     15  O   UNL d   1      -2.770   3.213   0.571  0.00  0.00    -0.353 OA
ATOM     16  C   UNL d   1      -3.910   3.748  -0.093  0.00  0.00     0.210 C 
ENDBRANCH   9  15
ENDBRANCH   1   5
BRANCH   2  17
ATOM     17  C   UNL d   1       1.769  -1.203   1.825  0.00  0.00     0.037 A 
ATOM     18  C   UNL d   1       2.655  -0.828   2.840  0.00  0.00     0.069 A 
ATOM     19  C   UNL d   1       3.659  -1.717   3.157  0.00  0.00     0.107 A 
ATOM     20  O   UNL d   1       4.726  -1.454   3.963  0.00  0.00    -0.323 OA
ATOM     21  C   UNL d   1       3.736  -2.970   2.591  0.00  0.00     0.105 A 
ATOM     22  C   UNL d   1       5.575  -2.570   3.623  0.00  0.00     0.352 C 
ATOM     23  O   UNL d   1       4.857  -3.640   2.974  0.00  0.00    -0.323 OA
ATOM     24  C   UNL d   1       2.793  -3.419   1.697  0.00  0.00     0.042 A 
ATOM     25  C   UNL d   1       1.808  -2.512   1.298  0.00  0.00     0.032 A 
ENDBRANCH   2  17
TORSDOF 5
