REMARK  4 active torsions:
REMARK  status: ('A' for Active; 'I' for Inactive)
REMARK    1  A    between atoms: C_3  and  C_1 
REMARK       I    between atoms: C_2  and  N_7 
REMARK       I    between atoms: N_4  and  C_2 
REMARK    2  A    between atoms: C_5  and  N_4 
REMARK    3  A    between atoms: N_7  and  C_6 
REMARK    4  A    between atoms: O_23  and  C_14 
ROOT
ATOM      1  C   UNL d   1      -1.610  -0.953  -4.256  0.00  0.00     0.325 C 
ATOM      2  N   UNL d   1      -2.720  -1.437  -4.885  0.00  0.00    -0.306 N 
ATOM      3  N   UNL d   1      -1.412   0.388  -4.237  0.00  0.00    -0.309 N 
ATOM      4  O   UNL d   1      -0.848  -1.794  -3.785  0.00  0.00    -0.247 OA
ATOM      5  H   UNL d   1      -2.658  -2.451  -4.899  0.00  0.00     0.171 HD
ATOM      6  H   UNL d   1      -2.063   0.937  -4.775  0.00  0.00     0.170 HD
ENDROOT
BRANCH   3   7
ATOM      7  C   UNL d   1      -0.467   1.123  -3.491  0.00  0.00     0.039 A 
ATOM      8  C   UNL d   1       0.465   0.533  -2.639  0.00  0.00     0.046 A 
ATOM      9  C   UNL d   1       1.291   1.322  -1.824  0.00  0.00     0.052 A 
ATOM     10  C   UNL d   1       1.204   2.719  -1.917  0.00  0.00     0.053 A 
ATOM     11  C   UNL d   1       0.299   3.325  -2.790  0.00  0.00     0.071 A 
ATOM     12  C   UNL d   1      -0.536   2.526  -3.571  0.00  0.00     0.066 A 
BRANCH   9  13
ATOM     13  C   UNL d   1       2.213   0.691  -0.812  0.00  0.00     0.417 C 
ATOM     14  F   UNL d   1       2.175  -0.669  -0.801  0.00  0.00    -0.166 F 
ATOM     15  F   UNL d   1       1.921   1.081   0.460  0.00  0.00    -0.166 F 
ATOM     16  F   UNL d   1       3.518   1.026  -1.011  0.00  0.00    -0.166 F 
ENDBRANCH   9  13
BRANCH  11  17
ATOM     17  O   UNL d   1       0.314   4.691  -2.757  0.00  0.00    -0.356 OA
ATOM     18  C   UNL d   1      -0.649   5.372  -3.551  0.00  0.00     0.210 C 
ENDBRANCH  11  17
ENDBRANCH   3   7
BRANCH   2  19
ATOM     19  C   UNL d   1      -3.906  -0.891  -5.419  0.00  0.00     0.075 A 
ATOM     20  C   UNL d   1      -4.334   0.442  -5.339  0.00  0.00     0.146 A 
ATOM     21  C   UNL d   1      -5.540   0.860  -5.900  0.00  0.00     0.086 A 
ATOM     22  F   UNL d   1      -3.612   1.379  -4.712  0.00  0.00    -0.204 F 
ATOM     23  C   UNL d   1      -6.343  -0.064  -6.548  0.00  0.00     0.119 A 
ATOM     24  C   UNL d   1      -5.962  -1.394  -6.638  0.00  0.00     0.044 A 
ATOM     25  F   UNL d   1      -7.499   0.333  -7.091  0.00  0.00    -0.206 F 
ATOM     26  C   UNL d   1      -4.753  -1.806  -6.070  0.00  0.00     0.036 A 
ENDBRANCH   2  19
TORSDOF 4
