REMARK  9 active torsions:
REMARK  status: ('A' for Active; 'I' for Inactive)
REMARK    1  A    between atoms: C_2  and  C_1 
REMARK    2  A    between atoms: C_3  and  C_1 
REMARK    3  A    between atoms: C_5  and  C_1 
REMARK    4  A    between atoms: O_18  and  C_1 
REMARK       I    between atoms: C_4  and  N_6 
REMARK       I    between atoms: N_10  and  C_4 
REMARK    5  A    between atoms: O_20  and  C_5 
REMARK    6  A    between atoms: N_6  and  C_7 
REMARK    7  A    between atoms: O_22  and  C_9 
REMARK    8  A    between atoms: C_19  and  N_10 
REMARK    9  A    between atoms: C_28  and  O_20 
ROOT
ATOM      1  C   UNL d   1      -0.020  -1.467  -0.773  0.00  0.00    -0.002 C 
ATOM      2  C   UNL d   1      -0.605  -3.832  -2.242  0.00  0.00     0.069 C 
ATOM      3  C   UNL d   1       0.390  -2.727  -0.295  0.00  0.00     0.050 C 
ATOM      4  C   UNL d   1       0.089  -3.894  -1.016  0.00  0.00     0.095 C 
ATOM      5  C   UNL d   1      -0.850  -1.444  -1.906  0.00  0.00     0.013 C 
ATOM      6  C   UNL d   1      -1.120  -2.602  -2.641  0.00  0.00     0.033 C 
ENDROOT
BRANCH   2   7
ATOM      7  N   UNL d   1      -0.598  -5.009  -3.027  0.00  0.00    -0.306 N 
ATOM      8  C   UNL d   1      -0.986  -5.273  -4.318  0.00  0.00     0.325 C 
ATOM      9  N   UNL d   1      -2.004  -4.515  -4.801  0.00  0.00    -0.309 N 
ATOM     10  O   UNL d   1      -0.413  -6.175  -4.924  0.00  0.00    -0.247 OA
ATOM     11  H   UNL d   1      -2.563  -4.075  -4.086  0.00  0.00     0.170 HD
ATOM     12  H   UNL d   1       0.050  -5.715  -2.681  0.00  0.00     0.171 HD
BRANCH   9  13
ATOM     13  C   UNL d   1      -2.493  -4.409  -6.118  0.00  0.00     0.036 A 
ATOM     14  C   UNL d   1      -2.027  -5.173  -7.192  0.00  0.00     0.031 A 
ATOM     15  C   UNL d   1      -2.586  -5.006  -8.468  0.00  0.00     0.026 A 
ATOM     16  C   UNL d   1      -3.583  -4.055  -8.674  0.00  0.00     0.034 A 
ATOM     17  C   UNL d   1      -4.027  -3.266  -7.617  0.00  0.00     0.026 A 
ATOM     18 CL   UNL d   1      -4.271  -3.850 -10.237  0.00  0.00    -0.084 Cl
ATOM     19  C   UNL d   1      -3.486  -3.453  -6.343  0.00  0.00     0.031 A 
ENDBRANCH   9  13
ENDBRANCH   2   7
BRANCH   4  20
ATOM     20  O   UNL d   1       0.602  -5.123  -0.661  0.00  0.00    -0.354 OA
ATOM     21  C   UNL d   1       0.363  -5.474   0.700  0.00  0.00     0.210 C 
ENDBRANCH   4  20
BRANCH   1  22
ATOM     22  C   UNL d   1       0.571  -0.151  -0.228  0.00  0.00     0.271 C 
BRANCH  22  23
ATOM     23  C   UNL d   1       0.526   0.037   1.304  0.00  0.00     0.432 C 
ATOM     24  F   UNL d   1      -0.354  -0.785   1.918  0.00  0.00    -0.167 F 
ATOM     25  F   UNL d   1       1.719  -0.124   1.918  0.00  0.00    -0.167 F 
ATOM     26  F   UNL d   1       0.127   1.311   1.589  0.00  0.00    -0.167 F 
ENDBRANCH  22  23
BRANCH  22  27
ATOM     27  C   UNL d   1       2.075  -0.086  -0.574  0.00  0.00     0.308 C 
ATOM     28  O   UNL d   1       2.849  -1.035  -0.506  0.00  0.00    -0.261 OA
BRANCH  27  29
ATOM     29  O   UNL d   1       2.459   1.175  -0.938  0.00  0.00    -0.319 OA
BRANCH  29  30
ATOM     30  C   UNL d   1       3.850   1.313  -1.280  0.00  0.00     0.174 C 
ATOM     31  C   UNL d   1       4.102   0.887  -2.717  0.00  0.00     0.034 C 
ENDBRANCH  29  30
ENDBRANCH  27  29
ENDBRANCH  22  27
BRANCH  22  32
ATOM     32  O   UNL d   1      -0.142   0.942  -0.878  0.00  0.00    -0.368 OA
ATOM     33  H   UNL d   1       0.103   1.761  -0.406  0.00  0.00     0.212 HD
ENDBRANCH  22  32
ENDBRANCH   1  22
TORSDOF 9
