REMARK  6 active torsions:
REMARK  status: ('A' for Active; 'I' for Inactive)
REMARK    1  A    between atoms: N_4  and  C_1 
REMARK    2  A    between atoms: C_2  and  C_3 
REMARK       I    between atoms: N_7  and  C_2 
REMARK    3  A    between atoms: O_25  and  C_5 
REMARK    4  A    between atoms: N_6  and  C_10 
REMARK       I    between atoms: C_9  and  N_7 
REMARK    5  A    between atoms: C_8  and  N_13 
REMARK       I    between atoms: N_13  and  C_9 
REMARK    6  A    between atoms: O_28  and  C_17 
ROOT
ATOM      1  C   UNL d   1      -1.951  -2.141   0.988  0.00  0.00     0.265 C 
ATOM      2  N   UNL d   1      -2.861  -1.102   1.111  0.00  0.00    -0.275 N 
ATOM      3  C   UNL d   1      -4.006  -0.987   1.849  0.00  0.00     0.327 C 
ATOM      4  N   UNL d   1      -4.760  -2.101   2.122  0.00  0.00    -0.305 N 
ATOM      5  O   UNL d   1      -2.284  -3.302   1.200  0.00  0.00    -0.267 OA
ATOM      6  O   UNL d   1      -4.261   0.145   2.281  0.00  0.00    -0.247 OA
ATOM      7  H   UNL d   1      -2.480  -0.176   0.969  0.00  0.00     0.173 HD
ATOM      8  H   UNL d   1      -4.204  -2.958   2.213  0.00  0.00     0.171 HD
ENDROOT
BRANCH   1   9
ATOM      9  C   UNL d   1      -0.559  -1.757   0.461  0.00  0.00     0.101 C 
ATOM     10  C   UNL d   1      -0.253  -0.478  -0.082  0.00  0.00     0.119 C 
ATOM     11  C   UNL d   1       0.928  -0.310  -0.841  0.00  0.00     0.137 C 
ATOM     12  C   UNL d   1       1.891  -1.319  -0.921  0.00  0.00     0.042 C 
ATOM     13  C   UNL d   1       1.674  -2.506  -0.233  0.00  0.00     0.040 C 
ATOM     14  C   UNL d   1       0.474  -2.721   0.467  0.00  0.00     0.086 C 
BRANCH  10  15
ATOM     15  O   UNL d   1      -1.122   0.561   0.153  0.00  0.00    -0.352 OA
ATOM     16  C   UNL d   1      -0.518   1.726   0.748  0.00  0.00     0.210 C 
ENDBRANCH  10  15
BRANCH  11  17
ATOM     17  N   UNL d   1       1.178   0.898  -1.613  0.00  0.00    -0.113 N 
ATOM     18  O   UNL d   1       0.244   1.352  -2.287  0.00  0.00    -0.532 OA
ATOM     19  O   UNL d   1       2.315   1.383  -1.548  0.00  0.00    -0.532 OA
ENDBRANCH  11  17
BRANCH  14  20
ATOM     20  O   UNL d   1       0.308  -3.919   1.112  0.00  0.00    -0.355 OA
ATOM     21  C   UNL d   1       1.294  -4.189   2.112  0.00  0.00     0.210 C 
ENDBRANCH  14  20
ENDBRANCH   1   9
BRANCH   4  22
ATOM     22  C   UNL d   1      -5.896  -1.948   2.990  0.00  0.00     0.080 C 
ATOM     23  C   UNL d   1      -6.861  -0.934   2.781  0.00  0.00     0.065 C 
ATOM     24  C   UNL d   1      -7.699  -0.506   3.816  0.00  0.00     0.062 C 
ATOM     25 CL   UNL d   1      -7.130  -0.233   1.218  0.00  0.00    -0.082 Cl
ATOM     26  C   UNL d   1      -7.618  -1.142   5.055  0.00  0.00     0.106 C 
ATOM     27  C   UNL d   1      -6.815  -2.276   5.224  0.00  0.00     0.062 C 
ATOM     28  C   UNL d   1      -5.977  -2.689   4.179  0.00  0.00     0.065 C 
ATOM     29 CL   UNL d   1      -4.993  -4.086   4.428  0.00  0.00    -0.082 Cl
BRANCH  26  30
ATOM     30  N   UNL d   1      -8.349  -0.592   6.200  0.00  0.00    -0.116 N 
ATOM     31  O   UNL d   1      -9.323   0.137   5.963  0.00  0.00    -0.532 OA
ATOM     32  O   UNL d   1      -7.930  -0.871   7.330  0.00  0.00    -0.532 OA
ENDBRANCH  26  30
ENDBRANCH   4  22
TORSDOF 6
