REMARK  5 active torsions:
REMARK  status: ('A' for Active; 'I' for Inactive)
REMARK    1  A    between atoms: C_2  and  N_1 
REMARK    2  A    between atoms: C_6  and  C_3 
REMARK    3  A    between atoms: O_8  and  C_6 
REMARK    4  A    between atoms: C_11  and  C_6 
REMARK    5  A    between atoms: O_10  and  C_11 
ROOT
ATOM      1  C   UNL d   1       0.077  -0.843   0.774  0.00  0.00     0.111 A 
ATOM      2  C   UNL d   1       0.703  -0.841   2.037  0.00  0.00     0.005 A 
ATOM      3  C   UNL d   1      -0.017  -1.433   3.099  0.00  0.00     0.012 A 
ATOM      4  C   UNL d   1      -1.194  -1.419   0.578  0.00  0.00     0.037 A 
ATOM      5  C   UNL d   1      -1.278  -2.007   2.906  0.00  0.00     0.001 A 
ATOM      6  C   UNL d   1      -1.865  -2.005   1.646  0.00  0.00     0.002 A 
ENDROOT
BRANCH   2   7
ATOM      7  C   UNL d   1       2.077  -0.278   2.360  0.00  0.00     0.177 C 
BRANCH   7   8
ATOM      8  O   UNL d   1       3.084  -0.940   1.603  0.00  0.00    -0.389 OA
ATOM      9  H   UNL d   1       3.035  -0.585   0.691  0.00  0.00     0.210 HD
ENDBRANCH   7   8
BRANCH   7  10
ATOM     10  C   UNL d   1       2.225   1.253   2.278  0.00  0.00     0.200 C 
BRANCH  10  11
ATOM     11  O   UNL d   1       2.131   1.718   0.938  0.00  0.00    -0.398 OA
ATOM     12  H   UNL d   1       2.336   2.670   0.942  0.00  0.00     0.209 HD
ENDBRANCH  10  11
ENDBRANCH   7  10
ENDBRANCH   2   7
BRANCH   1  13
ATOM     13  N   UNL d   1       0.697  -0.275  -0.418  0.00  0.00    -0.115 N 
ATOM     14  O   UNL d   1       1.822  -0.689  -0.735  0.00  0.00    -0.532 OA
ATOM     15  O   UNL d   1       0.019   0.531  -1.074  0.00  0.00    -0.532 OA
ENDBRANCH   1  13
TORSDOF 5
