REMARK  3 active torsions:
REMARK  status: ('A' for Active; 'I' for Inactive)
REMARK    1  A    between atoms: C_3  and  C_1 
REMARK    2  A    between atoms: N_7  and  C_3 
REMARK    3  A    between atoms: O_11  and  N_4 
ROOT
ATOM      1  C   UNL d   1      -0.064   3.590  -0.108  0.00  0.00     0.027 A 
ATOM      2  C   UNL d   1       1.192   2.956  -0.098  0.00  0.00     0.069 A 
ATOM      3  C   UNL d   1       2.357   3.747  -0.120  0.00  0.00     0.056 A 
ATOM      4 CL   UNL d   1       1.340   1.224  -0.123  0.00  0.00    -0.082 Cl
ATOM      5  C   UNL d   1      -0.127   4.996  -0.160  0.00  0.00     0.016 A 
ATOM      6 CL   UNL d   1       3.949   3.063  -0.101  0.00  0.00    -0.083 Cl
ATOM      7  C   UNL d   1       1.034   5.768  -0.188  0.00  0.00     0.003 A 
ATOM      8  C   UNL d   1       2.275   5.143  -0.162  0.00  0.00     0.026 A 
ENDROOT
BRANCH   1   9
ATOM      9  C   UNL d   1      -1.380   2.869  -0.053  0.00  0.00     0.110 C 
ATOM     10  N   UNL d   1      -2.403   3.421  -0.647  0.00  0.00    -0.257 N 
ATOM     11  HN  UNL d   1      -2.369   4.308  -1.151  1.00  0.00     0.195 HD
BRANCH  10  12
ATOM     12  O   UNL d   1      -3.558   2.634  -0.500  0.00  0.00    -0.289 OA
ATOM     13  H   UNL d   1      -4.245   3.204  -0.892  0.00  0.00     0.244 HD
ENDBRANCH  10  12
BRANCH   9  14
ATOM     14  N   UNL d   1      -1.505   1.686   0.631  0.00  0.00    -0.286 NA
ATOM     15  H   UNL d   1      -0.713   1.054   0.589  0.00  0.00     0.125 HD
ATOM     16  H   UNL d   1      -2.383   1.233   0.391  0.00  0.00     0.125 HD
ENDBRANCH   9  14
ENDBRANCH   1   9
TORSDOF 3
