REMARK  2 active torsions:
REMARK  status: ('A' for Active; 'I' for Inactive)
REMARK    1  A    between atoms: N_8  and  C_2 
REMARK    2  A    between atoms: C_7  and  N_8 
ROOT
ATOM      1  C   UNL d   1       1.904   0.558  -0.693  0.00  0.00     0.017 C 
ATOM      2  C   UNL d   1       2.691   1.844  -0.286  0.00  0.00     0.089 C 
ATOM      3  C   UNL d   1       0.390   2.176  -0.984  0.00  0.00    -0.007 C 
ATOM      4  C   UNL d   1       0.835   0.247   0.396  0.00  0.00     0.018 A 
ATOM      5  C   UNL d   1       1.031   1.081  -1.840  0.00  0.00     0.012 C 
ATOM      6  C   UNL d   1      -0.186   1.401   0.222  0.00  0.00     0.001 A 
ATOM      7  C   UNL d   1       1.634   2.954  -0.539  0.00  0.00     0.030 C 
ATOM      8  C   UNL d   1       0.005  -0.979   0.159  0.00  0.00    -0.025 A 
ATOM      9  C   UNL d   1      -1.282  -0.700  -0.093  0.00  0.00    -0.030 A 
ATOM     10  C   UNL d   1      -1.554   0.767  -0.079  0.00  0.00     0.032 A 
ENDROOT
BRANCH   2  11
ATOM     11  N   UNL d   1       3.873   2.152  -1.098  0.00  0.00    -0.362 N 
ATOM     12  H   UNL d   1       3.905   3.092  -1.483  0.00  0.00     0.162 HD
BRANCH  11  13
ATOM     13  C   UNL d   1       5.103   1.612  -1.143  0.00  0.00     0.165 C 
ATOM     14  S   UNL d   1       6.345   2.435  -1.881  0.00  0.00    -0.041 SA
ATOM     15  N   UNL d   1       5.325   0.429  -0.560  0.00  0.00    -0.376 N 
ATOM     16  H   UNL d   1       4.570  -0.229  -0.473  0.00  0.00     0.158 HD
ATOM     17  H   UNL d   1       6.240   0.026  -0.726  0.00  0.00     0.158 HD
ENDBRANCH  11  13
ENDBRANCH   2  11
TORSDOF 2
