REMARK  5 active torsions:
REMARK  status: ('A' for Active; 'I' for Inactive)
REMARK       I    between atoms: N_6  and  C_1 
REMARK    1  A    between atoms: C_10  and  C_1 
REMARK    2  A    between atoms: C_2  and  N_11 
REMARK    3  A    between atoms: C_3  and  C_4 
REMARK    4  A    between atoms: S_5  and  N_6 
REMARK    5  A    between atoms: O_26  and  C_18 
ROOT
ATOM      1  S   UNL d   1       0.651   0.985   2.292  0.00  0.00    -0.122 SA
ATOM      2  N   UNL d   1       3.846   1.710   1.781  0.00  0.00    -0.266 NA
ATOM      3  C   UNL d   1       1.426   2.559   1.890  0.00  0.00     0.099 C 
ATOM      4  C   UNL d   1       2.145   0.069   2.675  0.00  0.00     0.099 C 
ATOM      5  C   UNL d   1       2.810   2.632   1.237  0.00  0.00     0.108 C 
ATOM      6  C   UNL d   1       3.410   0.308   1.864  0.00  0.00     0.108 C 
ENDROOT
BRANCH   1   7
ATOM      7  N   UNL d   1       0.078   0.446   1.005  0.00  0.00    -0.306 N 
ATOM      8  C   UNL d   1       0.801   0.124  -0.072  0.00  0.00     0.263 C 
ATOM      9  O   UNL d   1       1.821   0.651  -0.506  0.00  0.00    -0.267 OA
ATOM     10  HN  UNL d   1      -0.933   0.318   0.953  1.00  0.00     0.176 HD
BRANCH   8  11
ATOM     11  C   UNL d   1       0.261  -1.031  -0.868  0.00  0.00     0.066 A 
ATOM     12  C   UNL d   1       0.152  -1.108  -2.272  0.00  0.00     0.084 A 
ATOM     13  C   UNL d   1      -0.349  -2.300  -2.840  0.00  0.00     0.038 A 
ATOM     14  C   UNL d   1      -0.720  -3.399  -2.067  0.00  0.00     0.003 A 
ATOM     15  C   UNL d   1      -0.594  -3.333  -0.690  0.00  0.00     0.001 A 
ATOM     16  C   UNL d   1      -0.107  -2.165  -0.101  0.00  0.00     0.020 A 
BRANCH  12  17
ATOM     17  O   UNL d   1       0.402  -0.208  -3.272  0.00  0.00    -0.355 OA
ATOM     18  C   UNL d   1       1.094   0.998  -3.013  0.00  0.00     0.210 C 
ENDBRANCH  12  17
ENDBRANCH   8  11
ENDBRANCH   1   7
BRANCH   2  19
ATOM     19  C   UNL d   1       5.114   2.003   1.243  0.00  0.00     0.104 A 
ATOM     20  N   UNL d   1       5.457   3.328   1.286  0.00  0.00    -0.354 N 
ATOM     21  C   UNL d   1       6.666   3.754   0.851  0.00  0.00     0.105 A 
ATOM     22  HN  UNL d   1       4.789   4.006   1.652  1.00  0.00     0.166 HD
ATOM     23  C   UNL d   1       7.642   2.917   0.361  0.00  0.00     0.065 A 
ATOM     24  C   UNL d   1       7.327   1.565   0.310  0.00  0.00     0.044 A 
ATOM     25  C   UNL d   1       6.074   1.093   0.737  0.00  0.00     0.073 A 
ATOM     26 CL   UNL d   1       5.904  -0.618   0.504  0.00  0.00    -0.081 Cl
BRANCH  23  27
ATOM     27  C   UNL d   1       8.960   3.450  -0.090  0.00  0.00     0.418 C 
ATOM     28  F   UNL d   1       9.812   2.483  -0.539  0.00  0.00    -0.166 F 
ATOM     29  F   UNL d   1       8.847   4.342  -1.113  0.00  0.00    -0.166 F 
ATOM     30  F   UNL d   1       9.633   4.100   0.899  0.00  0.00    -0.166 F 
ENDBRANCH  23  27
ENDBRANCH   2  19
TORSDOF 5
