REMARK  6 active torsions:
REMARK  status: ('A' for Active; 'I' for Inactive)
REMARK    1  A    between atoms: S_3  and  C_1 
REMARK    2  A    between atoms: C_8  and  C_2 
REMARK    3  A    between atoms: N_12  and  S_3 
REMARK    4  A    between atoms: C_7  and  C_16 
REMARK    5  A    between atoms: O_21  and  C_8 
REMARK    6  A    between atoms: C_16  and  N_12 
ROOT
ATOM      1  S   UNL d   1       1.777   2.717  -0.041  0.00  0.00     0.245 S 
ATOM      2  O   UNL d   1       1.498   3.517   1.127  0.00  0.00    -0.206 OA
ATOM      3  O   UNL d   1       3.061   2.081  -0.244  0.00  0.00    -0.206 OA
ENDROOT
BRANCH   1   4
ATOM      4  C   UNL d   1       0.697   1.374   0.041  0.00  0.00     0.122 A 
ATOM      5  C   UNL d   1       0.640   0.309  -0.922  0.00  0.00     0.094 A 
ATOM      6  C   UNL d   1      -0.297  -0.583  -0.426  0.00  0.00     0.067 A 
ATOM      7  C   UNL d   1      -0.878  -1.863  -0.892  0.00  0.00     0.078 C 
ATOM      8  O   UNL d   1      -0.805  -0.127   0.750  0.00  0.00    -0.318 OA
ATOM      9  C   UNL d   1      -0.201   1.059   1.042  0.00  0.00     0.073 A 
ATOM     10  C   UNL d   1      -0.646   1.664   2.314  0.00  0.00     0.078 C 
BRANCH   5  11
ATOM     11  C   UNL d   1       1.371   0.186  -2.169  0.00  0.00     0.297 C 
ATOM     12  O   UNL d   1       1.698   1.164  -2.832  0.00  0.00    -0.259 OA
BRANCH  11  13
ATOM     13  O   UNL d   1       1.583  -1.111  -2.525  0.00  0.00    -0.322 OA
ATOM     14  C   UNL d   1       2.231  -1.319  -3.781  0.00  0.00     0.213 C 
ENDBRANCH  11  13
ENDBRANCH   5  11
ENDBRANCH   1   4
BRANCH   1  15
ATOM     15  N   UNL d   1       1.416   3.623  -1.403  0.00  0.00    -0.211 NA
ATOM     16  H   UNL d   1       1.371   3.037  -2.245  0.00  0.00     0.140 HD
BRANCH  15  17
ATOM     17  C   UNL d   1       0.367   4.629  -1.249  0.00  0.00     0.144 C 
BRANCH  17  18
ATOM     18  C   UNL d   1       0.202   5.329  -2.567  0.00  0.00    -0.026 A 
ATOM     19  C   UNL d   1      -0.748   4.953  -3.595  0.00  0.00    -0.009 A 
ATOM     20  C   UNL d   1      -0.632   5.767  -4.727  0.00  0.00     0.015 A 
ATOM     21  C   UNL d   1      -1.720   3.919  -3.623  0.00  0.00     0.037 A 
ATOM     22  C   UNL d   1      -1.428   5.565  -5.873  0.00  0.00     0.021 A 
ATOM     23  S   UNL d   1       0.564   6.983  -4.511  0.00  0.00    -0.101 SA
ATOM     24  C   UNL d   1      -2.366   4.531  -5.873  0.00  0.00     0.025 A 
ATOM     25  C   UNL d   1      -2.513   3.724  -4.756  0.00  0.00     0.035 A 
ATOM     26 CL   UNL d   1      -3.681   2.460  -4.762  0.00  0.00    -0.084 Cl
ATOM     27  C   UNL d   1       0.951   6.425  -2.952  0.00  0.00     0.059 A 
ENDBRANCH  17  18
ENDBRANCH  15  17
ENDBRANCH   1  15
TORSDOF 6
