REMARK  4 active torsions:
REMARK  status: ('A' for Active; 'I' for Inactive)
REMARK       I    between atoms: N_2  and  C_1 
REMARK    1  A    between atoms: C_6  and  C_1 
REMARK    2  A    between atoms: C_11  and  N_2 
REMARK    3  A    between atoms: O_10  and  C_5 
REMARK    4  A    between atoms: C_17  and  O_10 
ROOT
ATOM      1  N   UNL d   1       1.366  -2.412  -4.096  0.00  0.00    -0.344 N 
ATOM      2  HN  UNL d   1       1.100  -2.375  -5.080  1.00  0.00     0.167 HD
ATOM      3  C   UNL d   1       2.397  -3.168  -3.673  0.00  0.00     0.148 A 
ATOM      4  C   UNL d   1       1.025  -1.681  -1.801  0.00  0.00     0.050 A 
ATOM      5  C   UNL d   1       0.699  -1.704  -3.156  0.00  0.00     0.119 A 
ATOM      6  C   UNL d   1       2.854  -3.162  -2.364  0.00  0.00     0.059 A 
ATOM      7  C   UNL d   1       2.160  -2.398  -1.416  0.00  0.00     0.035 A 
ENDROOT
BRANCH   4   8
ATOM      8  N   UNL d   1       0.276  -0.978  -0.827  0.00  0.00    -0.322 N 
ATOM      9  C   UNL d   1      -1.017  -0.523  -1.040  0.00  0.00     0.256 C 
ATOM     10  O   UNL d   1      -1.701  -0.780  -2.028  0.00  0.00    -0.267 OA
ATOM     11  H   UNL d   1       0.654  -0.941   0.113  0.00  0.00     0.169 HD
BRANCH   9  12
ATOM     12  C   UNL d   1      -1.647   0.307   0.021  0.00  0.00     0.032 A 
ATOM     13  C   UNL d   1      -0.911   1.121   0.890  0.00  0.00     0.018 A 
ATOM     14  C   UNL d   1      -1.583   1.968   1.781  0.00  0.00     0.025 A 
ATOM     15  C   UNL d   1      -2.980   2.003   1.801  0.00  0.00     0.034 A 
ATOM     16  C   UNL d   1      -3.718   1.190   0.947  0.00  0.00     0.025 A 
ATOM     17 CL   UNL d   1      -3.796   3.077   2.867  0.00  0.00    -0.084 Cl
ATOM     18  C   UNL d   1      -3.051   0.345   0.060  0.00  0.00     0.018 A 
ENDBRANCH   9  12
ENDBRANCH   4   8
BRANCH   3  19
ATOM     19  O   UNL d   1       3.040  -3.996  -4.583  0.00  0.00    -0.293 OA
BRANCH  19  20
ATOM     20  C   UNL d   1       2.292  -4.466  -5.638  0.00  0.00     0.093 A 
ATOM     21  C   UNL d   1       2.898  -4.552  -6.884  0.00  0.00     0.124 A 
ATOM     22  N   UNL d   1       2.284  -5.023  -7.999  0.00  0.00    -0.373 N 
ATOM     23  C   UNL d   1       1.000  -5.422  -7.857  0.00  0.00     0.088 A 
ATOM     24  HN  UNL d   1       2.766  -5.074  -8.897  1.00  0.00     0.164 HD
ATOM     25  C   UNL d   1       0.313  -5.394  -6.654  0.00  0.00     0.020 A 
ATOM     26  C   UNL d   1       0.980  -4.926  -5.525  0.00  0.00     0.040 A 
ENDBRANCH  19  20
ENDBRANCH   3  19
TORSDOF 4
