REMARK  5 active torsions:
REMARK  status: ('A' for Active; 'I' for Inactive)
REMARK    1  A    between atoms: N_2  and  S_1 
REMARK    2  A    between atoms: C_4  and  S_1 
REMARK    3  A    between atoms: S_3  and  N_2 
REMARK    4  A    between atoms: C_15  and  N_2 
REMARK    5  A    between atoms: C_10  and  S_3 
ROOT
ATOM      1  S   UNL d   1       1.125  -0.286  -0.141  0.00  0.00     0.275 S 
ATOM      2  O   UNL d   1       1.829   0.849  -0.711  0.00  0.00    -0.199 OA
ATOM      3  O   UNL d   1       1.897  -1.503  -0.035  0.00  0.00    -0.199 OA
ENDROOT
BRANCH   1   4
ATOM      4  N   UNL d   1      -0.290  -0.475  -1.076  0.00  0.00    -0.195 N 
BRANCH   4   5
ATOM      5  S   UNL d   1      -0.948  -2.007  -1.256  0.00  0.00     0.273 S 
ATOM      6  O   UNL d   1       0.052  -3.049  -1.276  0.00  0.00    -0.199 OA
ATOM      7  O   UNL d   1      -2.086  -2.094  -0.360  0.00  0.00    -0.199 OA
BRANCH   5   8
ATOM      8  C   UNL d   1      -1.592  -2.021  -2.930  0.00  0.00     0.080 A 
ATOM      9  C   UNL d   1      -0.719  -1.803  -4.005  0.00  0.00     0.028 A 
ATOM     10  C   UNL d   1      -1.235  -1.736  -5.304  0.00  0.00     0.044 A 
ATOM     11  C   UNL d   1      -2.602  -1.892  -5.511  0.00  0.00     0.116 A 
ATOM     12  C   UNL d   1      -3.468  -2.148  -4.452  0.00  0.00     0.044 A 
ATOM     13  F   UNL d   1      -3.098  -1.788  -6.753  0.00  0.00    -0.206 F 
ATOM     14  C   UNL d   1      -2.960  -2.235  -3.155  0.00  0.00     0.028 A 
ENDBRANCH   5   8
ENDBRANCH   4   5
BRANCH   4  15
ATOM     15  C   UNL d   1      -1.169   0.730  -1.039  0.00  0.00     0.150 C 
ATOM     16  C   UNL d   1      -2.358   0.771  -1.976  0.00  0.00     0.028 C 
ENDBRANCH   4  15
ENDBRANCH   1   4
BRANCH   1  17
ATOM     17  C   UNL d   1       0.521   0.169   1.550  0.00  0.00     0.093 A 
ATOM     18  C   UNL d   1       0.167  -0.863   2.475  0.00  0.00    -0.032 A 
ATOM     19  C   UNL d   1      -0.249  -0.519   3.801  0.00  0.00    -0.048 A 
ATOM     20  C   UNL d   1       0.187  -2.344   2.165  0.00  0.00     0.050 C 
ATOM     21  C   UNL d   1      -0.656  -1.578   4.814  0.00  0.00     0.049 C 
ATOM     22  C   UNL d   1      -0.272   0.833   4.225  0.00  0.00    -0.049 A 
ATOM     23  C   UNL d   1       0.049   1.861   3.309  0.00  0.00    -0.048 A 
ATOM     24  C   UNL d   1      -0.627   1.142   5.669  0.00  0.00     0.049 C 
ATOM     25  C   UNL d   1       0.453   1.546   1.968  0.00  0.00    -0.032 A 
ATOM     26  C   UNL d   1      -0.038   3.297   3.799  0.00  0.00     0.049 C 
ATOM     27  C   UNL d   1       0.765   2.746   1.101  0.00  0.00     0.050 C 
ENDBRANCH   1  17
TORSDOF 5
