REMARK  12 active torsions:
REMARK  status: ('A' for Active; 'I' for Inactive)
REMARK    1  A    between atoms: C_3  and  C_1 
REMARK    2  A    between atoms: C_4  and  C_1 
REMARK    3  A    between atoms: S_8  and  C_2 
REMARK    4  A    between atoms: N_12  and  C_2 
REMARK    5  A    between atoms: O_17  and  C_3 
REMARK    6  A    between atoms: N_5  and  C_4 
REMARK    7  A    between atoms: C_10  and  S_8 
REMARK    8  A    between atoms: C_9  and  C_10 
REMARK    9  A    between atoms: C_14  and  C_9 
REMARK   10  A    between atoms: C_18  and  N_12 
REMARK   11  A    between atoms: C_15  and  C_18 
REMARK   12  A    between atoms: C_21  and  O_17 
ROOT
ATOM      1  C   UNL d   1       0.955   0.088  -0.015  0.00  0.00     0.134 C 
ATOM      2  C   UNL d   1       0.250  -0.600  -0.951  0.00  0.00     0.092 C 
ENDROOT
BRANCH   2   3
ATOM      3  S   UNL d   1      -1.521  -0.622  -1.017  0.00  0.00    -0.103 SA
BRANCH   3   4
ATOM      4  C   UNL d   1      -2.086   1.027  -1.511  0.00  0.00     0.164 C 
BRANCH   4   5
ATOM      5  C   UNL d   1      -1.689   1.523  -2.893  0.00  0.00     0.169 C 
ATOM      6  O   UNL d   1      -0.673   1.149  -3.477  0.00  0.00    -0.291 OA
BRANCH   5   7
ATOM      7  C   UNL d   1      -2.536   2.603  -3.539  0.00  0.00     0.010 A 
ATOM      8  C   UNL d   1      -3.671   3.150  -2.921  0.00  0.00     0.015 A 
ATOM      9  C   UNL d   1      -4.417   4.157  -3.551  0.00  0.00     0.001 A 
ATOM     10  C   UNL d   1      -4.034   4.638  -4.802  0.00  0.00     0.000 A 
ATOM     11  C   UNL d   1      -2.908   4.107  -5.426  0.00  0.00     0.001 A 
ATOM     12  C   UNL d   1      -2.165   3.096  -4.801  0.00  0.00     0.015 A 
ENDBRANCH   5   7
ENDBRANCH   4   5
ENDBRANCH   3   4
ENDBRANCH   2   3
BRANCH   2  13
ATOM     13  N   UNL d   1       0.866  -1.448  -1.880  0.00  0.00    -0.380 N 
ATOM     14  H   UNL d   1       1.620  -0.990  -2.392  0.00  0.00     0.160 HD
BRANCH  13  15
ATOM     15  C   UNL d   1       1.233  -2.814  -1.531  0.00  0.00     0.147 C 
BRANCH  15  16
ATOM     16  C   UNL d   1       0.663  -3.711  -2.582  0.00  0.00    -0.018 C 
ATOM     17  C   UNL d   1       1.376  -4.529  -3.367  0.00  0.00     0.008 C 
ENDBRANCH  15  16
ENDBRANCH  13  15
ENDBRANCH   2  13
BRANCH   1  18
ATOM     18  C   UNL d   1       0.428   1.036   1.005  0.00  0.00     0.305 C 
ATOM     19  O   UNL d   1       1.006   2.073   1.293  0.00  0.00    -0.258 OA
BRANCH  18  20
ATOM     20  O   UNL d   1      -0.663   0.562   1.659  0.00  0.00    -0.317 OA
BRANCH  20  21
ATOM     21  C   UNL d   1      -0.982   1.225   2.895  0.00  0.00     0.174 C 
ATOM     22  C   UNL d   1      -1.877   2.437   2.701  0.00  0.00     0.034 C 
ENDBRANCH  20  21
ENDBRANCH  18  20
ENDBRANCH   1  18
BRANCH   1  23
ATOM     23  C   UNL d   1       2.475   0.088  -0.015  0.00  0.00    -0.028 C 
BRANCH  23  24
ATOM     24  N   UNL d   1       3.736   0.088  -0.015  0.00  0.00    -0.365 N 
ATOM     25  HN2 UNL d   1       2.716   0.088  -0.015  1.00  0.00     0.165 HD
ATOM     26  HN1 UNL d   1       4.756   0.088  -0.015  1.00  0.00     0.165 HD
ENDBRANCH  23  24
ENDBRANCH   1  23
TORSDOF 12
