REMARK  2 active torsions:
REMARK  status: ('A' for Active; 'I' for Inactive)
REMARK       I    between atoms: C_4  and  N_1 
REMARK    1  A    between atoms: C_3  and  C_2 
REMARK       I    between atoms: N_7  and  C_3 
REMARK    2  A    between atoms: N_10  and  N_7 
ROOT
ATOM      1  N   UNL d   1      -1.343  -0.609   0.194  0.00  0.00    -0.330 N 
ATOM      2  C   UNL d   1      -0.167  -1.227  -0.387  0.00  0.00     0.242 C 
ATOM      3  C   UNL d   1      -2.389  -1.417   0.571  0.00  0.00     0.217 C 
ATOM      4  S   UNL d   1       1.167  -0.019  -0.113  0.00  0.00    -0.133 SA
ATOM      5  O   UNL d   1      -2.326  -2.643   0.465  0.00  0.00    -0.274 OA
ATOM      6  C   UNL d   1      -1.321   0.851   0.215  0.00  0.00     0.138 C 
ATOM      7  C   UNL d   1       0.032   1.379  -0.251  0.00  0.00     0.096 C 
ATOM      8  C   UNL d   1      -3.614  -0.772   1.169  0.00  0.00     0.117 C 
ENDROOT
BRANCH   2   9
ATOM      9  C   UNL d   1      -0.347  -1.435  -1.916  0.00  0.00     0.264 C 
ATOM     10  O   UNL d   1      -1.128  -0.775  -2.607  0.00  0.00    -0.269 OA
ATOM     11  N   UNL d   1       0.507  -2.389  -2.463  0.00  0.00    -0.291 N 
ATOM     12  H   UNL d   1       1.283  -2.751  -1.911  0.00  0.00     0.183 HD
BRANCH  11  13
ATOM     13  N   UNL d   1       0.544  -2.555  -3.868  0.00  0.00    -0.247 NA
ATOM     14  H   UNL d   1       0.080  -1.731  -4.278  0.00  0.00     0.143 HD
ATOM     15  H   UNL d   1      -0.086  -3.326  -4.106  0.00  0.00     0.143 HD
ENDBRANCH  11  13
ENDBRANCH   2   9
TORSDOF 2
