REMARK  3 active torsions:
REMARK  status: ('A' for Active; 'I' for Inactive)
REMARK    1  A    between atoms: O_8  and  C_3 
REMARK    2  A    between atoms: O_10  and  C_4 
REMARK    3  A    between atoms: C_11  and  O_8 
ROOT
ATOM      1  N   UNL d   1      -0.651   1.316   0.204  0.00  0.00    -0.311 N 
ATOM      2  HN  UNL d   1      -1.119   2.217   0.304  1.00  0.00     0.170 HD
ATOM      3  C   UNL d   1      -0.770  -1.162   0.108  0.00  0.00     0.149 C 
ATOM      4  C   UNL d   1      -1.304   0.212   0.303  0.00  0.00     0.179 C 
ATOM      5  C   UNL d   1       0.692   1.239  -0.039  0.00  0.00     0.178 C 
ATOM      6  C   UNL d   1       0.567  -1.188  -0.026  0.00  0.00     0.046 C 
ATOM      7  N   UNL d   1       1.270  -0.008  -0.105  0.00  0.00    -0.334 N 
ATOM      8  S   UNL d   1       1.693   2.570  -0.215  0.00  0.00    -0.040 SA
ATOM      9  C   UNL d   1       1.360  -2.459  -0.096  0.00  0.00     0.071 C 
ATOM     10  H   UNL d   1       2.277  -0.017  -0.230  0.00  0.00     0.168 HD
ENDROOT
BRANCH   3  11
ATOM     11  O   UNL d   1      -1.511  -2.327   0.208  0.00  0.00    -0.304 OA
BRANCH  11  12
ATOM     12  C   UNL d   1      -2.704  -2.490  -0.457  0.00  0.00     0.076 A 
ATOM     13  C   UNL d   1      -3.114  -1.769  -1.579  0.00  0.00     0.039 A 
ATOM     14  C   UNL d   1      -4.397  -1.968  -2.102  0.00  0.00     0.026 A 
ATOM     15  C   UNL d   1      -5.248  -2.910  -1.524  0.00  0.00     0.034 A 
ATOM     16  C   UNL d   1      -4.824  -3.672  -0.441  0.00  0.00     0.026 A 
ATOM     17 CL   UNL d   1      -6.837  -3.130  -2.147  0.00  0.00    -0.084 Cl
ATOM     18  C   UNL d   1      -3.547  -3.463   0.090  0.00  0.00     0.039 A 
ENDBRANCH  11  12
ENDBRANCH   3  11
BRANCH   4  19
ATOM     19  O   UNL d   1      -2.596   0.293   0.665  0.00  0.00    -0.344 OA
ATOM     20  H   UNL d   1      -3.003  -0.562   0.858  0.00  0.00     0.219 HD
ENDBRANCH   4  19
TORSDOF 3
