REMARK  4 active torsions:
REMARK  status: ('A' for Active; 'I' for Inactive)
REMARK    1  A    between atoms: C_2  and  C_1 
REMARK    2  A    between atoms: S_11  and  C_3 
REMARK    3  A    between atoms: S_13  and  C_4 
REMARK    4  A    between atoms: S_12  and  C_5 
ROOT
ATOM      1  C   UNL d   1       0.759   1.162   1.059  0.00  0.00     0.050 A 
ATOM      2  C   UNL d   1      -0.009   3.242   2.841  0.00  0.00     0.033 A 
ATOM      3  C   UNL d   1       0.013   1.893   3.275  0.00  0.00     0.019 A 
ATOM      4  C   UNL d   1       0.436   3.538   1.527  0.00  0.00     0.019 A 
ATOM      5  C   UNL d   1       0.377   0.873   2.375  0.00  0.00     0.036 A 
ATOM      6  C   UNL d   1       0.800   2.498   0.655  0.00  0.00     0.036 A 
ENDROOT
BRANCH   1   7
ATOM      7  C   UNL d   1       1.117   0.067   0.082  0.00  0.00     0.417 C 
ATOM      8  F   UNL d   1       1.014  -1.185   0.604  0.00  0.00    -0.166 F 
ATOM      9  F   UNL d   1       2.397   0.181  -0.370  0.00  0.00    -0.166 F 
ATOM     10  F   UNL d   1       0.325   0.082  -1.023  0.00  0.00    -0.166 F 
ENDBRANCH   1   7
BRANCH   3  11
ATOM     11  S   UNL d   1      -0.438   1.312   4.921  0.00  0.00    -0.133 SA
ATOM     12  C   UNL d   1       0.895   2.050   5.907  0.00  0.00     0.095 C 
ENDBRANCH   3  11
BRANCH   4  13
ATOM     13  S   UNL d   1       0.550   5.191   0.829  0.00  0.00    -0.133 SA
ATOM     14  C   UNL d   1       2.264   5.574   1.286  0.00  0.00     0.095 C 
ENDBRANCH   4  13
BRANCH   2  15
ATOM     15  S   UNL d   1      -0.599   4.574   3.911  0.00  0.00    -0.132 SA
ATOM     16  C   UNL d   1      -2.374   4.194   3.911  0.00  0.00     0.095 C 
ENDBRANCH   2  15
TORSDOF 4
