REMARK  5 active torsions:
REMARK  status: ('A' for Active; 'I' for Inactive)
REMARK    1  A    between atoms: S_2  and  N_1 
REMARK    2  A    between atoms: S_3  and  N_1 
REMARK    3  A    between atoms: C_4  and  N_1 
REMARK    4  A    between atoms: C_11  and  C_4 
REMARK    5  A    between atoms: C_13  and  C_11 
ROOT
ATOM      1  N   UNL d   1       0.979  -0.459  -0.023  0.00  0.00    -0.203 N 
ENDROOT
BRANCH   1   2
ATOM      2  S   UNL d   1       0.342  -1.727  -0.930  0.00  0.00     0.237 S 
ATOM      3  O   UNL d   1      -1.103  -1.655  -0.895  0.00  0.00    -0.205 OA
ATOM      4  O   UNL d   1       1.001  -1.786  -2.218  0.00  0.00    -0.205 OA
ATOM      5  C   UNL d   1       0.835  -3.192  -0.042  0.00  0.00     0.187 C 
ENDBRANCH   1   2
BRANCH   1   6
ATOM      6  S   UNL d   1       0.410  -0.239   1.555  0.00  0.00     0.237 S 
ATOM      7  O   UNL d   1       0.942  -1.333   2.348  0.00  0.00    -0.205 OA
ATOM      8  O   UNL d   1       0.719   1.125   1.935  0.00  0.00    -0.205 OA
ATOM      9  C   UNL d   1      -1.369  -0.382   1.549  0.00  0.00     0.187 C 
ENDBRANCH   1   6
BRANCH   1  10
ATOM     10  C   UNL d   1       2.469  -0.248  -0.058  0.00  0.00     0.158 C 
BRANCH  10  11
ATOM     11  C   UNL d   1       3.124   0.012  -1.418  0.00  0.00     0.060 C 
BRANCH  11  12
ATOM     12  C   UNL d   1       2.632   1.223  -2.171  0.00  0.00    -0.057 A 
ATOM     13  C   UNL d   1       2.822   2.513  -1.656  0.00  0.00     0.009 A 
ATOM     14  C   UNL d   1       2.406   3.633  -2.381  0.00  0.00     0.024 A 
ATOM     15  C   UNL d   1       1.802   3.469  -3.625  0.00  0.00     0.034 A 
ATOM     16  C   UNL d   1       1.613   2.196  -4.153  0.00  0.00     0.024 A 
ATOM     17 CL   UNL d   1       1.292   4.849  -4.517  0.00  0.00    -0.084 Cl
ATOM     18  C   UNL d   1       2.031   1.077  -3.429  0.00  0.00     0.009 A 
ENDBRANCH  11  12
ENDBRANCH  10  11
ENDBRANCH   1  10
TORSDOF 5
