REMARK  1 active torsions:
REMARK  status: ('A' for Active; 'I' for Inactive)
REMARK    1  A    between atoms: C_10  and  C_7 
ROOT
ATOM      1  C   UNL d   1       0.237   0.663   0.023  0.00  0.00     0.705 A 
ATOM      2  N   UNL d   1       0.274  -0.741  -0.010  0.00  0.00    -0.084 N 
ATOM      3  C   UNL d   1      -0.916  -1.495  -0.028  0.00  0.00     0.094 A 
ATOM      4  N   UNL d   1      -0.933   1.363   0.025  0.00  0.00    -0.185 N 
ATOM      5  HN  UNL d   1      -0.942   2.383   0.039  1.00  0.00     0.184 HD
ATOM      6  C   UNL d   1      -2.088  -0.829  -0.000  0.00  0.00     0.068 A 
ATOM      7  C   UNL d   1      -2.040   0.673   0.009  0.00  0.00     0.134 A 
ATOM      8  N   UNL d   1       1.465   1.131   0.040  0.00  0.00    -0.185 N 
ATOM      9  HN  UNL d   1       1.769   2.104   0.068  1.00  0.00     0.185 HD
ATOM     10  N   UNL d   1       1.574  -1.144  -0.018  0.00  0.00    -0.274 N 
ATOM     11  HN  UNL d   1       1.949  -2.092  -0.040  1.00  0.00     0.189 HD
ATOM     12  C   UNL d   1      -0.907  -2.936  -0.059  0.00  0.00     0.034 A 
ATOM     13  C   UNL d   1       2.232   0.013   0.011  0.00  0.00     0.215 A 
ATOM     14  S   UNL d   1      -2.145  -3.837  -0.878  0.00  0.00    -0.100 SA
ATOM     15  C   UNL d   1       0.019  -3.821   0.477  0.00  0.00     0.021 A 
ATOM     16  C   UNL d   1      -1.454  -5.339  -0.473  0.00  0.00     0.050 A 
ATOM     17  C   UNL d   1      -0.291  -5.192   0.242  0.00  0.00     0.008 A 
ENDROOT
BRANCH   7  18
ATOM     18  C   UNL d   1      -3.388   1.403  -0.013  0.00  0.00     0.433 C 
ATOM     19  F   UNL d   1      -4.447   0.543  -0.034  0.00  0.00    -0.165 F 
ATOM     20  F   UNL d   1      -3.566   2.194   1.077  0.00  0.00    -0.165 F 
ATOM     21  F   UNL d   1      -3.526   2.196  -1.108  0.00  0.00    -0.165 F 
ENDBRANCH   7  18
TORSDOF 1
