REMARK  3 active torsions:
REMARK  status: ('A' for Active; 'I' for Inactive)
REMARK    1  A    between atoms: C_6  and  C_1 
REMARK    2  A    between atoms: C_8  and  N_3 
REMARK    3  A    between atoms: O_10  and  C_4 
REMARK       I    between atoms: N_11  and  C_6 
ROOT
ATOM      1  C   UNL d   1      -1.034   1.264   0.603  0.00  0.00     0.066 A 
ATOM      2  C   UNL d   1      -0.850  -0.062  -1.218  0.00  0.00     0.278 A 
ATOM      3  N   UNL d   1      -1.187  -0.876  -0.155  0.00  0.00    -0.337 N 
ATOM      4  C   UNL d   1      -0.754   1.311  -0.701  0.00  0.00     0.147 A 
ATOM      5  C   UNL d   1      -1.350  -0.121   1.072  0.00  0.00     0.174 A 
ATOM      6  O   UNL d   1      -0.646  -0.349  -2.384  0.00  0.00    -0.265 OA
ENDROOT
BRANCH   3   7
ATOM      7  C   UNL d   1      -1.369  -2.313  -0.310  0.00  0.00     0.088 C 
ATOM      8  C   UNL d   1      -1.279  -3.143   0.974  0.00  0.00     0.025 C 
ATOM      9  C   UNL d   1      -1.271  -4.634   0.625  0.00  0.00     0.002 C 
ATOM     10  C   UNL d   1      -2.466  -5.045  -0.237  0.00  0.00     0.000 C 
ATOM     11  C   UNL d   1      -2.691  -4.123  -1.434  0.00  0.00     0.002 C 
ATOM     12  C   UNL d   1      -2.681  -2.649  -1.034  0.00  0.00     0.025 C 
ENDBRANCH   3   7
BRANCH   1  13
ATOM     13  C   UNL d   1      -1.034   2.382   1.553  0.00  0.00     0.249 C 
ATOM     14  O   UNL d   1      -1.286   2.213   2.739  0.00  0.00    -0.268 OA
ATOM     15  N   UNL d   1      -0.734   3.602   1.041  0.00  0.00    -0.366 N 
ATOM     16  H   UNL d   1      -0.517   3.729   0.057  0.00  0.00     0.159 HD
ATOM     17  H   UNL d   1      -0.712   4.403   1.657  0.00  0.00     0.159 HD
ENDBRANCH   1  13
BRANCH   4  18
ATOM     18  O   UNL d   1      -0.413   2.379  -1.486  0.00  0.00    -0.355 OA
ATOM     19  H   UNL d   1      -0.278   1.994  -2.381  0.00  0.00     0.218 HD
ENDBRANCH   4  18
TORSDOF 3
