REMARK  7 active torsions:
REMARK  status: ('A' for Active; 'I' for Inactive)
REMARK    1  A    between atoms: C_4  and  S_1 
REMARK    2  A    between atoms: C_5  and  S_1 
REMARK       I    between atoms: C_2  and  N_3 
REMARK    3  A    between atoms: C_8  and  C_2 
REMARK    4  A    between atoms: N_3  and  C_10 
REMARK    5  A    between atoms: C_9  and  N_3 
REMARK    6  A    between atoms: C_10  and  C_4 
REMARK    7  A    between atoms: C_6  and  C_9 
ROOT
ATOM      1  C   UNL d   1      -0.152   3.241  -2.929  0.00  0.00     0.254 C 
ATOM      2  N   UNL d   1       0.460   3.553  -1.700  0.00  0.00    -0.342 N 
ATOM      3  O   UNL d   1      -0.497   4.121  -3.724  0.00  0.00    -0.267 OA
ENDROOT
BRANCH   2   4
ATOM      4  C   UNL d   1       0.891   2.587  -0.678  0.00  0.00     0.142 C 
BRANCH   4   5
ATOM      5  C   UNL d   1       0.384   2.812   0.738  0.00  0.00     0.165 C 
BRANCH   5   6
ATOM      6  S   UNL d   1      -1.372   2.558   0.837  0.00  0.00     0.177 S 
ATOM      7  O   UNL d   1      -1.663   1.190   0.453  0.00  0.00    -0.223 OA
ATOM      8  O   UNL d   1      -2.050   3.675   0.205  0.00  0.00    -0.223 OA
BRANCH   6   9
ATOM      9  C   UNL d   1      -1.683   2.694   2.580  0.00  0.00     0.059 A 
ATOM     10  C   UNL d   1      -1.932   3.953   3.136  0.00  0.00     0.025 A 
ATOM     11  C   UNL d   1      -2.171   4.060   4.506  0.00  0.00     0.025 A 
ATOM     12  C   UNL d   1      -2.171   2.914   5.303  0.00  0.00     0.034 A 
ATOM     13  C   UNL d   1      -1.938   1.657   4.743  0.00  0.00     0.025 A 
ATOM     14 CL   UNL d   1      -2.464   3.052   6.993  0.00  0.00    -0.084 Cl
ATOM     15  C   UNL d   1      -1.697   1.541   3.373  0.00  0.00     0.025 A 
ENDBRANCH   6   9
ENDBRANCH   5   6
ENDBRANCH   4   5
ENDBRANCH   2   4
BRANCH   2  16
ATOM     16  C   UNL d   1       0.720   4.980  -1.457  0.00  0.00     0.172 C 
BRANCH  16  17
ATOM     17  C   UNL d   1       2.132   5.328  -1.823  0.00  0.00     0.000 A 
ATOM     18  S   UNL d   1       3.299   5.642  -0.607  0.00  0.00    -0.105 SA
ATOM     19  C   UNL d   1       4.510   5.985  -1.766  0.00  0.00     0.050 A 
ATOM     20  C   UNL d   1       4.040   5.866  -3.054  0.00  0.00     0.008 A 
ATOM     21  C   UNL d   1       2.666   5.494  -3.087  0.00  0.00     0.017 A 
ENDBRANCH  16  17
ENDBRANCH   2  16
BRANCH   1  22
ATOM     22  C   UNL d   1      -0.445   1.843  -3.349  0.00  0.00     0.032 A 
ATOM     23  C   UNL d   1      -1.661   1.607  -4.010  0.00  0.00     0.018 A 
ATOM     24  C   UNL d   1      -1.982   0.330  -4.483  0.00  0.00     0.025 A 
ATOM     25  C   UNL d   1      -1.093  -0.722  -4.282  0.00  0.00     0.034 A 
ATOM     26  C   UNL d   1       0.130  -0.497  -3.651  0.00  0.00     0.025 A 
ATOM     27 CL   UNL d   1      -1.487  -2.298  -4.844  0.00  0.00    -0.084 Cl
ATOM     28  C   UNL d   1       0.471   0.792  -3.223  0.00  0.00     0.018 A 
ENDBRANCH   1  22
TORSDOF 7
