REMARK  6 active torsions:
REMARK  status: ('A' for Active; 'I' for Inactive)
REMARK    1  A    between atoms: N_4  and  C_1 
REMARK       I    between atoms: C_5  and  N_4 
REMARK    2  A    between atoms: C_13  and  C_5 
REMARK    3  A    between atoms: C_8  and  C_14 
REMARK    4  A    between atoms: O_12  and  C_8 
REMARK    5  A    between atoms: O_11  and  C_13 
REMARK    6  A    between atoms: C_14  and  O_11 
ROOT
ATOM      1  N   UNL d   1       3.856   0.081   0.222  0.00  0.00    -0.354 N 
ATOM      2  C   UNL d   1       4.879  -0.562  -0.439  0.00  0.00     0.241 C 
ATOM      3  O   UNL d   1       4.741  -1.132  -1.518  0.00  0.00    -0.271 OA
ATOM      4  H   UNL d   1       4.002   0.295   1.202  0.00  0.00     0.162 HD
ENDROOT
BRANCH   1   5
ATOM      5  C   UNL d   1       2.498   0.060  -0.295  0.00  0.00     0.093 C 
ATOM      6  C   UNL d   1       1.661   1.270   0.170  0.00  0.00     0.064 C 
ATOM      7  C   UNL d   1       0.274   0.717   0.076  0.00  0.00    -0.050 A 
ATOM      8  C   UNL d   1      -0.920   1.415   0.040  0.00  0.00     0.007 A 
ATOM      9  C   UNL d   1       0.296  -0.683   0.054  0.00  0.00    -0.050 A 
ATOM     10  C   UNL d   1      -2.110   0.686  -0.029  0.00  0.00     0.001 A 
ATOM     11  C   UNL d   1      -2.089  -0.717  -0.046  0.00  0.00     0.001 A 
ATOM     12  C   UNL d   1      -0.878  -1.413   0.003  0.00  0.00     0.007 A 
ATOM     13  C   UNL d   1       1.702  -1.198   0.120  0.00  0.00     0.064 C 
ENDBRANCH   1   5
BRANCH   2  14
ATOM     14  C   UNL d   1       6.237  -0.436   0.252  0.00  0.00     0.271 C 
BRANCH  14  15
ATOM     15  O   UNL d   1       6.191  -0.879   1.612  0.00  0.00    -0.372 OA
BRANCH  15  16
ATOM     16  C   UNL d   1       7.511  -0.965   2.159  0.00  0.00     0.277 C 
BRANCH  16  17
ATOM     17  C   UNL d   1       8.027   0.412   2.544  0.00  0.00     0.164 C 
ATOM     18  O   UNL d   1       9.130   0.849   2.258  0.00  0.00    -0.648 OA
BRANCH  17  19
ATOM     19  O   UNL d   1       7.104   1.122   3.242  0.00  0.00    -0.775 OA
ATOM     20  H   UNL d   1       6.278   0.606   3.341  0.00  0.00     0.167 HD
ENDBRANCH  17  19
ENDBRANCH  16  17
ENDBRANCH  15  16
ENDBRANCH  14  15
ENDBRANCH   2  14
TORSDOF 6
