REMARK  8 active torsions:
REMARK  status: ('A' for Active; 'I' for Inactive)
REMARK    1  A    between atoms: N_4  and  C_1 
REMARK    2  A    between atoms: N_5  and  C_2 
REMARK    3  A    between atoms: N_12  and  C_3 
REMARK    4  A    between atoms: C_6  and  C_9 
REMARK    5  A    between atoms: N_10  and  N_12 
REMARK    6  A    between atoms: C_15  and  C_13 
REMARK    7  A    between atoms: O_24  and  C_14 
REMARK    8  A    between atoms: O_25  and  C_20 
ROOT
ATOM      1  C   UNL d   1       0.865  -0.173  -0.640  0.00  0.00     0.134 A 
ATOM      2  C   UNL d   1      -0.312  -1.019   1.219  0.00  0.00     0.134 A 
ATOM      3  C   UNL d   1       0.572  -1.303   0.153  0.00  0.00     0.116 A 
ATOM      4  C   UNL d   1       0.285   1.103  -0.442  0.00  0.00     0.054 A 
ATOM      5  C   UNL d   1      -0.918   0.242   1.436  0.00  0.00     0.054 A 
ATOM      6  C   UNL d   1      -0.630   1.317   0.592  0.00  0.00     0.052 A 
ENDROOT
BRANCH   3   7
ATOM      7  N   UNL d   1       1.013  -2.619  -0.134  0.00  0.00    -0.292 N 
ATOM      8  C   UNL d   1       2.458  -2.899  -0.151  0.00  0.00     0.178 C 
BRANCH   7   9
ATOM      9  N   UNL d   1       0.091  -3.624   0.085  0.00  0.00    -0.309 N 
ATOM     10  C   UNL d   1       0.495  -4.787   0.506  0.00  0.00     0.121 C 
ATOM     11  HN  UNL d   1      -0.901  -3.455  -0.083  1.00  0.00     0.186 HD
BRANCH  10  12
ATOM     12  C   UNL d   1      -0.425  -5.928   0.722  0.00  0.00     0.017 A 
ATOM     13  C   UNL d   1      -1.823  -5.827   0.586  0.00  0.00     0.110 A 
ATOM     14  C   UNL d   1      -2.624  -6.950   0.843  0.00  0.00     0.102 A 
ATOM     15  C   UNL d   1      -2.010  -8.162   1.201  0.00  0.00     0.040 A 
ATOM     16  C   UNL d   1      -0.625  -8.266   1.310  0.00  0.00     0.004 A 
ATOM     17  C   UNL d   1       0.169  -7.149   1.077  0.00  0.00     0.016 A 
BRANCH  13  18
ATOM     18  O   UNL d   1      -2.394  -4.648   0.194  0.00  0.00    -0.357 OA
ATOM     19  H   UNL d   1      -1.682  -3.990   0.052  0.00  0.00     0.217 HD
ENDBRANCH  13  18
BRANCH  14  20
ATOM     20  O   UNL d   1      -3.988  -7.060   0.785  0.00  0.00    -0.353 OA
ATOM     21  C   UNL d   1      -4.747  -5.887   0.530  0.00  0.00     0.210 C 
ENDBRANCH  14  20
ENDBRANCH  10  12
ENDBRANCH   7   9
ENDBRANCH   3   7
BRANCH   2  22
ATOM     22  N   UNL d   1      -0.541  -2.003   2.263  0.00  0.00    -0.113 N 
ATOM     23  O   UNL d   1       0.445  -2.344   2.939  0.00  0.00    -0.532 OA
ATOM     24  O   UNL d   1      -1.712  -2.348   2.468  0.00  0.00    -0.532 OA
ENDBRANCH   2  22
BRANCH   1  25
ATOM     25  N   UNL d   1       1.789  -0.234  -1.751  0.00  0.00    -0.113 N 
ATOM     26  O   UNL d   1       2.971   0.035  -1.505  0.00  0.00    -0.532 OA
ATOM     27  O   UNL d   1       1.309  -0.451  -2.870  0.00  0.00    -0.532 OA
ENDBRANCH   1  25
BRANCH   6  28
ATOM     28  C   UNL d   1      -1.274   2.667   0.813  0.00  0.00     0.417 C 
ATOM     29  F   UNL d   1      -0.806   3.628  -0.028  0.00  0.00    -0.166 F 
ATOM     30  F   UNL d   1      -2.621   2.631   0.637  0.00  0.00    -0.166 F 
ATOM     31  F   UNL d   1      -1.066   3.133   2.072  0.00  0.00    -0.166 F 
ENDBRANCH   6  28
TORSDOF 8
