REMARK  3 active torsions:
REMARK  status: ('A' for Active; 'I' for Inactive)
REMARK    1  A    between atoms: N_2  and  C_1 
REMARK    2  A    between atoms: N_3  and  C_5 
REMARK    3  A    between atoms: N_9  and  C_6 
ROOT
ATOM      1  C   UNL d   1       1.437  -0.211  -0.047  0.00  0.00     0.131 A 
ATOM      2  C   UNL d   1       0.542  -1.296  -0.049  0.00  0.00     0.068 A 
ATOM      3  C   UNL d   1      -0.830  -1.057  -0.009  0.00  0.00     0.042 A 
ATOM      4  C   UNL d   1       1.027   1.137  -0.096  0.00  0.00     0.064 A 
ATOM      5  C   UNL d   1      -0.364   1.334  -0.060  0.00  0.00     0.034 A 
ATOM      6  C   UNL d   1      -1.277   0.266   0.004  0.00  0.00     0.032 A 
ENDROOT
BRANCH   3   7
ATOM      7  N   UNL d   1      -1.753  -2.148   0.049  0.00  0.00    -0.320 N 
ATOM      8  C   UNL d   1      -1.575  -3.345   0.754  0.00  0.00     0.013 A 
ATOM      9  C   UNL d   1      -2.671  -4.154   0.521  0.00  0.00     0.027 A 
ATOM     10  C   UNL d   1      -0.449  -3.672   1.679  0.00  0.00     0.068 C 
ATOM     11  C   UNL d   1      -3.560  -3.450  -0.299  0.00  0.00     0.027 A 
ATOM     12  C   UNL d   1      -2.992  -2.225  -0.596  0.00  0.00     0.013 A 
ATOM     13  C   UNL d   1      -3.572  -1.217  -1.532  0.00  0.00     0.068 C 
ENDBRANCH   3   7
BRANCH   1  14
ATOM     14  N   UNL d   1       2.837  -0.556   0.151  0.00  0.00    -0.113 N 
ATOM     15  O   UNL d   1       3.354  -1.275  -0.718  0.00  0.00    -0.532 OA
ATOM     16  O   UNL d   1       3.397  -0.150   1.176  0.00  0.00    -0.532 OA
ENDBRANCH   1  14
BRANCH   4  17
ATOM     17  N   UNL d   1       1.904   2.207  -0.130  0.00  0.00    -0.375 N 
ATOM     18  C   UNL d   1       1.532   3.538   0.382  0.00  0.00     0.149 C 
ATOM     19  C   UNL d   1       2.801   4.228   0.913  0.00  0.00     0.187 C 
ATOM     20  O   UNL d   1       3.812   4.329  -0.105  0.00  0.00    -0.388 OA
ATOM     21  C   UNL d   1       4.173   3.020  -0.584  0.00  0.00     0.187 C 
ATOM     22  C   UNL d   1       2.954   2.288  -1.171  0.00  0.00     0.149 C 
ENDBRANCH   4  17
TORSDOF 3
