REMARK  1 active torsions:
REMARK  status: ('A' for Active; 'I' for Inactive)
REMARK    1  A    between atoms: C_2  and  N_1 
ROOT
ATOM      1  C   UNL d   1       0.178   0.323  -1.263  0.00  0.00     0.111 A 
ATOM      2  C   UNL d   1      -0.875   1.246  -1.193  0.00  0.00     0.076 A 
ATOM      3  C   UNL d   1      -1.535   1.607  -2.362  0.00  0.00     0.104 A 
ATOM      4  C   UNL d   1       0.577  -0.267  -2.476  0.00  0.00    -0.026 A 
ATOM      5  C   UNL d   1      -1.173   1.023  -3.581  0.00  0.00     0.102 A 
ATOM      6  C   UNL d   1      -0.118   0.108  -3.639  0.00  0.00     0.049 A 
ATOM      7  O   UNL d   1      -2.534   2.538  -2.243  0.00  0.00    -0.346 OA
ATOM      8  O   UNL d   1      -1.805   1.306  -4.764  0.00  0.00    -0.346 OA
ATOM      9  C   UNL d   1       1.686  -1.271  -2.614  0.00  0.00     0.050 C 
ATOM     10  C   UNL d   1      -2.895   3.082  -3.519  0.00  0.00     0.202 C 
ATOM     11  C   UNL d   1      -3.054   1.973  -4.545  0.00  0.00     0.202 C 
ENDROOT
BRANCH   1  12
ATOM     12  N   UNL d   1       0.855   0.010  -0.016  0.00  0.00    -0.115 N 
ATOM     13  O   UNL d   1       0.169  -0.493   0.885  0.00  0.00    -0.532 OA
ATOM     14  O   UNL d   1       2.057   0.291   0.062  0.00  0.00    -0.532 OA
ENDBRANCH   1  12
TORSDOF 1
