REMARK  0 active torsions:
REMARK  status: ('A' for Active; 'I' for Inactive)
ROOT
ATOM      1  N   UNL d   1      -0.425   0.161   0.002  0.00  0.00    -0.256 N 
ATOM      2  C   UNL d   1      -0.042  -1.169   0.001  0.00  0.00     0.160 A 
ATOM      3  C   UNL d   1       0.525   1.173   0.002  0.00  0.00     0.267 A 
ATOM      4  N   UNL d   1       1.164  -1.617   0.001  0.00  0.00    -0.335 N 
ATOM      5  HN  UNL d   1       1.363  -2.617   0.001  1.00  0.00     0.168 HD
ATOM      6  C   UNL d   1      -1.836   0.338   0.002  0.00  0.00     0.063 A 
ATOM      7  C   UNL d   1       1.942   0.711   0.001  0.00  0.00     0.059 A 
ATOM      8  S   UNL d   1      -1.415  -2.257   0.001  0.00  0.00    -0.051 SA
ATOM      9  C   UNL d   1       2.189  -0.667   0.001  0.00  0.00     0.051 A 
ATOM     10  C   UNL d   1      -2.526  -0.884   0.002  0.00  0.00     0.035 A 
ATOM     11  C   UNL d   1      -2.557   1.527   0.001  0.00  0.00     0.055 A 
ATOM     12  C   UNL d   1       3.011   1.619   0.001  0.00  0.00     0.021 A 
ATOM     13  C   UNL d   1       3.507  -1.131  -0.000  0.00  0.00     0.054 A 
ATOM     14  O   UNL d   1       0.299   2.379   0.000  0.00  0.00    -0.267 OA
ATOM     15  C   UNL d   1      -3.910  -0.957   0.002  0.00  0.00     0.023 A 
ATOM     16  C   UNL d   1      -3.957   1.462   0.001  0.00  0.00     0.036 A 
ATOM     17  C   UNL d   1       4.568  -0.230   0.000  0.00  0.00     0.036 A 
ATOM     18  C   UNL d   1       4.326   1.143  -0.001  0.00  0.00     0.025 A 
ATOM     19  C   UNL d   1      -4.632   0.233   0.002  0.00  0.00     0.025 A 
ATOM     20 CL   UNL d   1      -4.880   2.917  -0.000  0.00  0.00    -0.084 Cl
ATOM     21 CL   UNL d   1       6.184  -0.819   0.001  0.00  0.00    -0.084 Cl
ENDROOT
TORSDOF 0
