REMARK  4 active torsions:
REMARK  status: ('A' for Active; 'I' for Inactive)
REMARK    1  A    between atoms: N_2  and  S_1 
REMARK    2  A    between atoms: C_5  and  S_1 
REMARK    3  A    between atoms: C_4  and  C_3 
REMARK    4  A    between atoms: O_19  and  C_15 
ROOT
ATOM      1  S   UNL d   1       1.811   0.458  -0.589  0.00  0.00     0.244 S 
ATOM      2  O   UNL d   1       3.173   0.790  -0.210  0.00  0.00    -0.206 OA
ATOM      3  O   UNL d   1       1.386   0.621  -1.959  0.00  0.00    -0.206 OA
ENDROOT
BRANCH   1   4
ATOM      4  N   UNL d   1       0.760   1.308   0.446  0.00  0.00    -0.197 NA
ATOM      5  C   UNL d   1      -0.638   1.622   0.033  0.00  0.00     0.114 C 
ATOM      6  C   UNL d   1      -0.500   2.951  -0.708  0.00  0.00     0.027 C 
ATOM      7  C   UNL d   1       0.576   3.690   0.079  0.00  0.00     0.017 C 
ATOM      8  C   UNL d   1       1.289   2.627   0.912  0.00  0.00     0.108 C 
BRANCH   5   9
ATOM      9  C   UNL d   1      -1.423   0.559  -0.673  0.00  0.00     0.001 A 
ATOM     10  S   UNL d   1      -2.380  -0.527   0.259  0.00  0.00    -0.105 SA
ATOM     11  C   UNL d   1      -3.060  -1.240  -1.135  0.00  0.00     0.050 A 
ATOM     12  C   UNL d   1      -2.545  -0.706  -2.292  0.00  0.00     0.008 A 
ATOM     13  C   UNL d   1      -1.606   0.332  -2.026  0.00  0.00     0.017 A 
ENDBRANCH   5   9
ENDBRANCH   1   4
BRANCH   1  14
ATOM     14  C   UNL d   1       1.625  -1.249  -0.105  0.00  0.00     0.074 A 
ATOM     15  C   UNL d   1       1.296  -2.231  -1.040  0.00  0.00     0.027 A 
ATOM     16  C   UNL d   1       1.440  -3.588  -0.705  0.00  0.00     0.038 A 
ATOM     17  C   UNL d   1       1.916  -3.953   0.558  0.00  0.00     0.068 A 
ATOM     18  C   UNL d   1       2.211  -2.960   1.496  0.00  0.00     0.038 A 
ATOM     19  C   UNL d   1       2.062  -1.613   1.175  0.00  0.00     0.027 A 
BRANCH  17  20
ATOM     20  O   UNL d   1       2.198  -5.223   0.979  0.00  0.00    -0.356 OA
ATOM     21  C   UNL d   1       1.581  -6.289   0.271  0.00  0.00     0.210 C 
ENDBRANCH  17  20
ENDBRANCH   1  14
TORSDOF 4
