REMARK  4 active torsions:
REMARK  status: ('A' for Active; 'I' for Inactive)
REMARK    1  A    between atoms: O_3  and  S_1 
REMARK    2  A    between atoms: C_7  and  S_1 
REMARK    3  A    between atoms: C_2  and  O_3 
REMARK    4  A    between atoms: C_12  and  C_6 
ROOT
ATOM      1  C   UNL d   1       1.214   2.463  -0.233  0.00  0.00     0.128 A 
ATOM      2  C   UNL d   1       0.171   3.355   0.056  0.00  0.00     0.048 A 
ATOM      3  C   UNL d   1       2.520   2.889   0.033  0.00  0.00     0.070 A 
ATOM      4  C   UNL d   1       1.718   5.025   0.964  0.00  0.00    -0.048 A 
ATOM      5  C   UNL d   1       2.754   4.136   0.637  0.00  0.00     0.034 A 
ATOM      6  C   UNL d   1       0.416   4.615   0.638  0.00  0.00     0.030 A 
ATOM      7 BR   UNL d   1      -1.635   2.921  -0.360  0.00  0.00    -0.048 Br
ATOM      8 CL   UNL d   1       3.941   2.027  -0.429  0.00  0.00    -0.081 Cl
ENDROOT
BRANCH   1   9
ATOM      9  O   UNL d   1       0.872   1.274  -0.840  0.00  0.00    -0.226 OA
BRANCH   9  10
ATOM     10  S   UNL d   1       1.544  -0.148  -0.389  0.00  0.00     0.303 S 
ATOM     11  O   UNL d   1       1.833  -0.107   1.029  0.00  0.00    -0.193 OA
ATOM     12  O   UNL d   1       2.548  -0.521  -1.366  0.00  0.00    -0.193 OA
BRANCH  10  13
ATOM     13  C   UNL d   1       0.244  -1.354  -0.610  0.00  0.00     0.086 A 
ATOM     14  C   UNL d   1      -0.276  -1.571  -1.891  0.00  0.00     0.027 A 
ATOM     15  C   UNL d   1      -1.194  -2.606  -2.093  0.00  0.00     0.025 A 
ATOM     16  C   UNL d   1      -1.578  -3.414  -1.022  0.00  0.00     0.034 A 
ATOM     17  C   UNL d   1      -1.059  -3.196   0.255  0.00  0.00     0.025 A 
ATOM     18 CL   UNL d   1      -2.684  -4.706  -1.281  0.00  0.00    -0.084 Cl
ATOM     19  C   UNL d   1      -0.142  -2.163   0.466  0.00  0.00     0.027 A 
ENDBRANCH  10  13
ENDBRANCH   9  10
ENDBRANCH   1   9
BRANCH   4  20
ATOM     20  C   UNL d   1       2.034   6.414   1.554  0.00  0.00    -0.024 C 
ATOM     21  C   UNL d   1       2.340   7.371   0.385  0.00  0.00     0.019 C 
ATOM     22  C   UNL d   1       0.868   7.003   2.379  0.00  0.00     0.019 C 
ATOM     23  C   UNL d   1       3.262   6.385   2.498  0.00  0.00     0.019 C 
ENDBRANCH   4  20
TORSDOF 4
