REMARK  7 active torsions:
REMARK  status: ('A' for Active; 'I' for Inactive)
REMARK    1  A    between atoms: N_2  and  S_1 
REMARK    2  A    between atoms: C_4  and  S_1 
REMARK    3  A    between atoms: C_3  and  N_2 
REMARK    4  A    between atoms: C_18  and  C_15 
REMARK    5  A    between atoms: C_20  and  C_18 
REMARK    6  A    between atoms: C_22  and  C_20 
REMARK    7  A    between atoms: C_21  and  C_22 
ROOT
ATOM      1  S   UNL d   1       1.024  -0.075  -0.152  0.00  0.00     0.247 S 
ATOM      2  O   UNL d   1       1.635   1.214  -0.401  0.00  0.00    -0.205 OA
ATOM      3  O   UNL d   1       1.779  -1.299  -0.317  0.00  0.00    -0.205 OA
ENDROOT
BRANCH   1   4
ATOM      4  N   UNL d   1      -0.388  -0.096  -1.080  0.00  0.00    -0.166 NA
ATOM      5  H   UNL d   1      -0.220   0.472  -1.909  0.00  0.00     0.147 HD
BRANCH   4   6
ATOM      6  C   UNL d   1      -0.869  -1.370  -1.430  0.00  0.00     0.094 A 
ATOM      7  N   UNL d   1      -0.352  -1.840  -2.576  0.00  0.00    -0.356 N 
ATOM      8  C   UNL d   1      -0.726  -3.087  -2.930  0.00  0.00     0.090 A 
ATOM      9  HN  UNL d   1       0.288  -1.286  -3.146  1.00  0.00     0.166 HD
ATOM     10  C   UNL d   1      -1.624  -3.859  -2.208  0.00  0.00     0.024 A 
ATOM     11  C   UNL d   1      -2.175  -3.328  -1.038  0.00  0.00    -0.058 A 
ATOM     12  C   UNL d   1      -1.775  -2.052  -0.634  0.00  0.00     0.050 A 
ATOM     13  C   UNL d   1      -3.169  -4.118  -0.243  0.00  0.00     0.048 C 
ENDBRANCH   4   6
ENDBRANCH   1   4
BRANCH   1  14
ATOM     14  C   UNL d   1       0.411  -0.041   1.518  0.00  0.00     0.074 A 
ATOM     15  C   UNL d   1       0.225  -1.243   2.207  0.00  0.00     0.025 A 
ATOM     16  C   UNL d   1      -0.177  -1.218   3.544  0.00  0.00     0.009 A 
ATOM     17  C   UNL d   1      -0.374   0.003   4.205  0.00  0.00    -0.058 A 
ATOM     18  C   UNL d   1      -0.147   1.200   3.509  0.00  0.00     0.009 A 
ATOM     19  C   UNL d   1       0.240   1.182   2.168  0.00  0.00     0.025 A 
BRANCH  17  20
ATOM     20  C   UNL d   1      -0.804   0.029   5.653  0.00  0.00     0.038 C 
BRANCH  20  21
ATOM     21  C   UNL d   1      -2.115   0.784   5.900  0.00  0.00     0.005 C 
BRANCH  21  22
ATOM     22  C   UNL d   1      -3.316   0.166   5.178  0.00  0.00    -0.000 C 
BRANCH  22  23
ATOM     23  C   UNL d   1      -4.586   0.968   5.462  0.00  0.00    -0.005 C 
ATOM     24  C   UNL d   1      -5.791   0.384   4.745  0.00  0.00     0.005 C 
ENDBRANCH  22  23
ENDBRANCH  21  22
ENDBRANCH  20  21
ENDBRANCH  17  20
ENDBRANCH   1  14
TORSDOF 7
