REMARK  4 active torsions:
REMARK  status: ('A' for Active; 'I' for Inactive)
REMARK    1  A    between atoms: C_7  and  C_1 
REMARK    2  A    between atoms: C_11  and  C_6 
REMARK       I    between atoms: N_9  and  C_7 
REMARK       I    between atoms: C_8  and  N_10 
REMARK    3  A    between atoms: C_12  and  C_8 
REMARK    4  A    between atoms: N_10  and  N_9 
ROOT
ATOM      1  C   UNL d   1      -0.251  -2.664   0.082  0.00  0.00     0.288 C 
ATOM      2  N   UNL d   1       0.743  -3.628   0.113  0.00  0.00    -0.262 N 
ATOM      3  O   UNL d   1      -1.434  -3.009   0.133  0.00  0.00    -0.264 OA
ATOM      4  H   UNL d   1       1.735  -3.427   0.045  0.00  0.00     0.190 HD
ENDROOT
BRANCH   1   5
ATOM      5  C   UNL d   1       0.197  -1.286   0.016  0.00  0.00     0.121 A 
ATOM      6  N   UNL d   1      -0.615  -0.174  -0.016  0.00  0.00    -0.291 N 
ATOM      7  N   UNL d   1       0.061   0.995  -0.037  0.00  0.00    -0.302 N 
ATOM      8  C   UNL d   1      -2.057  -0.079  -0.043  0.00  0.00     0.178 C 
ATOM      9  C   UNL d   1       1.351   0.651  -0.037  0.00  0.00     0.036 A 
ATOM     10  HN  UNL d   1      -0.329   1.937  -0.049  1.00  0.00     0.186 HD
ATOM     11  C   UNL d   1       1.483  -0.762  -0.017  0.00  0.00     0.064 A 
BRANCH   9  12
ATOM     12  C   UNL d   1       2.458   1.696  -0.063  0.00  0.00    -0.007 C 
ATOM     13  C   UNL d   1       3.288   1.545  -1.354  0.00  0.00     0.021 C 
ATOM     14  C   UNL d   1       1.913   3.141  -0.018  0.00  0.00     0.021 C 
ATOM     15  C   UNL d   1       3.389   1.511   1.154  0.00  0.00     0.021 C 
ENDBRANCH   9  12
ENDBRANCH   1   5
BRANCH   2  16
ATOM     16  N   UNL d   1       0.379  -4.979   0.245  0.00  0.00    -0.263 N 
ATOM     17  C   UNL d   1       1.239  -5.941  -0.248  0.00  0.00     0.270 C 
ATOM     18  O   UNL d   1       2.310  -5.679  -0.785  0.00  0.00    -0.266 OA
ATOM     19  H   UNL d   1      -0.611  -5.162   0.410  0.00  0.00     0.190 HD
BRANCH  17  20
ATOM     20  C   UNL d   1       0.808  -7.355  -0.079  0.00  0.00     0.035 A 
ATOM     21  C   UNL d   1       0.154  -7.775   1.087  0.00  0.00     0.041 A 
ATOM     22  C   UNL d   1      -0.146  -9.126   1.258  0.00  0.00     0.035 A 
ATOM     23 CL   UNL d   1      -0.905  -9.652   2.711  0.00  0.00    -0.084 Cl
ATOM     24  C   UNL d   1       0.186 -10.062   0.278  0.00  0.00     0.024 A 
ATOM     25  C   UNL d   1       0.832  -9.643  -0.886  0.00  0.00     0.003 A 
ATOM     26  C   UNL d   1       1.151  -8.295  -1.061  0.00  0.00     0.017 A 
ENDBRANCH  17  20
ENDBRANCH   2  16
TORSDOF 4
