REMARK  5 active torsions:
REMARK  status: ('A' for Active; 'I' for Inactive)
REMARK    1  A    between atoms: C_2  and  N_1 
REMARK    2  A    between atoms: N_10  and  C_3 
REMARK    3  A    between atoms: C_13  and  N_10 
REMARK    4  A    between atoms: C_11  and  C_12 
REMARK    5  A    between atoms: C_12  and  C_13 
ROOT
ATOM      1  N   UNL d   1      -0.972  -1.242   1.275  0.00  0.00    -0.277 NA
ATOM      2  H   UNL d   1      -1.976  -1.397   1.360  0.00  0.00     0.129 HD
ENDROOT
BRANCH   1   3
ATOM      3  C   UNL d   1      -0.641   0.102   1.457  0.00  0.00     0.113 A 
ATOM      4  C   UNL d   1      -1.195   0.895   2.470  0.00  0.00     0.141 A 
ATOM      5  C   UNL d   1      -0.767   2.226   2.628  0.00  0.00     0.041 A 
ATOM      6  C   UNL d   1       0.214   2.732   1.786  0.00  0.00     0.020 A 
ATOM      7  C   UNL d   1       0.728   1.891   0.822  0.00  0.00     0.089 A 
ATOM      8  N   UNL d   1       0.322   0.616   0.648  0.00  0.00    -0.355 N 
ATOM      9  HN  UNL d   1       0.736   0.042  -0.086  1.00  0.00     0.166 HD
BRANCH   4  10
ATOM     10  N   UNL d   1      -2.235   0.394   3.370  0.00  0.00    -0.112 N 
ATOM     11  O   UNL d   1      -2.821  -0.662   3.082  0.00  0.00    -0.532 OA
ATOM     12  O   UNL d   1      -2.514   1.087   4.359  0.00  0.00    -0.532 OA
ENDBRANCH   4  10
ENDBRANCH   1   3
BRANCH   1  13
ATOM     13  C   UNL d   1      -0.337  -1.937   0.151  0.00  0.00     0.100 C 
BRANCH  13  14
ATOM     14  C   UNL d   1      -0.935  -3.328  -0.083  0.00  0.00     0.071 C 
BRANCH  14  15
ATOM     15  C   UNL d   1      -0.773  -4.253   1.093  0.00  0.00     0.010 A 
ATOM     16  N   UNL d   1       0.393  -4.937   1.189  0.00  0.00    -0.369 N 
ATOM     17  C   UNL d   1       0.547  -5.743   2.263  0.00  0.00     0.088 A 
ATOM     18  HN  UNL d   1       1.123  -4.848   0.482  1.00  0.00     0.165 HD
ATOM     19  C   UNL d   1      -0.412  -5.912   3.249  0.00  0.00     0.017 A 
ATOM     20  C   UNL d   1      -1.605  -5.212   3.128  0.00  0.00     0.003 A 
ATOM     21  C   UNL d   1      -1.792  -4.371   2.037  0.00  0.00     0.025 A 
ENDBRANCH  14  15
ENDBRANCH  13  14
ENDBRANCH   1  13
TORSDOF 5
