REMARK  8 active torsions:
REMARK  status: ('A' for Active; 'I' for Inactive)
REMARK    1  A    between atoms: C_3  and  S_1 
REMARK    2  A    between atoms: C_5  and  S_1 
REMARK    3  A    between atoms: C_2  and  N_4 
REMARK    4  A    between atoms: N_16  and  C_2 
REMARK    5  A    between atoms: C_12  and  C_3 
REMARK    6  A    between atoms: N_4  and  C_12 
REMARK    7  A    between atoms: C_11  and  N_4 
REMARK    8  A    between atoms: C_6  and  C_11 
ROOT
ATOM      1  N   UNL d   1       0.178   1.092  -3.712  0.00  0.00    -0.353 N 
ENDROOT
BRANCH   1   2
ATOM      2  C   UNL d   1      -1.008   0.371  -3.977  0.00  0.00     0.169 C 
ATOM      3  S   UNL d   1      -2.169  -0.012  -2.825  0.00  0.00    -0.041 SA
BRANCH   2   4
ATOM      4  N   UNL d   1      -1.105   0.009  -5.310  0.00  0.00    -0.371 N 
ATOM      5  C   UNL d   1      -2.138  -0.834  -5.878  0.00  0.00     0.148 C 
ATOM      6  H   UNL d   1      -0.239   0.059  -5.832  0.00  0.00     0.161 HD
ENDBRANCH   2   4
ENDBRANCH   1   2
BRANCH   1   7
ATOM      7  C   UNL d   1       0.707   1.159  -2.332  0.00  0.00     0.141 C 
BRANCH   7   8
ATOM      8  C   UNL d   1       2.220   1.249  -2.231  0.00  0.00     0.165 C 
BRANCH   8   9
ATOM      9  S   UNL d   1       2.776   1.313  -0.545  0.00  0.00     0.177 S 
ATOM     10  O   UNL d   1       2.079   2.396   0.124  0.00  0.00    -0.223 OA
ATOM     11  O   UNL d   1       4.227   1.270  -0.557  0.00  0.00    -0.223 OA
BRANCH   9  12
ATOM     12  C   UNL d   1       2.221  -0.214   0.181  0.00  0.00     0.059 A 
ATOM     13  C   UNL d   1       3.030  -1.353   0.100  0.00  0.00     0.025 A 
ATOM     14  C   UNL d   1       2.590  -2.547   0.672  0.00  0.00     0.025 A 
ATOM     15  C   UNL d   1       1.353  -2.597   1.318  0.00  0.00     0.034 A 
ATOM     16  C   UNL d   1       0.556  -1.455   1.412  0.00  0.00     0.025 A 
ATOM     17 CL   UNL d   1       0.808  -4.076   2.006  0.00  0.00    -0.084 Cl
ATOM     18  C   UNL d   1       0.996  -0.253   0.855  0.00  0.00     0.025 A 
ENDBRANCH   9  12
ENDBRANCH   8   9
ENDBRANCH   7   8
ENDBRANCH   1   7
BRANCH   1  19
ATOM     19  C   UNL d   1       0.453   2.256  -4.572  0.00  0.00     0.171 C 
BRANCH  19  20
ATOM     20  C   UNL d   1       1.668   2.070  -5.436  0.00  0.00     0.000 A 
ATOM     21  S   UNL d   1       2.161   3.394  -6.420  0.00  0.00    -0.105 SA
ATOM     22  C   UNL d   1       3.473   2.517  -7.069  0.00  0.00     0.050 A 
ATOM     23  C   UNL d   1       3.554   1.247  -6.545  0.00  0.00     0.008 A 
ATOM     24  C   UNL d   1       2.506   0.985  -5.613  0.00  0.00     0.017 A 
ENDBRANCH  19  20
ENDBRANCH   1  19
TORSDOF 8
