REMARK  4 active torsions:
REMARK  status: ('A' for Active; 'I' for Inactive)
REMARK    1  A    between atoms: C_9  and  C_3 
REMARK    2  A    between atoms: S_15  and  C_12 
REMARK    3  A    between atoms: C_20  and  S_15 
REMARK    4  A    between atoms: C_22  and  C_20 
ROOT
ATOM      1  C   UNL d   1      -3.743   0.565  -0.024  0.00  0.00     0.053 A 
ATOM      2  N   UNL d   1      -4.405   0.053   1.029  0.00  0.00    -0.336 N 
ATOM      3  HN  UNL d   1      -3.912  -0.430   1.779  1.00  0.00     0.168 HD
ATOM      4  C   UNL d   1      -5.737   0.200   1.057  0.00  0.00     0.144 A 
ATOM      5  N   UNL d   1      -6.453   0.823   0.109  0.00  0.00    -0.347 N 
ATOM      6  HN  UNL d   1      -7.468   0.905   0.167  1.00  0.00     0.167 HD
ATOM      7  C   UNL d   1      -4.390   1.234  -1.045  0.00  0.00     0.048 A 
ATOM      8  C   UNL d   1      -5.756   1.333  -0.922  0.00  0.00     0.092 A 
ENDROOT
BRANCH   1   9
ATOM      9  C   UNL d   1      -2.284   0.320  -0.005  0.00  0.00     0.039 A 
ATOM     10  S   UNL d   1      -1.221   1.508  -0.688  0.00  0.00    -0.079 SA
ATOM     11  C   UNL d   1       0.105   0.581  -0.309  0.00  0.00     0.059 A 
ATOM     12  C   UNL d   1      -0.174  -0.575   0.321  0.00  0.00     0.003 A 
ATOM     13  S   UNL d   1       1.727   0.850  -0.585  0.00  0.00    -0.074 SA
ATOM     14  C   UNL d   1      -1.571  -0.777   0.529  0.00  0.00    -0.030 A 
ATOM     15  C   UNL d   1       0.988  -1.345   0.638  0.00  0.00    -0.025 A 
ATOM     16  C   UNL d   1      -2.274  -1.925   1.183  0.00  0.00     0.050 C 
ATOM     17  C   UNL d   1       1.117  -2.661   1.330  0.00  0.00     0.051 C 
ATOM     18  C   UNL d   1       2.096  -0.639   0.163  0.00  0.00     0.059 A 
ATOM     19 BR   UNL d   1       3.882  -1.225   0.300  0.00  0.00    -0.042 Br
ENDBRANCH   1   9
BRANCH   4  20
ATOM     20  S   UNL d   1      -6.561  -0.462   2.480  0.00  0.00    -0.089 SA
BRANCH  20  21
ATOM     21  C   UNL d   1      -8.159  -0.899   1.739  0.00  0.00     0.121 C 
BRANCH  21  22
ATOM     22  C   UNL d   1      -9.087  -1.525   2.755  0.00  0.00    -0.049 A 
ATOM     23  C   UNL d   1      -9.896  -0.718   3.569  0.00  0.00     0.008 A 
ATOM     24  C   UNL d   1     -10.764  -1.290   4.500  0.00  0.00     0.001 A 
ATOM     25  C   UNL d   1     -10.828  -2.675   4.635  0.00  0.00     0.000 A 
ATOM     26  C   UNL d   1     -10.016  -3.489   3.847  0.00  0.00     0.001 A 
ATOM     27  C   UNL d   1      -9.146  -2.918   2.914  0.00  0.00     0.008 A 
ENDBRANCH  21  22
ENDBRANCH  20  21
ENDBRANCH   4  20
TORSDOF 4
