REMARK  6 active torsions:
REMARK  status: ('A' for Active; 'I' for Inactive)
REMARK    1  A    between atoms: C_2  and  S_1 
REMARK    2  A    between atoms: N_12  and  S_1 
REMARK       I    between atoms: C_4  and  N_8 
REMARK    3  A    between atoms: O_13  and  C_4 
REMARK    4  A    between atoms: C_23  and  N_12 
REMARK    5  A    between atoms: C_22  and  O_13 
REMARK    6  A    between atoms: C_26  and  C_23 
ROOT
ATOM      1  N   UNL d   1       1.366   0.125   1.764  0.00  0.00    -0.315 N 
ATOM      2  H   UNL d   1       0.790   0.906   2.080  0.00  0.00     0.172 HD
ENDROOT
BRANCH   1   3
ATOM      3  S   UNL d   1       2.056   0.408   0.254  0.00  0.00     0.261 S 
ATOM      4  O   UNL d   1       2.290   1.833   0.139  0.00  0.00    -0.200 OA
ATOM      5  O   UNL d   1       3.132  -0.548   0.083  0.00  0.00    -0.200 OA
BRANCH   3   6
ATOM      6  C   UNL d   1       0.797  -0.009  -0.892  0.00  0.00     0.110 A 
ATOM      7  C   UNL d   1      -0.459   0.611  -0.893  0.00  0.00     0.108 A 
ATOM      8  C   UNL d   1      -1.470   0.272  -1.893  0.00  0.00     0.086 A 
ATOM      9  N   UNL d   1      -0.983   1.534  -0.073  0.00  0.00    -0.238 N 
ATOM     10  N   UNL d   1      -2.557   1.019  -1.659  0.00  0.00    -0.239 N 
ATOM     11  C   UNL d   1      -1.257  -0.692  -2.893  0.00  0.00     0.034 A 
ATOM     12  O   UNL d   1      -2.249   1.804  -0.564  0.00  0.00    -0.156 OA
ATOM     13  HN  UNL d   1      -3.432   1.010  -2.183  1.00  0.00     0.197 HD
ATOM     14  C   UNL d   1       0.006  -1.307  -2.865  0.00  0.00     0.004 A 
ATOM     15  C   UNL d   1       1.005  -0.979  -1.901  0.00  0.00     0.028 A 
ATOM     16  HN  UNL d   1      -0.539   1.952   0.744  1.00  0.00     0.197 HD
ENDBRANCH   3   6
ENDBRANCH   1   3
BRANCH   1  17
ATOM     17  C   UNL d   1       0.999  -1.250   2.107  0.00  0.00     0.137 C 
BRANCH  17  18
ATOM     18  C   UNL d   1       0.485  -1.376   3.555  0.00  0.00     0.007 C 
ATOM     19  C   UNL d   1       0.243  -2.863   3.889  0.00  0.00     0.026 C 
ATOM     20  C   UNL d   1      -0.985  -3.422   3.169  0.00  0.00     0.128 C 
ATOM     21  N   UNL d   1      -2.164  -2.612   3.441  0.00  0.00    -0.328 N 
ATOM     22  C   UNL d   1      -3.341  -3.236   3.832  0.00  0.00     0.363 C 
ATOM     23  C   UNL d   1      -2.046  -1.181   3.168  0.00  0.00     0.128 C 
ATOM     24  O   UNL d   1      -3.416  -4.434   4.079  0.00  0.00    -0.238 OA
ATOM     25  C   UNL d   1      -0.809  -0.591   3.849  0.00  0.00     0.026 C 
BRANCH  22  26
ATOM     26  O   UNL d   1      -4.391  -2.379   3.912  0.00  0.00    -0.294 OA
BRANCH  26  27
ATOM     27  C   UNL d   1      -5.685  -2.810   4.419  0.00  0.00     0.061 C 
ATOM     28  C   UNL d   1      -5.578  -3.266   5.881  0.00  0.00     0.046 C 
ATOM     29  C   UNL d   1      -6.570  -1.554   4.343  0.00  0.00     0.046 C 
ATOM     30  C   UNL d   1      -6.319  -3.900   3.546  0.00  0.00     0.046 C 
ENDBRANCH  26  27
ENDBRANCH  22  26
ENDBRANCH  17  18
ENDBRANCH   1  17
TORSDOF 6
