REMARK  5 active torsions:
REMARK  status: ('A' for Active; 'I' for Inactive)
REMARK    1  A    between atoms: N_6  and  C_1 
REMARK    2  A    between atoms: N_7  and  C_1 
REMARK    3  A    between atoms: N_2  and  N_6 
REMARK    4  A    between atoms: C_4  and  C_5 
REMARK    5  A    between atoms: C_11  and  N_7 
ROOT
ATOM      1  C   UNL d   1       3.147  -1.227   0.330  0.00  0.00     0.191 C 
ATOM      2  S   UNL d   1       2.716   0.388   0.338  0.00  0.00    -0.039 SA
ENDROOT
BRANCH   1   3
ATOM      3  N   UNL d   1       2.352  -2.275   0.738  0.00  0.00    -0.276 N 
ATOM      4  H   UNL d   1       2.800  -3.157   0.955  0.00  0.00     0.189 HD
BRANCH   3   5
ATOM      5  N   UNL d   1       0.995  -2.178   0.819  0.00  0.00    -0.300 N 
ATOM      6  C   UNL d   1       0.353  -3.024   1.573  0.00  0.00     0.055 C 
ATOM      7  C   UNL d   1       1.034  -4.005   2.504  0.00  0.00     0.072 C 
ATOM      8  HN  UNL d   1       0.493  -1.458   0.299  1.00  0.00     0.186 HD
BRANCH   6   9
ATOM      9  C   UNL d   1      -1.093  -3.010   1.515  0.00  0.00     0.098 A 
ATOM     10  O   UNL d   1      -1.817  -3.801   2.365  0.00  0.00    -0.321 OA
ATOM     11  C   UNL d   1      -3.129  -3.604   2.083  0.00  0.00     0.142 A 
ATOM     12  C   UNL d   1      -3.271  -2.704   1.055  0.00  0.00     0.027 A 
ATOM     13  C   UNL d   1      -1.961  -2.316   0.691  0.00  0.00     0.041 A 
ENDBRANCH   6   9
ENDBRANCH   3   5
ENDBRANCH   1   3
BRANCH   1  14
ATOM     14  N   UNL d   1       4.439  -1.563  -0.000  0.00  0.00    -0.332 N 
ATOM     15  H   UNL d   1       5.095  -0.789   0.047  0.00  0.00     0.168 HD
BRANCH  14  16
ATOM     16  C   UNL d   1       4.901  -2.736  -0.632  0.00  0.00     0.037 A 
ATOM     17  C   UNL d   1       4.058  -3.590  -1.348  0.00  0.00     0.071 A 
ATOM     18  C   UNL d   1       4.591  -4.701  -1.997  0.00  0.00     0.118 A 
ATOM     19  F   UNL d   1       3.780  -5.501  -2.701  0.00  0.00    -0.206 F 
ATOM     20  C   UNL d   1       5.949  -4.983  -1.941  0.00  0.00     0.042 A 
ATOM     21  C   UNL d   1       6.797  -4.128  -1.240  0.00  0.00     0.005 A 
ATOM     22  C   UNL d   1       6.276  -2.998  -0.602  0.00  0.00     0.029 A 
ENDBRANCH  14  16
ENDBRANCH   1  14
TORSDOF 5
