REMARK  2 active torsions:
REMARK  status: ('A' for Active; 'I' for Inactive)
REMARK    1  A    between atoms: C_2  and  C_1 
REMARK    2  A    between atoms: N_6  and  C_3 
ROOT
ATOM      1  C   UNL d   1       0.331  -0.099  -1.436  0.00  0.00     0.063 A 
ATOM      2  C   UNL d   1      -0.408  -0.621  -4.077  0.00  0.00     0.102 A 
ATOM      3  N   UNL d   1      -1.348  -0.615  -3.106  0.00  0.00    -0.352 N 
ATOM      4  HN  UNL d   1      -2.325  -0.803  -3.329  1.00  0.00     0.166 HD
ATOM      5  C   UNL d   1      -0.970  -0.355  -1.828  0.00  0.00     0.106 A 
ATOM      6  C   UNL d   1       1.299  -0.097  -2.439  0.00  0.00     0.021 A 
ATOM      7  C   UNL d   1       0.925  -0.358  -3.759  0.00  0.00     0.049 A 
ENDROOT
BRANCH   2   8
ATOM      8  N   UNL d   1      -0.763  -0.989  -5.370  0.00  0.00    -0.366 N 
ATOM      9  C   UNL d   1      -2.060  -1.662  -5.551  0.00  0.00     0.134 C 
ATOM     10  C   UNL d   1      -3.205  -0.700  -5.876  0.00  0.00     0.093 C 
ATOM     11  S   UNL d   1      -2.888   0.246  -7.406  0.00  0.00    -0.166 SA
ATOM     12  C   UNL d   1      -1.255   0.904  -6.932  0.00  0.00     0.093 C 
ATOM     13  C   UNL d   1      -0.278  -0.199  -6.511  0.00  0.00     0.134 C 
ENDBRANCH   2   8
BRANCH   1  14
ATOM     14  C   UNL d   1       0.687   0.127  -0.001  0.00  0.00     0.418 C 
ATOM     15  F   UNL d   1      -0.392   0.184   0.828  0.00  0.00    -0.166 F 
ATOM     16  F   UNL d   1       1.366   1.291   0.192  0.00  0.00    -0.166 F 
ATOM     17  F   UNL d   1       1.486  -0.857   0.497  0.00  0.00    -0.166 F 
ENDBRANCH   1  14
TORSDOF 2
