REMARK  2 active torsions:
REMARK  status: ('A' for Active; 'I' for Inactive)
REMARK    1  A    between atoms: N_5  and  N_1 
REMARK    2  A    between atoms: S_4  and  N_5 
ROOT
ATOM      1  N   UNL d   1       1.955  -0.812  -0.030  0.00  0.00    -0.203 N 
ATOM      2  C   UNL d   1       0.724  -1.497   0.070  0.00  0.00     0.287 A 
ATOM      3  C   UNL d   1      -0.401  -0.602   0.047  0.00  0.00     0.101 A 
ATOM      4  C   UNL d   1       1.978   0.581  -0.117  0.00  0.00     0.211 A 
ATOM      5  N   UNL d   1       0.959   1.394  -0.129  0.00  0.00    -0.349 N 
ATOM      6  HN  UNL d   1       1.057   2.407  -0.189  1.00  0.00     0.166 HD
ATOM      7  C   UNL d   1      -0.277   0.753  -0.053  0.00  0.00     0.056 A 
ATOM      8  S   UNL d   1      -2.026  -1.088   0.121  0.00  0.00    -0.094 SA
ATOM      9  C   UNL d   1      -1.514   1.432  -0.081  0.00  0.00     0.038 A 
ATOM     10  O   UNL d   1       0.604  -2.717   0.163  0.00  0.00    -0.265 OA
ATOM     11  C   UNL d   1      -2.566   0.541   0.002  0.00  0.00     0.053 A 
ENDROOT
BRANCH   1  12
ATOM     12  N   UNL d   1       3.281  -1.633  -0.073  0.00  0.00    -0.213 N 
ATOM     13  C   UNL d   1       3.231  -2.990   0.516  0.00  0.00     0.192 C 
BRANCH  12  14
ATOM     14  S   UNL d   1       4.746  -0.778  -0.058  0.00  0.00     0.242 S 
ATOM     15  O   UNL d   1       4.782   0.028  -1.261  0.00  0.00    -0.205 OA
ATOM     16  O   UNL d   1       4.866  -0.158   1.248  0.00  0.00    -0.205 OA
ATOM     17  C   UNL d   1       6.037  -2.001  -0.201  0.00  0.00     0.188 C 
ENDBRANCH  12  14
ENDBRANCH   1  12
TORSDOF 2
