REMARK  4 active torsions:
REMARK  status: ('A' for Active; 'I' for Inactive)
REMARK    1  A    between atoms: S_2  and  C_1 
REMARK    2  A    between atoms: C_10  and  S_2 
REMARK    3  A    between atoms: C_7  and  C_3 
REMARK    4  A    between atoms: O_13  and  C_7 
ROOT
ATOM      1  C   UNL d   1      -0.297   1.173  -0.081  0.00  0.00     0.084 A 
ATOM      2  C   UNL d   1       1.157  -0.692  -0.057  0.00  0.00     0.098 A 
ATOM      3  C   UNL d   1       1.055   0.695   0.005  0.00  0.00     0.051 A 
ATOM      4  S   UNL d   1      -0.415  -1.392  -0.197  0.00  0.00    -0.093 SA
ATOM      5  C   UNL d   1      -1.186   0.122  -0.185  0.00  0.00     0.075 A 
ATOM      6  I   UNL d   1       2.719   1.928   0.239  0.00  0.00    -0.041 I 
ENDROOT
BRANCH   1   7
ATOM      7  S   UNL d   1      -0.869   2.817   0.008  0.00  0.00     0.180 S 
ATOM      8  O   UNL d   1      -2.305   2.713  -0.164  0.00  0.00    -0.222 OA
ATOM      9  O   UNL d   1      -0.291   3.317   1.239  0.00  0.00    -0.222 OA
BRANCH   7  10
ATOM     10  C   UNL d   1      -0.187   3.706  -1.396  0.00  0.00     0.105 C 
ATOM     11  C   UNL d   1      -0.615   3.097  -2.725  0.00  0.00     0.026 C 
ATOM     12  C   UNL d   1      -0.597   5.175  -1.319  0.00  0.00     0.026 C 
ENDBRANCH   7  10
ENDBRANCH   1   7
BRANCH   2  13
ATOM     13  C   UNL d   1       2.338  -1.553  -0.015  0.00  0.00     0.301 C 
ATOM     14  O   UNL d   1       3.503  -1.171   0.033  0.00  0.00    -0.259 OA
BRANCH  13  15
ATOM     15  O   UNL d   1       2.004  -2.878  -0.049  0.00  0.00    -0.322 OA
ATOM     16  C   UNL d   1       3.129  -3.761  -0.031  0.00  0.00     0.213 C 
ENDBRANCH  13  15
ENDBRANCH   2  13
TORSDOF 4
