REMARK  2 active torsions:
REMARK  status: ('A' for Active; 'I' for Inactive)
REMARK    1  A    between atoms: C_9  and  C_3 
REMARK    2  A    between atoms: N_17  and  C_5 
ROOT
ATOM      1  C   UNL d   1       0.114   0.484  -0.004  0.00  0.00     0.031 A 
ATOM      2  C   UNL d   1      -0.133  -0.837  -0.015  0.00  0.00     0.061 A 
ATOM      3  C   UNL d   1      -1.062   1.283   0.071  0.00  0.00     0.040 A 
ATOM      4  C   UNL d   1      -2.180   0.438   0.082  0.00  0.00     0.100 A 
ATOM      5  C   UNL d   1       1.501   0.776  -0.014  0.00  0.00     0.067 A 
ATOM      6  C   UNL d   1       2.241  -0.406  -0.045  0.00  0.00     0.113 A 
ATOM      7  S   UNL d   1      -1.748  -1.238   0.039  0.00  0.00    -0.070 SA
ATOM      8  S   UNL d   1       1.223  -1.805  -0.072  0.00  0.00    -0.069 SA
ATOM      9  C   UNL d   1      -3.561   0.809   0.057  0.00  0.00     0.108 C 
ATOM     10  C   UNL d   1       3.667  -0.532  -0.045  0.00  0.00     0.109 C 
ATOM     11  N   UNL d   1      -4.679   1.120   0.042  0.00  0.00    -0.191 NA
ATOM     12  N   UNL d   1       4.820  -0.640  -0.046  0.00  0.00    -0.191 NA
ENDROOT
BRANCH   3  13
ATOM     13  C   UNL d   1      -1.181   2.785   0.077  0.00  0.00     0.088 A 
ATOM     14  O   UNL d   1      -0.261   3.646  -0.467  0.00  0.00    -0.322 OA
ATOM     15  C   UNL d   1      -0.785   4.900  -0.409  0.00  0.00     0.142 A 
ATOM     16  C   UNL d   1      -1.994   4.888   0.239  0.00  0.00     0.027 A 
ATOM     17  C   UNL d   1      -2.233   3.536   0.580  0.00  0.00     0.040 A 
ENDBRANCH   3  13
BRANCH   5  18
ATOM     18  N   UNL d   1       2.049   2.009   0.026  0.00  0.00    -0.397 N 
ATOM     19  H   UNL d   1       1.484   2.852  -0.082  0.00  0.00     0.156 HD
ATOM     20  H   UNL d   1       3.049   2.185  -0.065  0.00  0.00     0.156 HD
ENDBRANCH   5  18
TORSDOF 2
