REMARK  10 active torsions:
REMARK  status: ('A' for Active; 'I' for Inactive)
REMARK    1  A    between atoms: C_10  and  C_2 
REMARK    2  A    between atoms: C_9  and  N_5 
REMARK    3  A    between atoms: N_8  and  C_15 
REMARK    4  A    between atoms: C_13  and  C_9 
REMARK    5  A    between atoms: C_14  and  C_9 
REMARK    6  A    between atoms: C_15  and  C_21 
REMARK    7  A    between atoms: O_20  and  C_22 
REMARK    8  A    between atoms: C_23  and  O_20 
REMARK    9  A    between atoms: C_21  and  C_23 
REMARK   10  A    between atoms: O_26  and  C_21 
ROOT
ATOM      1  N   UNL d   1       6.425  -3.152   0.723  0.00  0.00     0.105 N 
ATOM      2  N   UNL d   1       7.255  -6.013   1.415  0.00  0.00     0.094 N 
ATOM      3  C   UNL d   1       7.793  -3.687   0.513  0.00  0.00     0.304 C 
ATOM      4  C   UNL d   1       5.472  -4.259   0.985  0.00  0.00     0.304 C 
ATOM      5  C   UNL d   1       8.225  -4.895   1.384  0.00  0.00     0.302 C 
ATOM      6  C   UNL d   1       5.977  -5.427   1.862  0.00  0.00     0.302 C 
ENDROOT
BRANCH   2   7
ATOM      7  C   UNL d   1       7.192  -6.700   0.098  0.00  0.00     0.306 C 
BRANCH   7   8
ATOM      8  C   UNL d   1       6.217  -7.907  -0.058  0.00  0.00     0.170 C 
BRANCH   8   9
ATOM      9  C   UNL d   1       6.460  -8.612  -1.417  0.00  0.00     0.209 C 
BRANCH   9  10
ATOM     10  O   UNL d   1       5.485  -9.627  -1.674  0.00  0.00    -0.349 OA
BRANCH  10  11
ATOM     11  C   UNL d   1       5.773 -10.951  -1.534  0.00  0.00     0.068 A 
ATOM     12  C   UNL d   1       4.715 -11.798  -1.878  0.00  0.00     0.037 A 
ATOM     13  C   UNL d   1       4.821 -13.185  -1.738  0.00  0.00     0.016 A 
ATOM     14  C   UNL d   1       5.994 -13.768  -1.249  0.00  0.00    -0.008 A 
ATOM     15  C   UNL d   1       7.072 -12.919  -0.947  0.00  0.00     0.016 A 
ATOM     16  C   UNL d   1       6.960 -11.520  -1.084  0.00  0.00     0.037 A 
BRANCH  14  17
ATOM     17  C   UNL d   1       6.028 -15.212  -1.020  0.00  0.00     0.063 A 
ATOM     18  N   UNL d   1       4.843 -15.944  -0.931  0.00  0.00    -0.292 N 
ATOM     19  N   UNL d   1       5.059 -17.225  -0.687  0.00  0.00    -0.061 NA
ATOM     20  HN  UNL d   1       3.914 -15.537  -1.042  1.00  0.00     0.183 HD
ATOM     21  S   UNL d   1       6.683 -17.594  -0.568  0.00  0.00    -0.010 SA
ATOM     22  C   UNL d   1       7.173 -15.972  -0.857  0.00  0.00     0.096 A 
ENDBRANCH  14  17
ENDBRANCH  10  11
ENDBRANCH   9  10
ENDBRANCH   8   9
BRANCH   8  23
ATOM     23  O   UNL d   1       4.855  -7.452  -0.002  0.00  0.00    -0.392 OA
ATOM     24  H   UNL d   1       4.668  -6.954  -0.815  0.00  0.00     0.210 HD
ENDBRANCH   8  23
ENDBRANCH   7   8
ENDBRANCH   2   7
BRANCH   1  25
ATOM     25  C   UNL d   1       6.356  -2.037   1.714  0.00  0.00     0.289 C 
BRANCH  25  26
ATOM     26  C   UNL d   1       7.354  -0.913   1.391  0.00  0.00    -0.021 A 
ATOM     27  C   UNL d   1       7.372  -0.290   0.125  0.00  0.00     0.010 A 
ATOM     28  C   UNL d   1       8.311   0.697  -0.174  0.00  0.00     0.001 A 
ATOM     29  C   UNL d   1       9.242   1.085   0.785  0.00  0.00     0.000 A 
ATOM     30  C   UNL d   1       9.233   0.493   2.047  0.00  0.00     0.001 A 
ATOM     31  C   UNL d   1       8.296  -0.496   2.352  0.00  0.00     0.010 A 
ENDBRANCH  25  26
BRANCH  25  32
ATOM     32  C   UNL d   1       4.953  -1.412   1.874  0.00  0.00    -0.021 A 
ATOM     33  C   UNL d   1       4.591  -0.816   3.097  0.00  0.00     0.010 A 
ATOM     34  C   UNL d   1       3.323  -0.253   3.276  0.00  0.00     0.001 A 
ATOM     35  C   UNL d   1       2.396  -0.276   2.239  0.00  0.00     0.000 A 
ATOM     36  C   UNL d   1       2.743  -0.832   1.011  0.00  0.00     0.001 A 
ATOM     37  C   UNL d   1       4.017  -1.376   0.824  0.00  0.00     0.010 A 
ENDBRANCH  25  32
ENDBRANCH   1  25
TORSDOF 10
