REMARK  3 active torsions:
REMARK  status: ('A' for Active; 'I' for Inactive)
REMARK    1  A    between atoms: S_5  and  C_1 
REMARK    2  A    between atoms: C_7  and  C_2 
REMARK       I    between atoms: N_8  and  C_7 
REMARK    3  A    between atoms: C_9  and  N_8 
ROOT
ATOM      1  C   UNL d   1      -1.261   1.691  -0.090  0.00  0.00     0.111 A 
ATOM      2  C   UNL d   1      -1.742  -0.765  -0.081  0.00  0.00     0.081 A 
ATOM      3  S   UNL d   1      -2.654   0.693  -0.099  0.00  0.00    -0.071 SA
ATOM      4  C   UNL d   1      -0.118   0.920  -0.142  0.00  0.00    -0.000 A 
ATOM      5  C   UNL d   1      -0.382  -0.494  -0.180  0.00  0.00    -0.023 A 
ATOM      6  C   UNL d   1       1.222   1.412  -0.121  0.00  0.00     0.010 C 
ATOM      7  C   UNL d   1       2.275   0.586  -0.254  0.00  0.00    -0.025 C 
ATOM      8  C   UNL d   1       0.740  -1.503  -0.228  0.00  0.00     0.045 C 
ATOM      9  C   UNL d   1       2.143  -0.895  -0.450  0.00  0.00     0.032 C 
ENDROOT
BRANCH   2  10
ATOM     10  C   UNL d   1      -2.416  -2.060   0.102  0.00  0.00     0.263 C 
ATOM     11  N   UNL d   1      -3.779  -2.049  -0.147  0.00  0.00    -0.321 N 
ATOM     12  H   UNL d   1      -4.123  -1.302  -0.739  0.00  0.00     0.169 HD
ATOM     13  O   UNL d   1      -1.810  -3.082   0.415  0.00  0.00    -0.267 OA
BRANCH  11  14
ATOM     14  C   UNL d   1      -4.709  -3.060   0.176  0.00  0.00     0.056 A 
ATOM     15  C   UNL d   1      -5.826  -3.256  -0.653  0.00  0.00     0.060 A 
ATOM     16 CL   UNL d   1      -5.956  -2.438  -2.173  0.00  0.00    -0.082 Cl
ATOM     17  C   UNL d   1      -6.837  -4.152  -0.294  0.00  0.00     0.026 A 
ATOM     18  C   UNL d   1      -6.763  -4.829   0.921  0.00  0.00     0.002 A 
ATOM     19  C   UNL d   1      -5.653  -4.648   1.748  0.00  0.00     0.002 A 
ATOM     20  C   UNL d   1      -4.617  -3.786   1.368  0.00  0.00     0.031 A 
ENDBRANCH  11  14
ENDBRANCH   2  10
BRANCH   1  21
ATOM     21  S   UNL d   1      -1.591   3.437   0.022  0.00  0.00     0.179 S 
ATOM     22  O   UNL d   1      -2.403   3.613   1.206  0.00  0.00    -0.222 OA
ATOM     23  O   UNL d   1      -0.307   4.113  -0.119  0.00  0.00    -0.222 OA
ATOM     24  C   UNL d   1      -2.562   3.824  -1.407  0.00  0.00     0.167 C 
ENDBRANCH   1  21
TORSDOF 3
