REMARK  7 active torsions:
REMARK  status: ('A' for Active; 'I' for Inactive)
REMARK    1  A    between atoms: C3_6  and  S1_1 
REMARK    2  A    between atoms: C4_7  and  S1_1 
REMARK    3  A    between atoms: C1_2  and  C3_6 
REMARK    4  A    between atoms: N1_3  and  C1_2 
REMARK    5  A    between atoms: C5_8  and  C1_2 
REMARK    6  A    between atoms: C2_4  and  C4_7 
REMARK    7  A    between atoms: O1_5  and  C5_8 
ROOT
ATOM      1  S1  <1> d   1       0.919   0.402   0.056  0.00  0.00    -0.162 SA
ENDROOT
BRANCH   1   2
ATOM      2  C3  <1> d   1       0.509  -0.107   1.770  0.00  0.00     0.111 C 
BRANCH   2   3
ATOM      3  C1  <1> d   1       1.184   0.761   2.855  0.00  0.00     0.250 C 
BRANCH   3   4
ATOM      4  N1  <1> d   1       0.857   2.192   2.688  0.00  0.00     0.085 N 
ATOM      5  H2  <1> d   1      -0.122   2.312   2.964  0.00  0.00     0.313 HD
ATOM      6  H3  <1> d   1       0.874   2.407   1.688  0.00  0.00     0.313 HD
ENDBRANCH   3   4
BRANCH   3   7
ATOM      7  C5  <1> d   1       0.772   0.291   4.262  0.00  0.00     0.200 C 
BRANCH   7   8
ATOM      8  O1  <1> d   1      -0.643   0.361   4.425  0.00  0.00    -0.399 OA
ATOM      9  H4  <1> d   1      -0.828   0.165   5.360  0.00  0.00     0.209 HD
ENDBRANCH   7   8
ENDBRANCH   3   7
ENDBRANCH   2   3
ENDBRANCH   1   2
BRANCH   1  10
ATOM     10  C4  <1> d   1       2.697   0.011   0.038  0.00  0.00     0.112 C 
BRANCH  10  11
ATOM     11  C2  <1> d   1       3.310   0.321  -1.302  0.00  0.00    -0.049 A 
ATOM     12  C6  <1> d   1       3.822   1.600  -1.568  0.00  0.00     0.008 A 
ATOM     13  C9  <1> d   1       4.373   1.898  -2.814  0.00  0.00     0.001 A 
ATOM     14  C10 <1> d   1       4.413   0.923  -3.809  0.00  0.00     0.000 A 
ATOM     15  C8  <1> d   1       3.902  -0.349  -3.560  0.00  0.00     0.001 A 
ATOM     16  C7  <1> d   1       3.350  -0.649  -2.314  0.00  0.00     0.008 A 
ENDBRANCH  10  11
ENDBRANCH   1  10
TORSDOF 7
