REMARK  5 active torsions:
REMARK  status: ('A' for Active; 'I' for Inactive)
REMARK       I    between atoms: N_2  and  C_1 
REMARK       I    between atoms: N_3  and  C_1 
REMARK    1  A    between atoms: C_7  and  N_2 
REMARK    2  A    between atoms: C_10  and  N_3 
REMARK    3  A    between atoms: O_8  and  C_9 
REMARK    4  A    between atoms: C_11  and  O_8 
REMARK    5  A    between atoms: C_16  and  C_11 
ROOT
ATOM      1  C   UNL d   1       1.046   0.003   2.323  0.00  0.00     0.036 A 
ATOM      2  C   UNL d   1       2.159   0.117   4.903  0.00  0.00     0.069 A 
ATOM      3  C   UNL d   1       2.136   0.834   2.592  0.00  0.00     0.032 A 
ATOM      4  C   UNL d   1       0.510  -0.762   3.363  0.00  0.00     0.032 A 
ATOM      5  C   UNL d   1       2.696   0.881   3.871  0.00  0.00     0.039 A 
ATOM      6  C   UNL d   1       1.074  -0.720   4.642  0.00  0.00     0.039 A 
ENDROOT
BRANCH   1   7
ATOM      7  N   UNL d   1       0.454  -0.125   1.049  0.00  0.00    -0.309 N 
ATOM      8  C   UNL d   1       1.014   0.284  -0.146  0.00  0.00     0.325 C 
ATOM      9  N   UNL d   1       0.188  -0.009  -1.217  0.00  0.00    -0.307 N 
ATOM     10  O   UNL d   1       2.112   0.815  -0.262  0.00  0.00    -0.247 OA
ATOM     11  H   UNL d   1      -0.800  -0.079  -1.022  0.00  0.00     0.170 HD
ATOM     12  H   UNL d   1      -0.324  -0.764   0.978  0.00  0.00     0.170 HD
BRANCH   9  13
ATOM     13  C   UNL d   1       0.577   0.074  -2.571  0.00  0.00     0.051 A 
ATOM     14  C   UNL d   1       1.903   0.119  -3.005  0.00  0.00     0.117 A 
ATOM     15  N   UNL d   1       2.280   0.188  -4.306  0.00  0.00    -0.373 N 
ATOM     16  C   UNL d   1       1.293   0.220  -5.222  0.00  0.00     0.088 A 
ATOM     17  HN  UNL d   1       3.263   0.214  -4.578  1.00  0.00     0.164 HD
ATOM     18  C   UNL d   1      -0.053   0.168  -4.897  0.00  0.00     0.019 A 
ATOM     19  C   UNL d   1      -0.414   0.083  -3.553  0.00  0.00     0.032 A 
ENDBRANCH   9  13
ENDBRANCH   1   7
BRANCH   2  20
ATOM     20  O   UNL d   1       2.774   0.262   6.114  0.00  0.00    -0.347 OA
BRANCH  20  21
ATOM     21  C   UNL d   1       1.989  -0.109   7.246  0.00  0.00     0.214 C 
BRANCH  21  22
ATOM     22  C   UNL d   1       2.539   0.562   8.478  0.00  0.00    -0.034 A 
ATOM     23  C   UNL d   1       2.679   1.958   8.518  0.00  0.00     0.009 A 
ATOM     24  C   UNL d   1       3.125   2.591   9.677  0.00  0.00     0.001 A 
ATOM     25  C   UNL d   1       3.434   1.836  10.807  0.00  0.00     0.000 A 
ATOM     26  C   UNL d   1       3.303   0.449  10.776  0.00  0.00     0.001 A 
ATOM     27  C   UNL d   1       2.856  -0.187   9.618  0.00  0.00     0.009 A 
ENDBRANCH  21  22
ENDBRANCH  20  21
ENDBRANCH   2  20
TORSDOF 5
