REMARK  3 active torsions:
REMARK  status: ('A' for Active; 'I' for Inactive)
REMARK    1  A    between atoms: N_2  and  S_1 
REMARK    2  A    between atoms: C_5  and  S_1 
REMARK    3  A    between atoms: S_4  and  N_2 
ROOT
ATOM      1  S   UNL d   1       1.268   0.064  -0.328  0.00  0.00     0.267 S 
ATOM      2  O   UNL d   1       1.062  -0.949  -1.343  0.00  0.00    -0.200 OA
ATOM      3  O   UNL d   1       2.598   0.467   0.092  0.00  0.00    -0.200 OA
ENDROOT
BRANCH   1   4
ATOM      4  N   UNL d   1       0.291  -0.308   1.023  0.00  0.00    -0.263 N 
ATOM      5  HN  UNL d   1      -0.711  -0.132   0.953  1.00  0.00     0.186 HD
BRANCH   4   6
ATOM      6  S   UNL d   1       0.855  -0.917   2.395  0.00  0.00    -0.107 SA
ATOM      7  C   UNL d   1       2.402  -1.774   2.054  0.00  0.00     0.159 C 
ATOM      8  S   UNL d   1       2.521  -2.926   0.681  0.00  0.00    -0.158 SA
ATOM      9  C   UNL d   1       1.062  -3.963   0.932  0.00  0.00     0.075 C 
ATOM     10  C   UNL d   1      -0.234  -3.222   1.219  0.00  0.00     0.021 C 
ATOM     11  C   UNL d   1      -0.198  -2.387   2.489  0.00  0.00     0.087 C 
ENDBRANCH   4   6
ENDBRANCH   1   4
BRANCH   1  12
ATOM     12  C   UNL d   1       0.489   1.540  -0.952  0.00  0.00     0.080 A 
ATOM     13  C   UNL d   1       1.004   2.786  -0.584  0.00  0.00     0.026 A 
ATOM     14  C   UNL d   1       0.587   3.930  -1.264  0.00  0.00     0.008 A 
ATOM     15  C   UNL d   1      -0.334   3.833  -2.314  0.00  0.00    -0.062 A 
ATOM     16  C   UNL d   1      -0.882   2.585  -2.641  0.00  0.00     0.008 A 
ATOM     17  C   UNL d   1      -0.672   5.056  -3.119  0.00  0.00     0.048 C 
ATOM     18  C   UNL d   1      -0.469   1.436  -1.965  0.00  0.00     0.026 A 
ENDBRANCH   1  12
TORSDOF 3
