REMARK  5 active torsions:
REMARK  status: ('A' for Active; 'I' for Inactive)
REMARK    1  A    between atoms: N_7  and  C_1 
REMARK    2  A    between atoms: C_18  and  C_4 
REMARK    3  A    between atoms: C_9  and  C_12 
REMARK    4  A    between atoms: C_10  and  C_13 
REMARK       I    between atoms: C_16  and  N_11 
REMARK    5  A    between atoms: C_19  and  N_14 
ROOT
ATOM      1  N   UNL d   1      -0.197   1.865   1.606  0.00  0.00    -0.316 N 
ATOM      2  HN  UNL d   1      -0.058   1.372   2.488  1.00  0.00     0.181 HD
ATOM      3  N   UNL d   1      -0.397   3.094   1.526  0.00  0.00    -0.304 N 
ATOM      4  HN  UNL d   1      -0.582   3.582   0.650  1.00  0.00     0.186 HD
ENDROOT
BRANCH   1   5
ATOM      5  C   UNL d   1      -0.182   1.208   0.299  0.00  0.00     0.240 A 
ATOM      6  C   UNL d   1      -1.540   0.603   0.016  0.00  0.00     0.041 A 
ATOM      7  N   UNL d   1      -1.555  -0.698   0.022  0.00  0.00    -0.303 N 
ATOM      8  N   UNL d   1      -0.263  -1.086   0.266  0.00  0.00    -0.268 N 
ATOM      9  HN  UNL d   1      -2.362  -1.304  -0.124  1.00  0.00     0.186 HD
ATOM     10  C   UNL d   1       0.648  -0.046   0.422  0.00  0.00     0.266 A 
ATOM     11  H   UNL d   1      -0.005  -2.065   0.311  0.00  0.00     0.190 HD
ATOM     12  O   UNL d   1       1.843  -0.143   0.626  0.00  0.00    -0.269 OA
BRANCH   6  13
ATOM     13  C   UNL d   1      -2.745   1.474  -0.268  0.00  0.00     0.038 C 
ATOM     14  C   UNL d   1      -3.600   1.716   0.972  0.00  0.00     0.030 C 
ATOM     15  C   UNL d   1      -4.545   0.566   1.284  0.00  0.00     0.126 C 
ATOM     16  N   UNL d   1      -5.344   0.161   0.135  0.00  0.00    -0.352 N 
ATOM     17  C   UNL d   1      -4.608  -0.110  -1.095  0.00  0.00     0.126 C 
ATOM     18  C   UNL d   1      -6.588  -0.404   0.423  0.00  0.00     0.215 C 
ATOM     19  C   UNL d   1      -3.582   0.967  -1.446  0.00  0.00     0.030 C 
ATOM     20  O   UNL d   1      -7.160  -0.229   1.501  0.00  0.00    -0.274 OA
ATOM     21  C   UNL d   1      -7.254  -1.250  -0.635  0.00  0.00     0.117 C 
ENDBRANCH   6  13
ENDBRANCH   1   5
BRANCH   3  22
ATOM     22  C   UNL d   1      -0.340   3.735   2.783  0.00  0.00     0.049 A 
ATOM     23  C   UNL d   1      -0.002   5.092   2.800  0.00  0.00     0.047 A 
ATOM     24  C   UNL d   1       0.091   5.813   4.003  0.00  0.00     0.050 A 
ATOM     25  C   UNL d   1      -0.192   5.158   5.210  0.00  0.00     0.032 A 
ATOM     26  C   UNL d   1      -0.546   3.800   5.225  0.00  0.00     0.050 A 
ATOM     27  C   UNL d   1      -0.617   3.103   4.005  0.00  0.00     0.047 A 
BRANCH  24  28
ATOM     28  C   UNL d   1       0.518   7.261   3.972  0.00  0.00     0.417 C 
ATOM     29  F   UNL d   1       0.601   7.830   5.206  0.00  0.00    -0.166 F 
ATOM     30  F   UNL d   1       1.744   7.423   3.402  0.00  0.00    -0.166 F 
ATOM     31  F   UNL d   1      -0.336   8.040   3.254  0.00  0.00    -0.166 F 
ENDBRANCH  24  28
BRANCH  26  32
ATOM     32  C   UNL d   1      -0.829   3.076   6.520  0.00  0.00     0.417 C 
ATOM     33  F   UNL d   1      -0.755   3.880   7.617  0.00  0.00    -0.166 F 
ATOM     34  F   UNL d   1      -2.072   2.523   6.544  0.00  0.00    -0.166 F 
ATOM     35  F   UNL d   1       0.042   2.055   6.744  0.00  0.00    -0.166 F 
ENDBRANCH  26  32
ENDBRANCH   3  22
TORSDOF 5
