REMARK  5 active torsions:
REMARK  status: ('A' for Active; 'I' for Inactive)
REMARK    1  A    between atoms: C_3  and  C_1 
REMARK    2  A    between atoms: C_5  and  C_1 
REMARK    3  A    between atoms: C_6  and  C_3 
REMARK    4  A    between atoms: C_4  and  C_10 
REMARK    5  A    between atoms: N_7  and  C_5 
ROOT
ATOM      1  C   UNL d   1       1.082  -0.055   0.019  0.00  0.00     0.100 C 
ATOM      2  C   UNL d   1       0.413  -0.338   1.164  0.00  0.00     0.060 C 
ATOM      3  S   UNL d   1      -1.327  -0.237   1.335  0.00  0.00    -0.121 SA
ATOM      4  S   UNL d   1       1.280  -0.778   2.630  0.00  0.00    -0.121 SA
ATOM      5  C   UNL d   1       0.718  -2.494   2.877  0.00  0.00     0.080 C 
ATOM      6  C   UNL d   1      -1.747  -1.979   1.100  0.00  0.00     0.080 C 
ATOM      7  C   UNL d   1      -0.700  -2.574   3.439  0.00  0.00     0.011 C 
ATOM      8  C   UNL d   1      -1.813  -2.774   2.401  0.00  0.00     0.011 C 
ENDROOT
BRANCH   1   9
ATOM      9  C   UNL d   1       0.411   0.367  -1.259  0.00  0.00     0.203 C 
ATOM     10  O   UNL d   1      -0.644   0.994  -1.267  0.00  0.00    -0.286 OA
BRANCH   9  11
ATOM     11  C   UNL d   1       1.046   0.085  -2.583  0.00  0.00     0.016 A 
ATOM     12  C   UNL d   1       1.950  -0.961  -2.810  0.00  0.00     0.031 A 
ATOM     13  C   UNL d   1       2.548  -1.132  -4.072  0.00  0.00     0.048 A 
ATOM     14  C   UNL d   1       2.174  -0.282  -5.125  0.00  0.00     0.016 A 
ATOM     15  C   UNL d   1       1.233   0.724  -4.923  0.00  0.00     0.002 A 
ATOM     16  C   UNL d   1       0.677   0.909  -3.658  0.00  0.00     0.015 A 
BRANCH  13  17
ATOM     17  C   UNL d   1       3.586  -2.203  -4.306  0.00  0.00     0.417 C 
ATOM     18  F   UNL d   1       3.865  -2.935  -3.192  0.00  0.00    -0.166 F 
ATOM     19  F   UNL d   1       3.198  -3.099  -5.253  0.00  0.00    -0.166 F 
ATOM     20  F   UNL d   1       4.774  -1.694  -4.730  0.00  0.00    -0.166 F 
ENDBRANCH  13  17
ENDBRANCH   9  11
ENDBRANCH   1   9
BRANCH   1  21
ATOM     21  C   UNL d   1       2.602  -0.055   0.019  0.00  0.00    -0.031 C 
BRANCH  21  22
ATOM     22  N   UNL d   1       3.863  -0.055   0.019  0.00  0.00    -0.365 N 
ATOM     23  HN2 UNL d   1       2.843  -0.055   0.019  1.00  0.00     0.165 HD
ATOM     24  HN1 UNL d   1       4.883  -0.055   0.019  1.00  0.00     0.165 HD
ENDBRANCH  21  22
ENDBRANCH   1  21
TORSDOF 5
