REMARK  7 active torsions:
REMARK  status: ('A' for Active; 'I' for Inactive)
REMARK    1  A    between atoms: S_2  and  C_1 
REMARK    2  A    between atoms: N_13  and  S_2 
REMARK    3  A    between atoms: C_9  and  C_4 
REMARK    4  A    between atoms: N_8  and  C_18 
REMARK    5  A    between atoms: O_19  and  C_9 
REMARK    6  A    between atoms: C_16  and  N_13 
REMARK    7  A    between atoms: C_18  and  C_16 
ROOT
ATOM      1  S   UNL d   1       0.358   2.841   0.009  0.00  0.00     0.257 S 
ATOM      2  O   UNL d   1      -0.126   3.305  -1.270  0.00  0.00    -0.204 OA
ATOM      3  O   UNL d   1      -0.105   3.420   1.248  0.00  0.00    -0.204 OA
ENDROOT
BRANCH   1   4
ATOM      4  C   UNL d   1      -0.028   1.094   0.017  0.00  0.00     0.146 A 
ATOM      5  N   UNL d   1      -0.740   0.374   0.975  0.00  0.00    -0.336 N 
ATOM      6  C   UNL d   1      -0.880  -0.962   0.578  0.00  0.00     0.111 A 
ATOM      7  C   UNL d   1      -1.289   0.862   2.226  0.00  0.00     0.157 C 
ATOM      8  C   UNL d   1      -0.258  -1.074  -0.654  0.00  0.00     0.039 A 
ATOM      9  C   UNL d   1       0.266   0.182  -0.996  0.00  0.00     0.046 A 
BRANCH   6  10
ATOM     10  C   UNL d   1      -1.557  -2.022   1.316  0.00  0.00     0.309 C 
ATOM     11  O   UNL d   1      -2.100  -1.906   2.409  0.00  0.00    -0.258 OA
BRANCH  10  12
ATOM     12  O   UNL d   1      -1.487  -3.187   0.611  0.00  0.00    -0.321 OA
ATOM     13  C   UNL d   1      -2.102  -4.316   1.230  0.00  0.00     0.213 C 
ENDBRANCH  10  12
ENDBRANCH   6  10
ENDBRANCH   1   4
BRANCH   1  14
ATOM     14  N   UNL d   1       2.044   3.013  -0.045  0.00  0.00    -0.213 NA
ATOM     15  H   UNL d   1       2.240   3.837  -0.620  0.00  0.00     0.140 HD
BRANCH  14  16
ATOM     16  C   UNL d   1       2.705   3.068   1.280  0.00  0.00     0.124 C 
BRANCH  16  17
ATOM     17  C   UNL d   1       4.218   3.233   1.130  0.00  0.00     0.142 C 
BRANCH  17  18
ATOM     18  N   UNL d   1       4.903   3.290   2.407  0.00  0.00    -0.332 N 
ATOM     19  C   UNL d   1       5.128   4.461   3.130  0.00  0.00     0.318 C 
ATOM     20  N   UNL d   1       5.713   4.093   4.335  0.00  0.00    -0.341 N 
ATOM     21  O   UNL d   1       4.877   5.604   2.785  0.00  0.00    -0.247 OA
ATOM     22  C   UNL d   1       6.065   2.697   4.302  0.00  0.00     0.144 C 
ATOM     23  H   UNL d   1       6.145   4.803   4.913  0.00  0.00     0.164 HD
ATOM     24  C   UNL d   1       5.096   2.143   3.268  0.00  0.00     0.147 C 
ENDBRANCH  17  18
ENDBRANCH  16  17
ENDBRANCH  14  16
ENDBRANCH   1  14
TORSDOF 7
