REMARK  6 active torsions:
REMARK  status: ('A' for Active; 'I' for Inactive)
REMARK    1  A    between atoms: C_2  and  S_1 
REMARK    2  A    between atoms: N_8  and  S_1 
REMARK    3  A    between atoms: C_3  and  C_5 
REMARK    4  A    between atoms: C_4  and  C_6 
REMARK    5  A    between atoms: N_7  and  C_14 
REMARK    6  A    between atoms: C_25  and  N_8 
ROOT
ATOM      1  S   UNL d   1       0.948  -0.109  -0.011  0.00  0.00     0.263 S 
ATOM      2  O   UNL d   1       0.134  -0.977   0.810  0.00  0.00    -0.200 OA
ATOM      3  O   UNL d   1       2.362  -0.361  -0.191  0.00  0.00    -0.200 OA
ENDROOT
BRANCH   1   4
ATOM      4  C   UNL d   1       0.749   1.547   0.621  0.00  0.00     0.081 A 
ATOM      5  C   UNL d   1      -0.438   1.905   1.272  0.00  0.00     0.041 A 
ATOM      6  C   UNL d   1      -0.560   3.173   1.864  0.00  0.00     0.050 A 
ATOM      7  C   UNL d   1       0.526   4.067   1.787  0.00  0.00     0.032 A 
ATOM      8  C   UNL d   1       1.726   3.707   1.147  0.00  0.00     0.050 A 
ATOM      9  C   UNL d   1       1.826   2.438   0.558  0.00  0.00     0.041 A 
BRANCH   6  10
ATOM     10  C   UNL d   1      -1.812   3.575   2.613  0.00  0.00     0.417 C 
ATOM     11  F   UNL d   1      -2.762   2.601   2.646  0.00  0.00    -0.166 F 
ATOM     12  F   UNL d   1      -1.555   3.895   3.911  0.00  0.00    -0.166 F 
ATOM     13  F   UNL d   1      -2.412   4.668   2.068  0.00  0.00    -0.166 F 
ENDBRANCH   6  10
BRANCH   8  14
ATOM     14  C   UNL d   1       2.897   4.664   1.140  0.00  0.00     0.417 C 
ATOM     15  F   UNL d   1       4.008   4.162   0.535  0.00  0.00    -0.166 F 
ATOM     16  F   UNL d   1       2.611   5.828   0.495  0.00  0.00    -0.166 F 
ATOM     17  F   UNL d   1       3.280   5.016   2.398  0.00  0.00    -0.166 F 
ENDBRANCH   8  14
ENDBRANCH   1   4
BRANCH   1  18
ATOM     18  N   UNL d   1       0.198  -0.040  -1.507  0.00  0.00    -0.281 N 
ATOM     19  H   UNL d   1      -0.392  -0.844  -1.714  0.00  0.00     0.179 HD
BRANCH  18  20
ATOM     20  C   UNL d   1       0.795   0.665  -2.579  0.00  0.00     0.042 A 
ATOM     21  C   UNL d   1       1.787   0.090  -3.370  0.00  0.00     0.032 A 
ATOM     22  C   UNL d   1       2.285   0.789  -4.481  0.00  0.00     0.032 A 
ATOM     23  C   UNL d   1       1.796   2.066  -4.800  0.00  0.00     0.038 A 
ATOM     24  C   UNL d   1       0.814   2.635  -3.975  0.00  0.00     0.032 A 
ATOM     25  C   UNL d   1       0.314   1.933  -2.876  0.00  0.00     0.032 A 
BRANCH  23  26
ATOM     26  N   UNL d   1       2.255   2.768  -5.960  0.00  0.00    -0.333 N 
ATOM     27  C   UNL d   1       1.887   4.046  -6.349  0.00  0.00     0.096 A 
ATOM     28  C   UNL d   1       2.486   4.354  -7.550  0.00  0.00     0.019 A 
ATOM     29  C   UNL d   1       3.273   3.247  -7.915  0.00  0.00     0.019 A 
ATOM     30  C   UNL d   1       3.130   2.299  -6.925  0.00  0.00     0.096 A 
ENDBRANCH  23  26
ENDBRANCH  18  20
ENDBRANCH   1  18
TORSDOF 6
