REMARK  5 active torsions:
REMARK  status: ('A' for Active; 'I' for Inactive)
REMARK    1  A    between atoms: C_4  and  C_1 
REMARK       I    between atoms: N_15  and  C_4 
REMARK    2  A    between atoms: C_17  and  C_6 
REMARK    3  A    between atoms: C_8  and  O_16 
REMARK    4  A    between atoms: N_18  and  N_15 
REMARK    5  A    between atoms: O_16  and  C_17 
ROOT
ATOM      1  C   UNL d   1       0.681   0.953  -0.626  0.00  0.00     0.109 A 
ATOM      2  N   UNL d   1       0.491  -0.374  -1.034  0.00  0.00    -0.347 N 
ATOM      3  HN  UNL d   1       0.460  -0.689  -2.004  1.00  0.00     0.166 HD
ATOM      4  C   UNL d   1       0.686   1.135   0.744  0.00  0.00     0.086 A 
ATOM      5  C   UNL d   1       0.357  -1.155   0.021  0.00  0.00     0.075 A 
ATOM      6  S   UNL d   1       0.467  -0.358   1.545  0.00  0.00    -0.084 SA
ENDROOT
BRANCH   5   7
ATOM      7  C   UNL d   1       0.066  -2.629  -0.023  0.00  0.00     0.240 C 
BRANCH   7   8
ATOM      8  O   UNL d   1       1.319  -3.318   0.018  0.00  0.00    -0.345 OA
BRANCH   8   9
ATOM      9  C   UNL d   1       1.248  -4.683  -0.074  0.00  0.00     0.072 A 
ATOM     10  C   UNL d   1       2.374  -5.305  -0.619  0.00  0.00     0.060 A 
ATOM     11  C   UNL d   1       2.413  -6.694  -0.748  0.00  0.00     0.038 A 
ATOM     12 CL   UNL d   1       3.794  -7.449  -1.444  0.00  0.00    -0.084 Cl
ATOM     13  C   UNL d   1       1.345  -7.477  -0.321  0.00  0.00     0.048 A 
ATOM     14  C   UNL d   1       0.235  -6.854   0.243  0.00  0.00     0.038 A 
ATOM     15  C   UNL d   1       0.180  -5.464   0.371  0.00  0.00     0.060 A 
ATOM     16 CL   UNL d   1      -1.087  -7.808   0.797  0.00  0.00    -0.084 Cl
ENDBRANCH   8   9
ENDBRANCH   7   8
ENDBRANCH   5   7
BRANCH   1  17
ATOM     17  C   UNL d   1       0.836   2.045  -1.590  0.00  0.00     0.282 C 
ATOM     18  O   UNL d   1       0.933   3.226  -1.268  0.00  0.00    -0.265 OA
ATOM     19  N   UNL d   1       0.851   1.608  -2.909  0.00  0.00    -0.288 N 
ATOM     20  H   UNL d   1       0.860   0.602  -3.076  0.00  0.00     0.183 HD
BRANCH  19  21
ATOM     21  N   UNL d   1       1.052   2.521  -3.971  0.00  0.00    -0.247 NA
ATOM     22  H   UNL d   1       1.296   3.428  -3.548  0.00  0.00     0.143 HD
ATOM     23  H   UNL d   1       0.146   2.688  -4.416  0.00  0.00     0.143 HD
ENDBRANCH  19  21
ENDBRANCH   1  17
TORSDOF 5
