REMARK  2 active torsions:
REMARK  status: ('A' for Active; 'I' for Inactive)
REMARK    1  A    between atoms: O_10  and  C_2 
REMARK    2  A    between atoms: O_9  and  C_3 
ROOT
ATOM      1  C   UNL d   1      -1.497   0.041   0.001  0.00  0.00     0.238 A 
ATOM      2  C   UNL d   1      -0.732  -1.260  -0.004  0.00  0.00     0.125 A 
ATOM      3  C   UNL d   1      -0.701   1.322  -0.002  0.00  0.00     0.125 A 
ATOM      4  C   UNL d   1       0.635   1.266   0.001  0.00  0.00     0.095 A 
ATOM      5  C   UNL d   1       0.603  -1.238  -0.002  0.00  0.00     0.095 A 
ATOM      6  C   UNL d   1       1.380   0.004   0.004  0.00  0.00     0.177 A 
ATOM      7  O   UNL d   1      -2.724   0.057   0.009  0.00  0.00    -0.282 OA
ATOM      8  O   UNL d   1       2.604  -0.011   0.009  0.00  0.00    -0.288 OA
ENDROOT
BRANCH   2   9
ATOM      9  O   UNL d   1      -1.336  -2.515  -0.010  0.00  0.00    -0.352 OA
ATOM     10  C   UNL d   1      -2.756  -2.586  -0.013  0.00  0.00     0.210 C 
ENDBRANCH   2   9
BRANCH   3  11
ATOM     11  O   UNL d   1      -1.270   2.592  -0.006  0.00  0.00    -0.352 OA
ATOM     12  C   UNL d   1      -2.689   2.700  -0.010  0.00  0.00     0.210 C 
ENDBRANCH   3  11
TORSDOF 2
