REMARK  5 active torsions:
REMARK  status: ('A' for Active; 'I' for Inactive)
REMARK    1  A    between atoms: C_4  and  C_1 
REMARK    2  A    between atoms: N_10  and  C_2 
REMARK    3  A    between atoms: C_3  and  C_13 
REMARK    4  A    between atoms: O_15  and  C_4 
REMARK    5  A    between atoms: N_8  and  N_10 
ROOT
ATOM      1  N   UNL d   1       2.677   2.861   0.420  0.00  0.00    -0.310 N 
ATOM      2  HN  UNL d   1       1.902   3.446   0.107  1.00  0.00     0.186 HD
ATOM      3  C   UNL d   1       3.763   3.377   0.897  0.00  0.00     0.123 C 
ENDROOT
BRANCH   1   4
ATOM      4  N   UNL d   1       2.614   1.502   0.355  0.00  0.00    -0.300 N 
ATOM      5  H   UNL d   1       3.481   0.971   0.245  0.00  0.00     0.187 HD
BRANCH   4   6
ATOM      6  C   UNL d   1       1.419   0.875   0.151  0.00  0.00     0.071 A 
ATOM      7  C   UNL d   1       1.240  -0.468  -0.143  0.00  0.00     0.108 A 
ATOM      8  S   UNL d   1      -0.441  -0.839  -0.300  0.00  0.00    -0.094 SA
ATOM      9  C   UNL d   1      -0.911   0.765   0.022  0.00  0.00     0.053 A 
ATOM     10  C   UNL d   1       0.175   1.577   0.241  0.00  0.00     0.039 A 
BRANCH   7  11
ATOM     11  C   UNL d   1       2.174  -1.564  -0.330  0.00  0.00     0.302 C 
ATOM     12  O   UNL d   1       1.881  -2.734  -0.573  0.00  0.00    -0.259 OA
BRANCH  11  13
ATOM     13  O   UNL d   1       3.468  -1.133  -0.190  0.00  0.00    -0.322 OA
ATOM     14  C   UNL d   1       4.426  -2.185  -0.345  0.00  0.00     0.213 C 
ENDBRANCH  11  13
ENDBRANCH   7  11
ENDBRANCH   4   6
ENDBRANCH   1   4
BRANCH   3  15
ATOM     15  C   UNL d   1       3.940   4.843   0.963  0.00  0.00     0.041 A 
ATOM     16  C   UNL d   1       2.824   5.689   0.992  0.00  0.00     0.129 A 
ATOM     17  F   UNL d   1       1.576   5.202   1.058  0.00  0.00    -0.205 F 
ATOM     18  C   UNL d   1       2.969   7.077   0.982  0.00  0.00     0.043 A 
ATOM     19  C   UNL d   1       4.239   7.642   0.945  0.00  0.00     0.005 A 
ATOM     20  C   UNL d   1       5.362   6.812   0.941  0.00  0.00     0.025 A 
ATOM     21  C   UNL d   1       5.216   5.418   0.957  0.00  0.00     0.048 A 
ATOM     22 CL   UNL d   1       6.665   4.475   0.930  0.00  0.00    -0.083 Cl
ENDBRANCH   3  15
TORSDOF 5
