REMARK  4 active torsions:
REMARK  status: ('A' for Active; 'I' for Inactive)
REMARK    1  A    between atoms: C_3  and  C_4 
REMARK       I    between atoms: N_8  and  C_3 
REMARK    2  A    between atoms: C_11  and  N_8 
REMARK    3  A    between atoms: C_9  and  C_10 
REMARK    4  A    between atoms: C_10  and  C_11 
ROOT
ATOM      1  N   UNL d   1       2.123   0.828   0.858  0.00  0.00    -0.197 NA
ATOM      2  C   UNL d   1       3.284   0.873   0.884  0.00  0.00     0.068 C 
ATOM      3  C   UNL d   1       4.745   0.947   0.867  0.00  0.00     0.226 C 
ENDROOT
BRANCH   3   4
ATOM      4  C   UNL d   1       5.346  -0.238   1.586  0.00  0.00     0.230 C 
ATOM      5  O   UNL d   1       5.635  -0.195   2.780  0.00  0.00    -0.273 OA
ATOM      6  N   UNL d   1       5.561  -1.357   0.808  0.00  0.00    -0.360 N 
ATOM      7  H   UNL d   1       5.288  -1.367  -0.168  0.00  0.00     0.162 HD
BRANCH   6   8
ATOM      8  C   UNL d   1       6.076  -2.598   1.375  0.00  0.00     0.128 C 
BRANCH   8   9
ATOM      9  C   UNL d   1       7.603  -2.641   1.429  0.00  0.00     0.076 C 
BRANCH   9  10
ATOM     10  C   UNL d   1       8.083  -3.924   2.059  0.00  0.00     0.010 A 
ATOM     11  N   UNL d   1       8.248  -4.991   1.240  0.00  0.00    -0.369 N 
ATOM     12  C   UNL d   1       8.660  -6.150   1.805  0.00  0.00     0.088 A 
ATOM     13  HN  UNL d   1       8.070  -4.924   0.238  1.00  0.00     0.165 HD
ATOM     14  C   UNL d   1       8.907  -6.305   3.158  0.00  0.00     0.017 A 
ATOM     15  C   UNL d   1       8.724  -5.204   3.985  0.00  0.00     0.003 A 
ATOM     16  C   UNL d   1       8.306  -3.996   3.433  0.00  0.00     0.025 A 
ENDBRANCH   9  10
ENDBRANCH   8   9
ENDBRANCH   6   8
ENDBRANCH   3   4
TORSDOF 4
