REMARK  6 active torsions:
REMARK  status: ('A' for Active; 'I' for Inactive)
REMARK    1  A    between atoms: C_2  and  S_1 
REMARK    2  A    between atoms: N_5  and  S_1 
REMARK    3  A    between atoms: C_3  and  C_8 
REMARK    4  A    between atoms: C_21  and  N_14 
REMARK    5  A    between atoms: C_22  and  C_21 
REMARK    6  A    between atoms: C_23  and  C_22 
ROOT
ATOM      1  S   UNL d   1       1.581  -0.082  -0.543  0.00  0.00     0.267 S 
ATOM      2  O   UNL d   1       1.745   1.045   0.350  0.00  0.00    -0.200 OA
ATOM      3  O   UNL d   1       2.676  -0.965  -0.871  0.00  0.00    -0.200 OA
ENDROOT
BRANCH   1   4
ATOM      4  C   UNL d   1       1.085   0.642  -2.096  0.00  0.00     0.121 A 
ATOM      5  S   UNL d   1       0.721  -0.480  -3.335  0.00  0.00    -0.074 SA
ATOM      6  C   UNL d   1       0.305   0.756  -4.433  0.00  0.00     0.033 A 
ATOM      7  C   UNL d   1       0.436   2.008  -3.868  0.00  0.00     0.023 A 
ATOM      8  C   UNL d   1       0.880   1.942  -2.512  0.00  0.00     0.034 A 
BRANCH   6   9
ATOM      9  C   UNL d   1      -0.151   0.521  -5.842  0.00  0.00     0.056 A 
ATOM     10  N   UNL d   1      -0.416   1.581  -6.694  0.00  0.00    -0.353 N 
ATOM     11  C   UNL d   1      -0.778   1.125  -7.874  0.00  0.00     0.047 A 
ATOM     12  HN  UNL d   1      -0.342   2.567  -6.445  1.00  0.00     0.166 HD
ATOM     13  C   UNL d   1      -1.109   1.981  -9.045  0.00  0.00     0.076 C 
ATOM     14  S   UNL d   1      -0.862  -0.585  -8.018  0.00  0.00    -0.087 SA
ATOM     15  C   UNL d   1      -0.341  -0.731  -6.393  0.00  0.00     0.082 A 
ENDBRANCH   6   9
ENDBRANCH   1   4
BRANCH   1  16
ATOM     16  N   UNL d   1       0.239  -0.992  -0.045  0.00  0.00    -0.303 N 
ATOM     17  C   UNL d   1      -0.819  -0.250   0.688  0.00  0.00     0.165 C 
ATOM     18  C   UNL d   1      -0.549  -0.282   2.208  0.00  0.00     0.293 C 
ATOM     19  N   UNL d   1      -0.408  -1.649   2.769  0.00  0.00     0.091 N 
ATOM     20  C   UNL d   1       0.652  -2.356   2.011  0.00  0.00     0.293 C 
ATOM     21  C   UNL d   1       0.473  -2.357   0.481  0.00  0.00     0.165 C 
BRANCH  19  22
ATOM     22  C   UNL d   1      -1.710  -2.345   2.775  0.00  0.00     0.277 C 
BRANCH  22  23
ATOM     23  C   UNL d   1      -1.695  -3.683   3.529  0.00  0.00     0.068 C 
BRANCH  23  24
ATOM     24  C   UNL d   1      -3.066  -4.316   3.592  0.00  0.00    -0.057 A 
ATOM     25  C   UNL d   1      -3.515  -5.144   2.553  0.00  0.00     0.007 A 
ATOM     26  C   UNL d   1      -4.767  -5.758   2.629  0.00  0.00     0.001 A 
ATOM     27  C   UNL d   1      -5.584  -5.542   3.737  0.00  0.00     0.000 A 
ATOM     28  C   UNL d   1      -5.157  -4.701   4.763  0.00  0.00     0.001 A 
ATOM     29  C   UNL d   1      -3.906  -4.086   4.689  0.00  0.00     0.007 A 
ENDBRANCH  23  24
ENDBRANCH  22  23
ENDBRANCH  19  22
ENDBRANCH   1  16
TORSDOF 6
