REMARK  4 active torsions:
REMARK  status: ('A' for Active; 'I' for Inactive)
REMARK    1  A    between atoms: N_10  and  C_1 
REMARK    2  A    between atoms: O_12  and  C_8 
REMARK    3  A    between atoms: O_11  and  C_9 
REMARK    4  A    between atoms: C_13  and  N_10 
ROOT
ATOM      1  C   UNL d   1      -1.234  -0.119  -0.053  0.00  0.00     0.689 A 
ATOM      2  N   UNL d   1      -0.506  -1.227  -0.115  0.00  0.00    -0.154 N 
ATOM      3  HN  UNL d   1      -0.922  -2.151  -0.226  1.00  0.00     0.188 HD
ATOM      4  N   UNL d   1      -0.715   1.098   0.047  0.00  0.00    -0.154 N 
ATOM      5  HN  UNL d   1      -1.298   1.934   0.091  1.00  0.00     0.188 HD
ATOM      6  N   UNL d   1       1.428   0.127   0.072  0.00  0.00    -0.287 N 
ATOM      7  HN  UNL d   1       2.442   0.217   0.127  1.00  0.00     0.173 HD
ATOM      8  C   UNL d   1       0.608   1.161   0.087  0.00  0.00     0.240 A 
ATOM      9  C   UNL d   1       0.809  -1.040  -0.022  0.00  0.00     0.240 A 
ENDROOT
BRANCH   1  10
ATOM     10  N   UNL d   1      -2.618  -0.262  -0.148  0.00  0.00    -0.192 N 
ATOM     11  H   UNL d   1      -2.884  -1.216  -0.344  0.00  0.00     0.184 HD
BRANCH  10  12
ATOM     12  C   UNL d   1      -3.633   0.579   0.330  0.00  0.00     0.049 A 
ATOM     13  C   UNL d   1      -4.886   0.564  -0.292  0.00  0.00     0.030 A 
ATOM     14  C   UNL d   1      -5.903   1.434   0.117  0.00  0.00     0.002 A 
ATOM     15  C   UNL d   1      -5.681   2.325   1.165  0.00  0.00     0.000 A 
ATOM     16  C   UNL d   1      -4.442   2.353   1.795  0.00  0.00     0.002 A 
ATOM     17  C   UNL d   1      -3.424   1.494   1.372  0.00  0.00     0.030 A 
ENDBRANCH  10  12
ENDBRANCH   1  10
BRANCH   9  18
ATOM     18  O   UNL d   1       1.657  -2.127  -0.022  0.00  0.00    -0.327 OA
ATOM     19  C   UNL d   1       0.981  -3.375   0.028  0.00  0.00     0.213 C 
ENDBRANCH   9  18
BRANCH   8  20
ATOM     20  O   UNL d   1       1.224   2.394   0.168  0.00  0.00    -0.327 OA
ATOM     21  C   UNL d   1       0.311   3.478   0.036  0.00  0.00     0.213 C 
ENDBRANCH   8  20
TORSDOF 4
