REMARK  4 active torsions:
REMARK  status: ('A' for Active; 'I' for Inactive)
REMARK    1  A    between atoms: N_4  and  C_1 
REMARK    2  A    between atoms: C_10  and  N_5 
REMARK    3  A    between atoms: C_11  and  C_10 
REMARK    4  A    between atoms: C_12  and  C_11 
ROOT
ATOM      1  C   UNL d   1      -0.326   1.119  -0.007  0.00  0.00     0.190 A 
ATOM      2  N   UNL d   1       0.989   0.708  -0.040  0.00  0.00    -0.326 N 
ATOM      3  HN  UNL d   1       1.819   1.300  -0.069  1.00  0.00     0.169 HD
ATOM      4  N   UNL d   1      -0.353  -1.061  -0.008  0.00  0.00    -0.343 N 
ATOM      5  C   UNL d   1       0.951  -0.611  -0.026  0.00  0.00     0.081 A 
ATOM      6  C   UNL d   1      -1.176   0.036   0.019  0.00  0.00     0.147 A 
ATOM      7  C   UNL d   1       2.142  -1.500  -0.020  0.00  0.00     0.089 C 
ENDROOT
BRANCH   4   8
ATOM      8  C   UNL d   1      -0.808  -2.441   0.026  0.00  0.00     0.137 C 
BRANCH   8   9
ATOM      9  C   UNL d   1      -1.632  -2.820  -1.199  0.00  0.00     0.098 C 
BRANCH   9  10
ATOM     10  C   UNL d   1      -2.041  -4.275  -1.146  0.00  0.00     0.124 C 
ATOM     11  O   UNL d   1      -1.699  -5.016  -0.225  0.00  0.00    -0.298 OA
ATOM     12  C   UNL d   1      -2.893  -4.790  -2.276  0.00  0.00     0.091 C 
ENDBRANCH   9  10
ENDBRANCH   8   9
ENDBRANCH   4   8
BRANCH   1  13
ATOM     13  N   UNL d   1      -0.682   2.520  -0.002  0.00  0.00    -0.096 N 
ATOM     14  O   UNL d   1      -1.896   2.782  -0.002  0.00  0.00    -0.530 OA
ATOM     15  O   UNL d   1       0.233   3.354  -0.001  0.00  0.00    -0.530 OA
ENDBRANCH   1  13
TORSDOF 4
