REMARK  3 active torsions:
REMARK  status: ('A' for Active; 'I' for Inactive)
REMARK    1  A    between atoms: C_11  and  C_3 
REMARK    2  A    between atoms: C_13  and  C_4 
REMARK    3  A    between atoms: C_12  and  C_10 
ROOT
ATOM      1  C   UNL d   1       0.326  -0.731   0.062  0.00  0.00     0.144 A 
ATOM      2  N   UNL d   1       0.350   0.647   0.048  0.00  0.00    -0.202 N 
ATOM      3  C   UNL d   1       2.410   0.065  -0.007  0.00  0.00     0.147 A 
ATOM      4  C   UNL d   1       1.643  -1.157   0.037  0.00  0.00     0.053 A 
ATOM      5  N   UNL d   1       1.606   1.146   0.034  0.00  0.00    -0.284 N 
ATOM      6  HN  UNL d   1       1.884   2.127   0.051  1.00  0.00     0.187 HD
ATOM      7  N   UNL d   1      -0.891  -1.341   0.088  0.00  0.00    -0.343 N 
ATOM      8  C   UNL d   1      -0.785   1.470   0.035  0.00  0.00     0.270 A 
ATOM      9  C   UNL d   1      -2.069   0.725   0.021  0.00  0.00     0.102 A 
ATOM     10  C   UNL d   1      -2.093  -0.625   0.046  0.00  0.00     0.024 A 
ATOM     11  O   UNL d   1      -0.714   2.689   0.026  0.00  0.00    -0.266 OA
ATOM     12  H   UNL d   1      -0.967  -2.353   0.163  0.00  0.00     0.167 HD
ENDROOT
BRANCH   4  13
ATOM     13  C   UNL d   1       2.080  -2.550  -0.009  0.00  0.00    -0.020 A 
ATOM     14  C   UNL d   1       3.216  -2.964   0.701  0.00  0.00     0.012 A 
ATOM     15  C   UNL d   1       3.730  -4.254   0.543  0.00  0.00     0.001 A 
ATOM     16  C   UNL d   1       3.079  -5.169  -0.278  0.00  0.00     0.000 A 
ATOM     17  C   UNL d   1       1.910  -4.795  -0.937  0.00  0.00     0.001 A 
ATOM     18  C   UNL d   1       1.422  -3.490  -0.815  0.00  0.00     0.012 A 
ENDBRANCH   4  13
BRANCH   3  19
ATOM     19  C   UNL d   1       3.906   0.263  -0.103  0.00  0.00     0.434 C 
ATOM     20  F   UNL d   1       4.601  -0.877  -0.356  0.00  0.00    -0.165 F 
ATOM     21  F   UNL d   1       4.248   1.127  -1.098  0.00  0.00    -0.165 F 
ATOM     22  F   UNL d   1       4.420   0.769   1.051  0.00  0.00    -0.165 F 
ENDBRANCH   3  19
BRANCH  10  23
ATOM     23  C   UNL d   1      -3.415  -1.433   0.020  0.00  0.00    -0.009 C 
ATOM     24  C   UNL d   1      -4.685  -0.546   0.009  0.00  0.00     0.021 C 
ATOM     25  C   UNL d   1      -3.464  -2.311  -1.248  0.00  0.00     0.021 C 
ATOM     26  C   UNL d   1      -3.505  -2.337   1.266  0.00  0.00     0.021 C 
ENDBRANCH  10  23
TORSDOF 3
