REMARK  4 active torsions:
REMARK  status: ('A' for Active; 'I' for Inactive)
REMARK    1  A    between atoms: C_3  and  C_2 
REMARK    2  A    between atoms: C_4  and  C_3 
REMARK    3  A    between atoms: C_15  and  C_6 
REMARK    4  A    between atoms: O_24  and  C_20 
ROOT
ATOM      1  C   UNL d   1       2.639   2.259   1.395  0.00  0.00     0.026 A 
ATOM      2  C   UNL d   1       2.921   2.760   2.698  0.00  0.00     0.007 A 
ATOM      3  C   UNL d   1       4.266   2.703   3.113  0.00  0.00     0.043 A 
ATOM      4  N   UNL d   1       5.246   2.185   2.358  0.00  0.00    -0.365 N 
ATOM      5  HN  UNL d   1       6.207   2.158   2.698  1.00  0.00     0.165 HD
ATOM      6  C   UNL d   1       1.967   3.300   3.607  0.00  0.00     0.051 A 
ATOM      7  C   UNL d   1       4.610   3.210   4.359  0.00  0.00     0.033 A 
ATOM      8  C   UNL d   1       2.332   3.804   4.856  0.00  0.00     0.069 A 
ATOM      9  C   UNL d   1       4.933   1.700   1.138  0.00  0.00     0.089 A 
ATOM     10  C   UNL d   1       3.665   3.762   5.231  0.00  0.00     0.039 A 
ATOM     11  C   UNL d   1       3.659   1.725   0.612  0.00  0.00     0.033 A 
ENDROOT
BRANCH   1  12
ATOM     12  C   UNL d   1       1.270   2.375   0.801  0.00  0.00     0.193 C 
ATOM     13  O   UNL d   1       0.640   3.414   1.008  0.00  0.00    -0.290 OA
BRANCH  12  14
ATOM     14  C   UNL d   1       0.730   1.307  -0.173  0.00  0.00     0.298 C 
ATOM     15  N   UNL d   1       1.189  -0.083   0.150  0.00  0.00     0.108 N 
ATOM     16  C   UNL d   1       0.750  -0.964  -0.972  0.00  0.00     0.246 C 
ATOM     17  C   UNL d   1       0.571  -0.538   1.417  0.00  0.00     0.275 C 
ATOM     18  C   UNL d   1      -0.796  -1.003  -1.074  0.00  0.00     0.044 C 
ATOM     19  C   UNL d   1      -1.402  -0.041  -0.039  0.00  0.00    -0.008 C 
ATOM     20  C   UNL d   1      -0.959  -0.496   1.356  0.00  0.00     0.035 C 
ATOM     21  C   UNL d   1      -0.815   1.357  -0.280  0.00  0.00     0.049 C 
BRANCH  16  22
ATOM     22  C   UNL d   1       1.349  -2.345  -0.857  0.00  0.00    -0.002 C 
ATOM     23  C   UNL d   1       2.472  -2.741  -1.471  0.00  0.00     0.009 C 
ENDBRANCH  16  22
ENDBRANCH  12  14
ENDBRANCH   1  12
BRANCH   8  24
ATOM     24  O   UNL d   1       1.300   4.299   5.604  0.00  0.00    -0.356 OA
ATOM     25  C   UNL d   1       1.635   4.910   6.844  0.00  0.00     0.210 C 
ENDBRANCH   8  24
TORSDOF 4
