REMARK  6 active torsions:
REMARK  status: ('A' for Active; 'I' for Inactive)
REMARK    1  A    between atoms: C_2  and  S_1 
REMARK    2  A    between atoms: N_4  and  S_1 
REMARK    3  A    between atoms: C_12  and  N_4 
REMARK    4  A    between atoms: C_15  and  C_24 
REMARK    5  A    between atoms: S_19  and  C_20 
REMARK    6  A    between atoms: C_24  and  S_19 
ROOT
ATOM      1  C   UNL d   1       0.769  -2.517  -0.339  0.00  0.00     0.059 A 
ATOM      2  C   UNL d   1       2.107  -2.812  -0.673  0.00  0.00     0.028 A 
ATOM      3  C   UNL d   1      -0.252  -3.425  -0.657  0.00  0.00     0.031 A 
ATOM      4  C   UNL d   1       2.368  -4.022  -1.348  0.00  0.00     0.021 A 
ATOM      5  C   UNL d   1       0.033  -4.620  -1.317  0.00  0.00     0.002 A 
ATOM      6  C   UNL d   1       1.344  -4.918  -1.665  0.00  0.00     0.002 A 
ENDROOT
BRANCH   2   7
ATOM      7  S   UNL d   1       3.567  -1.810  -0.365  0.00  0.00    -0.123 SA
BRANCH   7   8
ATOM      8  C   UNL d   1       3.291  -1.111   1.296  0.00  0.00     0.118 C 
BRANCH   8   9
ATOM      9  C   UNL d   1       4.537  -0.385   1.786  0.00  0.00    -0.046 A 
ATOM     10  C   UNL d   1       5.464  -1.064   2.614  0.00  0.00     0.041 A 
ATOM     11  C   UNL d   1       6.587  -0.308   3.003  0.00  0.00     0.085 A 
ATOM     12  N   UNL d   1       7.622  -0.658   3.778  0.00  0.00    -0.240 N 
ATOM     13  C   UNL d   1       6.786   1.071   2.577  0.00  0.00     0.085 A 
ATOM     14  O   UNL d   1       8.444   0.454   3.836  0.00  0.00    -0.156 OA
ATOM     15  HN  UNL d   1       7.774  -1.560   4.231  1.00  0.00     0.197 HD
ATOM     16  N   UNL d   1       7.934   1.515   3.104  0.00  0.00    -0.240 N 
ATOM     17  HN  UNL d   1       8.346   2.441   2.991  1.00  0.00     0.197 HD
ATOM     18  C   UNL d   1       5.868   1.741   1.749  0.00  0.00     0.034 A 
ATOM     19  C   UNL d   1       4.750   0.970   1.372  0.00  0.00     0.010 A 
ENDBRANCH   8   9
ENDBRANCH   7   8
ENDBRANCH   2   7
BRANCH   1  20
ATOM     20  N   UNL d   1       0.377  -1.317   0.328  0.00  0.00    -0.279 N 
ATOM     21  H   UNL d   1      -0.266  -1.415   1.109  0.00  0.00     0.179 HD
BRANCH  20  22
ATOM     22  S   UNL d   1       0.101   0.087  -0.558  0.00  0.00     0.269 S 
ATOM     23  O   UNL d   1      -0.255   1.092   0.430  0.00  0.00    -0.200 OA
ATOM     24  O   UNL d   1       1.182   0.313  -1.482  0.00  0.00    -0.200 OA
BRANCH  22  25
ATOM     25  C   UNL d   1      -1.352  -0.011  -1.591  0.00  0.00     0.120 A 
ATOM     26  S   UNL d   1      -2.817  -0.495  -0.850  0.00  0.00    -0.088 SA
ATOM     27  C   UNL d   1      -3.734  -0.079  -2.239  0.00  0.00     0.051 A 
ATOM     28  C   UNL d   1      -2.936   0.361  -3.271  0.00  0.00     0.009 A 
ATOM     29  C   UNL d   1      -1.557   0.365  -2.908  0.00  0.00     0.033 A 
ENDBRANCH  22  25
ENDBRANCH  20  22
ENDBRANCH   1  20
TORSDOF 6
