REMARK  6 active torsions:
REMARK  status: ('A' for Active; 'I' for Inactive)
REMARK    1  A    between atoms: C_2  and  C_1 
REMARK    2  A    between atoms: C_8  and  C_2 
REMARK    3  A    between atoms: S_13  and  C_3 
REMARK    4  A    between atoms: S_14  and  C_3 
REMARK    5  A    between atoms: C_4  and  O_7 
REMARK    6  A    between atoms: O_7  and  C_16 
ROOT
ATOM      1  C   UNL d   1       0.875   1.189   2.194  0.00  0.00     0.014 A 
ATOM      2  C   UNL d   1       1.948   2.066   1.977  0.00  0.00     0.018 A 
ATOM      3  C   UNL d   1       0.319   1.088   3.475  0.00  0.00     0.018 A 
ATOM      4  C   UNL d   1       2.017   2.570   4.343  0.00  0.00     0.076 A 
ATOM      5  C   UNL d   1       0.871   1.795   4.542  0.00  0.00     0.038 A 
ATOM      6  C   UNL d   1       2.519   2.753   3.053  0.00  0.00     0.038 A 
ENDROOT
BRANCH   4   7
ATOM      7  O   UNL d   1       2.694   3.193   5.369  0.00  0.00    -0.309 OA
BRANCH   7   8
ATOM      8  C   UNL d   1       2.826   2.517   6.567  0.00  0.00     0.098 A 
ATOM      9  C   UNL d   1       2.792   3.257   7.756  0.00  0.00     0.069 A 
ATOM     10  C   UNL d   1       2.868   2.609   8.992  0.00  0.00     0.050 A 
ATOM     11 CL   UNL d   1       2.638   4.976   7.741  0.00  0.00    -0.081 Cl
ATOM     12  C   UNL d   1       2.986   1.221   9.037  0.00  0.00     0.035 A 
ATOM     13  C   UNL d   1       3.072   0.479   7.862  0.00  0.00     0.026 A 
ATOM     14 CL   UNL d   1       3.027   0.415  10.556  0.00  0.00    -0.084 Cl
ATOM     15  C   UNL d   1       3.022   1.129   6.628  0.00  0.00     0.041 A 
ENDBRANCH   7   8
ENDBRANCH   4   7
BRANCH   1  16
ATOM     16  C   UNL d   1       0.285   0.348   1.117  0.00  0.00     0.183 C 
ATOM     17  O   UNL d   1      -0.862  -0.067   1.240  0.00  0.00    -0.288 OA
BRANCH  16  18
ATOM     18  C   UNL d   1       1.168  -0.034  -0.020  0.00  0.00     0.081 C 
ATOM     19  C   UNL d   1       0.790  -0.418  -1.251  0.00  0.00     0.040 C 
BRANCH  19  20
ATOM     20  S   UNL d   1       2.078  -0.839  -2.376  0.00  0.00    -0.127 SA
ATOM     21  C   UNL d   1       1.623  -2.541  -2.794  0.00  0.00     0.096 C 
ENDBRANCH  19  20
BRANCH  19  22
ATOM     22  S   UNL d   1      -0.845  -0.482  -1.840  0.00  0.00    -0.127 SA
ATOM     23  C   UNL d   1      -1.371   1.234  -1.634  0.00  0.00     0.096 C 
ENDBRANCH  19  22
ENDBRANCH  16  18
ENDBRANCH   1  16
TORSDOF 6
