REMARK  5 active torsions:
REMARK  status: ('A' for Active; 'I' for Inactive)
REMARK    1  A    between atoms: C_2  and  S_1 
REMARK    2  A    between atoms: N_4  and  S_1 
REMARK    3  A    between atoms: N_6  and  N_4 
REMARK    4  A    between atoms: C_13  and  C_5 
REMARK       I    between atoms: C_7  and  N_6 
REMARK       I    between atoms: N_12  and  C_7 
REMARK    5  A    between atoms: C_17  and  N_12 
ROOT
ATOM      1  S   UNL d   1       1.293   0.051   0.153  0.00  0.00     0.282 S 
ATOM      2  O   UNL d   1       0.810  -0.665  -1.005  0.00  0.00    -0.198 OA
ATOM      3  O   UNL d   1       2.703   0.244   0.415  0.00  0.00    -0.198 OA
ENDROOT
BRANCH   1   4
ATOM      4  C   UNL d   1       0.690  -0.828   1.574  0.00  0.00     0.122 A 
ATOM      5  S   UNL d   1      -1.004  -0.984   1.700  0.00  0.00    -0.074 SA
ATOM      6  C   UNL d   1      -0.906  -1.778   3.222  0.00  0.00     0.033 A 
ATOM      7  C   UNL d   1       0.417  -1.945   3.597  0.00  0.00     0.023 A 
ATOM      8  C   UNL d   1       1.335  -1.411   2.647  0.00  0.00     0.034 A 
BRANCH   6   9
ATOM      9  C   UNL d   1      -2.119  -2.128   3.975  0.00  0.00     0.049 A 
ATOM     10  N   UNL d   1      -1.952  -2.113   5.321  0.00  0.00    -0.365 N 
ATOM     11  C   UNL d   1      -3.043  -2.340   6.085  0.00  0.00     0.088 A 
ATOM     12  HN  UNL d   1      -1.039  -1.936   5.740  1.00  0.00     0.165 HD
ATOM     13  C   UNL d   1      -4.303  -2.596   5.574  0.00  0.00     0.017 A 
ATOM     14  C   UNL d   1      -4.452  -2.642   4.194  0.00  0.00     0.004 A 
ATOM     15  C   UNL d   1      -3.345  -2.410   3.379  0.00  0.00     0.031 A 
ENDBRANCH   6   9
ENDBRANCH   1   4
BRANCH   1  16
ATOM     16  N   UNL d   1       0.563   1.584   0.135  0.00  0.00    -0.218 N 
ATOM     17  H   UNL d   1       0.023   1.784  -0.704  0.00  0.00     0.200 HD
BRANCH  16  18
ATOM     18  N   UNL d   1       0.874   2.518   1.185  0.00  0.00    -0.242 N 
ATOM     19  C   UNL d   1       0.488   3.833   1.276  0.00  0.00     0.339 C 
ATOM     20  N   UNL d   1      -0.232   4.321   0.216  0.00  0.00    -0.308 N 
ATOM     21  O   UNL d   1       0.821   4.456   2.278  0.00  0.00    -0.245 OA
ATOM     22  H   UNL d   1      -0.344   3.697  -0.562  0.00  0.00     0.170 HD
ATOM     23  H   UNL d   1       1.464   2.195   1.951  0.00  0.00     0.192 HD
BRANCH  20  24
ATOM     24  C   UNL d   1      -0.777   5.619   0.078  0.00  0.00     0.038 A 
ATOM     25  C   UNL d   1      -0.707   6.605   1.066  0.00  0.00     0.053 A 
ATOM     26  C   UNL d   1      -1.311   7.849   0.867  0.00  0.00     0.036 A 
ATOM     27 CL   UNL d   1      -1.238   9.046   2.104  0.00  0.00    -0.084 Cl
ATOM     28  C   UNL d   1      -1.981   8.133  -0.318  0.00  0.00     0.024 A 
ATOM     29  C   UNL d   1      -2.040   7.165  -1.320  0.00  0.00     0.004 A 
ATOM     30  C   UNL d   1      -1.440   5.915  -1.122  0.00  0.00     0.029 A 
ENDBRANCH  20  24
ENDBRANCH  16  18
ENDBRANCH   1  16
TORSDOF 5
