REMARK  6 active torsions:
REMARK  status: ('A' for Active; 'I' for Inactive)
REMARK    1  A    between atoms: N_10  and  S_1 
REMARK    2  A    between atoms: C_12  and  S_1 
REMARK    3  A    between atoms: C_2  and  C_9 
REMARK    4  A    between atoms: C_15  and  C_8 
REMARK    5  A    between atoms: C_11  and  N_10 
REMARK    6  A    between atoms: C_16  and  C_17 
ROOT
ATOM      1  C   UNL d   1       2.181  -0.650  -2.881  0.00  0.00     0.044 A 
ATOM      2  C   UNL d   1       0.914  -1.038  -2.407  0.00  0.00     0.057 A 
ATOM      3  C   UNL d   1       2.389  -0.605  -4.275  0.00  0.00     0.018 A 
ATOM      4  C   UNL d   1      -0.116  -1.316  -3.320  0.00  0.00     0.031 A 
ATOM      5  C   UNL d   1       1.362  -0.895  -5.174  0.00  0.00     0.001 A 
ATOM      6  C   UNL d   1       0.103  -1.234  -4.693  0.00  0.00     0.002 A 
ENDROOT
BRANCH   1   7
ATOM      7  C   UNL d   1       3.309  -0.275  -2.035  0.00  0.00     0.177 A 
ATOM      8  O   UNL d   1       3.350  -0.748  -0.753  0.00  0.00    -0.273 OA
ATOM      9  C   UNL d   1       4.483  -0.147  -0.272  0.00  0.00     0.174 A 
ATOM     10  N   UNL d   1       5.111   0.562  -1.190  0.00  0.00    -0.277 N 
ATOM     11  N   UNL d   1       4.358   0.465  -2.338  0.00  0.00    -0.277 N 
ATOM     12  HN  UNL d   1       5.982   1.079  -1.072  1.00  0.00     0.189 HD
ATOM     13  HN  UNL d   1       4.570   0.884  -3.244  1.00  0.00     0.189 HD
BRANCH   9  14
ATOM     14  C   UNL d   1       4.844  -0.403   1.112  0.00  0.00     0.017 A 
ATOM     15  C   UNL d   1       4.125  -1.287   1.922  0.00  0.00     0.016 A 
ATOM     16  C   UNL d   1       4.554  -1.570   3.225  0.00  0.00     0.009 A 
ATOM     17  C   UNL d   1       5.709  -0.974   3.765  0.00  0.00    -0.051 A 
ATOM     18  C   UNL d   1       6.389  -0.049   2.959  0.00  0.00     0.009 A 
ATOM     19  C   UNL d   1       5.966   0.230   1.656  0.00  0.00     0.016 A 
BRANCH  17  20
ATOM     20  C   UNL d   1       6.195  -1.353   5.174  0.00  0.00    -0.024 C 
ATOM     21  C   UNL d   1       7.490  -0.621   5.594  0.00  0.00     0.019 C 
ATOM     22  C   UNL d   1       5.111  -1.012   6.216  0.00  0.00     0.019 C 
ATOM     23  C   UNL d   1       6.493  -2.868   5.231  0.00  0.00     0.019 C 
ENDBRANCH  17  20
ENDBRANCH   9  14
ENDBRANCH   1   7
BRANCH   2  24
ATOM     24  N   UNL d   1       0.586  -1.134  -1.018  0.00  0.00    -0.280 N 
ATOM     25  H   UNL d   1       0.017  -1.928  -0.730  0.00  0.00     0.179 HD
BRANCH  24  26
ATOM     26  S   UNL d   1       0.179   0.259  -0.148  0.00  0.00     0.263 S 
ATOM     27  O   UNL d   1       1.224   1.250  -0.288  0.00  0.00    -0.200 OA
ATOM     28  O   UNL d   1      -0.253  -0.202   1.154  0.00  0.00    -0.200 OA
BRANCH  26  29
ATOM     29  C   UNL d   1      -1.256   0.864  -1.002  0.00  0.00     0.079 A 
ATOM     30  C   UNL d   1      -2.526   0.419  -0.626  0.00  0.00     0.026 A 
ATOM     31  C   UNL d   1      -3.648   0.910  -1.294  0.00  0.00     0.008 A 
ATOM     32  C   UNL d   1      -3.507   1.851  -2.326  0.00  0.00    -0.062 A 
ATOM     33  C   UNL d   1      -2.226   2.297  -2.681  0.00  0.00     0.008 A 
ATOM     34  C   UNL d   1      -4.721   2.377  -3.033  0.00  0.00     0.048 C 
ATOM     35  C   UNL d   1      -1.101   1.813  -2.015  0.00  0.00     0.026 A 
ENDBRANCH  26  29
ENDBRANCH  24  26
ENDBRANCH   2  24
TORSDOF 6
