REMARK  5 active torsions:
REMARK  status: ('A' for Active; 'I' for Inactive)
REMARK    1  A    between atoms: C_2  and  N_1 
REMARK    2  A    between atoms: C_5  and  C_6 
REMARK    3  A    between atoms: O_12  and  C_15 
REMARK    4  A    between atoms: C_13  and  O_12 
REMARK    5  A    between atoms: C_15  and  C_14 
ROOT
ATOM      1  O   UNL d   1      -1.615   4.944  -2.985  0.00  0.00    -0.347 OA
ENDROOT
BRANCH   1   2
ATOM      2  C   UNL d   1      -2.088   4.459  -1.728  0.00  0.00     0.214 C 
BRANCH   2   3
ATOM      3  C   UNL d   1      -1.537   3.065  -1.507  0.00  0.00    -0.034 A 
ATOM      4  C   UNL d   1      -0.151   2.846  -1.454  0.00  0.00     0.012 A 
ATOM      5  C   UNL d   1       0.360   1.559  -1.256  0.00  0.00     0.037 A 
ATOM      6  C   UNL d   1      -0.522   0.481  -1.108  0.00  0.00     0.102 A 
ATOM      7  C   UNL d   1      -1.906   0.685  -1.149  0.00  0.00     0.037 A 
ATOM      8  C   UNL d   1      -2.407   1.974  -1.348  0.00  0.00     0.012 A 
BRANCH   6   9
ATOM      9  N   UNL d   1       0.008  -0.873  -0.909  0.00  0.00    -0.116 N 
ATOM     10  O   UNL d   1      -0.807  -1.798  -0.774  0.00  0.00    -0.532 OA
ATOM     11  O   UNL d   1       1.239  -1.014  -0.886  0.00  0.00    -0.532 OA
ENDBRANCH   6   9
ENDBRANCH   2   3
ENDBRANCH   1   2
BRANCH   1  12
ATOM     12  C   UNL d   1      -1.975   6.222  -3.316  0.00  0.00     0.069 A 
ATOM     13  C   UNL d   1      -1.099   6.879  -4.181  0.00  0.00     0.037 A 
ATOM     14  C   UNL d   1      -1.365   8.183  -4.606  0.00  0.00     0.018 A 
ATOM     15  C   UNL d   1      -2.533   8.835  -4.194  0.00  0.00     0.009 A 
ATOM     16  C   UNL d   1      -3.417   8.176  -3.335  0.00  0.00     0.018 A 
ATOM     17  C   UNL d   1      -3.139   6.872  -2.900  0.00  0.00     0.037 A 
BRANCH  15  18
ATOM     18  C   UNL d   1      -2.768  10.223  -4.681  0.00  0.00     0.155 C 
ATOM     19  O   UNL d   1      -1.802  10.932  -4.960  0.00  0.00    -0.293 OA
ATOM     20  C   UNL d   1      -4.175  10.728  -4.872  0.00  0.00     0.096 C 
ENDBRANCH  15  18
ENDBRANCH   1  12
TORSDOF 5
