REMARK  5 active torsions:
REMARK  status: ('A' for Active; 'I' for Inactive)
REMARK    1  A    between atoms: C_6  and  C_1 
REMARK    2  A    between atoms: C_7  and  C_2 
REMARK    3  A    between atoms: O_17  and  C_5 
REMARK    4  A    between atoms: O_18  and  C_9 
REMARK    5  A    between atoms: O_19  and  C_14 
ROOT
ATOM      1  C   UNL d   1      -0.714  -1.024   0.660  0.00  0.00     0.055 C 
ATOM      2  C   UNL d   1       0.424  -1.258  -0.028  0.00  0.00     0.035 C 
ATOM      3  C   UNL d   1      -1.284  -2.043   1.495  0.00  0.00     0.100 C 
ATOM      4  N   UNL d   1      -1.750  -2.843   2.195  0.00  0.00    -0.191 NA
ENDROOT
BRANCH   1   5
ATOM      5  C   UNL d   1      -1.373   0.314   0.594  0.00  0.00    -0.015 A 
ATOM      6  C   UNL d   1      -1.325   1.108  -0.567  0.00  0.00     0.015 A 
ATOM      7  C   UNL d   1      -1.958   2.354  -0.619  0.00  0.00     0.037 A 
ATOM      8  C   UNL d   1      -2.664   2.815   0.482  0.00  0.00     0.065 A 
ATOM      9  C   UNL d   1      -2.744   2.053   1.639  0.00  0.00     0.037 A 
ATOM     10  C   UNL d   1      -2.100   0.810   1.693  0.00  0.00     0.015 A 
BRANCH   8  11
ATOM     11  O   UNL d   1      -3.274   4.029   0.383  0.00  0.00    -0.361 OA
ATOM     12  H   UNL d   1      -3.753   4.208   1.209  0.00  0.00     0.217 HD
ENDBRANCH   8  11
ENDBRANCH   1   5
BRANCH   2  13
ATOM     13  C   UNL d   1       1.168  -2.524  -0.036  0.00  0.00    -0.032 A 
ATOM     14  C   UNL d   1       2.208  -2.726   0.879  0.00  0.00     0.051 A 
ATOM     15  C   UNL d   1       2.973  -3.904   0.854  0.00  0.00     0.102 A 
ATOM     16  C   UNL d   1       2.647  -4.912  -0.069  0.00  0.00     0.101 A 
ATOM     17  C   UNL d   1       1.606  -4.698  -0.982  0.00  0.00     0.040 A 
ATOM     18  C   UNL d   1       0.867  -3.515  -0.969  0.00  0.00     0.014 A 
BRANCH  15  19
ATOM     19  O   UNL d   1       4.022  -4.107   1.711  0.00  0.00    -0.353 OA
ATOM     20  C   UNL d   1       4.735  -2.942   2.114  0.00  0.00     0.210 C 
ENDBRANCH  15  19
BRANCH  16  21
ATOM     21  O   UNL d   1       3.288  -6.109  -0.255  0.00  0.00    -0.353 OA
ATOM     22  C   UNL d   1       3.879  -6.710   0.890  0.00  0.00     0.210 C 
ENDBRANCH  16  21
ENDBRANCH   2  13
TORSDOF 5
