REMARK  3 active torsions:
REMARK  status: ('A' for Active; 'I' for Inactive)
REMARK    1  A    between atoms: C_3  and  C_1 
REMARK    2  A    between atoms: C_11  and  C_2 
REMARK       I    between atoms: N_15  and  C_11 
REMARK    3  A    between atoms: N_16  and  N_15 
ROOT
ATOM      1  C   UNL d   1      -1.174  -0.947  -0.134  0.00  0.00     0.131 A 
ATOM      2  C   UNL d   1       0.155  -1.345  -0.093  0.00  0.00     0.094 A 
ATOM      3  O   UNL d   1      -1.213   0.411  -0.258  0.00  0.00    -0.236 OA
ATOM      4  N   UNL d   1       0.055   0.933  -0.171  0.00  0.00    -0.264 N 
ATOM      5  HN  UNL d   1       0.314   1.920  -0.171  1.00  0.00     0.194 HD
ATOM      6  C   UNL d   1       0.880  -0.116  -0.085  0.00  0.00     0.047 A 
ATOM      7  C   UNL d   1       2.339   0.156  -0.053  0.00  0.00     0.071 C 
ENDROOT
BRANCH   1   8
ATOM      8  C   UNL d   1      -2.418  -1.760  -0.054  0.00  0.00     0.056 A 
ATOM      9  C   UNL d   1      -2.654  -2.909   0.668  0.00  0.00     0.087 A 
ATOM     10  O   UNL d   1      -3.950  -3.285   0.484  0.00  0.00    -0.242 OA
ATOM     11  C   UNL d   1      -1.907  -3.752   1.621  0.00  0.00     0.080 C 
ATOM     12  N   UNL d   1      -4.589  -2.381  -0.338  0.00  0.00    -0.265 N 
ATOM     13  C   UNL d   1      -3.670  -1.459  -0.650  0.00  0.00     0.044 A 
ATOM     14  HN  UNL d   1      -5.561  -2.409  -0.645  1.00  0.00     0.194 HD
ATOM     15  C   UNL d   1      -4.027  -0.348  -1.564  0.00  0.00     0.071 C 
ENDBRANCH   1   8
BRANCH   2  16
ATOM     16  C   UNL d   1       0.617  -2.712  -0.155  0.00  0.00     0.270 C 
ATOM     17  O   UNL d   1       0.038  -3.579  -0.804  0.00  0.00    -0.266 OA
ATOM     18  N   UNL d   1       1.733  -3.023   0.617  0.00  0.00    -0.290 N 
ATOM     19  H   UNL d   1       2.208  -2.320   1.180  0.00  0.00     0.183 HD
BRANCH  18  20
ATOM     20  N   UNL d   1       2.193  -4.362   0.664  0.00  0.00    -0.247 NA
ATOM     21  H   UNL d   1       1.621  -4.900  -0.009  0.00  0.00     0.143 HD
ATOM     22  H   UNL d   1       1.942  -4.761   1.572  0.00  0.00     0.143 HD
ENDBRANCH  18  20
ENDBRANCH   2  16
TORSDOF 3
