REMARK  3 active torsions:
REMARK  status: ('A' for Active; 'I' for Inactive)
REMARK    1  A    between atoms: C_6  and  C_1 
REMARK    2  A    between atoms: N_10  and  C_4 
REMARK    3  A    between atoms: O_11  and  C_6 
ROOT
ATOM      1  C   UNL d   1       1.270  -1.503  -0.075  0.00  0.00     0.073 A 
ATOM      2  N   UNL d   1       1.210   1.261  -0.024  0.00  0.00    -0.358 N 
ATOM      3  HN  UNL d   1       1.190   2.281  -0.006  1.00  0.00     0.166 HD
ATOM      4  C   UNL d   1       2.491  -0.783  -0.103  0.00  0.00     0.046 A 
ATOM      5  C   UNL d   1       0.013  -0.831  -0.035  0.00  0.00     0.009 A 
ATOM      6  C   UNL d   1       2.398   0.610  -0.038  0.00  0.00     0.028 A 
ATOM      7  C   UNL d   1       0.063   0.573  -0.032  0.00  0.00     0.043 A 
ATOM      8  C   UNL d   1       3.576   1.541  -0.041  0.00  0.00     0.070 C 
ATOM      9  C   UNL d   1      -1.272  -1.444   0.012  0.00  0.00     0.015 A 
ATOM     10  C   UNL d   1      -1.117   1.305  -0.037  0.00  0.00     0.030 A 
ATOM     11  C   UNL d   1      -2.446  -0.690   0.009  0.00  0.00     0.001 A 
ATOM     12  C   UNL d   1      -2.368   0.692  -0.028  0.00  0.00     0.002 A 
ENDROOT
BRANCH   1  13
ATOM     13  C   UNL d   1       1.295  -2.999  -0.124  0.00  0.00     0.178 C 
ATOM     14  O   UNL d   1       0.496  -3.679  -0.739  0.00  0.00    -0.646 OA
BRANCH  13  15
ATOM     15  O   UNL d   1       2.305  -3.546   0.593  0.00  0.00    -0.773 OA
ATOM     16  H   UNL d   1       2.931  -2.869   0.938  0.00  0.00     0.167 HD
ENDBRANCH  13  15
ENDBRANCH   1  13
BRANCH   4  17
ATOM     17  N   UNL d   1       3.732  -1.470  -0.073  0.00  0.00    -0.300 NA
ATOM     18  H   UNL d   1       3.773  -2.192  -0.803  0.00  0.00     0.124 HD
ATOM     19  H   UNL d   1       4.551  -0.875  -0.166  0.00  0.00     0.124 HD
ENDBRANCH   4  17
TORSDOF 3
