REMARK  1 active torsions:
REMARK  status: ('A' for Active; 'I' for Inactive)
REMARK    1  A    between atoms: C_12  and  C_6 
ROOT
ATOM      1  C   UNL d   1      -1.718   1.635   0.638  0.00  0.00     0.026 C 
ATOM      2  N   UNL d   1      -2.768   1.367   1.349  0.00  0.00    -0.357 N 
ATOM      3  HN  UNL d   1      -2.827   1.533   2.353  1.00  0.00     0.166 HD
ATOM      4  C   UNL d   1      -1.356   3.071   0.411  0.00  0.00     0.059 C 
ATOM      5  S   UNL d   1      -4.169   3.384  -0.563  0.00  0.00    -0.117 SA
ATOM      6  C   UNL d   1      -2.321   3.669  -0.662  0.00  0.00     0.095 C 
ATOM      7  C   UNL d   1      -0.908   0.790  -0.239  0.00  0.00    -0.007 A 
ATOM      8  C   UNL d   1       0.083   2.970  -0.148  0.00  0.00     0.051 C 
ATOM      9  C   UNL d   1       0.116   1.594  -0.741  0.00  0.00    -0.045 A 
ATOM     10  C   UNL d   1      -3.814   0.826   0.593  0.00  0.00     0.049 A 
ATOM     11  C   UNL d   1      -4.408   1.596  -0.432  0.00  0.00     0.028 A 
ATOM     12  C   UNL d   1      -1.018  -0.545  -0.573  0.00  0.00     0.014 A 
ATOM     13  C   UNL d   1       1.047   1.079  -1.627  0.00  0.00     0.008 A 
ATOM     14  C   UNL d   1      -4.296  -0.452   0.884  0.00  0.00     0.031 A 
ATOM     15  C   UNL d   1      -5.380   0.998  -1.243  0.00  0.00     0.021 A 
ATOM     16  C   UNL d   1      -0.086  -1.070  -1.472  0.00  0.00     0.001 A 
ATOM     17  C   UNL d   1       0.933  -0.262  -2.001  0.00  0.00     0.001 A 
ATOM     18  C   UNL d   1      -5.288  -1.023   0.090  0.00  0.00     0.002 A 
ATOM     19  C   UNL d   1      -5.800  -0.313  -0.995  0.00  0.00     0.002 A 
ENDROOT
BRANCH   6  20
ATOM     20  C   UNL d   1      -2.082   5.184  -0.703  0.00  0.00    -0.042 A 
ATOM     21  C   UNL d   1      -1.541   5.790  -1.847  0.00  0.00     0.032 A 
ATOM     22  C   UNL d   1      -1.201   7.145  -1.827  0.00  0.00     0.034 A 
ATOM     23 CL   UNL d   1      -0.491   7.864  -3.220  0.00  0.00    -0.084 Cl
ATOM     24  C   UNL d   1      -1.405   7.914  -0.683  0.00  0.00     0.024 A 
ATOM     25  C   UNL d   1      -1.975   7.333   0.447  0.00  0.00     0.002 A 
ATOM     26  C   UNL d   1      -2.319   5.981   0.434  0.00  0.00     0.008 A 
ENDBRANCH   6  20
TORSDOF 1
