REMARK  25 active torsions:
REMARK  status: ('A' for Active; 'I' for Inactive)
REMARK    1  A    between atoms: C14_7  and  C1_1 
REMARK    2  A    between atoms: C10_6  and  O1_8 
REMARK       I    between atoms: N_22  and  C10_6 
REMARK    3  A    between atoms: O1_8  and  C14_7 
REMARK    4  A    between atoms: C_18  and  C_20 
REMARK       I    between atoms: N_21  and  C_18 
REMARK    5  A    between atoms: C_19  and  C_23 
REMARK       I    between atoms: N_42  and  C_19 
REMARK    6  A    between atoms: C_20  and  N_22 
REMARK    7  A    between atoms: C_25  and  C_20 
REMARK    8  A    between atoms: C_23  and  N_21 
REMARK    9  A    between atoms: C_27  and  C_23 
REMARK   10  A    between atoms: O_28  and  C_25 
REMARK   11  A    between atoms: C_30  and  C_27 
REMARK   12  A    between atoms: C_29  and  O_28 
REMARK   13  A    between atoms: C_41  and  CA_43 
REMARK       I    between atoms: N_53  and  C_41 
REMARK   14  A    between atoms: CA_43  and  N_42 
REMARK   15  A    between atoms: CB_47  and  CA_43 
REMARK   16  A    between atoms: CD_44  and  CG_48 
REMARK       I    between atoms: NE2_49  and  CD_44 
REMARK   17  A    between atoms: CG_48  and  CB_47 
REMARK   18  A    between atoms: C_55  and  N_53 
REMARK   19  A    between atoms: C_54  and  C_55 
REMARK   20  A    between atoms: O_63  and  C_54 
REMARK   21  A    between atoms: C_61  and  C_55 
REMARK   22  A    between atoms: C_56  and  C_62 
REMARK   23  A    between atoms: O_57  and  C_56 
REMARK   24  A    between atoms: C_60  and  O_57 
REMARK   25  A    between atoms: C_62  and  C_61 
ROOT
ATOM      1  C   UNK d   1       3.769   4.469   3.023  0.00  0.00     0.180 C 
ENDROOT
BRANCH   1   2
ATOM      2  C   UNK d   1       4.244   2.972   3.137  0.00  0.00     0.241 C 
ATOM      3  N   GLN d   2       5.593   2.696   3.027  0.00  0.00    -0.346 N 
ATOM      4  H   GLN d   2       6.261   3.454   2.963  0.00  0.00     0.163 HD
ATOM      5  O   UNK d   1       3.439   2.054   3.299  0.00  0.00    -0.271 OA
BRANCH   3   6
ATOM      6  CA  GLN d   2       6.185   1.415   3.430  0.00  0.00     0.177 C 
BRANCH   6   7
ATOM      7  C   GLN d   2       7.197   0.914   2.347  0.00  0.00     0.241 C 
ATOM      8  N   UNK d   3       6.676   0.257   1.235  0.00  0.00    -0.345 N 
ATOM      9  H   UNK d   3       5.782  -0.210   1.362  0.00  0.00     0.163 HD
ATOM     10  O   GLN d   2       8.406   1.132   2.433  0.00  0.00    -0.271 OA
BRANCH   8  11
ATOM     11  C   UNK d   3       7.619  -0.321   0.246  0.00  0.00     0.182 C 
BRANCH  11  12
ATOM     12  C   UNK d   3       8.212  -1.605   0.841  0.00  0.00     0.163 C 
ATOM     13  O   UNK d   3       7.534  -2.525   1.283  0.00  0.00    -0.648 OA
BRANCH  12  14
ATOM     14  O   UNK d   3       9.564  -1.652   0.812  0.00  0.00    -0.775 OA
ATOM     15  H   UNK d   3       9.979  -0.812   0.519  0.00  0.00     0.167 HD
ENDBRANCH  12  14
ENDBRANCH  11  12
BRANCH  11  16
ATOM     16  C   UNK d   3       6.949  -0.642  -1.110  0.00  0.00     0.046 C 
BRANCH  16  17
ATOM     17  C   UNK d   3       7.838  -1.283  -2.202  0.00  0.00     0.113 C 
BRANCH  17  18
ATOM     18  C   UNK d   3       9.020  -0.445  -2.652  0.00  0.00     0.259 C 
ATOM     19  O   UNK d   3       9.738   0.159  -1.876  0.00  0.00    -0.265 OA
BRANCH  18  20
ATOM     20  O   UNK d   3       9.224  -0.564  -4.000  0.00  0.00    -0.311 OA
BRANCH  20  21
ATOM     21  C   UNK d   3      10.416  -0.013  -4.642  0.00  0.00     0.060 C 
ATOM     22  C   UNK d   3      11.700  -0.605  -4.041  0.00  0.00     0.045 C 
ATOM     23  C   UNK d   3      10.330  -0.425  -6.125  0.00  0.00     0.045 C 
ATOM     24  C   UNK d   3      10.431   1.517  -4.578  0.00  0.00     0.045 C 
ENDBRANCH  20  21
ENDBRANCH  18  20
ENDBRANCH  17  18
ENDBRANCH  16  17
ENDBRANCH  11  16
ENDBRANCH   8  11
ENDBRANCH   6   7
BRANCH   6  25
ATOM     25  CB  GLN d   2       6.922   1.641   4.776  0.00  0.00     0.044 C 
BRANCH  25  26
ATOM     26  CG  GLN d   2       6.037   2.276   5.855  0.00  0.00     0.105 C 
BRANCH  26  27
ATOM     27  CD  GLN d   2       6.792   2.660   7.107  0.00  0.00     0.215 C 
ATOM     28  OE1 GLN d   2       6.877   3.817   7.504  0.00  0.00    -0.274 OA
ATOM     29  NE2 GLN d   2       7.349   1.639   7.807  0.00  0.00    -0.370 N 
ATOM     30 1HE2 GLN d   2       7.394   0.689   7.468  0.00  0.00     0.159 HD
ATOM     31 2HE2 GLN d   2       7.851   1.877   8.653  0.00  0.00     0.159 HD
ENDBRANCH  26  27
ENDBRANCH  25  26
ENDBRANCH   6  25
ENDBRANCH   3   6
ENDBRANCH   1   2
BRANCH   1  32
ATOM     32  N   UNK d   1       2.845   4.700   1.897  0.00  0.00    -0.346 N 
ATOM     33  C   UNK d   1       1.469   4.552   2.006  0.00  0.00     0.243 C 
ATOM     34  O   UNK d   1       0.926   4.309   3.083  0.00  0.00    -0.271 OA
ATOM     35  H   UNK d   1       3.232   4.950   0.996  0.00  0.00     0.163 HD
BRANCH  33  36
ATOM     36  C   UNK d   1       0.671   5.011   0.757  0.00  0.00     0.202 C 
BRANCH  36  37
ATOM     37  N   UNK d   1       0.435   6.450   1.014  0.00  0.00    -0.322 N 
ATOM     38  C10 <1> d   1      -0.322   7.361   0.336  0.00  0.00     0.361 C 
ATOM     39  O6  <1> d   1      -0.333   8.532   0.687  0.00  0.00    -0.238 OA
ATOM     40  H   UNK d   1       0.908   6.870   1.804  0.00  0.00     0.165 HD
BRANCH  38  41
ATOM     41  O1  <1> d   1      -1.032   6.846  -0.685  0.00  0.00    -0.303 OA
BRANCH  41  42
ATOM     42  C14 <1> d   1      -1.788   7.766  -1.512  0.00  0.00     0.194 C 
BRANCH  42  43
ATOM     43  C1  <1> d   1      -1.184   7.836  -2.925  0.00  0.00     0.078 A 
ATOM     44  C4  <1> d   1      -1.147   6.450  -3.557  0.00  0.00    -0.036 A 
ATOM     45  C2  <1> d   1       0.191   6.025  -3.708  0.00  0.00    -0.018 A 
ATOM     46  C29 <1> d   1      -2.219   5.628  -3.870  0.00  0.00     0.009 A 
ATOM     47  C28 <1> d   1       0.464   4.737  -4.134  0.00  0.00     0.013 A 
ATOM     48  C3  <1> d   1       1.074   7.100  -3.302  0.00  0.00    -0.018 A 
ATOM     49  C39 <1> d   1      -0.612   3.888  -4.421  0.00  0.00     0.001 A 
ATOM     50  C42 <1> d   1      -1.940   4.334  -4.304  0.00  0.00     0.001 A 
ATOM     51  C5  <1> d   1       0.293   8.199  -2.880  0.00  0.00    -0.036 A 
ATOM     52  C27 <1> d   1       2.456   7.169  -3.245  0.00  0.00     0.013 A 
ATOM     53  C30 <1> d   1       0.870   9.373  -2.422  0.00  0.00     0.009 A 
ATOM     54  C41 <1> d   1       2.262   9.437  -2.363  0.00  0.00     0.001 A 
ATOM     55  C40 <1> d   1       3.046   8.344  -2.766  0.00  0.00     0.001 A 
ENDBRANCH  42  43
ENDBRANCH  41  42
ENDBRANCH  38  41
ENDBRANCH  36  37
BRANCH  36  56
ATOM     56  C   UNK d   1      -0.635   4.211   0.614  0.00  0.00     0.203 C 
BRANCH  56  57
ATOM     57  O   UNK d   1      -0.447   2.834   0.244  0.00  0.00    -0.379 OA
BRANCH  57  58
ATOM     58  C   UNK d   1      -1.676   2.089   0.044  0.00  0.00     0.050 C 
ATOM     59  C   UNK d   1      -2.513   2.666  -1.109  0.00  0.00     0.045 C 
ATOM     60  C   UNK d   1      -1.287   0.656  -0.364  0.00  0.00     0.045 C 
ATOM     61  C   UNK d   1      -2.497   1.993   1.338  0.00  0.00     0.045 C 
ENDBRANCH  57  58
ENDBRANCH  56  57
ENDBRANCH  36  56
ENDBRANCH  33  36
ENDBRANCH   1  32
BRANCH   1  62
ATOM     62  C   UNK d   1       4.859   5.566   3.101  0.00  0.00     0.073 C 
BRANCH  62  63
ATOM     63  C   UNK d   1       5.926   5.648   2.023  0.00  0.00    -0.056 A 
ATOM     64  C   UNK d   1       5.979   4.782   0.921  0.00  0.00     0.007 A 
ATOM     65  C   UNK d   1       7.066   4.791   0.050  0.00  0.00     0.001 A 
ATOM     66  C   UNK d   1       8.093   5.710   0.228  0.00  0.00     0.000 A 
ATOM     67  C   UNK d   1       8.034   6.618   1.282  0.00  0.00     0.001 A 
ATOM     68  C   UNK d   1       6.962   6.584   2.178  0.00  0.00     0.007 A 
ENDBRANCH  62  63
ENDBRANCH   1  62
TORSDOF 25
