REMARK  3 active torsions:
REMARK  status: ('A' for Active; 'I' for Inactive)
REMARK    1  A    between atoms: C_3  and  C_13 
REMARK    2  A    between atoms: C_4  and  C_3 
REMARK    3  A    between atoms: C_13  and  S_6 
ROOT
ATOM      1  C   UNL d   1       4.074  -3.643  -2.597  0.00  0.00     0.134 C 
ATOM      2  N   UNL d   1       3.993  -4.599  -1.944  0.00  0.00    -0.184 NA
ATOM      3  S   UNL d   1       4.247  -2.266  -3.560  0.00  0.00    -0.043 SA
ENDROOT
BRANCH   3   4
ATOM      4  C   UNL d   1       5.429  -1.358  -2.522  0.00  0.00     0.174 C 
BRANCH   4   5
ATOM      5  C   UNL d   1       4.842  -0.943  -1.183  0.00  0.00     0.169 C 
ATOM      6  O   UNL d   1       3.720  -1.266  -0.799  0.00  0.00    -0.291 OA
BRANCH   5   7
ATOM      7  C   UNL d   1       5.682  -0.115  -0.270  0.00  0.00     0.011 A 
ATOM      8  C   UNL d   1       6.689   0.735  -0.743  0.00  0.00     0.017 A 
ATOM      9  C   UNL d   1       7.390   1.553   0.151  0.00  0.00     0.025 A 
ATOM     10  C   UNL d   1       7.094   1.514   1.513  0.00  0.00     0.034 A 
ATOM     11  C   UNL d   1       6.113   0.653   1.996  0.00  0.00     0.025 A 
ATOM     12 CL   UNL d   1       7.931   2.554   2.598  0.00  0.00    -0.084 Cl
ATOM     13  C   UNL d   1       5.406  -0.159   1.106  0.00  0.00     0.017 A 
ENDBRANCH   5   7
ENDBRANCH   4   5
ENDBRANCH   3   4
TORSDOF 3
