REMARK  8 active torsions:
REMARK  status: ('A' for Active; 'I' for Inactive)
REMARK    1  A    between atoms: C_8  and  C_1 
REMARK    2  A    between atoms: C_12  and  C_4 
REMARK    3  A    between atoms: S_11  and  C_6 
REMARK    4  A    between atoms: O_15  and  C_8 
REMARK    5  A    between atoms: C_14  and  S_11 
REMARK    6  A    between atoms: O_18  and  C_12 
REMARK    7  A    between atoms: O_19  and  C_12 
REMARK    8  A    between atoms: C_17  and  C_14 
ROOT
ATOM      1  C   UNL d   1      -1.534   1.394   0.089  0.00  0.00     0.068 A 
ATOM      2  N   UNL d   1      -1.413  -1.008  -0.102  0.00  0.00    -0.348 N 
ATOM      3  HN  UNL d   1      -1.892  -1.906  -0.161  1.00  0.00     0.166 HD
ATOM      4  C   UNL d   1      -2.158   0.151  -0.015  0.00  0.00     0.082 A 
ATOM      5  C   UNL d   1       0.618   0.239  -0.052  0.00  0.00     0.079 A 
ATOM      6  C   UNL d   1      -0.056  -0.974  -0.111  0.00  0.00     0.091 A 
ATOM      7  C   UNL d   1      -0.131   1.418   0.074  0.00  0.00     0.045 A 
ATOM      8  C   UNL d   1       2.034   0.359  -0.133  0.00  0.00     0.102 C 
ATOM      9  N   UNL d   1       3.188   0.495  -0.169  0.00  0.00    -0.191 NA
ENDROOT
BRANCH   6  10
ATOM     10  S   UNL d   1       0.688  -2.588  -0.305  0.00  0.00    -0.106 SA
BRANCH  10  11
ATOM     11  C   UNL d   1       1.919  -2.645   1.043  0.00  0.00     0.119 C 
BRANCH  11  12
ATOM     12  C   UNL d   1       2.559  -4.010   1.177  0.00  0.00    -0.048 A 
ATOM     13  C   UNL d   1       3.571  -4.409   0.286  0.00  0.00     0.009 A 
ATOM     14  C   UNL d   1       4.196  -5.651   0.425  0.00  0.00     0.024 A 
ATOM     15  C   UNL d   1       3.814  -6.504   1.457  0.00  0.00     0.034 A 
ATOM     16  C   UNL d   1       2.807  -6.129   2.344  0.00  0.00     0.024 A 
ATOM     17 CL   UNL d   1       4.595  -8.027   1.641  0.00  0.00    -0.084 Cl
ATOM     18  C   UNL d   1       2.178  -4.888   2.203  0.00  0.00     0.009 A 
ENDBRANCH  11  12
ENDBRANCH  10  11
ENDBRANCH   6  10
BRANCH   1  19
ATOM     19  C   UNL d   1      -2.277   2.667   0.289  0.00  0.00     0.295 C 
ATOM     20  O   UNL d   1      -3.374   2.751   0.810  0.00  0.00    -0.259 OA
BRANCH  19  21
ATOM     21  O   UNL d   1      -1.516   3.713  -0.125  0.00  0.00    -0.322 OA
ATOM     22  C   UNL d   1      -2.058   5.007   0.159  0.00  0.00     0.213 C 
ENDBRANCH  19  21
ENDBRANCH   1  19
BRANCH   4  23
ATOM     23  C   UNL d   1      -3.681  -0.015  -0.118  0.00  0.00     0.310 C 
BRANCH  23  24
ATOM     24  O   UNL d   1      -4.004   0.011  -1.518  0.00  0.00    -0.360 OA
ATOM     25  C   UNL d   1      -5.404  -0.089  -1.748  0.00  0.00     0.205 C 
ENDBRANCH  23  24
BRANCH  23  26
ATOM     26  O   UNL d   1      -4.138  -1.242   0.473  0.00  0.00    -0.360 OA
ATOM     27  C   UNL d   1      -3.899  -1.303   1.872  0.00  0.00     0.205 C 
ENDBRANCH  23  26
ENDBRANCH   4  23
TORSDOF 8
