REMARK  1 active torsions:
REMARK  status: ('A' for Active; 'I' for Inactive)
REMARK    1  A    between atoms: C_6  and  N_5 
ROOT
ATOM      1  C   UNL d   1       1.667   0.014   0.108  0.00  0.00     0.141 C 
ATOM      2  N   UNL d   1       1.388  -1.230  -0.085  0.00  0.00    -0.369 N 
ATOM      3  HN  UNL d   1       2.042  -1.999   0.060  1.00  0.00     0.161 HD
ATOM      4  S   UNL d   1       0.345   1.149  -0.131  0.00  0.00    -0.083 SA
ATOM      5  N   UNL d   1       2.830   0.587   0.517  0.00  0.00    -0.335 N 
ATOM      6  C   UNL d   1      -0.853  -0.219  -0.053  0.00  0.00     0.024 C 
ATOM      7  C   UNL d   1      -0.003  -1.393  -0.544  0.00  0.00     0.142 C 
ATOM      8  C   UNL d   1      -1.311  -0.414   1.396  0.00  0.00     0.029 C 
ATOM      9  C   UNL d   1      -2.045   0.039  -0.969  0.00  0.00     0.029 C 
ATOM     10  H   UNL d   1       2.788   1.583   0.707  0.00  0.00     0.168 HD
ENDROOT
BRANCH   5  11
ATOM     11  C   UNL d   1       3.980  -0.048   1.020  0.00  0.00     0.073 A 
ATOM     12  C   UNL d   1       4.907   0.709   1.754  0.00  0.00     0.143 A 
ATOM     13  F   UNL d   1       4.685   2.022   1.930  0.00  0.00    -0.204 F 
ATOM     14  C   UNL d   1       6.043   0.140   2.326  0.00  0.00     0.044 A 
ATOM     15  C   UNL d   1       6.283  -1.221   2.164  0.00  0.00     0.003 A 
ATOM     16  C   UNL d   1       5.394  -1.993   1.421  0.00  0.00     0.002 A 
ATOM     17  C   UNL d   1       4.255  -1.409   0.852  0.00  0.00     0.033 A 
ENDBRANCH   5  11
TORSDOF 1
