REMARK  2 active torsions:
REMARK  status: ('A' for Active; 'I' for Inactive)
REMARK    1  A    between atoms: C_7  and  N_1 
REMARK    2  A    between atoms: S_12  and  C_2 
ROOT
ATOM      1  N   UNL d   1       2.470  -0.616   0.014  0.00  0.00    -0.258 N 
ATOM      2  C   UNL d   1       2.342   0.772   0.078  0.00  0.00     0.152 A 
ATOM      3  C   UNL d   1       1.324  -1.423  -0.013  0.00  0.00     0.266 A 
ATOM      4  N   UNL d   1       1.213   1.399   0.115  0.00  0.00    -0.336 N 
ATOM      5  HN  UNL d   1       1.187   2.417   0.178  1.00  0.00     0.168 HD
ATOM      6  C   UNL d   1       0.023  -0.728   0.020  0.00  0.00     0.059 A 
ATOM      7  C   UNL d   1       0.030   0.661   0.066  0.00  0.00     0.049 A 
ATOM      8  O   UNL d   1       1.327  -2.651  -0.045  0.00  0.00    -0.267 OA
ATOM      9  C   UNL d   1      -1.183  -1.440  -0.018  0.00  0.00     0.019 A 
ATOM     10  C   UNL d   1      -1.187   1.345   0.036  0.00  0.00     0.030 A 
ATOM     11  C   UNL d   1      -2.393  -0.747  -0.038  0.00  0.00     0.001 A 
ATOM     12  C   UNL d   1      -2.395   0.647  -0.022  0.00  0.00     0.002 A 
ENDROOT
BRANCH   1  13
ATOM     13  C   UNL d   1       3.731  -1.284  -0.059  0.00  0.00     0.046 A 
ATOM     14  C   UNL d   1       4.699  -1.125   0.943  0.00  0.00     0.057 A 
ATOM     15  C   UNL d   1       5.954  -1.722   0.801  0.00  0.00     0.074 A 
ATOM     16 CL   UNL d   1       7.143  -1.486   2.024  0.00  0.00    -0.081 Cl
ATOM     17  C   UNL d   1       6.242  -2.483  -0.330  0.00  0.00     0.138 A 
ATOM     18  C   UNL d   1       5.277  -2.680  -1.312  0.00  0.00     0.046 A 
ATOM     19  F   UNL d   1       7.452  -3.035  -0.497  0.00  0.00    -0.204 F 
ATOM     20  C   UNL d   1       4.019  -2.092  -1.172  0.00  0.00     0.033 A 
ENDBRANCH   1  13
BRANCH   2  21
ATOM     21  S   UNL d   1       3.754   1.819   0.026  0.00  0.00    -0.106 SA
ATOM     22  H   UNL d   1       4.564   1.015  -0.670  0.00  0.00     0.110 HD
ENDBRANCH   2  21
TORSDOF 2
