REMARK  6 active torsions:
REMARK  status: ('A' for Active; 'I' for Inactive)
REMARK    1  A    between atoms: C_6  and  C_1 
REMARK    2  A    between atoms: C_8  and  C_2 
REMARK    3  A    between atoms: C_14  and  N_3 
REMARK       I    between atoms: N_11  and  C_8 
REMARK    4  A    between atoms: C_9  and  C_13 
REMARK       I    between atoms: C_10  and  N_12 
REMARK    5  A    between atoms: C_15  and  C_10 
REMARK    6  A    between atoms: N_12  and  N_11 
ROOT
ATOM      1  C   UNL d   1      -0.701  -2.629  -0.087  0.00  0.00     0.273 C 
ATOM      2  N   UNL d   1       0.166  -3.678   0.118  0.00  0.00    -0.263 N 
ATOM      3  O   UNL d   1      -1.898  -2.831  -0.289  0.00  0.00    -0.266 OA
ATOM      4  H   UNL d   1       1.134  -3.584   0.421  0.00  0.00     0.190 HD
ENDROOT
BRANCH   1   5
ATOM      5  C   UNL d   1      -0.159  -1.274  -0.050  0.00  0.00     0.084 A 
ATOM      6  C   UNL d   1       1.092  -0.750   0.284  0.00  0.00     0.157 A 
ATOM      7  N   UNL d   1       0.991   0.632   0.172  0.00  0.00    -0.251 N 
ATOM      8  N   UNL d   1      -0.274   1.005  -0.146  0.00  0.00    -0.303 N 
ATOM      9  C   UNL d   1      -0.938  -0.131  -0.321  0.00  0.00     0.127 A 
ATOM     10  HN  UNL d   1      -0.637   1.954  -0.233  1.00  0.00     0.186 HD
BRANCH   6  11
ATOM     11  C   UNL d   1       2.315  -1.387   0.795  0.00  0.00     0.435 C 
ATOM     12  F   UNL d   1       2.073  -2.633   1.271  0.00  0.00    -0.165 F 
ATOM     13  F   UNL d   1       3.243  -1.538  -0.181  0.00  0.00    -0.165 F 
ATOM     14  F   UNL d   1       2.890  -0.716   1.819  0.00  0.00    -0.165 F 
ENDBRANCH   6  11
BRANCH   7  15
ATOM     15  C   UNL d   1       1.952   1.660   0.413  0.00  0.00     0.057 A 
ATOM     16  C   UNL d   1       3.322   1.481   0.193  0.00  0.00     0.031 A 
ATOM     17  C   UNL d   1       4.230   2.478   0.560  0.00  0.00     0.002 A 
ATOM     18  C   UNL d   1       3.776   3.667   1.128  0.00  0.00     0.000 A 
ATOM     19  C   UNL d   1       2.410   3.879   1.293  0.00  0.00     0.002 A 
ATOM     20  C   UNL d   1       1.499   2.889   0.922  0.00  0.00     0.031 A 
ENDBRANCH   7  15
ENDBRANCH   1   5
BRANCH   2  21
ATOM     21  N   UNL d   1      -0.360  -4.973   0.236  0.00  0.00    -0.263 N 
ATOM     22  C   UNL d   1       0.491  -5.973   0.662  0.00  0.00     0.270 C 
ATOM     23  O   UNL d   1       1.672  -5.762   0.930  0.00  0.00    -0.266 OA
ATOM     24  H   UNL d   1      -1.374  -5.054   0.200  0.00  0.00     0.190 HD
BRANCH  22  25
ATOM     25  C   UNL d   1      -0.084  -7.340   0.786  0.00  0.00     0.033 A 
ATOM     26  C   UNL d   1      -1.243  -7.725   0.101  0.00  0.00     0.018 A 
ATOM     27  C   UNL d   1      -1.704  -9.042   0.186  0.00  0.00     0.017 A 
ATOM     28  C   UNL d   1      -1.012  -9.995   0.950  0.00  0.00     0.048 A 
ATOM     29  C   UNL d   1       0.141  -9.600   1.646  0.00  0.00     0.017 A 
ATOM     30  C   UNL d   1       0.603  -8.283   1.561  0.00  0.00     0.018 A 
BRANCH  28  31
ATOM     31  C   UNL d   1      -1.473 -11.433   1.004  0.00  0.00     0.417 C 
ATOM     32  F   UNL d   1      -2.593 -11.671   0.266  0.00  0.00    -0.166 F 
ATOM     33  F   UNL d   1      -0.529 -12.296   0.537  0.00  0.00    -0.166 F 
ATOM     34  F   UNL d   1      -1.764 -11.841   2.269  0.00  0.00    -0.166 F 
ENDBRANCH  28  31
ENDBRANCH  22  25
ENDBRANCH   2  21
TORSDOF 6
