REMARK  5 active torsions:
REMARK  status: ('A' for Active; 'I' for Inactive)
REMARK    1  A    between atoms: C_7  and  C_2 
REMARK    2  A    between atoms: N_11  and  C_5 
REMARK    3  A    between atoms: C_6  and  N_11 
REMARK    4  A    between atoms: O_23  and  C_7 
REMARK    5  A    between atoms: C_9  and  C_8 
ROOT
ATOM      1  C   UNL d   1       0.748   1.221  -0.306  0.00  0.00     0.071 C 
ATOM      2  C   UNL d   1      -0.587   1.478   0.287  0.00  0.00     0.165 C 
ATOM      3  C   UNL d   1       1.634   0.171   0.257  0.00  0.00     0.165 C 
ATOM      4  C   UNL d   1       1.227   2.138  -1.162  0.00  0.00     0.107 C 
ATOM      5  C   UNL d   1      -0.057  -0.235   2.087  0.00  0.00     0.040 C 
ATOM      6  C   UNL d   1       1.427  -0.168   1.716  0.00  0.00     0.094 C 
ATOM      7  C   UNL d   1      -0.798   1.053   1.722  0.00  0.00     0.094 C 
ATOM      8  O   UNL d   1      -1.468   2.061  -0.343  0.00  0.00    -0.292 OA
ATOM      9  O   UNL d   1       2.533  -0.343  -0.407  0.00  0.00    -0.292 OA
ENDROOT
BRANCH   4  10
ATOM     10  N   UNL d   1       2.490   2.241  -1.709  0.00  0.00    -0.364 N 
ATOM     11  H   UNL d   1       2.753   1.351  -2.147  0.00  0.00     0.165 HD
BRANCH  10  12
ATOM     12  C   UNL d   1       3.553   2.917  -1.168  0.00  0.00     0.055 A 
ATOM     13  C   UNL d   1       3.612   3.725  -0.036  0.00  0.00     0.106 A 
ATOM     14  S   UNL d   1       5.209   4.359   0.175  0.00  0.00    -0.094 SA
ATOM     15  C   UNL d   1       5.809   3.540  -1.188  0.00  0.00     0.053 A 
ATOM     16  C   UNL d   1       4.829   2.804  -1.809  0.00  0.00     0.038 A 
BRANCH  13  17
ATOM     17  C   UNL d   1       2.623   4.027   0.987  0.00  0.00     0.302 C 
ATOM     18  O   UNL d   1       1.772   3.258   1.433  0.00  0.00    -0.259 OA
BRANCH  17  19
ATOM     19  O   UNL d   1       2.777   5.315   1.437  0.00  0.00    -0.322 OA
ATOM     20  C   UNL d   1       1.884   5.702   2.479  0.00  0.00     0.213 C 
ENDBRANCH  17  19
ENDBRANCH  13  17
ENDBRANCH  10  12
ENDBRANCH   4  10
BRANCH   5  21
ATOM     21  C   UNL d   1      -0.718  -1.480   1.527  0.00  0.00    -0.013 A 
ATOM     22  S   UNL d   1      -0.716  -2.920   2.474  0.00  0.00    -0.106 SA
ATOM     23  C   UNL d   1      -1.550  -3.799   1.271  0.00  0.00     0.050 A 
ATOM     24  C   UNL d   1      -1.834  -3.024   0.171  0.00  0.00     0.008 A 
ATOM     25  C   UNL d   1      -1.357  -1.690   0.317  0.00  0.00     0.015 A 
ENDBRANCH   5  21
TORSDOF 5
