REMARK  12 active torsions:
REMARK  status: ('A' for Active; 'I' for Inactive)
REMARK    1  A    between atoms: N_2  and  S_1 
REMARK    2  A    between atoms: C_5  and  S_1 
REMARK    3  A    between atoms: N_9  and  N_2 
REMARK    4  A    between atoms: C_3  and  C_11 
REMARK    5  A    between atoms: C_4  and  C_10 
REMARK    6  A    between atoms: C_6  and  C_19 
REMARK       I    between atoms: C_7  and  N_9 
REMARK    7  A    between atoms: C_16  and  C_7 
REMARK       I    between atoms: C_8  and  N_12 
REMARK    8  A    between atoms: C_20  and  C_8 
REMARK    9  A    between atoms: N_12  and  C_16 
REMARK   10  A    between atoms: C_36  and  C_16 
REMARK   11  A    between atoms: C_38  and  C_36 
REMARK   12  A    between atoms: S_37  and  C_38 
ROOT
ATOM      1  C   UNL d   1       0.404  -3.653   0.540  0.00  0.00     0.259 C 
ATOM      2  N   UNL d   1      -0.408  -3.273  -0.512  0.00  0.00    -0.259 N 
ATOM      3  O   UNL d   1       1.638  -3.624   0.449  0.00  0.00    -0.269 OA
ATOM      4  H   UNL d   1      -1.417  -3.138  -0.414  0.00  0.00     0.190 HD
ENDROOT
BRANCH   1   5
ATOM      5  C   UNL d   1      -0.319  -4.052   1.844  0.00  0.00     0.179 C 
BRANCH   5   6
ATOM      6  N   UNL d   1       0.648  -4.800   2.663  0.00  0.00    -0.344 N 
ATOM      7  C   UNL d   1       0.247  -5.606   3.708  0.00  0.00     0.252 C 
ATOM      8  O   UNL d   1      -0.935  -5.731   4.015  0.00  0.00    -0.268 OA
ATOM      9  H   UNL d   1       1.626  -4.645   2.451  0.00  0.00     0.163 HD
BRANCH   7  10
ATOM     10  C   UNL d   1       1.298  -6.320   4.496  0.00  0.00     0.032 A 
ATOM     11  C   UNL d   1       2.630  -6.435   4.082  0.00  0.00     0.018 A 
ATOM     12  C   UNL d   1       3.563  -7.115   4.878  0.00  0.00     0.017 A 
ATOM     13  C   UNL d   1       3.183  -7.699   6.097  0.00  0.00     0.048 A 
ATOM     14  C   UNL d   1       1.844  -7.599   6.499  0.00  0.00     0.017 A 
ATOM     15  C   UNL d   1       0.913  -6.919   5.707  0.00  0.00     0.018 A 
BRANCH  13  16
ATOM     16  C   UNL d   1       4.184  -8.415   6.973  0.00  0.00     0.417 C 
ATOM     17  F   UNL d   1       5.431  -8.486   6.429  0.00  0.00    -0.166 F 
ATOM     18  F   UNL d   1       4.340  -7.808   8.183  0.00  0.00    -0.166 F 
ATOM     19  F   UNL d   1       3.821  -9.699   7.243  0.00  0.00    -0.166 F 
ENDBRANCH  13  16
ENDBRANCH   7  10
ENDBRANCH   5   6
BRANCH   5  20
ATOM     20  C   UNL d   1      -0.838  -2.826   2.622  0.00  0.00     0.045 C 
BRANCH  20  21
ATOM     21  C   UNL d   1      -1.891  -1.950   1.936  0.00  0.00     0.076 C 
BRANCH  21  22
ATOM     22  S   UNL d   1      -3.274  -2.932   1.272  0.00  0.00    -0.173 SA
ATOM     23  C   UNL d   1      -4.300  -1.595   0.620  0.00  0.00     0.089 C 
ENDBRANCH  21  22
ENDBRANCH  20  21
ENDBRANCH   5  20
ENDBRANCH   1   5
BRANCH   2  24
ATOM     24  N   UNL d   1       0.255  -2.704  -1.702  0.00  0.00    -0.220 N 
ATOM     25  H   UNL d   1       1.280  -2.697  -1.634  0.00  0.00     0.200 HD
BRANCH  24  26
ATOM     26  S   UNL d   1      -0.435  -1.300  -2.363  0.00  0.00     0.276 S 
ATOM     27  O   UNL d   1      -0.292  -0.253  -1.373  0.00  0.00    -0.199 OA
ATOM     28  O   UNL d   1      -1.735  -1.645  -2.898  0.00  0.00    -0.199 OA
BRANCH  26  29
ATOM     29  C   UNL d   1       0.662  -0.921  -3.718  0.00  0.00     0.082 A 
ATOM     30  C   UNL d   1       0.340  -1.332  -5.017  0.00  0.00     0.041 A 
ATOM     31  C   UNL d   1       1.151  -0.947  -6.100  0.00  0.00     0.050 A 
ATOM     32  C   UNL d   1       2.278  -0.139  -5.853  0.00  0.00     0.032 A 
ATOM     33  C   UNL d   1       2.595   0.297  -4.554  0.00  0.00     0.050 A 
ATOM     34  C   UNL d   1       1.778  -0.106  -3.485  0.00  0.00     0.041 A 
BRANCH  31  35
ATOM     35  C   UNL d   1       0.824  -1.357  -7.521  0.00  0.00     0.417 C 
ATOM     36  F   UNL d   1      -0.329  -2.070  -7.630  0.00  0.00    -0.166 F 
ATOM     37  F   UNL d   1       0.685  -0.284  -8.347  0.00  0.00    -0.166 F 
ATOM     38  F   UNL d   1       1.801  -2.129  -8.070  0.00  0.00    -0.166 F 
ENDBRANCH  31  35
BRANCH  33  39
ATOM     39  C   UNL d   1       3.776   1.217  -4.333  0.00  0.00     0.417 C 
ATOM     40  F   UNL d   1       3.924   1.604  -3.037  0.00  0.00    -0.166 F 
ATOM     41  F   UNL d   1       4.955   0.641  -4.691  0.00  0.00    -0.166 F 
ATOM     42  F   UNL d   1       3.679   2.364  -5.059  0.00  0.00    -0.166 F 
ENDBRANCH  33  39
ENDBRANCH  26  29
ENDBRANCH  24  26
ENDBRANCH   2  24
TORSDOF 12
