REMARK  5 active torsions:
REMARK  status: ('A' for Active; 'I' for Inactive)
REMARK    1  A    between atoms: S_3  and  C_1 
REMARK    2  A    between atoms: C_4  and  C_1 
REMARK    3  A    between atoms: N_7  and  C_2 
REMARK    4  A    between atoms: C_5  and  S_3 
REMARK    5  A    between atoms: C_6  and  C_5 
ROOT
ATOM      1  S   UNL d   1      -0.052  -0.961  -1.294  0.00  0.00    -0.120 SA
ENDROOT
BRANCH   1   2
ATOM      2  C   UNL d   1       1.028  -0.469  -0.002  0.00  0.00     0.061 C 
ATOM      3  C   UNL d   1       0.843  -0.984   1.226  0.00  0.00     0.107 C 
BRANCH   3   4
ATOM      4  N   UNL d   1       1.431  -0.848   2.480  0.00  0.00    -0.397 N 
ATOM      5  C   UNL d   1       2.243   0.295   2.893  0.00  0.00     0.148 C 
ATOM      6  C   UNL d   1       1.380  -1.938   3.459  0.00  0.00     0.148 C 
ENDBRANCH   3   4
BRANCH   2   7
ATOM      7  C   UNL d   1       2.156   0.444  -0.404  0.00  0.00     0.163 C 
ATOM      8  O   UNL d   1       2.503   1.400   0.291  0.00  0.00    -0.292 OA
ATOM      9  C   UNL d   1       2.869   0.198  -1.717  0.00  0.00     0.097 C 
ENDBRANCH   2   7
ENDBRANCH   1   2
BRANCH   1  10
ATOM     10  C   UNL d   1      -1.546  -0.020  -0.827  0.00  0.00     0.118 C 
BRANCH  10  11
ATOM     11  C   UNL d   1      -2.628  -0.110  -1.887  0.00  0.00    -0.043 A 
ATOM     12  C   UNL d   1      -3.880  -0.728  -1.679  0.00  0.00    -0.055 A 
ATOM     13  C   UNL d   1      -4.282  -1.401  -0.393  0.00  0.00     0.049 C 
ATOM     14  C   UNL d   1      -4.803  -0.780  -2.742  0.00  0.00     0.007 A 
ATOM     15  C   UNL d   1      -4.516  -0.207  -3.980  0.00  0.00     0.001 A 
ATOM     16  C   UNL d   1      -3.297   0.427  -4.179  0.00  0.00     0.001 A 
ATOM     17  C   UNL d   1      -2.367   0.478  -3.143  0.00  0.00     0.008 A 
ENDBRANCH  10  11
ENDBRANCH   1  10
TORSDOF 5
