REMARK  6 active torsions:
REMARK  status: ('A' for Active; 'I' for Inactive)
REMARK    1  A    between atoms: C_2  and  N_1 
REMARK       I    between atoms: C_4  and  N_1 
REMARK    2  A    between atoms: N_7  and  C_2 
REMARK    3  A    between atoms: C_3  and  C_6 
REMARK    4  A    between atoms: C_10  and  C_4 
REMARK    5  A    between atoms: C_5  and  C_8 
REMARK    6  A    between atoms: C_13  and  N_7 
ROOT
ATOM      1  N   UNL d   1       0.986   0.106   0.041  0.00  0.00    -0.299 N 
ATOM      2  C   UNL d   1       0.441  -0.271   1.259  0.00  0.00     0.257 C 
ATOM      3  O   UNL d   1      -0.638   0.134   1.683  0.00  0.00    -0.267 OA
ATOM      4  H   UNL d   1       1.974  -0.046  -0.099  0.00  0.00     0.171 HD
ENDROOT
BRANCH   1   5
ATOM      5  C   UNL d   1       0.311   0.527  -1.091  0.00  0.00     0.179 C 
ATOM      6  S   UNL d   1      -1.293   0.248  -1.466  0.00  0.00    -0.040 SA
BRANCH   5   7
ATOM      7  N   UNL d   1       1.084   1.154  -2.037  0.00  0.00    -0.333 N 
ATOM      8  H   UNL d   1       0.653   1.190  -2.957  0.00  0.00     0.168 HD
BRANCH   7   9
ATOM      9  C   UNL d   1       2.151   2.057  -1.842  0.00  0.00     0.035 A 
ATOM     10  C   UNL d   1       2.423   2.662  -0.611  0.00  0.00     0.045 A 
ATOM     11  C   UNL d   1       3.430   3.634  -0.494  0.00  0.00     0.050 A 
ATOM     12  C   UNL d   1       4.183   3.973  -1.628  0.00  0.00     0.016 A 
ATOM     13  C   UNL d   1       3.913   3.376  -2.858  0.00  0.00     0.003 A 
ATOM     14  C   UNL d   1       2.889   2.434  -2.967  0.00  0.00     0.029 A 
BRANCH  11  15
ATOM     15  C   UNL d   1       3.675   4.347   0.814  0.00  0.00     0.417 C 
ATOM     16  F   UNL d   1       2.868   3.923   1.825  0.00  0.00    -0.166 F 
ATOM     17  F   UNL d   1       4.950   4.182   1.262  0.00  0.00    -0.166 F 
ATOM     18  F   UNL d   1       3.482   5.691   0.717  0.00  0.00    -0.166 F 
ENDBRANCH  11  15
ENDBRANCH   7   9
ENDBRANCH   5   7
ENDBRANCH   1   5
BRANCH   2  19
ATOM     19  C   UNL d   1       1.302  -1.075   2.168  0.00  0.00     0.032 A 
ATOM     20  C   UNL d   1       1.148  -0.879   3.546  0.00  0.00     0.018 A 
ATOM     21  C   UNL d   1       1.847  -1.669   4.459  0.00  0.00     0.017 A 
ATOM     22  C   UNL d   1       2.707  -2.679   4.008  0.00  0.00     0.048 A 
ATOM     23  C   UNL d   1       2.878  -2.858   2.624  0.00  0.00     0.017 A 
ATOM     24  C   UNL d   1       2.179  -2.061   1.704  0.00  0.00     0.018 A 
BRANCH  22  25
ATOM     25  C   UNL d   1       3.398  -3.568   5.018  0.00  0.00     0.417 C 
ATOM     26  F   UNL d   1       4.165  -4.541   4.451  0.00  0.00    -0.166 F 
ATOM     27  F   UNL d   1       4.226  -2.872   5.844  0.00  0.00    -0.166 F 
ATOM     28  F   UNL d   1       2.515  -4.214   5.829  0.00  0.00    -0.166 F 
ENDBRANCH  22  25
ENDBRANCH   2  19
TORSDOF 6
