REMARK  5 active torsions:
REMARK  status: ('A' for Active; 'I' for Inactive)
REMARK    1  A    between atoms: C_7  and  C_1 
REMARK    2  A    between atoms: N_10  and  C_4 
REMARK    3  A    between atoms: C_14  and  N_10 
REMARK    4  A    between atoms: C_15  and  C_14 
REMARK    5  A    between atoms: O_22  and  C_16 
ROOT
ATOM      1  C   UNL d   1      -0.683   1.032   0.140  0.00  0.00     0.192 A 
ATOM      2  N   UNL d   1      -1.358  -0.139   0.093  0.00  0.00    -0.329 N 
ATOM      3  HN  UNL d   1      -2.374  -0.165   0.182  1.00  0.00     0.168 HD
ATOM      4  C   UNL d   1      -0.646  -1.267  -0.073  0.00  0.00     0.089 A 
ATOM      5  N   UNL d   1       0.659   1.121   0.011  0.00  0.00    -0.342 N 
ATOM      6  HN  UNL d   1       1.129   2.025   0.055  1.00  0.00     0.167 HD
ATOM      7  C   UNL d   1       0.747  -1.259  -0.224  0.00  0.00    -0.001 A 
ATOM      8  C   UNL d   1       1.364  -0.015  -0.178  0.00  0.00     0.016 A 
ATOM      9  C   UNL d   1       1.477  -2.555  -0.429  0.00  0.00     0.054 C 
ATOM     10  C   UNL d   1       2.836   0.220  -0.347  0.00  0.00     0.069 C 
ENDROOT
BRANCH   4  11
ATOM     11  N   UNL d   1      -1.318  -2.497  -0.144  0.00  0.00    -0.274 NA
ATOM     12  H   UNL d   1      -0.919  -3.153   0.520  0.00  0.00     0.129 HD
BRANCH  11  13
ATOM     13  C   UNL d   1      -2.771  -2.484  -0.056  0.00  0.00     0.132 C 
BRANCH  13  14
ATOM     14  C   UNL d   1      -3.271  -3.914  -0.150  0.00  0.00    -0.045 A 
ATOM     15  C   UNL d   1      -3.989  -4.500   0.901  0.00  0.00     0.011 A 
ATOM     16  C   UNL d   1      -4.436  -5.827   0.816  0.00  0.00     0.037 A 
ATOM     17  C   UNL d   1      -4.173  -6.588  -0.322  0.00  0.00     0.068 A 
ATOM     18  C   UNL d   1      -3.459  -6.010  -1.374  0.00  0.00     0.037 A 
ATOM     19  C   UNL d   1      -3.014  -4.685  -1.293  0.00  0.00     0.011 A 
BRANCH  17  20
ATOM     20  O   UNL d   1      -4.547  -7.887  -0.531  0.00  0.00    -0.356 OA
ATOM     21  C   UNL d   1      -5.283  -8.522   0.505  0.00  0.00     0.210 C 
ENDBRANCH  17  20
ENDBRANCH  13  14
ENDBRANCH  11  13
ENDBRANCH   4  11
BRANCH   1  22
ATOM     22  C   UNL d   1      -1.458   2.337   0.363  0.00  0.00     0.449 C 
ATOM     23  F   UNL d   1      -2.810   2.172   0.483  0.00  0.00    -0.163 F 
ATOM     24  F   UNL d   1      -1.076   2.996   1.501  0.00  0.00    -0.163 F 
ATOM     25  F   UNL d   1      -1.294   3.241  -0.651  0.00  0.00    -0.163 F 
ENDBRANCH   1  22
TORSDOF 5
