REMARK  2 active torsions:
REMARK  status: ('A' for Active; 'I' for Inactive)
REMARK    1  A    between atoms: C_12  and  C_6 
REMARK    2  A    between atoms: C_13  and  C_7 
ROOT
ATOM      1  N   UNL d   1       1.347  -0.627  -0.034  0.00  0.00    -0.352 N 
ATOM      2  HN  UNL d   1       2.233  -1.132  -0.030  1.00  0.00     0.166 HD
ATOM      3  C   UNL d   1       0.161  -1.205  -0.049  0.00  0.00     0.091 A 
ATOM      4  S   UNL d   1      -1.497  -3.453  -0.128  0.00  0.00    -0.085 SA
ATOM      5  C   UNL d   1       0.016  -2.644  -0.054  0.00  0.00     0.039 A 
ATOM      6  C   UNL d   1       1.234   0.757  -0.024  0.00  0.00     0.024 A 
ATOM      7  C   UNL d   1      -0.788  -5.008  -0.004  0.00  0.00     0.032 A 
ATOM      8  S   UNL d   1      -1.164  -0.106  -0.040  0.00  0.00    -0.081 SA
ATOM      9  C   UNL d   1      -0.073   1.211  -0.021  0.00  0.00     0.077 A 
ATOM     10  C   UNL d   1       1.050  -3.563  -0.000  0.00  0.00     0.023 A 
ATOM     11  C   UNL d   1       0.591  -4.913   0.004  0.00  0.00     0.023 A 
ENDROOT
BRANCH   7  12
ATOM     12  C   UNL d   1      -1.611  -6.221   0.086  0.00  0.00     0.049 A 
ATOM     13  N   UNL d   1      -1.054  -7.324  -0.474  0.00  0.00    -0.365 N 
ATOM     14  C   UNL d   1      -1.718  -8.494  -0.331  0.00  0.00     0.088 A 
ATOM     15  HN  UNL d   1      -0.171  -7.274  -0.983  1.00  0.00     0.165 HD
ATOM     16  C   UNL d   1      -2.906  -8.627   0.367  0.00  0.00     0.017 A 
ATOM     17  C   UNL d   1      -3.464  -7.489   0.932  0.00  0.00     0.004 A 
ATOM     18  C   UNL d   1      -2.814  -6.265   0.786  0.00  0.00     0.031 A 
ENDBRANCH   7  12
BRANCH   6  19
ATOM     19  C   UNL d   1       2.489   1.622  -0.030  0.00  0.00    -0.008 C 
ATOM     20  C   UNL d   1       3.769   0.759  -0.028  0.00  0.00     0.021 C 
ATOM     21  C   UNL d   1       2.512   2.507  -1.292  0.00  0.00     0.021 C 
ATOM     22  C   UNL d   1       2.525   2.529   1.215  0.00  0.00     0.021 C 
ENDBRANCH   6  19
TORSDOF 2
