REMARK  4 active torsions:
REMARK  status: ('A' for Active; 'I' for Inactive)
REMARK    1  A    between atoms: C_2  and  C_1 
REMARK    2  A    between atoms: C_3  and  C_1 
REMARK       I    between atoms: N_5  and  C_3 
REMARK    3  A    between atoms: C_16  and  N_5 
REMARK    4  A    between atoms: C_13  and  C_16 
ROOT
ATOM      1  C   UNL d   1       2.657  -0.099  -0.023  0.00  0.00     0.222 C 
ATOM      2  N   UNL d   1       3.295  -1.078  -0.754  0.00  0.00    -0.357 N 
ATOM      3  O   UNL d   1       1.434   0.032   0.002  0.00  0.00    -0.273 OA
ATOM      4  H   UNL d   1       4.304  -1.135  -0.734  0.00  0.00     0.162 HD
ENDROOT
BRANCH   2   5
ATOM      5  C   UNL d   1       2.567  -2.041  -1.546  0.00  0.00     0.161 C 
BRANCH   5   6
ATOM      6  C   UNL d   1       2.344  -3.319  -0.780  0.00  0.00    -0.037 A 
ATOM      7  C   UNL d   1       1.161  -3.510  -0.049  0.00  0.00     0.032 A 
ATOM      8  C   UNL d   1       0.959  -4.691   0.668  0.00  0.00     0.036 A 
ATOM      9 CL   UNL d   1      -0.504  -4.916   1.545  0.00  0.00    -0.084 Cl
ATOM     10  C   UNL d   1       1.928  -5.690   0.680  0.00  0.00     0.047 A 
ATOM     11  C   UNL d   1       3.109  -5.497  -0.032  0.00  0.00     0.036 A 
ATOM     12  C   UNL d   1       3.323  -4.323  -0.757  0.00  0.00     0.032 A 
ATOM     13 CL   UNL d   1       4.321  -6.720  -0.019  0.00  0.00    -0.084 Cl
ENDBRANCH   5   6
ENDBRANCH   2   5
BRANCH   1  14
ATOM     14  C   UNL d   1       3.590   0.810   0.757  0.00  0.00     0.148 C 
BRANCH  14  15
ATOM     15  C   UNL d   1       3.897   2.042  -0.038  0.00  0.00    -0.009 A 
ATOM     16  S   UNL d   1       5.291   2.105  -1.034  0.00  0.00    -0.106 SA
ATOM     17  C   UNL d   1       4.965   3.718  -1.497  0.00  0.00     0.050 A 
ATOM     18  C   UNL d   1       3.814   4.200  -0.917  0.00  0.00     0.008 A 
ATOM     19  C   UNL d   1       3.193   3.230  -0.079  0.00  0.00     0.015 A 
ENDBRANCH  14  15
ENDBRANCH   1  14
TORSDOF 4
