REMARK  7 active torsions:
REMARK  status: ('A' for Active; 'I' for Inactive)
REMARK    1  A    between atoms: C_7  and  N_1 
REMARK    2  A    between atoms: C_8  and  C_3 
REMARK    3  A    between atoms: C_21  and  C_7 
REMARK    4  A    between atoms: O_24  and  C_10 
REMARK    5  A    between atoms: N_13  and  C_11 
REMARK    6  A    between atoms: O_25  and  C_12 
REMARK    7  A    between atoms: C_20  and  C_21 
ROOT
ATOM      1  N   UNL d   1       2.129  -0.216   0.134  0.00  0.00    -0.322 N 
ATOM      2  C   UNL d   1       1.211   0.806  -0.092  0.00  0.00     0.258 C 
ATOM      3  C   UNL d   1       1.763  -1.597  -0.167  0.00  0.00     0.221 C 
ATOM      4  N   UNL d   1       0.408  -1.874   0.271  0.00  0.00    -0.364 N 
ATOM      5  C   UNL d   1      -0.225   0.427  -0.151  0.00  0.00     0.058 A 
ATOM      6  C   UNL d   1      -0.563  -0.917   0.005  0.00  0.00     0.045 A 
ATOM      7  O   UNL d   1       1.513   1.990  -0.189  0.00  0.00    -0.267 OA
ATOM      8  C   UNL d   1      -1.219   1.410  -0.257  0.00  0.00     0.019 A 
ATOM      9  C   UNL d   1      -1.918  -1.263   0.078  0.00  0.00     0.030 A 
ATOM     10  C   UNL d   1      -2.564   1.049  -0.194  0.00  0.00     0.001 A 
ATOM     11  C   UNL d   1      -2.914  -0.289  -0.029  0.00  0.00     0.002 A 
ATOM     12  H   UNL d   1       0.120  -2.828   0.085  0.00  0.00     0.162 HD
ENDROOT
BRANCH   1  13
ATOM     13  C   UNL d   1       3.530   0.161   0.398  0.00  0.00     0.133 C 
BRANCH  13  14
ATOM     14  C   UNL d   1       4.557  -0.279  -0.653  0.00  0.00     0.058 C 
BRANCH  14  15
ATOM     15  C   UNL d   1       5.963   0.137  -0.288  0.00  0.00    -0.054 A 
ATOM     16  C   UNL d   1       6.725  -0.612   0.632  0.00  0.00     0.046 A 
ATOM     17  C   UNL d   1       8.032  -0.228   0.980  0.00  0.00     0.102 A 
ATOM     18  C   UNL d   1       8.581   0.918   0.378  0.00  0.00     0.101 A 
ATOM     19  C   UNL d   1       7.809   1.676  -0.513  0.00  0.00     0.040 A 
ATOM     20  C   UNL d   1       6.513   1.289  -0.846  0.00  0.00     0.010 A 
BRANCH  17  21
ATOM     21  O   UNL d   1       8.801  -0.889   1.899  0.00  0.00    -0.353 OA
ATOM     22  C   UNL d   1       8.238  -2.006   2.573  0.00  0.00     0.210 C 
ENDBRANCH  17  21
BRANCH  18  23
ATOM     23  O   UNL d   1       9.823   1.456   0.604  0.00  0.00    -0.353 OA
ATOM     24  C   UNL d   1      10.879   0.532   0.832  0.00  0.00     0.210 C 
ENDBRANCH  18  23
ENDBRANCH  14  15
ENDBRANCH  13  14
ENDBRANCH   1  13
BRANCH   3  25
ATOM     25  C   UNL d   1       2.633  -2.656   0.488  0.00  0.00    -0.016 A 
ATOM     26  C   UNL d   1       2.711  -2.752   1.882  0.00  0.00     0.013 A 
ATOM     27  C   UNL d   1       3.528  -3.708   2.491  0.00  0.00     0.030 A 
ATOM     28  C   UNL d   1       4.298  -4.613   1.744  0.00  0.00     0.029 A 
ATOM     29  C   UNL d   1       4.184  -4.523   0.347  0.00  0.00     0.030 A 
ATOM     30  C   UNL d   1       3.359  -3.577  -0.275  0.00  0.00     0.013 A 
BRANCH  28  31
ATOM     31  N   UNL d   1       5.110  -5.552   2.349  0.00  0.00    -0.390 N 
ATOM     32  C   UNL d   1       6.346  -6.015   1.732  0.00  0.00     0.149 C 
ATOM     33  C   UNL d   1       4.822  -6.070   3.681  0.00  0.00     0.149 C 
ENDBRANCH  28  31
ENDBRANCH   3  25
TORSDOF 7
