REMARK  3 active torsions:
REMARK  status: ('A' for Active; 'I' for Inactive)
REMARK    1  A    between atoms: C_19  and  C_7 
REMARK    2  A    between atoms: C_20  and  C_8 
REMARK    3  A    between atoms: S_21  and  C_16 
ROOT
ATOM      1  C   UNL d   1       0.803   1.694  -0.115  0.00  0.00     0.078 A 
ATOM      2  N   UNL d   1      -0.005  -0.553  -0.011  0.00  0.00    -0.163 N 
ATOM      3  C   UNL d   1      -0.284   0.786  -0.051  0.00  0.00     0.171 A 
ATOM      4  C   UNL d   1       0.539   3.107  -0.151  0.00  0.00     0.180 A 
ATOM      5  N   UNL d   1       1.189  -1.155  -0.027  0.00  0.00    -0.278 N 
ATOM      6  HN  UNL d   1       1.297  -2.169   0.006  1.00  0.00     0.189 HD
ATOM      7  C   UNL d   1       2.071   1.192  -0.121  0.00  0.00     0.022 A 
ATOM      8  C   UNL d   1       2.204  -0.339  -0.087  0.00  0.00     0.072 A 
ATOM      9  N   UNL d   1      -1.150  -1.245   0.065  0.00  0.00     0.016 NA
ATOM     10  O   UNL d   1      -0.494   3.696   0.573  0.00  0.00    -0.267 OA
ATOM     11  N   UNL d   1      -2.114  -0.334   0.063  0.00  0.00    -0.005 NA
ATOM     12  N   UNL d   1      -1.594   0.935  -0.010  0.00  0.00    -0.268 N 
ATOM     13  HN  UNL d   1      -2.114   1.813  -0.028  1.00  0.00     0.185 HD
ATOM     14  N   UNL d   1       1.147   4.031  -0.883  0.00  0.00    -0.276 N 
ATOM     15  HN  UNL d   1       1.929   3.869  -1.517  1.00  0.00     0.189 HD
ATOM     16  C   UNL d   1      -0.426   5.009   0.209  0.00  0.00     0.201 A 
ATOM     17  N   UNL d   1       0.544   5.242  -0.643  0.00  0.00    -0.272 N 
ATOM     18  HN  UNL d   1       0.801   6.142  -1.046  1.00  0.00     0.189 HD
ENDROOT
BRANCH   7  19
ATOM     19  C   UNL d   1       3.247   2.083  -0.054  0.00  0.00    -0.022 A 
ATOM     20  C   UNL d   1       3.864   2.350   1.176  0.00  0.00     0.012 A 
ATOM     21  C   UNL d   1       4.967   3.204   1.235  0.00  0.00     0.001 A 
ATOM     22  C   UNL d   1       5.460   3.797   0.072  0.00  0.00     0.000 A 
ATOM     23  C   UNL d   1       4.847   3.545  -1.152  0.00  0.00     0.001 A 
ATOM     24  C   UNL d   1       3.741   2.699  -1.216  0.00  0.00     0.012 A 
ENDBRANCH   7  19
BRANCH   8  25
ATOM     25  C   UNL d   1       3.560  -1.005  -0.092  0.00  0.00    -0.007 A 
ATOM     26  C   UNL d   1       4.661  -0.543  -0.816  0.00  0.00     0.014 A 
ATOM     27  C   UNL d   1       5.883  -1.225  -0.778  0.00  0.00     0.001 A 
ATOM     28  C   UNL d   1       6.003  -2.413  -0.064  0.00  0.00     0.000 A 
ATOM     29  C   UNL d   1       4.899  -2.923   0.612  0.00  0.00     0.001 A 
ATOM     30  C   UNL d   1       3.690  -2.222   0.603  0.00  0.00     0.014 A 
ENDBRANCH   8  25
BRANCH  16  31
ATOM     31  S   UNL d   1      -1.511   6.217   0.808  0.00  0.00    -0.098 SA
ATOM     32  H   UNL d   1      -2.338   5.382   1.450  0.00  0.00     0.110 HD
ENDBRANCH  16  31
TORSDOF 3
