REMARK  6 active torsions:
REMARK  status: ('A' for Active; 'I' for Inactive)
REMARK    1  A    between atoms: O_4  and  C_1 
REMARK    2  A    between atoms: C_3  and  C_2 
REMARK       I    between atoms: N_5  and  C_3 
REMARK    3  A    between atoms: C_12  and  O_4 
REMARK    4  A    between atoms: C_11  and  N_5 
REMARK    5  A    between atoms: C_8  and  C_11 
REMARK    6  A    between atoms: O_14  and  C_8 
ROOT
ATOM      1  C   UNL d   1      -0.687   1.040   0.147  0.00  0.00     0.163 A 
ATOM      2  C   UNL d   1       0.627   1.481   0.228  0.00  0.00     0.083 A 
ATOM      3  N   UNL d   1      -1.033  -0.278   0.248  0.00  0.00    -0.346 N 
ATOM      4  HN  UNL d   1      -2.014  -0.558   0.278  1.00  0.00     0.167 HD
ATOM      5  C   UNL d   1       1.616   0.477   0.283  0.00  0.00     0.023 A 
ATOM      6  C   UNL d   1      -0.054  -1.201   0.307  0.00  0.00     0.090 A 
ATOM      7  C   UNL d   1       1.281  -0.874   0.302  0.00  0.00     0.018 A 
ENDROOT
BRANCH   2   8
ATOM      8  C   UNL d   1       1.129   2.877   0.222  0.00  0.00     0.256 C 
ATOM      9  N   UNL d   1       0.315   3.975   0.476  0.00  0.00    -0.347 N 
ATOM     10  H   UNL d   1      -0.674   3.860   0.280  0.00  0.00     0.163 HD
ATOM     11  O   UNL d   1       2.336   3.042   0.009  0.00  0.00    -0.268 OA
BRANCH   9  12
ATOM     12  C   UNL d   1       0.953   5.293   0.270  0.00  0.00     0.232 C 
BRANCH  12  13
ATOM     13  C   UNL d   1       0.329   6.544   0.887  0.00  0.00     0.158 C 
ATOM     14  O   UNL d   1       0.705   7.688   0.657  0.00  0.00    -0.649 OA
BRANCH  13  15
ATOM     15  O   UNL d   1      -0.678   6.260   1.760  0.00  0.00    -0.775 OA
ATOM     16  H   UNL d   1      -0.750   5.300   1.917  0.00  0.00     0.167 HD
ENDBRANCH  13  15
ENDBRANCH  12  13
ENDBRANCH   9  12
ENDBRANCH   2   8
BRANCH   1  17
ATOM     17  O   UNL d   1      -1.716   1.934  -0.137  0.00  0.00    -0.293 OA
BRANCH  17  18
ATOM     18  C   UNL d   1      -2.800   1.387  -0.809  0.00  0.00     0.077 A 
ATOM     19  C   UNL d   1      -4.077   1.592  -0.285  0.00  0.00     0.039 A 
ATOM     20  C   UNL d   1      -5.187   1.004  -0.903  0.00  0.00     0.026 A 
ATOM     21  C   UNL d   1      -5.017   0.218  -2.045  0.00  0.00     0.034 A 
ATOM     22  C   UNL d   1      -3.749   0.035  -2.591  0.00  0.00     0.026 A 
ATOM     23 CL   UNL d   1      -6.378  -0.534  -2.782  0.00  0.00    -0.084 Cl
ATOM     24  C   UNL d   1      -2.643   0.636  -1.985  0.00  0.00     0.039 A 
ENDBRANCH  17  18
ENDBRANCH   1  17
TORSDOF 6
