REMARK  3 active torsions:
REMARK  status: ('A' for Active; 'I' for Inactive)
REMARK    1  A    between atoms: C_15  and  C_7 
REMARK    2  A    between atoms: O_11  and  C_15 
REMARK    3  A    between atoms: C_13  and  O_11 
ROOT
ATOM      1  C   UNL d   1       0.394  -0.835  -0.608  0.00  0.00     0.181 A 
ATOM      2  N   UNL d   1       0.256  -0.934   0.703  0.00  0.00    -0.277 N 
ATOM      3  HN  UNL d   1       0.479  -1.748   1.276  1.00  0.00     0.189 HD
ATOM      4  O   UNL d   1      -0.001   0.403  -1.068  0.00  0.00    -0.275 OA
ATOM      5  N   UNL d   1      -0.246   0.267   1.152  0.00  0.00    -0.279 N 
ATOM      6  HN  UNL d   1      -0.463   0.518   2.116  1.00  0.00     0.189 HD
ATOM      7  C   UNL d   1      -0.392   1.026   0.087  0.00  0.00     0.165 A 
ATOM      8  C   UNL d   1       0.919  -1.886  -1.431  0.00  0.00     0.057 A 
ATOM      9  S   UNL d   1       1.107  -1.702  -3.123  0.00  0.00    -0.098 SA
ATOM     10  C   UNL d   1       1.337  -3.136  -1.013  0.00  0.00     0.024 A 
ATOM     11  C   UNL d   1       1.726  -3.288  -3.296  0.00  0.00     0.050 A 
ATOM     12  C   UNL d   1       1.799  -3.947  -2.090  0.00  0.00     0.009 A 
ENDROOT
BRANCH   7  13
ATOM     13  C   UNL d   1      -0.765   2.460   0.015  0.00  0.00     0.261 C 
BRANCH  13  14
ATOM     14  O   UNL d   1      -2.183   2.554  -0.150  0.00  0.00    -0.342 OA
BRANCH  14  15
ATOM     15  C   UNL d   1      -2.693   3.830  -0.119  0.00  0.00     0.091 A 
ATOM     16  C   UNL d   1      -3.827   4.111  -0.899  0.00  0.00     0.067 A 
ATOM     17 CL   UNL d   1      -4.544   2.907  -1.913  0.00  0.00    -0.081 Cl
ATOM     18  C   UNL d   1      -4.401   5.386  -0.886  0.00  0.00     0.026 A 
ATOM     19  C   UNL d   1      -3.861   6.391  -0.085  0.00  0.00     0.002 A 
ATOM     20  C   UNL d   1      -2.752   6.115   0.712  0.00  0.00     0.003 A 
ATOM     21  C   UNL d   1      -2.178   4.841   0.700  0.00  0.00     0.038 A 
ENDBRANCH  14  15
ENDBRANCH  13  14
ENDBRANCH   7  13
TORSDOF 3
