REMARK  5 active torsions:
REMARK  status: ('A' for Active; 'I' for Inactive)
REMARK    1  A    between atoms: N_7  and  S_1 
REMARK    2  A    between atoms: C_14  and  S_1 
REMARK    3  A    between atoms: N_2  and  C_15 
REMARK    4  A    between atoms: C_11  and  C_6 
REMARK       I    between atoms: N_13  and  C_10 
REMARK       I    between atoms: N_19  and  C_10 
REMARK    5  A    between atoms: N_30  and  N_19 
ROOT
ATOM      1  C   UNL d   1      -0.821  -2.337  -0.553  0.00  0.00     0.080 A 
ATOM      2  C   UNL d   1      -1.642  -3.878   1.652  0.00  0.00     0.057 A 
ATOM      3  C   UNL d   1      -1.305  -1.708   0.598  0.00  0.00     0.027 A 
ATOM      4  C   UNL d   1      -0.755  -3.733  -0.611  0.00  0.00     0.027 A 
ATOM      5  C   UNL d   1      -1.163  -4.501   0.490  0.00  0.00     0.033 A 
ATOM      6  C   UNL d   1      -1.724  -2.477   1.692  0.00  0.00     0.033 A 
ENDROOT
BRANCH   1   7
ATOM      7  S   UNL d   1      -0.545  -1.374  -2.034  0.00  0.00     0.276 S 
ATOM      8  O   UNL d   1      -0.835  -2.245  -3.159  0.00  0.00    -0.200 OA
ATOM      9  O   UNL d   1      -1.319  -0.151  -1.883  0.00  0.00    -0.200 OA
BRANCH   7  10
ATOM     10  N   UNL d   1       1.029  -0.993  -2.062  0.00  0.00    -0.112 N 
ATOM     11  C   UNL d   1       1.510  -0.398  -3.117  0.00  0.00     0.700 C 
ATOM     12  N   UNL d   1       2.849  -0.011  -3.166  0.00  0.00    -0.216 N 
ATOM     13  N   UNL d   1       0.815  -0.099  -4.292  0.00  0.00    -0.156 N 
ATOM     14  C   UNL d   1       3.589   0.185  -4.422  0.00  0.00     0.141 C 
ATOM     15  C   UNL d   1       3.786  -0.337  -2.086  0.00  0.00     0.141 C 
ATOM     16  C   UNL d   1       4.963  -0.411  -4.153  0.00  0.00     0.022 C 
ATOM     17  C   UNL d   1       5.171  -0.100  -2.684  0.00  0.00     0.022 C 
ATOM     18  H   UNL d   1      -0.077  -0.589  -4.411  0.00  0.00     0.199 HD
ATOM     19  HN  UNL d   1       1.632  -1.214  -1.269  1.00  0.00     0.197 HD
BRANCH  13  20
ATOM     20  N   UNL d   1       0.771   1.281  -4.669  0.00  0.00    -0.235 NA
ATOM     21  H   UNL d   1       1.466   1.795  -4.116  0.00  0.00     0.143 HD
ATOM     22  H   UNL d   1      -0.127   1.688  -4.395  0.00  0.00     0.143 HD
ENDBRANCH  13  20
ENDBRANCH   7  10
ENDBRANCH   1   7
BRANCH   2  23
ATOM     23  N   UNL d   1      -2.117  -4.639   2.768  0.00  0.00    -0.255 N 
ATOM     24  C   UNL d   1      -1.792  -5.931   3.176  0.00  0.00     0.076 C 
ATOM     25  C   UNL d   1      -2.746  -6.275   4.116  0.00  0.00     0.069 C 
ATOM     26  C   UNL d   1      -0.651  -6.705   2.765  0.00  0.00     0.033 A 
ATOM     27  C   UNL d   1      -3.520  -5.112   4.335  0.00  0.00     0.135 C 
ATOM     28  N   UNL d   1      -3.068  -4.094   3.580  0.00  0.00    -0.289 N 
ATOM     29  HN  UNL d   1      -3.372  -3.121   3.609  1.00  0.00     0.187 HD
ATOM     30  S   UNL d   1      -0.749  -8.408   2.574  0.00  0.00    -0.100 SA
ATOM     31  C   UNL d   1       0.632  -6.252   2.524  0.00  0.00     0.021 A 
ATOM     32  C   UNL d   1       0.896  -8.523   2.125  0.00  0.00     0.050 A 
ATOM     33  C   UNL d   1       1.518  -7.296   2.128  0.00  0.00     0.008 A 
BRANCH  27  34
ATOM     34  C   UNL d   1      -4.664  -4.991   5.309  0.00  0.00     0.434 C 
ATOM     35  F   UNL d   1      -5.260  -3.771   5.310  0.00  0.00    -0.165 F 
ATOM     36  F   UNL d   1      -5.640  -5.902   5.041  0.00  0.00    -0.165 F 
ATOM     37  F   UNL d   1      -4.259  -5.232   6.585  0.00  0.00    -0.165 F 
ENDBRANCH  27  34
ENDBRANCH   2  23
TORSDOF 5
