REMARK  3 active torsions:
REMARK  status: ('A' for Active; 'I' for Inactive)
REMARK    1  A    between atoms: C_3  and  C_1 
REMARK    2  A    between atoms: C_4  and  C_1 
REMARK    3  A    between atoms: C_5  and  C_2 
REMARK       I    between atoms: N_13  and  C_3 
REMARK       I    between atoms: N_12  and  C_4 
ROOT
ATOM      1  C   UNL d   1       1.061   0.045   0.022  0.00  0.00     0.101 C 
ATOM      2  C   UNL d   1       0.410  -0.739   0.909  0.00  0.00     0.060 C 
ENDROOT
BRANCH   1   3
ATOM      3  C   UNL d   1       0.235   0.874  -0.922  0.00  0.00     0.255 C 
ATOM      4  O   UNL d   1       0.685   1.317  -1.976  0.00  0.00    -0.268 OA
ATOM      5  N   UNL d   1      -1.045   1.197  -0.573  0.00  0.00    -0.366 N 
ATOM      6  H   UNL d   1      -1.477   1.001   0.316  0.00  0.00     0.159 HD
ATOM      7  H   UNL d   1      -1.545   1.802  -1.212  0.00  0.00     0.159 HD
ENDBRANCH   1   3
BRANCH   1   8
ATOM      8  C   UNL d   1       2.566   0.061  -0.083  0.00  0.00     0.255 C 
ATOM      9  O   UNL d   1       3.327  -0.549   0.658  0.00  0.00    -0.268 OA
ATOM     10  N   UNL d   1       3.097   0.825  -1.077  0.00  0.00    -0.366 N 
ATOM     11  H   UNL d   1       2.513   1.271  -1.782  0.00  0.00     0.159 HD
ATOM     12  H   UNL d   1       4.096   0.789  -1.224  0.00  0.00     0.159 HD
ENDBRANCH   1   8
BRANCH   2  13
ATOM     13  C   UNL d   1       1.039  -1.583   1.860  0.00  0.00     0.076 A 
ATOM     14  O   UNL d   1       1.381  -2.887   1.592  0.00  0.00    -0.323 OA
ATOM     15  C   UNL d   1       1.948  -3.412   2.706  0.00  0.00     0.142 A 
ATOM     16  C   UNL d   1       1.952  -2.491   3.723  0.00  0.00     0.027 A 
ATOM     17  C   UNL d   1       1.360  -1.324   3.186  0.00  0.00     0.039 A 
ENDBRANCH   2  13
TORSDOF 3
