REMARK  2 active torsions:
REMARK  status: ('A' for Active; 'I' for Inactive)
REMARK    1  A    between atoms: N_7  and  C_1 
REMARK    2  A    between atoms: C_9  and  C_2 
REMARK       I    between atoms: C_8  and  N_7 
ROOT
ATOM      1  C   UNL d   1      -2.361  -0.221   0.023  0.00  0.00     0.121 A 
ATOM      2  C   UNL d   1      -1.895  -1.482  -0.018  0.00  0.00     0.117 A 
ATOM      3  C   UNL d   1      -1.369   0.896   0.005  0.00  0.00     0.214 A 
ATOM      4  O   UNL d   1      -0.561  -1.839   0.000  0.00  0.00    -0.306 OA
ATOM      5  C   UNL d   1       0.054   0.506   0.033  0.00  0.00     0.050 A 
ATOM      6  C   UNL d   1       0.380  -0.846   0.029  0.00  0.00     0.090 A 
ATOM      7  O   UNL d   1      -1.707   2.072  -0.088  0.00  0.00    -0.285 OA
ATOM      8  C   UNL d   1       1.070   1.468   0.028  0.00  0.00     0.018 A 
ATOM      9  C   UNL d   1       1.715  -1.251   0.029  0.00  0.00     0.038 A 
ATOM     10  C   UNL d   1       2.409   1.064   0.024  0.00  0.00     0.001 A 
ATOM     11  C   UNL d   1       2.731  -0.295   0.026  0.00  0.00     0.003 A 
ENDROOT
BRANCH   2  12
ATOM     12  C   UNL d   1      -2.773  -2.651  -0.140  0.00  0.00     0.000 A 
ATOM     13  C   UNL d   1      -3.112  -3.133  -1.411  0.00  0.00     0.014 A 
ATOM     14  C   UNL d   1      -3.888  -4.285  -1.542  0.00  0.00     0.001 A 
ATOM     15  C   UNL d   1      -4.327  -4.960  -0.404  0.00  0.00     0.000 A 
ATOM     16  C   UNL d   1      -4.002  -4.478   0.865  0.00  0.00     0.001 A 
ATOM     17  C   UNL d   1      -3.230  -3.323   0.999  0.00  0.00     0.014 A 
ENDBRANCH   2  12
BRANCH   1  18
ATOM     18  N   UNL d   1      -3.702   0.088  -0.044  0.00  0.00    -0.322 N 
ATOM     19  C   UNL d   1      -4.477   0.297   1.076  0.00  0.00     0.218 C 
ATOM     20  O   UNL d   1      -4.072   0.191   2.234  0.00  0.00    -0.274 OA
ATOM     21  C   UNL d   1      -5.913   0.634   0.768  0.00  0.00     0.117 C 
ATOM     22  H   UNL d   1      -4.097   0.232  -0.963  0.00  0.00     0.169 HD
ENDBRANCH   1  18
TORSDOF 2
