REMARK  1 active torsions:
REMARK  status: ('A' for Active; 'I' for Inactive)
REMARK    1  A    between atoms: C_2  and  C_1 
ROOT
ATOM      1  C   UNL d   1      -0.771   2.239   0.301  0.00  0.00     0.039 C 
ATOM      2  C   UNL d   1      -1.315   4.660   0.457  0.00  0.00     0.134 C 
ATOM      3  C   UNL d   1      -3.117   2.916   0.106  0.00  0.00     0.134 C 
ATOM      4  C   UNL d   1      -2.769   4.377   0.184  0.00  0.00     0.156 C 
ATOM      5  C   UNL d   1      -0.284   3.655  -0.009  0.00  0.00     0.089 C 
ATOM      6  C   UNL d   1      -2.075   1.981  -0.453  0.00  0.00     0.089 C 
ATOM      7  O   UNL d   1      -0.962   5.745   0.923  0.00  0.00    -0.298 OA
ATOM      8  O   UNL d   1      -4.247   2.510   0.384  0.00  0.00    -0.298 OA
ENDROOT
BRANCH   1   9
ATOM      9  C   UNL d   1       0.232   1.140   0.043  0.00  0.00    -0.013 A 
ATOM     10  S   UNL d   1       1.467   1.257  -1.139  0.00  0.00    -0.106 SA
ATOM     11  C   UNL d   1       2.093  -0.282  -0.741  0.00  0.00     0.050 A 
ATOM     12  C   UNL d   1       1.359  -0.900   0.245  0.00  0.00     0.008 A 
ATOM     13  C   UNL d   1       0.285  -0.082   0.693  0.00  0.00     0.015 A 
ENDBRANCH   1   9
TORSDOF 1
