REMARK  3 active torsions:
REMARK  status: ('A' for Active; 'I' for Inactive)
REMARK    1  A    between atoms: N_8  and  C_1 
REMARK       I    between atoms: C_13  and  N_8 
REMARK    2  A    between atoms: O_16  and  C_11 
REMARK    3  A    between atoms: O_17  and  C_12 
ROOT
ATOM      1  C   UNL d   1       2.428   0.651   0.095  0.00  0.00     0.155 C 
ATOM      2  S   UNL d   1       2.737  -1.022   0.411  0.00  0.00    -0.011 SA
ATOM      3  C   UNL d   1       0.004  -0.882  -0.033  0.00  0.00     0.051 A 
ATOM      4  C   UNL d   1       1.224  -1.692  -0.130  0.00  0.00     0.229 C 
ATOM      5  N   UNL d   1       1.285   1.218  -0.046  0.00  0.00    -0.336 N 
ATOM      6  HN  UNL d   1       1.250   2.223  -0.215  1.00  0.00     0.168 HD
ATOM      7  C   UNL d   1       0.087   0.502   0.024  0.00  0.00     0.051 A 
ATOM      8  C   UNL d   1      -1.240  -1.532  -0.006  0.00  0.00     0.058 A 
ATOM      9  C   UNL d   1      -1.107   1.227   0.110  0.00  0.00     0.070 A 
ATOM     10  C   UNL d   1      -2.429  -0.803   0.117  0.00  0.00     0.102 A 
ATOM     11  C   UNL d   1      -2.365   0.597   0.163  0.00  0.00     0.103 A 
ATOM     12  O   UNL d   1       1.167  -2.857  -0.504  0.00  0.00    -0.279 OA
ENDROOT
BRANCH   1  13
ATOM     13  N   UNL d   1       3.624   1.328   0.042  0.00  0.00    -0.307 N 
ATOM     14  C   UNL d   1       3.819   2.678  -0.190  0.00  0.00     0.219 C 
ATOM     15  O   UNL d   1       2.949   3.503  -0.444  0.00  0.00    -0.274 OA
ATOM     16  C   UNL d   1       5.269   3.090  -0.125  0.00  0.00     0.117 C 
ATOM     17  H   UNL d   1       4.435   0.750   0.201  0.00  0.00     0.171 HD
ENDBRANCH   1  13
BRANCH  11  18
ATOM     18  O   UNL d   1      -3.396   1.494   0.267  0.00  0.00    -0.353 OA
ATOM     19  C   UNL d   1      -4.726   1.006   0.364  0.00  0.00     0.210 C 
ENDBRANCH  11  18
BRANCH  10  20
ATOM     20  O   UNL d   1      -3.648  -1.427   0.133  0.00  0.00    -0.353 OA
ATOM     21  C   UNL d   1      -3.690  -2.712   0.749  0.00  0.00     0.210 C 
ENDBRANCH  10  20
TORSDOF 3
