REMARK  6 active torsions:
REMARK  status: ('A' for Active; 'I' for Inactive)
REMARK    1  A    between atoms: N_2  and  S_1 
REMARK    2  A    between atoms: C_4  and  S_1 
REMARK    3  A    between atoms: S_3  and  N_2 
REMARK    4  A    between atoms: C_9  and  N_2 
REMARK    5  A    between atoms: C_6  and  S_3 
REMARK    6  A    between atoms: O_29  and  C_22 
ROOT
ATOM      1  N   UNL d   1       0.422  -1.620   0.756  0.00  0.00    -0.157 N 
ENDROOT
BRANCH   1   2
ATOM      2  S   UNL d   1       0.911  -0.135   0.185  0.00  0.00     0.281 S 
ATOM      3  O   UNL d   1      -0.283   0.637  -0.116  0.00  0.00    -0.199 OA
ATOM      4  O   UNL d   1       1.919  -0.303  -0.843  0.00  0.00    -0.199 OA
BRANCH   2   5
ATOM      5  C   UNL d   1       1.743   0.666   1.524  0.00  0.00     0.119 A 
ATOM      6  C   UNL d   1       2.749  -0.013   2.205  0.00  0.00     0.142 A 
ATOM      7  C   UNL d   1       3.431   0.600   3.252  0.00  0.00     0.086 A 
ATOM      8  F   UNL d   1       3.075  -1.270   1.878  0.00  0.00    -0.204 F 
ATOM      9  C   UNL d   1       3.098   1.901   3.605  0.00  0.00     0.119 A 
ATOM     10  C   UNL d   1       2.094   2.595   2.934  0.00  0.00     0.044 A 
ATOM     11  F   UNL d   1       3.756   2.501   4.606  0.00  0.00    -0.206 F 
ATOM     12  C   UNL d   1       1.408   1.977   1.885  0.00  0.00     0.031 A 
ENDBRANCH   2   5
ENDBRANCH   1   2
BRANCH   1  13
ATOM     13  S   UNL d   1      -0.511  -1.774   2.124  0.00  0.00     0.278 S 
ATOM     14  O   UNL d   1      -0.112  -2.986   2.816  0.00  0.00    -0.199 OA
ATOM     15  O   UNL d   1      -0.533  -0.525   2.856  0.00  0.00    -0.199 OA
BRANCH  13  16
ATOM     16  C   UNL d   1      -2.181  -2.036   1.546  0.00  0.00     0.081 A 
ATOM     17  C   UNL d   1      -2.783  -3.291   1.692  0.00  0.00     0.028 A 
ATOM     18  C   UNL d   1      -4.149  -3.450   1.420  0.00  0.00     0.038 A 
ATOM     19  C   UNL d   1      -4.913  -2.358   1.004  0.00  0.00     0.068 A 
ATOM     20  C   UNL d   1      -4.304  -1.108   0.864  0.00  0.00     0.038 A 
ATOM     21  C   UNL d   1      -2.944  -0.940   1.136  0.00  0.00     0.028 A 
BRANCH  19  22
ATOM     22  O   UNL d   1      -6.258  -2.370   0.760  0.00  0.00    -0.356 OA
ATOM     23  C   UNL d   1      -6.839  -3.633   0.462  0.00  0.00     0.210 C 
ENDBRANCH  19  22
ENDBRANCH  13  16
ENDBRANCH   1  13
BRANCH   1  24
ATOM     24  C   UNL d   1       0.635  -2.755  -0.080  0.00  0.00     0.062 A 
ATOM     25  C   UNL d   1       1.638  -3.667   0.268  0.00  0.00     0.033 A 
ATOM     26  C   UNL d   1       1.904  -4.769  -0.547  0.00  0.00     0.026 A 
ATOM     27  C   UNL d   1       1.160  -4.962  -1.708  0.00  0.00     0.034 A 
ATOM     28  C   UNL d   1       0.156  -4.060  -2.062  0.00  0.00     0.026 A 
ATOM     29 CL   UNL d   1       1.486  -6.321  -2.711  0.00  0.00    -0.084 Cl
ATOM     30  C   UNL d   1      -0.109  -2.953  -1.247  0.00  0.00     0.033 A 
ENDBRANCH   1  24
TORSDOF 6
