REMARK  6 active torsions:
REMARK  status: ('A' for Active; 'I' for Inactive)
REMARK    1  A    between atoms: O_9  and  C_3 
REMARK    2  A    between atoms: O_11  and  C_4 
REMARK    3  A    between atoms: S_10  and  C_5 
REMARK    4  A    between atoms: C_12  and  O_9 
REMARK    5  A    between atoms: C_13  and  S_10 
REMARK    6  A    between atoms: C_15  and  C_13 
ROOT
ATOM      1  N   UNL d   1      -0.548   1.299   0.336  0.00  0.00    -0.315 N 
ATOM      2  HN  UNL d   1      -0.971   2.217   0.476  1.00  0.00     0.170 HD
ATOM      3  C   UNL d   1      -0.777  -1.090   0.071  0.00  0.00     0.149 A 
ATOM      4  C   UNL d   1      -1.287   0.176   0.310  0.00  0.00     0.178 A 
ATOM      5  C   UNL d   1       0.769   1.149   0.170  0.00  0.00     0.146 A 
ATOM      6  N   UNL d   1       1.384  -0.033   0.012  0.00  0.00    -0.338 N 
ATOM      7  HN  UNL d   1       2.397  -0.095  -0.082  1.00  0.00     0.168 HD
ATOM      8  C   UNL d   1       0.606  -1.140  -0.019  0.00  0.00     0.045 A 
ATOM      9  C   UNL d   1       1.332  -2.451  -0.105  0.00  0.00     0.071 C 
ENDROOT
BRANCH   5  10
ATOM     10  S   UNL d   1       1.807   2.583   0.131  0.00  0.00    -0.089 SA
BRANCH  10  11
ATOM     11  C   UNL d   1       0.852   3.682   1.218  0.00  0.00     0.121 C 
BRANCH  11  12
ATOM     12  C   UNL d   1       1.593   4.981   1.450  0.00  0.00    -0.048 A 
ATOM     13  C   UNL d   1       1.425   6.063   0.572  0.00  0.00     0.009 A 
ATOM     14  C   UNL d   1       2.137   7.249   0.761  0.00  0.00     0.024 A 
ATOM     15  C   UNL d   1       3.025   7.359   1.830  0.00  0.00     0.034 A 
ATOM     16  C   UNL d   1       3.206   6.295   2.710  0.00  0.00     0.024 A 
ATOM     17 CL   UNL d   1       3.909   8.820   2.061  0.00  0.00    -0.084 Cl
ATOM     18  C   UNL d   1       2.495   5.108   2.519  0.00  0.00     0.009 A 
ENDBRANCH  11  12
ENDBRANCH  10  11
ENDBRANCH   5  10
BRANCH   4  19
ATOM     19  O   UNL d   1      -2.601   0.419   0.591  0.00  0.00    -0.344 OA
ATOM     20  H   UNL d   1      -3.051  -0.428   0.733  0.00  0.00     0.219 HD
ENDBRANCH   4  19
BRANCH   3  21
ATOM     21  O   UNL d   1      -1.449  -2.280   0.027  0.00  0.00    -0.304 OA
BRANCH  21  22
ATOM     22  C   UNL d   1      -2.696  -2.378  -0.540  0.00  0.00     0.076 A 
ATOM     23  C   UNL d   1      -3.152  -1.607  -1.609  0.00  0.00     0.038 A 
ATOM     24  C   UNL d   1      -4.496  -1.679  -1.989  0.00  0.00     0.009 A 
ATOM     25  C   UNL d   1      -5.374  -2.558  -1.343  0.00  0.00    -0.062 A 
ATOM     26  C   UNL d   1      -4.878  -3.406  -0.347  0.00  0.00     0.009 A 
ATOM     27  C   UNL d   1      -6.840  -2.534  -1.667  0.00  0.00     0.048 C 
ATOM     28  C   UNL d   1      -3.543  -3.320   0.046  0.00  0.00     0.038 A 
ENDBRANCH  21  22
ENDBRANCH   3  21
TORSDOF 6
