REMARK  7 active torsions:
REMARK  status: ('A' for Active; 'I' for Inactive)
REMARK    1  A    between atoms: N_2  and  S_1 
REMARK    2  A    between atoms: C_3  and  S_1 
REMARK    3  A    between atoms: C_16  and  N_4 
REMARK    4  A    between atoms: C_15  and  C_16 
REMARK    5  A    between atoms: C_26  and  C_25 
REMARK    6  A    between atoms: C_27  and  C_26 
REMARK    7  A    between atoms: C_28  and  C_27 
ROOT
ATOM      1  N   UNL d   1       0.628   0.725   1.084  0.00  0.00    -0.203 NA
ATOM      2  N   UNL d   1       1.703   3.484   1.399  0.00  0.00     0.095 N 
ATOM      3  C   UNL d   1      -0.203   1.907   0.715  0.00  0.00     0.138 C 
ATOM      4  C   UNL d   1       1.584   1.061   2.177  0.00  0.00     0.138 C 
ATOM      5  C   UNL d   1       2.458   2.275   1.800  0.00  0.00     0.288 C 
ATOM      6  C   UNL d   1       0.691   3.127   0.374  0.00  0.00     0.288 C 
ENDROOT
BRANCH   1   7
ATOM      7  S   UNL d   1       1.266  -0.179  -0.221  0.00  0.00     0.243 S 
ATOM      8  O   UNL d   1       2.466  -0.861   0.231  0.00  0.00    -0.206 OA
ATOM      9  O   UNL d   1       1.274   0.651  -1.402  0.00  0.00    -0.206 OA
BRANCH   7  10
ATOM     10  C   UNL d   1       0.040  -1.441  -0.458  0.00  0.00     0.074 A 
ATOM     11  C   UNL d   1      -0.615  -1.567  -1.682  0.00  0.00     0.025 A 
ATOM     12  C   UNL d   1      -1.462  -2.658  -1.904  0.00  0.00     0.009 A 
ATOM     13  C   UNL d   1      -1.655  -3.625  -0.905  0.00  0.00    -0.058 A 
ATOM     14  C   UNL d   1      -0.994  -3.478   0.324  0.00  0.00     0.009 A 
ATOM     15  C   UNL d   1      -0.151  -2.391   0.553  0.00  0.00     0.025 A 
BRANCH  13  16
ATOM     16  C   UNL d   1      -2.545  -4.821  -1.161  0.00  0.00     0.038 C 
BRANCH  16  17
ATOM     17  C   UNL d   1      -3.715  -4.949  -0.179  0.00  0.00     0.004 C 
BRANCH  17  18
ATOM     18  C   UNL d   1      -4.677  -3.761  -0.245  0.00  0.00    -0.004 C 
ATOM     19  C   UNL d   1      -5.788  -3.890   0.783  0.00  0.00     0.005 C 
ENDBRANCH  17  18
ENDBRANCH  16  17
ENDBRANCH  13  16
ENDBRANCH   7  10
ENDBRANCH   1   7
BRANCH   2  20
ATOM     20  C   UNL d   1       1.069   4.156   2.535  0.00  0.00     0.311 C 
BRANCH  20  21
ATOM     21  C   UNL d   1       1.986   4.977   3.422  0.00  0.00    -0.027 A 
ATOM     22  C   UNL d   1       1.505   5.314   4.699  0.00  0.00     0.048 A 
ATOM     23  C   UNL d   1       2.087   6.381   5.338  0.00  0.00     0.105 A 
ATOM     24  O   UNL d   1       1.589   7.001   6.444  0.00  0.00    -0.323 OA
ATOM     25  C   UNL d   1       3.171   7.047   4.812  0.00  0.00     0.105 A 
ATOM     26  C   UNL d   1       2.259   8.271   6.311  0.00  0.00     0.352 C 
ATOM     27  O   UNL d   1       3.465   8.172   5.524  0.00  0.00    -0.323 OA
ATOM     28  C   UNL d   1       3.767   6.652   3.636  0.00  0.00     0.040 A 
ATOM     29  C   UNL d   1       3.145   5.621   2.920  0.00  0.00     0.012 A 
ENDBRANCH  20  21
ENDBRANCH   2  20
TORSDOF 7
