REMARK  5 active torsions:
REMARK  status: ('A' for Active; 'I' for Inactive)
REMARK    1  A    between atoms: C_2  and  S_1 
REMARK    2  A    between atoms: N_5  and  S_1 
REMARK    3  A    between atoms: C_12  and  C_4 
REMARK    4  A    between atoms: N_8  and  N_5 
REMARK    5  A    between atoms: C_16  and  C_15 
ROOT
ATOM      1  C   UNL d   1       0.445   1.582  -0.524  0.00  0.00     0.122 A 
ATOM      2  S   UNL d   1       1.355   2.510  -1.631  0.00  0.00    -0.074 SA
ATOM      3  C   UNL d   1       0.238   3.812  -1.583  0.00  0.00     0.033 A 
ATOM      4  C   UNL d   1      -0.733   2.215  -0.180  0.00  0.00     0.034 A 
ATOM      5  C   UNL d   1      -0.859   3.487  -0.804  0.00  0.00     0.023 A 
ENDROOT
BRANCH   1   6
ATOM      6  S   UNL d   1       1.115  -0.001  -0.049  0.00  0.00     0.282 S 
ATOM      7  O   UNL d   1       0.373  -0.333   1.154  0.00  0.00    -0.198 OA
ATOM      8  O   UNL d   1       2.552   0.144  -0.051  0.00  0.00    -0.198 OA
BRANCH   6   9
ATOM      9  N   UNL d   1       0.638  -1.081  -1.285  0.00  0.00    -0.223 N 
ATOM     10  H   UNL d   1      -0.245  -0.835  -1.734  0.00  0.00     0.200 HD
BRANCH   9  11
ATOM     11  N   UNL d   1       0.994  -2.466  -1.119  0.00  0.00    -0.305 N 
ATOM     12  C   UNL d   1       0.452  -3.292  -1.950  0.00  0.00     0.089 C 
ATOM     13  HN  UNL d   1       1.636  -2.775  -0.389  1.00  0.00     0.186 HD
BRANCH  12  14
ATOM     14  C   UNL d   1       0.738  -4.788  -1.880  0.00  0.00    -0.018 C 
ATOM     15  C   UNL d   1      -0.373  -5.458  -1.066  0.00  0.00     0.020 C 
ATOM     16  C   UNL d   1       0.746  -5.344  -3.309  0.00  0.00     0.020 C 
ATOM     17  C   UNL d   1       2.100  -5.046  -1.223  0.00  0.00     0.020 C 
ENDBRANCH  12  14
ENDBRANCH   9  11
ENDBRANCH   6   9
ENDBRANCH   1   6
BRANCH   3  18
ATOM     18  C   UNL d   1       0.483   5.063  -2.311  0.00  0.00     0.049 A 
ATOM     19  N   UNL d   1      -0.642   5.676  -2.755  0.00  0.00    -0.365 N 
ATOM     20  C   UNL d   1      -0.495   6.870  -3.371  0.00  0.00     0.088 A 
ATOM     21  HN  UNL d   1      -1.562   5.253  -2.628  1.00  0.00     0.165 HD
ATOM     22  C   UNL d   1       0.725   7.497  -3.556  0.00  0.00     0.017 A 
ATOM     23  C   UNL d   1       1.868   6.857  -3.094  0.00  0.00     0.004 A 
ATOM     24  C   UNL d   1       1.751   5.620  -2.465  0.00  0.00     0.031 A 
ENDBRANCH   3  18
TORSDOF 5
