REMARK  4 active torsions:
REMARK  status: ('A' for Active; 'I' for Inactive)
REMARK    1  A    between atoms: N_5  and  C_1 
REMARK    2  A    between atoms: N_2  and  C_6 
REMARK    3  A    between atoms: C_12  and  C_7 
REMARK    4  A    between atoms: C_8  and  C_13 
ROOT
ATOM      1  C   UNL d   1       1.436  -0.190   0.134  0.00  0.00     0.132 A 
ATOM      2  C   UNL d   1       0.602  -1.306   0.002  0.00  0.00     0.088 A 
ATOM      3  C   UNL d   1       0.912   1.112   0.212  0.00  0.00     0.054 A 
ATOM      4  C   UNL d   1      -0.475   1.314   0.161  0.00  0.00     0.050 A 
ATOM      5  C   UNL d   1      -0.782  -1.092  -0.111  0.00  0.00     0.035 A 
ATOM      6  C   UNL d   1      -1.312   0.201  -0.015  0.00  0.00     0.019 A 
ENDROOT
BRANCH   2   7
ATOM      7  N   UNL d   1       1.071  -2.646   0.025  0.00  0.00    -0.265 N 
ATOM      8  N   UNL d   1       0.379  -3.619  -0.614  0.00  0.00    -0.293 N 
ATOM      9  C   UNL d   1       1.101  -4.732  -0.433  0.00  0.00     0.067 A 
ATOM     10  HN  UNL d   1      -0.501  -3.525  -1.121  1.00  0.00     0.187 HD
ATOM     11  C   UNL d   1       2.190  -4.504   0.432  0.00  0.00     0.051 A 
ATOM     12  C   UNL d   1       2.139  -3.162   0.720  0.00  0.00     0.119 A 
BRANCH   9  13
ATOM     13  C   UNL d   1       0.739  -6.032  -1.088  0.00  0.00     0.033 A 
ATOM     14  S   UNL d   1       1.570  -7.504  -0.833  0.00  0.00    -0.100 SA
ATOM     15  C   UNL d   1       0.550  -8.343  -1.919  0.00  0.00     0.050 A 
ATOM     16  C   UNL d   1      -0.402  -7.516  -2.475  0.00  0.00     0.008 A 
ATOM     17  C   UNL d   1      -0.295  -6.180  -1.989  0.00  0.00     0.021 A 
ENDBRANCH   9  13
ENDBRANCH   2   7
BRANCH   1  18
ATOM     18  N   UNL d   1       2.880  -0.297   0.048  0.00  0.00    -0.113 N 
ATOM     19  O   UNL d   1       3.351  -0.789  -0.985  0.00  0.00    -0.532 OA
ATOM     20  O   UNL d   1       3.529   0.128   1.011  0.00  0.00    -0.532 OA
ENDBRANCH   1  18
BRANCH   4  21
ATOM     21  C   UNL d   1      -1.071   2.697   0.294  0.00  0.00     0.417 C 
ATOM     22  F   UNL d   1      -0.134   3.673   0.440  0.00  0.00    -0.166 F 
ATOM     23  F   UNL d   1      -1.817   3.049  -0.787  0.00  0.00    -0.166 F 
ATOM     24  F   UNL d   1      -1.893   2.800   1.373  0.00  0.00    -0.166 F 
ENDBRANCH   4  21
TORSDOF 4
