REMARK  8 active torsions:
REMARK  status: ('A' for Active; 'I' for Inactive)
REMARK    1  A    between atoms: C_5  and  C_1 
REMARK    2  A    between atoms: C_2  and  N_4 
REMARK    3  A    between atoms: C_7  and  C_2 
REMARK    4  A    between atoms: C_8  and  C_2 
REMARK       I    between atoms: N_4  and  C_5 
REMARK    5  A    between atoms: O_15  and  C_7 
REMARK    6  A    between atoms: O_14  and  C_8 
REMARK    7  A    between atoms: C_18  and  O_14 
REMARK    8  A    between atoms: C_19  and  O_15 
ROOT
ATOM      1  N   UNL d   1       3.631  -2.734  -0.135  0.00  0.00    -0.334 N 
ATOM      2  C   UNL d   1       3.440  -1.593   0.600  0.00  0.00     0.259 C 
ATOM      3  O   UNL d   1       2.380  -1.385   1.183  0.00  0.00    -0.267 OA
ATOM      4  H   UNL d   1       4.503  -2.858  -0.636  0.00  0.00     0.164 HD
ENDROOT
BRANCH   1   5
ATOM      5  C   UNL d   1       2.627  -3.802  -0.234  0.00  0.00     0.285 C 
BRANCH   5   6
ATOM      6  C   UNL d   1       1.848  -3.637  -1.521  0.00  0.00     0.291 C 
ATOM      7  O   UNL d   1       2.360  -3.413  -2.612  0.00  0.00    -0.262 OA
BRANCH   6   8
ATOM      8  O   UNL d   1       0.506  -3.692  -1.277  0.00  0.00    -0.320 OA
BRANCH   8   9
ATOM      9  C   UNL d   1      -0.338  -3.239  -2.345  0.00  0.00     0.174 C 
ATOM     10  C   UNL d   1      -0.544  -1.742  -2.199  0.00  0.00     0.034 C 
ENDBRANCH   8   9
ENDBRANCH   6   8
ENDBRANCH   5   6
BRANCH   5  11
ATOM     11  C   UNL d   1       3.264  -5.175  -0.145  0.00  0.00     0.291 C 
ATOM     12  O   UNL d   1       2.646  -6.233  -0.204  0.00  0.00    -0.262 OA
BRANCH  11  13
ATOM     13  O   UNL d   1       4.599  -5.072   0.126  0.00  0.00    -0.320 OA
BRANCH  13  14
ATOM     14  C   UNL d   1       5.211  -6.221   0.725  0.00  0.00     0.174 C 
ATOM     15  C   UNL d   1       4.994  -6.131   2.225  0.00  0.00     0.034 C 
ENDBRANCH  13  14
ENDBRANCH  11  13
ENDBRANCH   5  11
ENDBRANCH   1   5
BRANCH   2  16
ATOM     16  C   UNL d   1       4.555  -0.657   0.615  0.00  0.00     0.074 A 
ATOM     17  S   UNL d   1       6.078  -1.038  -0.061  0.00  0.00    -0.084 SA
ATOM     18  C   UNL d   1       6.692   0.546   0.210  0.00  0.00     0.016 A 
ATOM     19  C   UNL d   1       7.952   1.044  -0.173  0.00  0.00     0.019 A 
ATOM     20  C   UNL d   1       5.758   1.345   0.872  0.00  0.00    -0.018 A 
ATOM     21  C   UNL d   1       8.252   2.385   0.079  0.00  0.00     0.001 A 
ATOM     22  C   UNL d   1       7.334   3.204   0.721  0.00  0.00     0.001 A 
ATOM     23  C   UNL d   1       6.100   2.693   1.136  0.00  0.00     0.013 A 
ATOM     24  C   UNL d   1       4.557   0.614   1.152  0.00  0.00     0.037 A 
ENDBRANCH   2  16
TORSDOF 8
