REMARK  7 active torsions:
REMARK  status: ('A' for Active; 'I' for Inactive)
REMARK    1  A    between atoms: N_6  and  S_1 
REMARK    2  A    between atoms: C_12  and  S_1 
REMARK    3  A    between atoms: C_2  and  C_8 
REMARK    4  A    between atoms: C_10  and  N_6 
REMARK    5  A    between atoms: C_21  and  N_6 
REMARK    6  A    between atoms: C_16  and  C_11 
REMARK    7  A    between atoms: C_19  and  C_21 
ROOT
ATOM      1  C   UNL d   1      -1.686  -1.655   0.226  0.00  0.00     0.043 A 
ATOM      2  C   UNL d   1      -2.878  -1.870   0.942  0.00  0.00     0.060 A 
ATOM      3  C   UNL d   1      -0.898  -2.746  -0.178  0.00  0.00     0.018 A 
ATOM      4  C   UNL d   1      -3.288  -3.184   1.190  0.00  0.00     0.031 A 
ATOM      5  C   UNL d   1      -1.314  -4.047   0.082  0.00  0.00     0.001 A 
ATOM      6  C   UNL d   1      -2.516  -4.266   0.750  0.00  0.00     0.002 A 
ENDROOT
BRANCH   1   7
ATOM      7  C   UNL d   1      -1.302  -0.347  -0.321  0.00  0.00     0.165 A 
ATOM      8  N   UNL d   1      -0.731  -0.212  -1.472  0.00  0.00    -0.331 N 
ATOM      9  C   UNL d   1      -0.734   1.137  -1.665  0.00  0.00     0.111 A 
ATOM     10  HN  UNL d   1      -0.367  -0.939  -2.088  1.00  0.00     0.168 HD
ATOM     11  C   UNL d   1      -0.533   1.769  -2.830  0.00  0.00     0.047 C 
ATOM     12  C   UNL d   1      -1.211   1.824  -0.431  0.00  0.00     0.316 A 
ATOM     13  O   UNL d   1      -1.579   0.779   0.372  0.00  0.00    -0.255 OA
ATOM     14  O   UNL d   1      -1.281   3.011  -0.188  0.00  0.00    -0.257 OA
BRANCH  11  15
ATOM     15  C   UNL d   1      -0.274   1.120  -4.135  0.00  0.00    -0.032 A 
ATOM     16  C   UNL d   1       0.222  -0.186  -4.277  0.00  0.00     0.035 A 
ATOM     17  C   UNL d   1       0.383  -0.759  -5.540  0.00  0.00     0.034 A 
ATOM     18 CL   UNL d   1       0.947  -2.381  -5.676  0.00  0.00    -0.084 Cl
ATOM     19  C   UNL d   1       0.085  -0.033  -6.687  0.00  0.00     0.024 A 
ATOM     20  C   UNL d   1      -0.380   1.274  -6.568  0.00  0.00     0.003 A 
ATOM     21  C   UNL d   1      -0.557   1.845  -5.303  0.00  0.00     0.011 A 
ENDBRANCH  11  15
ENDBRANCH   1   7
BRANCH   2  22
ATOM     22  N   UNL d   1      -3.719  -0.767   1.324  0.00  0.00    -0.267 N 
BRANCH  22  23
ATOM     23  S   UNL d   1      -4.857  -0.221   0.186  0.00  0.00     0.265 S 
ATOM     24  O   UNL d   1      -4.454  -0.653  -1.140  0.00  0.00    -0.200 OA
ATOM     25  O   UNL d   1      -5.106   1.180   0.449  0.00  0.00    -0.200 OA
BRANCH  23  26
ATOM     26  C   UNL d   1      -6.366  -1.087   0.591  0.00  0.00     0.080 A 
ATOM     27  C   UNL d   1      -7.293  -0.459   1.435  0.00  0.00     0.027 A 
ATOM     28  C   UNL d   1      -8.549  -1.032   1.640  0.00  0.00     0.025 A 
ATOM     29  C   UNL d   1      -8.881  -2.220   0.992  0.00  0.00     0.034 A 
ATOM     30  C   UNL d   1      -7.959  -2.852   0.153  0.00  0.00     0.025 A 
ATOM     31 CL   UNL d   1     -10.453  -2.889   1.197  0.00  0.00    -0.084 Cl
ATOM     32  C   UNL d   1      -6.697  -2.282  -0.056  0.00  0.00     0.027 A 
ENDBRANCH  23  26
ENDBRANCH  22  23
BRANCH  22  33
ATOM     33  C   UNL d   1      -4.037  -0.545   2.744  0.00  0.00     0.168 C 
BRANCH  33  34
ATOM     34  C   UNL d   1      -2.773  -0.415   3.545  0.00  0.00    -0.016 C 
ATOM     35  C   UNL d   1      -2.463  -1.173   4.606  0.00  0.00     0.008 C 
ENDBRANCH  33  34
ENDBRANCH  22  33
ENDBRANCH   2  22
TORSDOF 7
