REMARK  4 active torsions:
REMARK  status: ('A' for Active; 'I' for Inactive)
REMARK    1  A    between atoms: S_2  and  C_1 
REMARK    2  A    between atoms: C_9  and  S_2 
REMARK    3  A    between atoms: C_7  and  C_4 
REMARK       I    between atoms: N_8  and  C_7 
REMARK    4  A    between atoms: C_14  and  N_8 
ROOT
ATOM      1  C   UNL d   1       0.742   1.321   0.126  0.00  0.00     0.078 A 
ATOM      2  C   UNL d   1       1.312  -0.004   0.010  0.00  0.00    -0.017 A 
ATOM      3  C   UNL d   1       0.318  -0.989   0.078  0.00  0.00     0.080 A 
ATOM      4  S   UNL d   1      -1.240  -0.310   0.290  0.00  0.00    -0.094 SA
ATOM      5  C   UNL d   1      -0.628   1.278   0.294  0.00  0.00     0.075 A 
ATOM      6  C   UNL d   1       2.768  -0.344  -0.146  0.00  0.00     0.051 C 
ENDROOT
BRANCH   3   7
ATOM      7  C   UNL d   1       0.519  -2.446   0.014  0.00  0.00     0.263 C 
ATOM      8  N   UNL d   1      -0.625  -3.235   0.084  0.00  0.00    -0.322 N 
ATOM      9  H   UNL d   1      -1.512  -2.749   0.029  0.00  0.00     0.169 HD
ATOM     10  O   UNL d   1       1.644  -2.919  -0.122  0.00  0.00    -0.267 OA
BRANCH   8  11
ATOM     11  C   UNL d   1      -0.664  -4.643   0.209  0.00  0.00     0.035 A 
ATOM     12  C   UNL d   1       0.465  -5.412   0.509  0.00  0.00     0.041 A 
ATOM     13  C   UNL d   1       0.374  -6.801   0.678  0.00  0.00     0.001 A 
ATOM     14  C   UNL d   1       1.587  -7.607   1.018  0.00  0.00     0.212 C 
ATOM     15  C   UNL d   1      -0.853  -7.433   0.511  0.00  0.00     0.080 A 
ATOM     16  O   UNL d   1       1.196  -8.839   1.613  0.00  0.00    -0.362 OA
ATOM     17  C   UNL d   1       0.234  -9.484   0.787  0.00  0.00     0.345 C 
ATOM     18  O   UNL d   1      -1.007  -8.782   0.664  0.00  0.00    -0.326 OA
ATOM     19  C   UNL d   1      -1.988  -6.683   0.211  0.00  0.00     0.040 A 
ATOM     20  C   UNL d   1      -1.897  -5.292   0.068  0.00  0.00     0.032 A 
ENDBRANCH   8  11
ENDBRANCH   3   7
BRANCH   1  21
ATOM     21  S   UNL d   1       1.590   2.849   0.062  0.00  0.00     0.207 S 
ATOM     22  O   UNL d   1       0.684   3.795   0.689  0.00  0.00    -0.217 OA
ATOM     23  O   UNL d   1       2.915   2.611   0.587  0.00  0.00    -0.217 OA
BRANCH  21  24
ATOM     24  C   UNL d   1       1.701   3.249  -1.665  0.00  0.00     0.064 A 
ATOM     25  C   UNL d   1       0.729   4.078  -2.240  0.00  0.00     0.025 A 
ATOM     26  C   UNL d   1       0.827   4.427  -3.590  0.00  0.00     0.025 A 
ATOM     27  C   UNL d   1       1.896   3.957  -4.352  0.00  0.00     0.034 A 
ATOM     28  C   UNL d   1       2.876   3.148  -3.774  0.00  0.00     0.025 A 
ATOM     29 CL   UNL d   1       2.011   4.386  -6.014  0.00  0.00    -0.084 Cl
ATOM     30  C   UNL d   1       2.786   2.798  -2.423  0.00  0.00     0.025 A 
ENDBRANCH  21  24
ENDBRANCH   1  21
TORSDOF 4
