REMARK  5 active torsions:
REMARK  status: ('A' for Active; 'I' for Inactive)
REMARK    1  A    between atoms: S_16  and  C_2 
REMARK    2  A    between atoms: C_6  and  C_4 
REMARK       I    between atoms: N_13  and  C_6 
REMARK    3  A    between atoms: C_8  and  C_12 
REMARK    4  A    between atoms: N_9  and  N_13 
REMARK    5  A    between atoms: O_22  and  N_14 
ROOT
ATOM      1  C   UNL d   1       0.411   0.689  -0.076  0.00  0.00     0.020 A 
ATOM      2  C   UNL d   1       1.781   0.898  -0.099  0.00  0.00     0.054 A 
ATOM      3  C   UNL d   1       0.107  -0.730  -0.027  0.00  0.00    -0.021 A 
ATOM      4  C   UNL d   1       1.240  -1.531   0.024  0.00  0.00     0.082 A 
ATOM      5  S   UNL d   1       2.655  -0.583  -0.066  0.00  0.00    -0.076 SA
ATOM      6  C   UNL d   1      -0.681   1.681  -0.065  0.00  0.00     0.044 C 
ATOM      7  N   UNL d   1      -0.433   2.926  -0.340  0.00  0.00    -0.271 N 
ATOM      8  HN  UNL d   1       0.488   3.291  -0.584  1.00  0.00     0.194 HD
ATOM      9  C   UNL d   1      -1.312  -1.238   0.021  0.00  0.00     0.041 C 
ATOM     10  C   UNL d   1      -2.069   1.146   0.292  0.00  0.00     0.060 C 
ATOM     11  C   UNL d   1      -2.319  -0.179  -0.417  0.00  0.00     0.011 C 
ENDROOT
BRANCH   4  12
ATOM     12  C   UNL d   1       1.271  -2.991   0.153  0.00  0.00     0.277 C 
ATOM     13  N   UNL d   1       2.525  -3.598   0.177  0.00  0.00    -0.266 N 
ATOM     14  H   UNL d   1       3.371  -3.043   0.121  0.00  0.00     0.190 HD
ATOM     15  O   UNL d   1       0.236  -3.654   0.246  0.00  0.00    -0.265 OA
BRANCH  13  16
ATOM     16  N   UNL d   1       2.580  -4.959   0.290  0.00  0.00    -0.308 N 
ATOM     17  C   UNL d   1       3.740  -5.525   0.338  0.00  0.00     0.126 C 
ATOM     18  HN  UNL d   1       1.726  -5.514   0.336  1.00  0.00     0.186 HD
BRANCH  17  19
ATOM     19  C   UNL d   1       3.812  -6.964   0.451  0.00  0.00     0.021 A 
ATOM     20  S   UNL d   1       5.333  -7.739   0.508  0.00  0.00    -0.101 SA
ATOM     21  C   UNL d   1       4.607  -9.289   0.625  0.00  0.00     0.050 A 
ATOM     22  C   UNL d   1       3.233  -9.216   0.624  0.00  0.00     0.008 A 
ATOM     23  C   UNL d   1       2.772  -7.872   0.524  0.00  0.00     0.021 A 
ENDBRANCH  17  19
ENDBRANCH  13  16
ENDBRANCH   4  12
BRANCH   2  24
ATOM     24  S   UNL d   1       2.680   2.415  -0.073  0.00  0.00    -0.126 SA
ATOM     25  C   UNL d   1       2.772   2.770  -1.842  0.00  0.00     0.096 C 
ENDBRANCH   2  24
BRANCH   7  26
ATOM     26  O   UNL d   1      -1.598   3.703  -0.256  0.00  0.00    -0.285 OA
ATOM     27  C   UNL d   1      -1.295   5.047  -0.597  0.00  0.00     0.237 C 
ENDBRANCH   7  26
TORSDOF 5
