REMARK  2 active torsions:
REMARK  status: ('A' for Active; 'I' for Inactive)
REMARK    1  A    between atoms: C_5  and  C_1 
REMARK    2  A    between atoms: C_9  and  C_2 
ROOT
ATOM      1  C   UNL d   1      -1.325  -0.807   0.081  0.00  0.00     0.083 A 
ATOM      2  C   UNL d   1       0.021  -1.292  -0.081  0.00  0.00     0.070 A 
ATOM      3  N   UNL d   1      -1.306   0.512   0.327  0.00  0.00    -0.259 N 
ATOM      4  HN  UNL d   1      -2.112   1.103   0.530  1.00  0.00     0.195 HD
ATOM      5  O   UNL d   1       0.002   0.912   0.255  0.00  0.00    -0.241 OA
ATOM      6  C   UNL d   1       0.801  -0.156   0.014  0.00  0.00     0.088 A 
ATOM      7  C   UNL d   1       2.234   0.179  -0.112  0.00  0.00     0.080 C 
ENDROOT
BRANCH   1   8
ATOM      8  C   UNL d   1      -2.594  -1.547   0.116  0.00  0.00     0.015 A 
ATOM      9  C   UNL d   1      -3.776  -1.079  -0.493  0.00  0.00     0.048 A 
ATOM     10  C   UNL d   1      -4.978  -1.789  -0.362  0.00  0.00     0.048 A 
ATOM     11 CL   UNL d   1      -3.842   0.354  -1.465  0.00  0.00    -0.083 Cl
ATOM     12  C   UNL d   1      -5.009  -2.981   0.354  0.00  0.00     0.035 A 
ATOM     13  C   UNL d   1      -3.851  -3.473   0.946  0.00  0.00     0.025 A 
ATOM     14 CL   UNL d   1      -6.484  -3.850   0.513  0.00  0.00    -0.084 Cl
ATOM     15  C   UNL d   1      -2.656  -2.755   0.837  0.00  0.00     0.017 A 
ENDBRANCH   1   8
BRANCH   2  16
ATOM     16  C   UNL d   1       0.455  -2.658  -0.332  0.00  0.00     0.160 C 
ATOM     17  O   UNL d   1      -0.216  -3.414  -1.034  0.00  0.00    -0.293 OA
ATOM     18  C   UNL d   1       1.677  -3.196   0.371  0.00  0.00     0.097 C 
ENDBRANCH   2  16
TORSDOF 2
