REMARK  7 active torsions:
REMARK  status: ('A' for Active; 'I' for Inactive)
REMARK    1  A    between atoms: C_8  and  C_1 
REMARK       I    between atoms: C_6  and  N_10 
REMARK    2  A    between atoms: C_14  and  C_6 
REMARK    3  A    between atoms: C_7  and  C_15 
REMARK    4  A    between atoms: O_18  and  C_7 
REMARK    5  A    between atoms: N_10  and  C_8 
REMARK    6  A    between atoms: C_9  and  C_14 
REMARK    7  A    between atoms: C_15  and  C_9 
ROOT
ATOM      1  C   UNL d   1       4.195  -3.782  -0.008  0.00  0.00     0.218 C 
ATOM      2  N   UNL d   1       3.578  -2.557  -0.075  0.00  0.00    -0.357 N 
ATOM      3  O   UNL d   1       3.590  -4.846   0.073  0.00  0.00    -0.274 OA
ATOM      4  H   UNL d   1       4.136  -1.709  -0.152  0.00  0.00     0.162 HD
ENDROOT
BRANCH   2   5
ATOM      5  C   UNL d   1       2.136  -2.428  -0.049  0.00  0.00     0.162 C 
BRANCH   5   6
ATOM      6  C   UNL d   1       1.592  -2.482  -1.447  0.00  0.00    -0.022 A 
ATOM      7  C   UNL d   1       1.341  -1.335  -2.301  0.00  0.00    -0.009 A 
ATOM      8  C   UNL d   1       0.774  -1.713  -3.524  0.00  0.00     0.015 A 
ATOM      9  C   UNL d   1       1.564   0.050  -2.082  0.00  0.00     0.037 A 
ATOM     10  C   UNL d   1       0.423  -0.767  -4.509  0.00  0.00     0.021 A 
ATOM     11  S   UNL d   1       0.582  -3.418  -3.629  0.00  0.00    -0.101 SA
ATOM     12  C   UNL d   1       0.653   0.588  -4.260  0.00  0.00     0.025 A 
ATOM     13  C   UNL d   1       1.219   0.987  -3.060  0.00  0.00     0.035 A 
ATOM     14 CL   UNL d   1       1.497   2.661  -2.766  0.00  0.00    -0.084 Cl
ATOM     15  C   UNL d   1       1.224  -3.659  -2.074  0.00  0.00     0.060 A 
ENDBRANCH   5   6
ENDBRANCH   2   5
BRANCH   1  16
ATOM     16  C   UNL d   1       5.715  -3.735  -0.068  0.00  0.00     0.112 C 
BRANCH  16  17
ATOM     17  C   UNL d   1       6.314  -3.825  -1.497  0.00  0.00    -0.030 C 
ATOM     18  C   UNL d   1       7.852  -3.853  -1.372  0.00  0.00     0.016 C 
ATOM     19  C   UNL d   1       5.895  -5.147  -2.175  0.00  0.00     0.016 C 
BRANCH  17  20
ATOM     20  C   UNL d   1       5.868  -2.658  -2.406  0.00  0.00     0.119 C 
BRANCH  20  21
ATOM     21  C   UNL d   1       6.224  -1.296  -1.869  0.00  0.00     0.140 C 
ATOM     22  O   UNL d   1       5.537  -0.693  -1.056  0.00  0.00    -0.650 OA
BRANCH  21  23
ATOM     23  O   UNL d   1       7.406  -0.823  -2.323  0.00  0.00    -0.776 OA
ATOM     24  H   UNL d   1       7.867  -1.426  -2.940  0.00  0.00     0.167 HD
ENDBRANCH  21  23
ENDBRANCH  20  21
ENDBRANCH  17  20
ENDBRANCH  16  17
ENDBRANCH   1  16
TORSDOF 7
