REMARK  4 active torsions:
REMARK  status: ('A' for Active; 'I' for Inactive)
REMARK    1  A    between atoms: C_2  and  S_1 
REMARK    2  A    between atoms: C_13  and  S_1 
REMARK    3  A    between atoms: N_12  and  C_3 
REMARK    4  A    between atoms: C_15  and  C_13 
ROOT
ATOM      1  C   UNL d   1       0.350  -1.582  -0.103  0.00  0.00     0.112 A 
ATOM      2  C   UNL d   1      -0.980  -1.877   0.087  0.00  0.00     0.102 A 
ATOM      3  N   UNL d   1      -1.419  -3.147   0.163  0.00  0.00    -0.336 N 
ATOM      4  HN  UNL d   1      -2.410  -3.356   0.286  1.00  0.00     0.168 HD
ATOM      5  C   UNL d   1       1.215  -2.647  -0.192  0.00  0.00     0.116 A 
ATOM      6  N   UNL d   1       0.812  -3.930  -0.119  0.00  0.00    -0.354 N 
ATOM      7  HN  UNL d   1       1.469  -4.706  -0.203  1.00  0.00     0.166 HD
ATOM      8  C   UNL d   1      -0.504  -4.132   0.071  0.00  0.00     0.078 A 
ATOM      9  C   UNL d   1      -0.987  -5.543   0.198  0.00  0.00     0.089 C 
ENDROOT
BRANCH   1  10
ATOM     10  S   UNL d   1       0.971   0.051  -0.088  0.00  0.00     0.180 S 
ATOM     11  O   UNL d   1       2.389  -0.039   0.209  0.00  0.00    -0.222 OA
ATOM     12  O   UNL d   1       0.102   0.843   0.767  0.00  0.00    -0.222 OA
BRANCH  10  13
ATOM     13  C   UNL d   1       0.802   0.618  -1.769  0.00  0.00     0.145 C 
BRANCH  13  14
ATOM     14  C   UNL d   1       1.304   2.051  -1.923  0.00  0.00     0.011 C 
ATOM     15  C   UNL d   1       1.203   2.528  -3.363  0.00  0.00     0.006 C 
ENDBRANCH  13  14
ENDBRANCH  10  13
ENDBRANCH   1  10
BRANCH   2  16
ATOM     16  N   UNL d   1      -1.984  -0.913   0.122  0.00  0.00    -0.287 NA
ATOM     17  H   UNL d   1      -1.760  -0.147   0.762  0.00  0.00     0.125 HD
ATOM     18  H   UNL d   1      -2.857  -1.373   0.370  0.00  0.00     0.125 HD
ENDBRANCH   2  16
TORSDOF 4
