REMARK  6 active torsions:
REMARK  status: ('A' for Active; 'I' for Inactive)
REMARK    1  A    between atoms: S_9  and  C_1 
REMARK    2  A    between atoms: C_8  and  C_4 
REMARK    3  A    between atoms: C_7  and  C_17 
REMARK       I    between atoms: N_10  and  C_7 
REMARK    4  A    between atoms: C_17  and  S_9 
REMARK    5  A    between atoms: C_18  and  N_10 
REMARK    6  A    between atoms: C_20  and  C_11 
ROOT
ATOM      1  S   UNL d   1      -0.029   2.539  -0.115  0.00  0.00    -0.077 SA
ENDROOT
BRANCH   1   2
ATOM      2  C   UNL d   1      -0.492   0.864   0.097  0.00  0.00     0.187 A 
ATOM      3  N   UNL d   1      -1.748   0.464   0.136  0.00  0.00    -0.338 N 
ATOM      4  C   UNL d   1      -1.665  -0.883   0.373  0.00  0.00     0.129 A 
ATOM      5  HN  UNL d   1      -2.589   1.028   0.016  1.00  0.00     0.168 HD
ATOM      6  C   UNL d   1      -0.348  -1.273   0.468  0.00  0.00     0.104 A 
ATOM      7  O   UNL d   1       0.417  -0.147   0.274  0.00  0.00    -0.286 OA
BRANCH   6   8
ATOM      8  C   UNL d   1       0.341  -2.526   0.755  0.00  0.00    -0.001 A 
ATOM      9  C   UNL d   1       1.742  -2.611   0.742  0.00  0.00     0.016 A 
ATOM     10  C   UNL d   1       2.394  -3.802   1.083  0.00  0.00     0.024 A 
ATOM     11  C   UNL d   1       1.650  -4.924   1.438  0.00  0.00     0.034 A 
ATOM     12  C   UNL d   1       0.259  -4.870   1.434  0.00  0.00     0.024 A 
ATOM     13 CL   UNL d   1       2.449  -6.376   1.895  0.00  0.00    -0.084 Cl
ATOM     14  C   UNL d   1      -0.390  -3.678   1.092  0.00  0.00     0.016 A 
ENDBRANCH   6   8
ENDBRANCH   1   2
BRANCH   1  15
ATOM     15  C   UNL d   1      -1.657   3.292   0.134  0.00  0.00     0.186 C 
BRANCH  15  16
ATOM     16  C   UNL d   1      -1.720   4.809   0.150  0.00  0.00     0.231 C 
ATOM     17  N   UNL d   1      -0.542   5.506  -0.023  0.00  0.00    -0.327 N 
ATOM     18  H   UNL d   1       0.270   4.966  -0.305  0.00  0.00     0.169 HD
ATOM     19  O   UNL d   1      -2.826   5.329   0.323  0.00  0.00    -0.272 OA
BRANCH  17  20
ATOM     20  C   UNL d   1      -0.357   6.902   0.143  0.00  0.00     0.034 A 
ATOM     21  C   UNL d   1      -1.329   7.747   0.681  0.00  0.00     0.030 A 
ATOM     22  C   UNL d   1      -1.066   9.104   0.900  0.00  0.00     0.010 A 
ATOM     23  C   UNL d   1       0.178   9.657   0.584  0.00  0.00    -0.055 A 
ATOM     24  C   UNL d   1       1.145   8.818   0.012  0.00  0.00     0.010 A 
ATOM     25  C   UNL d   1       0.881   7.455  -0.200  0.00  0.00     0.030 A 
BRANCH  23  26
ATOM     26  C   UNL d   1       0.499  11.108   0.905  0.00  0.00     0.010 C 
ATOM     27  C   UNL d   1      -0.449  12.087   0.205  0.00  0.00     0.015 C 
ATOM     28  C   UNL d   1       0.486  11.342   2.420  0.00  0.00     0.015 C 
ENDBRANCH  23  26
ENDBRANCH  17  20
ENDBRANCH  15  16
ENDBRANCH   1  15
TORSDOF 6
