REMARK  3 active torsions:
REMARK  status: ('A' for Active; 'I' for Inactive)
REMARK    1  A    between atoms: C_3  and  C_9 
REMARK    2  A    between atoms: C_9  and  O_14 
REMARK    3  A    between atoms: O_14  and  C_15 
ROOT
ATOM      1  C   UNL d   1       0.394   0.749   0.005  0.00  0.00     0.092 A 
ATOM      2  C   UNL d   1      -0.593  -1.515   0.015  0.00  0.00    -0.043 A 
ATOM      3  O   UNL d   1      -0.899   1.312  -0.013  0.00  0.00    -0.275 OA
ATOM      4  C   UNL d   1      -2.027   0.512  -0.006  0.00  0.00     0.288 A 
ATOM      5  C   UNL d   1       0.585  -0.636   0.035  0.00  0.00     0.004 A 
ATOM      6  C   UNL d   1      -1.807  -0.942  -0.003  0.00  0.00     0.090 A 
ATOM      7  C   UNL d   1       1.458   1.654  -0.019  0.00  0.00     0.075 A 
ATOM      8  C   UNL d   1       1.905  -1.096   0.078  0.00  0.00     0.017 A 
ATOM      9  O   UNL d   1      -3.163   0.972  -0.010  0.00  0.00    -0.260 OA
ATOM     10  C   UNL d   1       2.764   1.173  -0.024  0.00  0.00     0.071 A 
ATOM     11  C   UNL d   1       2.983  -0.202   0.060  0.00  0.00     0.038 A 
ATOM     12  C   UNL d   1      -0.488  -3.013  -0.005  0.00  0.00     0.049 C 
ENDROOT
BRANCH  10  13
ATOM     13  O   UNL d   1       3.755   2.114  -0.108  0.00  0.00    -0.346 OA
BRANCH  13  14
ATOM     14  C   UNL d   1       4.974   1.645  -0.694  0.00  0.00     0.219 C 
BRANCH  14  15
ATOM     15  C   UNL d   1       5.766   2.788  -1.272  0.00  0.00     0.026 A 
ATOM     16  C   UNL d   1       7.082   2.991  -0.843  0.00  0.00     0.126 A 
ATOM     17  F   UNL d   1       7.609   2.192   0.098  0.00  0.00    -0.205 F 
ATOM     18  C   UNL d   1       7.889   3.987  -1.386  0.00  0.00     0.043 A 
ATOM     19  C   UNL d   1       7.385   4.814  -2.384  0.00  0.00     0.005 A 
ATOM     20  C   UNL d   1       6.079   4.628  -2.836  0.00  0.00     0.024 A 
ATOM     21  C   UNL d   1       5.276   3.618  -2.290  0.00  0.00     0.045 A 
ATOM     22 CL   UNL d   1       3.698   3.414  -2.964  0.00  0.00    -0.084 Cl
ENDBRANCH  14  15
ENDBRANCH  13  14
ENDBRANCH  10  13
TORSDOF 3
