REMARK  4 active torsions:
REMARK  status: ('A' for Active; 'I' for Inactive)
REMARK    1  A    between atoms: C_7  and  C_1 
REMARK    2  A    between atoms: C_3  and  C_2 
REMARK    3  A    between atoms: O_14  and  C_6 
REMARK    4  A    between atoms: O_16  and  C_11 
ROOT
ATOM      1  C   UNL d   1       0.925  -0.223  -0.727  0.00  0.00     0.055 C 
ATOM      2  C   UNL d   1       0.516  -1.175   0.140  0.00  0.00     0.037 C 
ATOM      3  C   UNL d   1       2.084  -0.436  -1.552  0.00  0.00     0.100 C 
ATOM      4  N   UNL d   1       3.022  -0.575  -2.221  0.00  0.00    -0.191 NA
ENDROOT
BRANCH   1   5
ATOM      5  C   UNL d   1       0.206   1.081  -0.809  0.00  0.00    -0.014 A 
ATOM      6  C   UNL d   1      -1.175   1.191  -0.568  0.00  0.00     0.036 A 
ATOM      7  C   UNL d   1      -1.818   2.429  -0.643  0.00  0.00     0.034 A 
ATOM      8 CL   UNL d   1      -3.503   2.538  -0.310  0.00  0.00    -0.084 Cl
ATOM      9  C   UNL d   1      -1.108   3.577  -0.979  0.00  0.00     0.024 A 
ATOM     10  C   UNL d   1       0.255   3.488  -1.243  0.00  0.00     0.003 A 
ATOM     11  C   UNL d   1       0.903   2.253  -1.156  0.00  0.00     0.013 A 
ENDBRANCH   1   5
BRANCH   2  12
ATOM     12  C   UNL d   1       1.175  -2.479   0.301  0.00  0.00    -0.001 A 
ATOM     13  C   UNL d   1       2.217  -2.736   1.206  0.00  0.00     0.081 A 
ATOM     14  C   UNL d   1       2.876  -3.975   1.169  0.00  0.00     0.074 A 
ATOM     15  C   UNL d   1       2.498  -4.967   0.263  0.00  0.00     0.070 A 
ATOM     16  C   UNL d   1       1.439  -4.722  -0.607  0.00  0.00     0.038 A 
ATOM     17  C   UNL d   1       0.781  -3.491  -0.590  0.00  0.00     0.017 A 
BRANCH  13  18
ATOM     18  O   UNL d   1       2.766  -1.869   2.115  0.00  0.00    -0.355 OA
ATOM     19  C   UNL d   1       1.900  -0.955   2.773  0.00  0.00     0.210 C 
ENDBRANCH  13  18
BRANCH  15  20
ATOM     20  O   UNL d   1       3.082  -6.196   0.125  0.00  0.00    -0.356 OA
ATOM     21  C   UNL d   1       4.213  -6.461   0.946  0.00  0.00     0.210 C 
ENDBRANCH  15  20
ENDBRANCH   2  12
TORSDOF 4
