REMARK  3 active torsions:
REMARK  status: ('A' for Active; 'I' for Inactive)
REMARK    1  A    between atoms: O_12  and  C_2 
REMARK    2  A    between atoms: N_13  and  C_9 
REMARK    3  A    between atoms: O_14  and  C_11 
ROOT
ATOM      1  C   UNL d   1      -0.240  -0.745  -0.017  0.00  0.00     0.082 A 
ATOM      2  C   UNL d   1       1.005  -1.381   0.019  0.00  0.00     0.158 A 
ATOM      3  C   UNL d   1      -0.265   0.648  -0.009  0.00  0.00     0.070 A 
ATOM      4  N   UNL d   1       2.146  -0.666   0.077  0.00  0.00    -0.317 N 
ATOM      5  HN  UNL d   1       3.051  -1.134   0.120  1.00  0.00     0.170 HD
ATOM      6  N   UNL d   1      -2.419  -0.073  -0.118  0.00  0.00    -0.289 N 
ATOM      7  HN  UNL d   1      -3.437  -0.069  -0.177  1.00  0.00     0.188 HD
ATOM      8  N   UNL d   1      -1.590   0.982  -0.062  0.00  0.00    -0.298 N 
ATOM      9  C   UNL d   1      -1.605  -1.123  -0.078  0.00  0.00     0.109 A 
ATOM     10  C   UNL d   1       0.896   1.417   0.036  0.00  0.00     0.087 A 
ATOM     11  C   UNL d   1       2.070   0.675   0.076  0.00  0.00     0.143 A 
ATOM     12  H   UNL d   1      -1.997   1.911  -0.068  0.00  0.00     0.187 HD
ENDROOT
BRANCH   9  13
ATOM     13  N   UNL d   1      -2.066  -2.388  -0.092  0.00  0.00    -0.287 NA
ATOM     14  H   UNL d   1      -3.080  -2.436  -0.041  0.00  0.00     0.125 HD
ATOM     15  H   UNL d   1      -1.660  -3.053   0.560  0.00  0.00     0.125 HD
ENDBRANCH   9  13
BRANCH   2  16
ATOM     16  O   UNL d   1       1.153  -2.744  -0.037  0.00  0.00    -0.345 OA
ATOM     17  H   UNL d   1       0.312  -3.082  -0.385  0.00  0.00     0.219 HD
ENDBRANCH   2  16
BRANCH  11  18
ATOM     18  O   UNL d   1       3.280   1.309   0.105  0.00  0.00    -0.346 OA
ATOM     19  H   UNL d   1       3.129   2.262   0.043  0.00  0.00     0.219 HD
ENDBRANCH  11  18
TORSDOF 3
