REMARK  5 active torsions:
REMARK  status: ('A' for Active; 'I' for Inactive)
REMARK       I    between atoms: C_2  and  N_1 
REMARK    1  A    between atoms: C_3  and  N_1 
REMARK       I    between atoms: N_7  and  C_2 
REMARK    2  A    between atoms: C_11  and  N_7 
REMARK    3  A    between atoms: O_12  and  C_14 
REMARK    4  A    between atoms: C_16  and  O_12 
REMARK    5  A    between atoms: C_21  and  C_16 
ROOT
ATOM      1  N   UNL d   1      -1.089   1.497  -0.145  0.00  0.00    -0.293 N 
ATOM      2  C   UNL d   1       0.157   1.670  -0.661  0.00  0.00     0.326 C 
ATOM      3  N   UNL d   1       0.970   2.575  -0.045  0.00  0.00    -0.309 N 
ATOM      4  O   UNL d   1       0.448   0.983  -1.642  0.00  0.00    -0.247 OA
ATOM      5  H   UNL d   1      -1.615   0.804  -0.663  0.00  0.00     0.172 HD
ATOM      6  H   UNL d   1       0.537   3.046   0.747  0.00  0.00     0.170 HD
ENDROOT
BRANCH   3   7
ATOM      7  C   UNL d   1       2.332   2.832  -0.306  0.00  0.00     0.036 A 
ATOM      8  C   UNL d   1       3.074   2.192  -1.302  0.00  0.00     0.032 A 
ATOM      9  C   UNL d   1       4.455   2.400  -1.411  0.00  0.00     0.039 A 
ATOM     10  C   UNL d   1       5.107   3.250  -0.521  0.00  0.00     0.069 A 
ATOM     11  C   UNL d   1       4.354   3.980   0.398  0.00  0.00     0.039 A 
ATOM     12  C   UNL d   1       2.978   3.762   0.513  0.00  0.00     0.032 A 
BRANCH  10  13
ATOM     13  O   UNL d   1       6.475   3.284  -0.617  0.00  0.00    -0.347 OA
BRANCH  13  14
ATOM     14  C   UNL d   1       7.136   3.572   0.618  0.00  0.00     0.214 C 
BRANCH  14  15
ATOM     15  C   UNL d   1       8.522   2.976   0.627  0.00  0.00    -0.034 A 
ATOM     16  C   UNL d   1       9.637   3.746   0.271  0.00  0.00     0.009 A 
ATOM     17  C   UNL d   1      10.921   3.200   0.336  0.00  0.00     0.001 A 
ATOM     18  C   UNL d   1      11.101   1.880   0.748  0.00  0.00     0.000 A 
ATOM     19  C   UNL d   1       9.997   1.101   1.088  0.00  0.00     0.001 A 
ATOM     20  C   UNL d   1       8.713   1.643   1.021  0.00  0.00     0.009 A 
ENDBRANCH  14  15
ENDBRANCH  13  14
ENDBRANCH  10  13
ENDBRANCH   3   7
BRANCH   1  21
ATOM     21  C   UNL d   1      -1.683   1.983   1.023  0.00  0.00     0.126 A 
ATOM     22  N   UNL d   1      -1.008   2.858   1.809  0.00  0.00    -0.351 N 
ATOM     23  C   UNL d   1      -1.583   3.194   2.993  0.00  0.00     0.096 A 
ATOM     24  HN  UNL d   1      -0.109   3.246   1.524  1.00  0.00     0.166 HD
ATOM     25  C   UNL d   1      -2.803   2.699   3.446  0.00  0.00    -0.045 A 
ATOM     26  C   UNL d   1      -3.505   1.846   2.597  0.00  0.00     0.031 A 
ATOM     27  C   UNL d   1      -3.325   2.999   4.816  0.00  0.00     0.049 C 
ATOM     28  C   UNL d   1      -2.946   1.488   1.372  0.00  0.00     0.055 A 
ATOM     29 BR   UNL d   1      -3.917   0.295   0.258  0.00  0.00    -0.047 Br
ENDBRANCH   1  21
TORSDOF 5
