REMARK  4 active torsions:
REMARK  status: ('A' for Active; 'I' for Inactive)
REMARK    1  A    between atoms: N_3  and  C_13 
REMARK    2  A    between atoms: N_12  and  C_5 
REMARK    3  A    between atoms: O_9  and  C_6 
REMARK    4  A    between atoms: C_10  and  O_9 
ROOT
ATOM      1  N   UNL d   1      -1.282  -0.048   0.183  0.00  0.00    -0.344 N 
ATOM      2  HN  UNL d   1      -2.294  -0.072   0.314  1.00  0.00     0.167 HD
ATOM      3  C   UNL d   1      -0.560  -1.178   0.017  0.00  0.00     0.148 A 
ATOM      4  C   UNL d   1       0.788   1.225   0.032  0.00  0.00     0.048 A 
ATOM      5  C   UNL d   1      -0.594   1.116   0.166  0.00  0.00     0.119 A 
ATOM      6  C   UNL d   1       0.822  -1.192  -0.094  0.00  0.00     0.059 A 
ATOM      7  C   UNL d   1       1.499   0.029  -0.099  0.00  0.00     0.035 A 
ENDROOT
BRANCH   3   8
ATOM      8  O   UNL d   1      -1.216  -2.400  -0.069  0.00  0.00    -0.292 OA
BRANCH   8   9
ATOM      9  C   UNL d   1      -2.509  -2.384  -0.540  0.00  0.00     0.094 A 
ATOM     10  C   UNL d   1      -2.938  -1.596  -1.608  0.00  0.00     0.064 A 
ATOM     11  C   UNL d   1      -4.275  -1.634  -1.985  0.00  0.00     0.052 A 
ATOM     12 CL   UNL d   1      -4.856  -0.616  -3.240  0.00  0.00    -0.083 Cl
ATOM     13  C   UNL d   1      -5.126  -2.501  -1.318  0.00  0.00     0.111 A 
ATOM     14  N   UNL d   1      -4.731  -3.326  -0.315  0.00  0.00    -0.371 N 
ATOM     15  C   UNL d   1      -3.427  -3.243   0.050  0.00  0.00     0.124 A 
ATOM     16  HN  UNL d   1      -5.378  -3.971   0.138  1.00  0.00     0.164 HD
ENDBRANCH   8   9
ENDBRANCH   3   8
BRANCH   4  17
ATOM     17  N   UNL d   1       1.355   2.504  -0.041  0.00  0.00    -0.351 N 
ATOM     18  C   UNL d   1       2.482   2.743   0.542  0.00  0.00     0.178 C 
ATOM     19  HN  UNL d   1       0.878   3.246  -0.553  1.00  0.00     0.166 HD
BRANCH  18  20
ATOM     20  N   UNL d   1       3.131   3.951   0.568  0.00  0.00    -0.386 N 
ATOM     21  C   UNL d   1       2.509   5.163   0.057  0.00  0.00     0.149 C 
ATOM     22  C   UNL d   1       4.428   4.120   1.198  0.00  0.00     0.149 C 
ENDBRANCH  18  20
ENDBRANCH   4  17
TORSDOF 4
