REMARK  6 active torsions:
REMARK  status: ('A' for Active; 'I' for Inactive)
REMARK    1  A    between atoms: C_9  and  C_1 
REMARK    2  A    between atoms: C_4  and  C_2 
REMARK    3  A    between atoms: S_7  and  C_3 
REMARK       I    between atoms: N_10  and  C_4 
REMARK    4  A    between atoms: C_21  and  S_7 
REMARK    5  A    between atoms: C_8  and  N_10 
REMARK    6  A    between atoms: C_28  and  C_21 
ROOT
ATOM      1  C   UNL d   1      -1.635  -0.445   0.454  0.00  0.00     0.088 A 
ATOM      2  C   UNL d   1      -0.311  -1.015   0.489  0.00  0.00     0.093 A 
ATOM      3  N   UNL d   1      -1.528   0.891   0.335  0.00  0.00    -0.259 N 
ATOM      4  HN  UNL d   1      -2.299   1.559   0.349  1.00  0.00     0.195 HD
ATOM      5  O   UNL d   1      -0.205   1.195   0.191  0.00  0.00    -0.241 OA
ATOM      6  C   UNL d   1       0.525   0.065   0.274  0.00  0.00     0.090 A 
ATOM      7  C   UNL d   1       1.984   0.239   0.132  0.00  0.00     0.080 C 
ENDROOT
BRANCH   2   8
ATOM      8  C   UNL d   1       0.219  -2.334   0.772  0.00  0.00     0.261 C 
ATOM      9  N   UNL d   1      -0.217  -3.383  -0.024  0.00  0.00    -0.321 N 
ATOM     10  H   UNL d   1      -0.693  -3.189  -0.903  0.00  0.00     0.169 HD
ATOM     11  O   UNL d   1       1.123  -2.455   1.599  0.00  0.00    -0.267 OA
BRANCH   9  12
ATOM     12  C   UNL d   1       0.202  -4.701   0.213  0.00  0.00     0.063 A 
ATOM     13  C   UNL d   1       0.456  -5.705  -0.779  0.00  0.00     0.092 A 
ATOM     14  C   UNL d   1       0.751  -6.937  -0.232  0.00  0.00     0.075 A 
ATOM     15  S   UNL d   1       0.819  -6.880   1.471  0.00  0.00    -0.110 SA
ATOM     16  C   UNL d   1       0.433  -5.215   1.477  0.00  0.00     0.080 A 
BRANCH  13  17
ATOM     17  S   UNL d   1       0.510  -5.403  -2.489  0.00  0.00     0.178 S 
ATOM     18  O   UNL d   1       0.610  -6.710  -3.099  0.00  0.00    -0.223 OA
ATOM     19  O   UNL d   1      -0.600  -4.504  -2.707  0.00  0.00    -0.223 OA
BRANCH  17  20
ATOM     20  C   UNL d   1       2.049  -4.505  -2.713  0.00  0.00     0.145 C 
BRANCH  20  21
ATOM     21  C   UNL d   1       2.299  -4.226  -4.192  0.00  0.00     0.011 C 
ATOM     22  C   UNL d   1       3.517  -3.342  -4.412  0.00  0.00     0.006 C 
ENDBRANCH  20  21
ENDBRANCH  17  20
ENDBRANCH  13  17
ENDBRANCH   9  12
ENDBRANCH   2   8
BRANCH   1  23
ATOM     23  C   UNL d   1      -2.976  -1.047   0.566  0.00  0.00     0.054 A 
ATOM     24  C   UNL d   1      -3.171  -2.213   1.319  0.00  0.00     0.130 A 
ATOM     25  F   UNL d   1      -2.166  -2.746   2.028  0.00  0.00    -0.205 F 
ATOM     26  C   UNL d   1      -4.407  -2.861   1.389  0.00  0.00     0.043 A 
ATOM     27  C   UNL d   1      -5.509  -2.338   0.727  0.00  0.00     0.005 A 
ATOM     28  C   UNL d   1      -5.370  -1.149   0.019  0.00  0.00     0.025 A 
ATOM     29  C   UNL d   1      -4.123  -0.503  -0.061  0.00  0.00     0.049 A 
ATOM     30 CL   UNL d   1      -4.138   0.959  -0.998  0.00  0.00    -0.083 Cl
ENDBRANCH   1  23
TORSDOF 6
