REMARK  2 active torsions:
REMARK  status: ('A' for Active; 'I' for Inactive)
REMARK    1  A    between atoms: N_2  and  C_1 
REMARK    2  A    between atoms: N_4  and  C_3 
ROOT
ATOM      1  C   UNL d   1       1.522   1.098   0.601  0.00  0.00     0.130 A 
ATOM      2  C   UNL d   1       2.392   0.110   0.087  0.00  0.00     0.063 A 
ATOM      3  N   UNL d   1      -3.052  -0.212  -0.352  0.00  0.00    -0.191 NA
ATOM      4  C   UNL d   1       0.116   1.021   0.514  0.00  0.00     0.061 A 
ATOM      5  C   UNL d   1      -1.900  -0.148  -0.250  0.00  0.00     0.099 C 
ATOM      6  C   UNL d   1       1.738  -0.971  -0.543  0.00  0.00     0.033 A 
ATOM      7  C   UNL d   1      -0.474  -0.063  -0.127  0.00  0.00     0.047 A 
ATOM      8  C   UNL d   1       0.341  -1.058  -0.659  0.00  0.00     0.025 A 
ENDROOT
BRANCH   1   9
ATOM      9  N   UNL d   1       2.024   2.333   1.173  0.00  0.00    -0.113 N 
ATOM     10  O   UNL d   1       2.675   3.089   0.440  0.00  0.00    -0.532 OA
ATOM     11  O   UNL d   1       1.723   2.561   2.354  0.00  0.00    -0.532 OA
ENDBRANCH   1   9
BRANCH   2  12
ATOM     12  N   UNL d   1       3.774   0.152   0.122  0.00  0.00    -0.375 N 
ATOM     13  C   UNL d   1       4.566   0.584   1.295  0.00  0.00     0.149 C 
ATOM     14  C   UNL d   1       5.742   1.456   0.818  0.00  0.00     0.187 C 
ATOM     15  O   UNL d   1       6.562   0.748  -0.131  0.00  0.00    -0.388 OA
ATOM     16  C   UNL d   1       5.782   0.362  -1.274  0.00  0.00     0.187 C 
ATOM     17  C   UNL d   1       4.612  -0.551  -0.874  0.00  0.00     0.149 C 
ENDBRANCH   2  12
TORSDOF 2
