REMARK  3 active torsions:
REMARK  status: ('A' for Active; 'I' for Inactive)
REMARK    1  A    between atoms: N_2  and  C_1 
REMARK    2  A    between atoms: C_16  and  C_11 
REMARK    3  A    between atoms: O_15  and  C_16 
ROOT
ATOM      1  N   UNL d   1       0.237   2.709   0.088  0.00  0.00    -0.255 NA
ATOM      2  C   UNL d   1       0.050   3.432  -1.169  0.00  0.00     0.099 C 
ATOM      3  C   UNL d   1      -0.359   3.321   1.274  0.00  0.00     0.099 C 
ATOM      4  C   UNL d   1       0.606   4.850  -1.026  0.00  0.00     0.021 C 
ATOM      5  C   UNL d   1       0.172   4.745   1.448  0.00  0.00     0.021 C 
ATOM      6  C   UNL d   1       0.017   5.598   0.181  0.00  0.00     0.011 C 
ENDROOT
BRANCH   1   7
ATOM      7  C   UNL d   1       0.003   1.333   0.018  0.00  0.00     0.159 A 
ATOM      8  N   UNL d   1      -0.306   0.765  -1.161  0.00  0.00    -0.343 N 
ATOM      9  C   UNL d   1      -0.508  -0.565  -1.185  0.00  0.00     0.092 A 
ATOM     10  HN  UNL d   1      -0.386   1.325  -2.010  1.00  0.00     0.167 HD
ATOM     11  C   UNL d   1      -0.397  -1.371  -0.082  0.00  0.00     0.034 A 
ATOM     12  C   UNL d   1      -0.065  -0.717   1.075  0.00  0.00     0.092 A 
ATOM     13  N   UNL d   1       0.124   0.613   1.149  0.00  0.00    -0.343 N 
ATOM     14  HN  UNL d   1       0.353   1.062   2.036  1.00  0.00     0.167 HD
ENDBRANCH   1   7
BRANCH   6  15
ATOM     15  C   UNL d   1      -1.441   6.018  -0.037  0.00  0.00     0.168 C 
BRANCH  15  16
ATOM     16  O   UNL d   1      -1.532   6.850  -1.186  0.00  0.00    -0.400 OA
ATOM     17  H   UNL d   1      -2.464   7.114  -1.277  0.00  0.00     0.209 HD
ENDBRANCH  15  16
ENDBRANCH   6  15
TORSDOF 3
