REMARK  7 active torsions:
REMARK  status: ('A' for Active; 'I' for Inactive)
REMARK    1  A    between atoms: N_2  and  S_1 
REMARK    2  A    between atoms: C_15  and  S_1 
REMARK    3  A    between atoms: C_11  and  C_3 
REMARK    4  A    between atoms: C_5  and  C_16 
REMARK    5  A    between atoms: O_14  and  N_8 
REMARK    6  A    between atoms: C_10  and  O_14 
REMARK    7  A    between atoms: C_17  and  C_10 
ROOT
ATOM      1  N   UNL d   1      -1.112  -3.568  -4.796  0.00  0.00    -0.261 N 
ATOM      2  HN  UNL d   1      -1.164  -4.410  -5.369  1.00  0.00     0.194 HD
ATOM      3  C   UNL d   1      -0.344  -3.470  -3.753  0.00  0.00     0.040 C 
ATOM      4  C   UNL d   1      -0.227  -2.250  -2.873  0.00  0.00     0.071 C 
ENDROOT
BRANCH   3   5
ATOM      5  C   UNL d   1       0.463  -4.661  -3.440  0.00  0.00     0.006 A 
ATOM      6  C   UNL d   1       1.373  -4.799  -2.398  0.00  0.00     0.122 A 
ATOM      7  N   UNL d   1       1.885  -6.073  -2.446  0.00  0.00    -0.257 N 
ATOM      8  C   UNL d   1       1.365  -6.761  -3.506  0.00  0.00     0.110 A 
ATOM      9  C   UNL d   1       0.474  -5.916  -4.136  0.00  0.00     0.033 A 
BRANCH   7  10
ATOM     10  S   UNL d   1       3.076  -6.689  -1.393  0.00  0.00     0.268 S 
ATOM     11  O   UNL d   1       2.747  -8.092  -1.218  0.00  0.00    -0.200 OA
ATOM     12  O   UNL d   1       3.132  -5.765  -0.276  0.00  0.00    -0.200 OA
BRANCH  10  13
ATOM     13  C   UNL d   1       4.596  -6.570  -2.300  0.00  0.00     0.080 A 
ATOM     14  C   UNL d   1       5.344  -5.389  -2.242  0.00  0.00     0.025 A 
ATOM     15  C   UNL d   1       6.587  -5.329  -2.874  0.00  0.00     0.002 A 
ATOM     16  C   UNL d   1       7.082  -6.444  -3.554  0.00  0.00     0.000 A 
ATOM     17  C   UNL d   1       6.336  -7.622  -3.605  0.00  0.00     0.002 A 
ATOM     18  C   UNL d   1       5.092  -7.691  -2.974  0.00  0.00     0.025 A 
ENDBRANCH  10  13
ENDBRANCH   7  10
ENDBRANCH   3   5
BRANCH   1  19
ATOM     19  O   UNL d   1      -1.871  -2.406  -5.068  0.00  0.00    -0.195 OA
BRANCH  19  20
ATOM     20  C   UNL d   1      -2.626  -2.621  -6.191  0.00  0.00     0.315 C 
ATOM     21  O   UNL d   1      -2.653  -3.643  -6.869  0.00  0.00    -0.257 OA
BRANCH  20  22
ATOM     22  C   UNL d   1      -3.466  -1.439  -6.548  0.00  0.00     0.041 A 
ATOM     23  C   UNL d   1      -4.305  -1.561  -7.669  0.00  0.00     0.018 A 
ATOM     24  C   UNL d   1      -5.125  -0.505  -8.079  0.00  0.00     0.017 A 
ATOM     25  C   UNL d   1      -5.126   0.705  -7.375  0.00  0.00     0.048 A 
ATOM     26  C   UNL d   1      -4.286   0.832  -6.254  0.00  0.00     0.017 A 
ATOM     27  C   UNL d   1      -3.462  -0.230  -5.841  0.00  0.00     0.018 A 
BRANCH  25  28
ATOM     28  C   UNL d   1      -6.012   1.852  -7.810  0.00  0.00     0.417 C 
ATOM     29  F   UNL d   1      -6.754   1.577  -8.919  0.00  0.00    -0.166 F 
ATOM     30  F   UNL d   1      -6.904   2.214  -6.847  0.00  0.00    -0.166 F 
ATOM     31  F   UNL d   1      -5.303   2.976  -8.106  0.00  0.00    -0.166 F 
ENDBRANCH  25  28
ENDBRANCH  20  22
ENDBRANCH  19  20
ENDBRANCH   1  19
TORSDOF 7
