REMARK  5 active torsions:
REMARK  status: ('A' for Active; 'I' for Inactive)
REMARK    1  A    between atoms: N_4  and  N_1 
REMARK    2  A    between atoms: O_17  and  C_8 
REMARK    3  A    between atoms: C_15  and  C_11 
REMARK    4  A    between atoms: O_18  and  C_12 
REMARK    5  A    between atoms: C_21  and  O_17 
ROOT
ATOM      1  N   UNL d   1       3.425   1.923   0.730  0.00  0.00    -0.299 N 
ATOM      2  HN  UNL d   1       3.980   2.580   1.278  1.00  0.00     0.186 HD
ATOM      3  C   UNL d   1       4.008   1.111  -0.089  0.00  0.00     0.119 C 
ENDROOT
BRANCH   1   4
ATOM      4  N   UNL d   1       2.063   1.901   0.862  0.00  0.00    -0.182 N 
ATOM      5  C   UNL d   1       1.445   2.781   1.731  0.00  0.00     0.280 A 
ATOM      6  C   UNL d   1       0.019   2.458   1.684  0.00  0.00     0.050 A 
ATOM      7  O   UNL d   1       1.900   3.662   2.438  0.00  0.00    -0.265 OA
ATOM      8  C   UNL d   1      -1.049   3.010   2.364  0.00  0.00     0.018 A 
ATOM      9  C   UNL d   1      -0.148   1.407   0.802  0.00  0.00     0.050 A 
ATOM     10  C   UNL d   1      -2.313   2.457   2.131  0.00  0.00     0.001 A 
ATOM     11  C   UNL d   1      -2.479   1.380   1.236  0.00  0.00     0.001 A 
ATOM     12  C   UNL d   1      -1.384   0.843   0.555  0.00  0.00     0.018 A 
ATOM     13  C   UNL d   1       1.160   1.049   0.264  0.00  0.00     0.280 A 
ATOM     14  O   UNL d   1       1.295   0.147  -0.544  0.00  0.00    -0.265 OA
ENDBRANCH   1   4
BRANCH   3  15
ATOM     15  C   UNL d   1       5.479   1.095  -0.225  0.00  0.00    -0.017 A 
ATOM     16  C   UNL d   1       6.060   0.195  -1.125  0.00  0.00     0.052 A 
ATOM     17  C   UNL d   1       7.450   0.158  -1.282  0.00  0.00     0.102 A 
ATOM     18  C   UNL d   1       8.238   1.029  -0.513  0.00  0.00     0.099 A 
ATOM     19  C   UNL d   1       7.658   1.923   0.390  0.00  0.00     0.040 A 
ATOM     20  C   UNL d   1       6.273   1.957   0.533  0.00  0.00     0.016 A 
BRANCH  17  21
ATOM     21  O   UNL d   1       8.113  -0.678  -2.147  0.00  0.00    -0.349 OA
BRANCH  21  22
ATOM     22  C   UNL d   1       7.311  -1.558  -2.932  0.00  0.00     0.171 C 
ATOM     23  C   UNL d   1       8.208  -2.386  -3.832  0.00  0.00     0.034 C 
ENDBRANCH  21  22
ENDBRANCH  17  21
BRANCH  18  24
ATOM     24  O   UNL d   1       9.600   1.000  -0.649  0.00  0.00    -0.358 OA
ATOM     25  H   UNL d   1       9.993   1.644  -0.039  0.00  0.00     0.217 HD
ENDBRANCH  18  24
ENDBRANCH   3  15
TORSDOF 5
