REMARK  2 active torsions:
REMARK  status: ('A' for Active; 'I' for Inactive)
REMARK    1  A    between atoms: C_8  and  C_1 
REMARK    2  A    between atoms: C_3  and  C_2 
REMARK       I    between atoms: N_6  and  C_3 
REMARK       I    between atoms: C_7  and  N_6 
REMARK       I    between atoms: N_11  and  C_7 
ROOT
ATOM      1  C   UNL d   1      -0.931  -0.652  -0.046  0.00  0.00     0.086 A 
ATOM      2  C   UNL d   1       0.153  -1.566   0.251  0.00  0.00     0.093 A 
ATOM      3  N   UNL d   1      -0.553   0.601   0.267  0.00  0.00    -0.259 N 
ATOM      4  HN  UNL d   1      -1.100   1.449   0.119  1.00  0.00     0.195 HD
ATOM      5  O   UNL d   1       0.691   0.535   0.816  0.00  0.00    -0.241 OA
ATOM      6  C   UNL d   1       1.128  -0.742   0.799  0.00  0.00     0.090 A 
ATOM      7  C   UNL d   1       2.491  -0.927   1.337  0.00  0.00     0.080 C 
ENDROOT
BRANCH   2   8
ATOM      8  C   UNL d   1       0.374  -2.998   0.040  0.00  0.00     0.274 C 
ATOM      9  N   UNL d   1      -0.735  -3.811   0.254  0.00  0.00    -0.156 N 
ATOM     10  C   UNL d   1      -1.006  -5.150   0.001  0.00  0.00     0.676 C 
ATOM     11  H   UNL d   1      -1.556  -3.293   0.522  0.00  0.00     0.187 HD
ATOM     12  N   UNL d   1      -0.111  -6.169  -0.239  0.00  0.00    -0.214 N 
ATOM     13  N   UNL d   1      -2.270  -5.433   0.011  0.00  0.00    -0.234 N 
ATOM     14  C   UNL d   1      -0.550  -7.339  -1.048  0.00  0.00     0.167 C 
ATOM     15  C   UNL d   1       1.347  -6.121  -0.071  0.00  0.00     0.167 C 
ATOM     16  C   UNL d   1       0.083  -8.637  -0.542  0.00  0.00     0.188 C 
ATOM     17  O   UNL d   1       1.513  -8.546  -0.552  0.00  0.00    -0.388 OA
ATOM     18  C   UNL d   1       1.926  -7.493   0.328  0.00  0.00     0.188 C 
ATOM     19  H   UNL d   1      -2.862  -4.623   0.173  0.00  0.00     0.174 HD
ATOM     20  HN  UNL d   1      -2.635  -6.375  -0.129  1.00  0.00     0.174 HD
ATOM     21  O   UNL d   1       1.496  -3.396  -0.264  0.00  0.00    -0.267 OA
ENDBRANCH   2   8
BRANCH   1  22
ATOM     22  C   UNL d   1      -2.270  -0.813  -0.658  0.00  0.00     0.037 A 
ATOM     23  C   UNL d   1      -2.492  -1.599  -1.807  0.00  0.00     0.048 A 
ATOM     24 CL   UNL d   1      -1.233  -2.419  -2.663  0.00  0.00    -0.083 Cl
ATOM     25  C   UNL d   1      -3.769  -1.703  -2.386  0.00  0.00     0.025 A 
ATOM     26  C   UNL d   1      -4.840  -0.968  -1.891  0.00  0.00     0.003 A 
ATOM     27  C   UNL d   1      -4.641  -0.141  -0.798  0.00  0.00     0.025 A 
ATOM     28  C   UNL d   1      -3.387  -0.081  -0.167  0.00  0.00     0.048 A 
ATOM     29 CL   UNL d   1      -3.346   0.925   1.250  0.00  0.00    -0.083 Cl
ENDBRANCH   1  22
TORSDOF 2
