REMARK  3 active torsions:
REMARK  status: ('A' for Active; 'I' for Inactive)
REMARK    1  A    between atoms: C_2  and  N_1 
REMARK    2  A    between atoms: C_13  and  C_11 
REMARK    3  A    between atoms: N_12  and  C_13 
ROOT
ATOM      1  C   UNL d   1      -0.718  -2.461   0.007  0.00  0.00     0.038 A 
ATOM      2  C   UNL d   1      -1.611  -2.929  -0.969  0.00  0.00     0.030 A 
ATOM      3  C   UNL d   1      -0.219  -3.368   0.951  0.00  0.00     0.030 A 
ATOM      4  C   UNL d   1      -0.594  -4.714   0.911  0.00  0.00     0.011 A 
ATOM      5  C   UNL d   1      -1.982  -4.280  -1.005  0.00  0.00     0.011 A 
ATOM      6  C   UNL d   1      -1.476  -5.187  -0.068  0.00  0.00    -0.031 A 
ENDROOT
BRANCH   1   7
ATOM      7  N   UNL d   1      -0.312  -1.090   0.033  0.00  0.00    -0.333 N 
ATOM      8  C   UNL d   1      -0.752  -0.078  -0.803  0.00  0.00     0.096 A 
ATOM      9  C   UNL d   1      -0.108   1.098  -0.480  0.00  0.00     0.019 A 
ATOM     10  C   UNL d   1       0.756   0.818   0.592  0.00  0.00     0.019 A 
ATOM     11  C   UNL d   1       0.610  -0.519   0.894  0.00  0.00     0.096 A 
ENDBRANCH   1   7
BRANCH   6  12
ATOM     12  C   UNL d   1      -1.836  -6.649  -0.120  0.00  0.00     0.305 C 
BRANCH  12  13
ATOM     13  N   UNL d   1      -2.486  -7.087   1.109  0.00  0.00     0.082 N 
ATOM     14  H   UNL d   1      -2.715  -8.076   1.032  0.00  0.00     0.313 HD
ATOM     15  H   UNL d   1      -3.369  -6.590   1.207  0.00  0.00     0.313 HD
ENDBRANCH  12  13
ENDBRANCH   6  12
TORSDOF 3
