REMARK  6 active torsions:
REMARK  status: ('A' for Active; 'I' for Inactive)
REMARK    1  A    between atoms: C_7  and  C_1 
REMARK    2  A    between atoms: C_13  and  C_6 
REMARK    3  A    between atoms: C_12  and  N_9 
REMARK    4  A    between atoms: N_10  and  C_13 
REMARK    5  A    between atoms: C_19  and  C_12 
REMARK    6  A    between atoms: C_20  and  C_12 
ROOT
ATOM      1  N   UNL d   1       3.140   0.562   0.042  0.00  0.00     0.105 N 
ATOM      2  N   UNL d   1       2.229  -2.350   0.011  0.00  0.00     0.099 N 
ATOM      3  C   UNL d   1       2.655  -0.139  -1.175  0.00  0.00     0.304 C 
ATOM      4  C   UNL d   1       2.679  -0.167   1.245  0.00  0.00     0.304 C 
ATOM      5  C   UNL d   1       2.804  -1.684  -1.177  0.00  0.00     0.303 C 
ATOM      6  C   UNL d   1       2.823  -1.704   1.201  0.00  0.00     0.303 C 
ENDROOT
BRANCH   1   7
ATOM      7  C   UNL d   1       4.609   0.830   0.006  0.00  0.00     0.289 C 
BRANCH   7   8
ATOM      8  C   UNL d   1       4.983   1.612  -1.266  0.00  0.00    -0.021 A 
ATOM      9  C   UNL d   1       4.398   2.862  -1.544  0.00  0.00     0.010 A 
ATOM     10  C   UNL d   1       4.624   3.504  -2.762  0.00  0.00     0.001 A 
ATOM     11  C   UNL d   1       5.437   2.906  -3.720  0.00  0.00     0.000 A 
ATOM     12  C   UNL d   1       6.044   1.680  -3.453  0.00  0.00     0.001 A 
ATOM     13  C   UNL d   1       5.828   1.039  -2.231  0.00  0.00     0.010 A 
ENDBRANCH   7   8
BRANCH   7  14
ATOM     14  C   UNL d   1       5.160   1.570   1.240  0.00  0.00    -0.021 A 
ATOM     15  C   UNL d   1       6.467   1.299   1.686  0.00  0.00     0.010 A 
ATOM     16  C   UNL d   1       7.002   1.969   2.792  0.00  0.00     0.001 A 
ATOM     17  C   UNL d   1       6.239   2.924   3.467  0.00  0.00     0.000 A 
ATOM     18  C   UNL d   1       4.952   3.216   3.031  0.00  0.00     0.001 A 
ATOM     19  C   UNL d   1       4.419   2.554   1.923  0.00  0.00     0.010 A 
ENDBRANCH   7  14
ENDBRANCH   1   7
BRANCH   2  20
ATOM     20  C   UNL d   1       0.746  -2.271  -0.041  0.00  0.00     0.358 C 
BRANCH  20  21
ATOM     21  C   UNL d   1       0.032  -2.722   1.186  0.00  0.00     0.177 A 
ATOM     22  N   UNL d   1      -0.229  -2.029   2.270  0.00  0.00    -0.321 N 
ATOM     23  C   UNL d   1      -0.922  -2.932   3.037  0.00  0.00     0.144 A 
ATOM     24  HN  UNL d   1       0.020  -1.064   2.486  1.00  0.00     0.169 HD
ATOM     25  N   UNL d   1      -1.119  -4.123   2.451  0.00  0.00    -0.242 N 
ATOM     26  O   UNL d   1      -0.479  -3.986   1.213  0.00  0.00    -0.221 OA
ATOM     27  HN  UNL d   1      -1.617  -4.934   2.819  1.00  0.00     0.196 HD
BRANCH  23  28
ATOM     28  C   UNL d   1      -1.376  -2.569   4.412  0.00  0.00     0.050 A 
ATOM     29  S   UNL d   1      -2.224  -3.594   5.477  0.00  0.00    -0.098 SA
ATOM     30  C   UNL d   1      -2.238  -2.401   6.707  0.00  0.00     0.050 A 
ATOM     31  C   UNL d   1      -1.621  -1.236   6.307  0.00  0.00     0.009 A 
ATOM     32  C   UNL d   1      -1.130  -1.332   4.973  0.00  0.00     0.023 A 
ENDBRANCH  23  28
ENDBRANCH  20  21
ENDBRANCH   2  20
TORSDOF 6
