REMARK  3 active torsions:
REMARK  status: ('A' for Active; 'I' for Inactive)
REMARK    1  A    between atoms: C_2  and  C_1 
REMARK       I    between atoms: N_6  and  C_2 
REMARK    2  A    between atoms: C_13  and  C_5 
REMARK    3  A    between atoms: S_8  and  N_6 
ROOT
ATOM      1  C   UNL d   1      -0.117  -1.234   0.037  0.00  0.00     0.093 A 
ATOM      2  N   UNL d   1      -1.141   0.791   0.227  0.00  0.00    -0.259 N 
ATOM      3  HN  UNL d   1      -1.846   1.520   0.324  1.00  0.00     0.195 HD
ATOM      4  C   UNL d   1      -1.362  -0.539   0.217  0.00  0.00     0.083 A 
ATOM      5  O   UNL d   1       0.204   0.980   0.082  0.00  0.00    -0.241 OA
ATOM      6  C   UNL d   1       0.823  -0.217  -0.020  0.00  0.00     0.090 A 
ATOM      7  C   UNL d   1       2.296  -0.153  -0.119  0.00  0.00     0.080 C 
ENDROOT
BRANCH   1   8
ATOM      8  C   UNL d   1       0.182  -2.661  -0.033  0.00  0.00     0.267 C 
ATOM      9  N   UNL d   1       1.366  -3.041  -0.701  0.00  0.00    -0.283 N 
ATOM     10  HN  UNL d   1       1.716  -2.453  -1.457  1.00  0.00     0.178 HD
ATOM     11  O   UNL d   1      -0.616  -3.491   0.379  0.00  0.00    -0.267 OA
BRANCH   9  12
ATOM     12  S   UNL d   1       2.143  -4.310  -0.326  0.00  0.00     0.020 S 
ATOM     13  O   UNL d   1       1.943  -5.094   0.879  0.00  0.00    -0.250 OA
ATOM     14  C   UNL d   1       3.858  -3.838  -0.322  0.00  0.00     0.136 C 
ATOM     15  C   UNL d   1       2.079  -5.426  -1.710  0.00  0.00     0.136 C 
ENDBRANCH   9  12
ENDBRANCH   1   8
BRANCH   4  16
ATOM     16  C   UNL d   1      -2.748  -1.008   0.374  0.00  0.00    -0.006 A 
ATOM     17  C   UNL d   1      -3.220  -2.194  -0.199  0.00  0.00     0.014 A 
ATOM     18  C   UNL d   1      -4.555  -2.589  -0.035  0.00  0.00     0.001 A 
ATOM     19  C   UNL d   1      -5.445  -1.788   0.678  0.00  0.00     0.000 A 
ATOM     20  C   UNL d   1      -5.002  -0.594   1.235  0.00  0.00     0.001 A 
ATOM     21  C   UNL d   1      -3.666  -0.212   1.088  0.00  0.00     0.014 A 
ENDBRANCH   4  16
TORSDOF 3
