REMARK  5 active torsions:
REMARK  status: ('A' for Active; 'I' for Inactive)
REMARK    1  A    between atoms: C_4  and  N_1 
REMARK    2  A    between atoms: C_14  and  C_2 
REMARK    3  A    between atoms: N_5  and  C_3 
REMARK       I    between atoms: C_6  and  N_13 
REMARK    4  A    between atoms: C_17  and  C_6 
REMARK    5  A    between atoms: N_13  and  N_8 
ROOT
ATOM      1  C   UNL d   1       0.239   3.681   0.500  0.00  0.00     0.010 A 
ATOM      2  C   UNL d   1      -0.883   3.727   1.363  0.00  0.00     0.042 A 
ATOM      3  C   UNL d   1       0.245   1.263   0.449  0.00  0.00     0.103 A 
ATOM      4  C   UNL d   1       0.781   2.473   0.019  0.00  0.00     0.051 A 
ATOM      5  C   UNL d   1      -1.367   2.473   1.791  0.00  0.00     0.033 A 
ATOM      6  C   UNL d   1      -0.820   1.256   1.349  0.00  0.00     0.038 A 
ENDROOT
BRANCH   1   7
ATOM      7  C   UNL d   1       0.992   4.902   0.154  0.00  0.00     0.120 C 
ATOM      8  N   UNL d   1       1.568   5.019  -0.996  0.00  0.00    -0.308 N 
ATOM      9  HN  UNL d   1       1.555   4.266  -1.684  1.00  0.00     0.186 HD
BRANCH   8  10
ATOM     10  N   UNL d   1       2.194   6.201  -1.239  0.00  0.00    -0.266 N 
ATOM     11  C   UNL d   1       2.815   6.383  -2.469  0.00  0.00     0.270 C 
ATOM     12  O   UNL d   1       2.843   5.543  -3.367  0.00  0.00    -0.266 OA
ATOM     13  H   UNL d   1       2.085   6.963  -0.585  0.00  0.00     0.190 HD
BRANCH  11  14
ATOM     14  C   UNL d   1       3.461   7.705  -2.702  0.00  0.00     0.033 A 
ATOM     15  C   UNL d   1       3.917   8.525  -1.662  0.00  0.00     0.017 A 
ATOM     16  C   UNL d   1       4.551   9.737  -1.956  0.00  0.00     0.001 A 
ATOM     17  C   UNL d   1       4.738  10.129  -3.281  0.00  0.00     0.000 A 
ATOM     18  C   UNL d   1       4.292   9.316  -4.319  0.00  0.00     0.001 A 
ATOM     19  C   UNL d   1       3.657   8.108  -4.032  0.00  0.00     0.017 A 
ENDBRANCH  11  14
ENDBRANCH   8  10
ENDBRANCH   1   7
BRANCH   2  20
ATOM     20  N   UNL d   1      -1.464   4.901   1.808  0.00  0.00    -0.380 N 
ATOM     21  C   UNL d   1      -1.712   6.062   0.948  0.00  0.00     0.123 C 
ATOM     22  C   UNL d   1      -1.958   7.143   1.990  0.00  0.00     0.021 C 
ATOM     23  C   UNL d   1      -2.850   6.429   2.998  0.00  0.00     0.021 C 
ATOM     24  C   UNL d   1      -2.429   4.953   2.917  0.00  0.00     0.123 C 
ENDBRANCH   2  20
BRANCH   3  25
ATOM     25  N   UNL d   1       0.830  -0.003  -0.009  0.00  0.00    -0.116 N 
ATOM     26  O   UNL d   1       1.805   0.050  -0.770  0.00  0.00    -0.532 OA
ATOM     27  O   UNL d   1       0.319  -1.053   0.403  0.00  0.00    -0.532 OA
ENDBRANCH   3  25
TORSDOF 5
