REMARK  7 active torsions:
REMARK  status: ('A' for Active; 'I' for Inactive)
REMARK    1  A    between atoms: C_2  and  S_1 
REMARK    2  A    between atoms: N_12  and  S_1 
REMARK    3  A    between atoms: S_4  and  N_9 
REMARK    4  A    between atoms: C_16  and  S_4 
REMARK    5  A    between atoms: N_9  and  N_14 
REMARK    6  A    between atoms: C_15  and  N_12 
REMARK    7  A    between atoms: C_13  and  C_15 
REMARK       I    between atoms: N_14  and  C_13 
ROOT
ATOM      1  C   UNL d   1       0.625   2.642  -0.568  0.00  0.00     0.236 C 
ENDROOT
BRANCH   1   2
ATOM      2  C   UNL d   1       0.477   3.734  -1.607  0.00  0.00     0.254 C 
ATOM      3  N   UNL d   1      -0.422   3.445  -2.620  0.00  0.00    -0.259 N 
ATOM      4  H   UNL d   1      -1.044   2.638  -2.588  0.00  0.00     0.190 HD
ATOM      5  O   UNL d   1       0.995   4.845  -1.496  0.00  0.00    -0.270 OA
BRANCH   3   6
ATOM      6  N   UNL d   1      -0.851   4.576  -3.445  0.00  0.00    -0.220 N 
ATOM      7  H   UNL d   1      -0.285   5.432  -3.384  0.00  0.00     0.200 HD
BRANCH   6   8
ATOM      8  S   UNL d   1      -2.518   4.859  -3.611  0.00  0.00     0.276 S 
ATOM      9  O   UNL d   1      -2.703   6.071  -4.376  0.00  0.00    -0.199 OA
ATOM     10  O   UNL d   1      -3.128   3.597  -3.966  0.00  0.00    -0.199 OA
BRANCH   8  11
ATOM     11  C   UNL d   1      -2.980   5.218  -1.923  0.00  0.00     0.081 A 
ATOM     12  C   UNL d   1      -2.428   6.333  -1.282  0.00  0.00     0.027 A 
ATOM     13  C   UNL d   1      -2.759   6.595   0.051  0.00  0.00     0.025 A 
ATOM     14  C   UNL d   1      -3.642   5.751   0.726  0.00  0.00     0.034 A 
ATOM     15  C   UNL d   1      -4.206   4.651   0.079  0.00  0.00     0.025 A 
ATOM     16 CL   UNL d   1      -4.035   6.065   2.371  0.00  0.00    -0.084 Cl
ATOM     17  C   UNL d   1      -3.877   4.380  -1.252  0.00  0.00     0.027 A 
ENDBRANCH   8  11
ENDBRANCH   6   8
ENDBRANCH   3   6
ENDBRANCH   1   2
BRANCH   1  18
ATOM     18  N   UNL d   1       1.158   1.384  -1.084  0.00  0.00    -0.306 N 
ATOM     19  H   UNL d   1       0.842   0.987  -1.968  0.00  0.00     0.172 HD
BRANCH  18  20
ATOM     20  S   UNL d   1       1.669   0.231   0.026  0.00  0.00     0.261 S 
ATOM     21  O   UNL d   1       1.970  -0.976  -0.706  0.00  0.00    -0.200 OA
ATOM     22  O   UNL d   1       2.656   0.869   0.869  0.00  0.00    -0.200 OA
BRANCH  20  23
ATOM     23  C   UNL d   1       0.251  -0.073   1.017  0.00  0.00     0.108 A 
ATOM     24  C   UNL d   1      -0.961  -0.558   0.478  0.00  0.00     0.090 A 
ATOM     25  N   UNL d   1      -1.255  -0.789  -0.814  0.00  0.00    -0.309 N 
ATOM     26  C   UNL d   1      -2.132  -0.839   1.394  0.00  0.00     0.068 A 
ATOM     27  S   UNL d   1      -2.793  -1.416  -0.853  0.00  0.00     0.068 SA
ATOM     28  HN  UNL d   1      -0.649  -0.612  -1.615  1.00  0.00     0.176 HD
ATOM     29  N   UNL d   1      -3.207  -1.315   0.750  0.00  0.00    -0.310 N 
ATOM     30  HN  UNL d   1      -4.105  -1.565   1.165  1.00  0.00     0.176 HD
ATOM     31  C   UNL d   1      -2.047  -0.597   2.787  0.00  0.00     0.032 A 
ATOM     32  C   UNL d   1      -0.827  -0.083   3.256  0.00  0.00     0.004 A 
ATOM     33  C   UNL d   1       0.280   0.165   2.410  0.00  0.00     0.028 A 
ENDBRANCH  20  23
ENDBRANCH  18  20
ENDBRANCH   1  18
TORSDOF 7
