REMARK  9 active torsions:
REMARK  status: ('A' for Active; 'I' for Inactive)
REMARK    1  A    between atoms: O_6  and  C_12 
REMARK    2  A    between atoms: C_8  and  O_6 
REMARK    3  A    between atoms: O_16  and  C_9 
REMARK    4  A    between atoms: N_11  and  C_19 
REMARK    5  A    between atoms: C_18  and  N_11 
REMARK    6  A    between atoms: C_12  and  C_14 
REMARK    7  A    between atoms: C_19  and  C_13 
REMARK    8  A    between atoms: C_14  and  C_18 
REMARK    9  A    between atoms: O_17  and  C_14 
ROOT
ATOM      1  C   UNL d   1       6.909  -0.561   0.007  0.00  0.00     0.170 C 
ENDROOT
BRANCH   1   2
ATOM      2  C   UNL d   1       6.825   0.195   1.341  0.00  0.00     0.209 C 
BRANCH   2   3
ATOM      3  O   UNL d   1       6.792  -0.742   2.431  0.00  0.00    -0.346 OA
BRANCH   3   4
ATOM      4  C   UNL d   1       6.912  -0.223   3.697  0.00  0.00     0.102 A 
ATOM      5  C   UNL d   1       6.335  -0.895   4.790  0.00  0.00     0.101 A 
ATOM      6  C   UNL d   1       6.538  -0.398   6.090  0.00  0.00     0.039 A 
ATOM      7  C   UNL d   1       7.312   0.736   6.324  0.00  0.00     0.003 A 
ATOM      8  C   UNL d   1       7.880   1.403   5.252  0.00  0.00     0.003 A 
ATOM      9  C   UNL d   1       7.681   0.928   3.953  0.00  0.00     0.039 A 
BRANCH   5  10
ATOM     10  O   UNL d   1       5.549  -2.016   4.813  0.00  0.00    -0.353 OA
ATOM     11  C   UNL d   1       5.338  -2.748   3.621  0.00  0.00     0.210 C 
ENDBRANCH   5  10
ENDBRANCH   3   4
ENDBRANCH   2   3
ENDBRANCH   1   2
BRANCH   1  12
ATOM     12  C   UNL d   1       5.707  -1.487  -0.242  0.00  0.00     0.303 C 
BRANCH  12  13
ATOM     13  N   UNL d   1       4.409  -0.809  -0.202  0.00  0.00     0.090 N 
ATOM     14  H   UNL d   1       3.664  -1.495  -0.329  0.00  0.00     0.316 HD
BRANCH  13  15
ATOM     15  C   UNL d   1       4.290   0.208  -1.244  0.00  0.00     0.308 C 
BRANCH  15  16
ATOM     16  C   UNL d   1       2.956   0.906  -1.168  0.00  0.00    -0.028 A 
ATOM     17  C   UNL d   1       2.085   0.852  -2.262  0.00  0.00     0.048 A 
ATOM     18  C   UNL d   1       0.889   1.522  -2.163  0.00  0.00     0.105 A 
ATOM     19  C   UNL d   1       0.542   2.234  -1.037  0.00  0.00     0.105 A 
ATOM     20  O   UNL d   1      -0.067   1.570  -3.128  0.00  0.00    -0.323 OA
ATOM     21  O   UNL d   1      -0.680   2.817  -1.153  0.00  0.00    -0.323 OA
ATOM     22  C   UNL d   1       1.372   2.317   0.055  0.00  0.00     0.040 A 
ATOM     23  C   UNL d   1      -1.069   2.374  -2.471  0.00  0.00     0.352 A 
ATOM     24  C   UNL d   1       2.599   1.643  -0.011  0.00  0.00     0.012 A 
ENDBRANCH  15  16
ENDBRANCH  13  15
ENDBRANCH  12  13
ENDBRANCH   1  12
BRANCH   1  25
ATOM     25  O   UNL d   1       8.118  -1.332  -0.046  0.00  0.00    -0.392 OA
ATOM     26  H   UNL d   1       8.189  -1.790   0.811  0.00  0.00     0.210 HD
ENDBRANCH   1  25
TORSDOF 9
