REMARK  3 active torsions:
REMARK  status: ('A' for Active; 'I' for Inactive)
REMARK    1  A    between atoms: C_3  and  C_1 
REMARK    2  A    between atoms: C_2  and  C_12 
REMARK       I    between atoms: N_10  and  C_3 
REMARK    3  A    between atoms: C_12  and  N_10 
ROOT
ATOM      1  C   UNL d   1       1.185   5.009  -0.086  0.00  0.00    -0.004 A 
ATOM      2  C   UNL d   1       2.557   5.297   0.002  0.00  0.00     0.088 A 
ATOM      3  C   UNL d   1       3.019   6.621   0.034  0.00  0.00     0.003 A 
ATOM      4  O   UNL d   1       3.420   4.236   0.088  0.00  0.00    -0.325 OA
ATOM      5  C   UNL d   1       2.102   7.673  -0.068  0.00  0.00     0.054 A 
ATOM      6  C   UNL d   1       0.281   6.079  -0.190  0.00  0.00     0.054 A 
ATOM      7  C   UNL d   1       0.746   7.391  -0.179  0.00  0.00     0.117 A 
ATOM      8  O   UNL d   1       5.172   5.754   0.646  0.00  0.00    -0.362 OA
ATOM      9  C   UNL d   1       4.788   4.603  -0.092  0.00  0.00     0.345 C 
ATOM     10  C   UNL d   1       4.488   6.895   0.144  0.00  0.00     0.212 C 
ATOM     11  F   UNL d   1      -0.127   8.404  -0.270  0.00  0.00    -0.206 F 
ENDROOT
BRANCH   1  12
ATOM     12  C   UNL d   1       0.676   3.590  -0.067  0.00  0.00     0.164 C 
BRANCH  12  13
ATOM     13  N   UNL d   1       0.642   2.989  -1.383  0.00  0.00    -0.351 N 
ATOM     14  C   UNL d   1      -0.513   2.942  -2.132  0.00  0.00     0.277 C 
ATOM     15  O   UNL d   1      -1.558   3.459  -1.746  0.00  0.00    -0.265 OA
ATOM     16  H   UNL d   1       1.491   2.573  -1.747  0.00  0.00     0.163 HD
BRANCH  14  17
ATOM     17  C   UNL d   1      -0.423   2.232  -3.388  0.00  0.00     0.167 A 
ATOM     18  O   UNL d   1       0.742   1.623  -3.756  0.00  0.00    -0.233 OA
ATOM     19  N   UNL d   1       0.569   1.000  -4.986  0.00  0.00    -0.272 N 
ATOM     20  C   UNL d   1      -0.697   1.247  -5.333  0.00  0.00     0.117 A 
ATOM     21  HN  UNL d   1       1.262   0.467  -5.512  1.00  0.00     0.194 HD
ATOM     22  C   UNL d   1      -1.366   2.014  -4.368  0.00  0.00     0.064 A 
ENDBRANCH  14  17
ENDBRANCH  12  13
ENDBRANCH   1  12
TORSDOF 3
