REMARK  3 active torsions:
REMARK  status: ('A' for Active; 'I' for Inactive)
REMARK    1  A    between atoms: N_5  and  C_1 
REMARK    2  A    between atoms: N_2  and  N_5 
REMARK    3  A    between atoms: C_8  and  C_7 
ROOT
ATOM      1  N   UNL d   1      -1.097   1.390  -0.680  0.00  0.00    -0.309 N 
ATOM      2  HN  UNL d   1      -1.569   1.531   0.214  1.00  0.00     0.186 HD
ATOM      3  C   UNL d   1      -1.744   1.308  -1.797  0.00  0.00     0.118 C 
ENDROOT
BRANCH   1   4
ATOM      4  N   UNL d   1       0.260   1.276  -0.775  0.00  0.00    -0.277 N 
ATOM      5  H   UNL d   1       0.710   1.142  -1.675  0.00  0.00     0.189 HD
BRANCH   4   6
ATOM      6  C   UNL d   1       1.046   1.354   0.343  0.00  0.00     0.184 C 
ATOM      7  S   UNL d   1       2.698   1.236   0.284  0.00  0.00    -0.040 SA
ATOM      8  N   UNL d   1       0.377   1.537   1.507  0.00  0.00    -0.375 N 
ATOM      9  H   UNL d   1       0.852   1.608   2.393  0.00  0.00     0.158 HD
ATOM     10  H   UNL d   1      -0.632   1.596   1.446  0.00  0.00     0.158 HD
ENDBRANCH   4   6
ENDBRANCH   1   4
BRANCH   3  11
ATOM     11  C   UNL d   1      -3.216   1.421  -1.835  0.00  0.00    -0.019 A 
ATOM     12  C   UNL d   1      -3.941   1.623  -0.656  0.00  0.00     0.013 A 
ATOM     13  C   UNL d   1      -5.330   1.733  -0.704  0.00  0.00     0.001 A 
ATOM     14  C   UNL d   1      -5.993   1.641  -1.927  0.00  0.00     0.000 A 
ATOM     15  C   UNL d   1      -5.270   1.439  -3.104  0.00  0.00     0.001 A 
ATOM     16  C   UNL d   1      -3.878   1.328  -3.062  0.00  0.00     0.013 A 
ENDBRANCH   3  11
TORSDOF 3
