REMARK  5 active torsions:
REMARK  status: ('A' for Active; 'I' for Inactive)
REMARK    1  A    between atoms: C_11  and  C_4 
REMARK    2  A    between atoms: C_15  and  C_7 
REMARK    3  A    between atoms: O_14  and  C_11 
REMARK    4  A    between atoms: C_18  and  O_14 
REMARK    5  A    between atoms: C_19  and  C_15 
ROOT
ATOM      1  C   UNL d   1       1.277  -0.603  -0.041  0.00  0.00     0.097 A 
ATOM      2  C   UNL d   1       1.226   0.786   0.000  0.00  0.00     0.049 A 
ATOM      3  O   UNL d   1       2.471  -1.275  -0.095  0.00  0.00    -0.303 OA
ATOM      4  C   UNL d   1       3.657  -0.564  -0.079  0.00  0.00     0.154 A 
ATOM      5  C   UNL d   1       3.733   0.774  -0.028  0.00  0.00     0.099 A 
ATOM      6  C   UNL d   1       2.486   1.549   0.019  0.00  0.00     0.187 A 
ATOM      7  C   UNL d   1       0.093  -1.375  -0.037  0.00  0.00    -0.016 A 
ATOM      8  C   UNL d   1       0.001   1.446   0.023  0.00  0.00     0.026 A 
ATOM      9  C   UNL d   1      -1.158  -0.705  -0.007  0.00  0.00    -0.043 A 
ATOM     10  C   UNL d   1      -1.194   0.712  -0.004  0.00  0.00    -0.050 A 
ATOM     11  O   UNL d   1       2.514   2.771   0.080  0.00  0.00    -0.287 OA
ATOM     12  C   UNL d   1      -2.459  -1.486  -0.040  0.00  0.00     0.040 C 
ATOM     13  C   UNL d   1      -2.494   1.484   0.035  0.00  0.00     0.039 C 
ATOM     14  C   UNL d   1      -3.687  -0.673   0.361  0.00  0.00     0.005 C 
ATOM     15  C   UNL d   1      -3.701   0.652  -0.381  0.00  0.00     0.005 C 
ENDROOT
BRANCH   4  16
ATOM     16  C   UNL d   1       4.882  -1.409  -0.077  0.00  0.00     0.317 C 
ATOM     17  O   UNL d   1       4.855  -2.600  -0.360  0.00  0.00    -0.257 OA
BRANCH  16  18
ATOM     18  O   UNL d   1       5.947  -0.740   0.425  0.00  0.00    -0.316 OA
BRANCH  18  19
ATOM     19  C   UNL d   1       6.965  -1.588   0.980  0.00  0.00     0.175 C 
ATOM     20  C   UNL d   1       6.583  -1.892   2.419  0.00  0.00     0.034 C 
ENDBRANCH  18  19
ENDBRANCH  16  18
ENDBRANCH   4  16
BRANCH   7  21
ATOM     21  C   UNL d   1       0.195  -2.893  -0.062  0.00  0.00     0.042 C 
BRANCH  21  22
ATOM     22  C   UNL d   1       0.118  -3.525  -1.456  0.00  0.00     0.000 C 
ATOM     23  C   UNL d   1       1.313  -3.208  -2.344  0.00  0.00     0.005 C 
ENDBRANCH  21  22
ENDBRANCH   7  21
TORSDOF 5
