REMARK  5 active torsions:
REMARK  status: ('A' for Active; 'I' for Inactive)
REMARK    1  A    between atoms: C_2  and  C_1 
REMARK    2  A    between atoms: C_3  and  C_1 
REMARK    3  A    between atoms: C_4  and  C_1 
REMARK    4  A    between atoms: O_6  and  C_2 
REMARK    5  A    between atoms: C_7  and  C_4 
ROOT
ATOM      1  C   UNL d   1       1.004  -0.027  -0.093  0.00  0.00     0.095 C 
ENDROOT
BRANCH   1   2
ATOM      2  C   UNL d   1       0.412   1.373  -0.277  0.00  0.00     0.144 C 
ATOM      3  O   UNL d   1       0.535   2.050  -1.283  0.00  0.00    -0.650 OA
BRANCH   2   4
ATOM      4  O   UNL d   1      -0.267   1.827   0.800  0.00  0.00    -0.776 OA
ATOM      5  H   UNL d   1      -0.199   1.265   1.594  0.00  0.00     0.167 HD
ENDBRANCH   2   4
ENDBRANCH   1   2
BRANCH   1   6
ATOM      6  C   UNL d   1       0.481  -1.058  -1.159  0.00  0.00    -0.038 C 
ATOM      7  C   UNL d   1       0.787  -0.646  -2.612  0.00  0.00     0.015 C 
ATOM      8  C   UNL d   1       1.125  -2.446  -0.929  0.00  0.00     0.015 C 
ATOM      9  C   UNL d   1      -1.043  -1.238  -0.997  0.00  0.00     0.015 C 
ENDBRANCH   1   6
BRANCH   1  10
ATOM     10  C   UNL d   1       2.538   0.104  -0.050  0.00  0.00     0.054 C 
BRANCH  10  11
ATOM     11  C   UNL d   1       3.076   0.923   1.102  0.00  0.00    -0.057 A 
ATOM     12  C   UNL d   1       2.790   0.572   2.429  0.00  0.00     0.007 A 
ATOM     13  C   UNL d   1       3.394   1.249   3.486  0.00  0.00     0.001 A 
ATOM     14  C   UNL d   1       4.293   2.284   3.230  0.00  0.00     0.000 A 
ATOM     15  C   UNL d   1       4.561   2.661   1.913  0.00  0.00     0.001 A 
ATOM     16  C   UNL d   1       3.955   1.988   0.857  0.00  0.00     0.007 A 
ENDBRANCH  10  11
ENDBRANCH   1  10
TORSDOF 5
