REMARK  8 active torsions:
REMARK  status: ('A' for Active; 'I' for Inactive)
REMARK    1  A    between atoms: C_2  and  C_1 
REMARK       I    between atoms: N_3  and  C_2 
REMARK    2  A    between atoms: C_8  and  N_3 
REMARK    3  A    between atoms: C_4  and  C_8 
REMARK    4  A    between atoms: O_12  and  C_4 
REMARK    5  A    between atoms: N_11  and  C_5 
REMARK    6  A    between atoms: C_9  and  C_14 
REMARK    7  A    between atoms: C_14  and  N_11 
REMARK    8  A    between atoms: C_16  and  O_12 
ROOT
ATOM      1  C   UNL d   1       1.264  -0.114   0.075  0.00  0.00     0.058 A 
ATOM      2  C   UNL d   1       0.457  -1.285   0.013  0.00  0.00     0.044 A 
ATOM      3  C   UNL d   1       0.640   1.152   0.054  0.00  0.00     0.019 A 
ATOM      4  C   UNL d   1      -0.940  -1.118  -0.073  0.00  0.00     0.030 A 
ATOM      5  C   UNL d   1      -0.746   1.279  -0.040  0.00  0.00     0.001 A 
ATOM      6  C   UNL d   1      -1.535   0.143  -0.109  0.00  0.00     0.002 A 
ENDROOT
BRANCH   1   7
ATOM      7  C   UNL d   1       2.767  -0.223   0.204  0.00  0.00     0.254 C 
ATOM      8  N   UNL d   1       3.487   0.953   0.243  0.00  0.00    -0.347 N 
ATOM      9  H   UNL d   1       3.067   1.849   0.041  0.00  0.00     0.163 HD
ATOM     10  O   UNL d   1       3.345  -1.307   0.262  0.00  0.00    -0.268 OA
BRANCH   8  11
ATOM     11  C   UNL d   1       4.924   0.980   0.458  0.00  0.00     0.233 C 
BRANCH  11  12
ATOM     12  C   UNL d   1       5.411   2.401   0.219  0.00  0.00     0.276 C 
ATOM     13  O   UNL d   1       4.677   3.328  -0.108  0.00  0.00    -0.263 OA
BRANCH  12  14
ATOM     14  O   UNL d   1       6.760   2.480   0.381  0.00  0.00    -0.321 OA
BRANCH  14  15
ATOM     15  C   UNL d   1       7.353   3.724  -0.023  0.00  0.00     0.174 C 
ATOM     16  C   UNL d   1       7.685   3.649  -1.502  0.00  0.00     0.034 C 
ENDBRANCH  14  15
ENDBRANCH  12  14
ENDBRANCH  11  12
ENDBRANCH   8  11
ENDBRANCH   1   7
BRANCH   2  17
ATOM     17  N   UNL d   1       1.010  -2.552   0.156  0.00  0.00    -0.386 N 
ATOM     18  H   UNL d   1       2.001  -2.611  -0.087  0.00  0.00     0.160 HD
BRANCH  17  19
ATOM     19  C   UNL d   1       0.262  -3.780   0.269  0.00  0.00     0.146 C 
BRANCH  19  20
ATOM     20  C   UNL d   1       1.147  -4.956   0.581  0.00  0.00    -0.018 C 
ATOM     21  C   UNL d   1       2.445  -4.968   0.925  0.00  0.00     0.008 C 
ENDBRANCH  19  20
ENDBRANCH  17  19
ENDBRANCH   2  17
TORSDOF 8
