REMARK  2 active torsions:
REMARK  status: ('A' for Active; 'I' for Inactive)
REMARK    1  A    between atoms: C_9  and  O_11 
REMARK       I    between atoms: N_14  and  C_9 
REMARK    2  A    between atoms: O_11  and  C_10 
ROOT
ATOM      1  C   UNL d   1       0.291  -0.557   0.097  0.00  0.00     0.136 A 
ATOM      2  C   UNL d   1       0.446   0.812  -0.098  0.00  0.00     0.039 A 
ATOM      3  N   UNL d   1       1.558  -1.065   0.189  0.00  0.00    -0.280 N 
ATOM      4  N   UNL d   1       2.525  -0.124   0.173  0.00  0.00    -0.301 N 
ATOM      5  HN  UNL d   1       3.533  -0.256   0.257  1.00  0.00     0.187 HD
ATOM      6  C   UNL d   1       1.851   1.025   0.023  0.00  0.00     0.036 A 
ATOM      7  N   UNL d   1      -0.863  -1.251   0.177  0.00  0.00    -0.321 N 
ATOM      8  HN  UNL d   1      -0.903  -2.261   0.314  1.00  0.00     0.169 HD
ATOM      9  C   UNL d   1      -1.962  -0.474   0.058  0.00  0.00     0.155 A 
ATOM     10  C   UNL d   1      -0.717   1.577  -0.325  0.00  0.00    -0.042 A 
ATOM     11  C   UNL d   1      -1.939   0.883  -0.249  0.00  0.00     0.064 A 
ATOM     12  C   UNL d   1       1.931  -2.454   0.273  0.00  0.00     0.179 C 
ATOM     13  C   UNL d   1       2.603   2.304   0.018  0.00  0.00     0.070 C 
ATOM     14  C   UNL d   1      -0.744   3.056  -0.579  0.00  0.00     0.049 C 
ENDROOT
BRANCH   9  15
ATOM     15  O   UNL d   1      -3.170  -1.188   0.221  0.00  0.00    -0.244 OA
BRANCH  15  16
ATOM     16  C   UNL d   1      -4.310  -0.591   0.758  0.00  0.00     0.368 C 
ATOM     17  N   UNL d   1      -5.362  -1.485   0.915  0.00  0.00    -0.336 N 
ATOM     18  C   UNL d   1      -5.225  -2.923   0.750  0.00  0.00     0.154 C 
ATOM     19  C   UNL d   1      -6.675  -0.986   1.277  0.00  0.00     0.154 C 
ATOM     20  O   UNL d   1      -4.403   0.595   1.053  0.00  0.00    -0.238 OA
ENDBRANCH  15  16
ENDBRANCH   9  15
TORSDOF 2
