REMARK  7 active torsions:
REMARK  status: ('A' for Active; 'I' for Inactive)
REMARK    1  A    between atoms: C_2  and  S_1 
REMARK    2  A    between atoms: C_3  and  S_1 
REMARK    3  A    between atoms: C_4  and  C_3 
REMARK    4  A    between atoms: N_17  and  C_4 
REMARK    5  A    between atoms: C_5  and  O_13 
REMARK       I    between atoms: N_11  and  C_5 
REMARK    6  A    between atoms: O_13  and  N_6 
REMARK    7  A    between atoms: C_18  and  N_11 
ROOT
ATOM      1  C   UNL d   1       0.941  -1.729   1.856  0.00  0.00     0.090 C 
ATOM      2  N   UNL d   1       1.385  -2.668   1.067  0.00  0.00    -0.248 N 
ATOM      3  HN  UNL d   1       1.669  -3.605   1.354  1.00  0.00     0.196 HD
ENDROOT
BRANCH   1   4
ATOM      4  C   UNL d   1       0.852  -2.011   3.333  0.00  0.00     0.217 C 
BRANCH   4   5
ATOM      5  S   UNL d   1      -0.788  -2.481   3.783  0.00  0.00     0.188 S 
ATOM      6  O   UNL d   1      -0.826  -2.745   5.208  0.00  0.00    -0.222 OA
ATOM      7  O   UNL d   1      -1.723  -1.549   3.175  0.00  0.00    -0.222 OA
BRANCH   5   8
ATOM      8  C   UNL d   1      -1.112  -4.043   3.004  0.00  0.00     0.100 A 
ATOM      9  S   UNL d   1      -0.022  -5.315   3.358  0.00  0.00    -0.090 SA
ATOM     10  C   UNL d   1      -0.897  -6.422   2.392  0.00  0.00     0.051 A 
ATOM     11  C   UNL d   1      -2.003  -5.840   1.813  0.00  0.00     0.009 A 
ATOM     12  C   UNL d   1      -2.127  -4.465   2.168  0.00  0.00     0.031 A 
ENDBRANCH   5   8
ENDBRANCH   4   5
ENDBRANCH   1   4
BRANCH   1  13
ATOM     13  N   UNL d   1       0.578  -0.472   1.421  0.00  0.00    -0.290 NA
ATOM     14  H   UNL d   1      -0.194  -0.020   1.909  0.00  0.00     0.125 HD
ATOM     15  H   UNL d   1       0.477  -0.405   0.410  0.00  0.00     0.125 HD
ENDBRANCH   1  13
BRANCH   2  16
ATOM     16  O   UNL d   1       1.406  -2.164  -0.259  0.00  0.00    -0.180 OA
BRANCH  16  17
ATOM     17  C   UNL d   1       1.907  -3.036  -1.204  0.00  0.00     0.387 C 
ATOM     18  N   UNL d   1       2.279  -4.264  -0.708  0.00  0.00    -0.301 N 
ATOM     19  H   UNL d   1       2.124  -4.345   0.289  0.00  0.00     0.171 HD
ATOM     20  O   UNL d   1       1.968  -2.670  -2.371  0.00  0.00    -0.236 OA
BRANCH  18  21
ATOM     21  C   UNL d   1       2.774  -5.368  -1.429  0.00  0.00     0.036 A 
ATOM     22  C   UNL d   1       3.020  -5.345  -2.807  0.00  0.00     0.029 A 
ATOM     23  C   UNL d   1       3.479  -6.486  -3.473  0.00  0.00     0.002 A 
ATOM     24  C   UNL d   1       3.703  -7.664  -2.767  0.00  0.00     0.000 A 
ATOM     25  C   UNL d   1       3.479  -7.696  -1.393  0.00  0.00     0.002 A 
ATOM     26  C   UNL d   1       3.021  -6.553  -0.726  0.00  0.00     0.029 A 
ENDBRANCH  18  21
ENDBRANCH  16  17
ENDBRANCH   2  16
TORSDOF 7
