REMARK  4 active torsions:
REMARK  status: ('A' for Active; 'I' for Inactive)
REMARK    1  A    between atoms: C_7  and  C_1 
REMARK    2  A    between atoms: C_8  and  C_6 
REMARK    3  A    between atoms: C_16  and  C_10 
REMARK    4  A    between atoms: S_22  and  C_13 
ROOT
ATOM      1  C   UNL d   1       2.466   1.723  -0.075  0.00  0.00     0.034 A 
ATOM      2  S   UNL d   1       2.790   2.985   1.026  0.00  0.00    -0.086 SA
ATOM      3  C   UNL d   1       4.281   3.375   0.265  0.00  0.00     0.032 A 
ATOM      4  C   UNL d   1       3.411   1.670  -1.077  0.00  0.00     0.023 A 
ATOM      5  C   UNL d   1       4.437   2.644  -0.900  0.00  0.00     0.023 A 
ENDROOT
BRANCH   1   6
ATOM      6  C   UNL d   1       1.320   0.767   0.043  0.00  0.00     0.067 A 
ATOM      7  C   UNL d   1       0.254   0.828   0.960  0.00  0.00     0.068 A 
ATOM      8  C   UNL d   1      -0.522  -0.292   0.715  0.00  0.00     0.136 A 
ATOM      9  N   UNL d   1       0.132  -0.972  -0.276  0.00  0.00    -0.292 N 
ATOM     10  N   UNL d   1       1.218  -0.316  -0.734  0.00  0.00    -0.297 N 
ATOM     11  C   UNL d   1      -0.117  -2.274  -0.852  0.00  0.00     0.178 C 
ATOM     12  HN  UNL d   1       1.827  -0.587  -1.506  1.00  0.00     0.187 HD
BRANCH   8  13
ATOM     13  C   UNL d   1      -1.772  -0.711   1.380  0.00  0.00     0.434 C 
ATOM     14  F   UNL d   1      -2.371  -1.789   0.822  0.00  0.00    -0.165 F 
ATOM     15  F   UNL d   1      -1.554  -1.016   2.683  0.00  0.00    -0.165 F 
ATOM     16  F   UNL d   1      -2.691   0.288   1.362  0.00  0.00    -0.165 F 
ENDBRANCH   8  13
ENDBRANCH   1   6
BRANCH   3  17
ATOM     17  C   UNL d   1       5.200   4.361   0.847  0.00  0.00     0.052 A 
ATOM     18  N   UNL d   1       5.931   5.048  -0.059  0.00  0.00    -0.336 N 
ATOM     19  C   UNL d   1       6.841   5.898   0.436  0.00  0.00     0.141 A 
ATOM     20  HN  UNL d   1       5.798   4.926  -1.062  1.00  0.00     0.168 HD
ATOM     21  N   UNL d   1       7.090   6.098   1.739  0.00  0.00    -0.347 N 
ATOM     22  C   UNL d   1       6.344   5.388   2.601  0.00  0.00     0.092 A 
ATOM     23  HN  UNL d   1       7.806   6.752   2.057  1.00  0.00     0.167 HD
ATOM     24  C   UNL d   1       5.374   4.500   2.209  0.00  0.00     0.048 A 
BRANCH  19  25
ATOM     25  S   UNL d   1       7.791   6.821  -0.733  0.00  0.00    -0.107 SA
ATOM     26  H   UNL d   1       7.090   6.379  -1.783  0.00  0.00     0.110 HD
ENDBRANCH  19  25
ENDBRANCH   3  17
TORSDOF 4
