REMARK  4 active torsions:
REMARK  status: ('A' for Active; 'I' for Inactive)
REMARK    1  A    between atoms: N_2  and  S_1 
REMARK    2  A    between atoms: C_5  and  S_1 
REMARK       I    between atoms: C_4  and  N_2 
REMARK    3  A    between atoms: C_7  and  C_4 
REMARK    4  A    between atoms: C_8  and  C_9 
ROOT
ATOM      1  N   UNL d   1      -0.315  -0.684   3.221  0.00  0.00    -0.279 N 
ATOM      2  HN  UNL d   1      -0.226  -0.976   4.195  1.00  0.00     0.179 HD
ATOM      3  C   UNL d   1       0.747  -0.004   2.592  0.00  0.00     0.262 C 
ATOM      4  O   UNL d   1       0.550   0.934   1.823  0.00  0.00    -0.267 OA
ENDROOT
BRANCH   1   5
ATOM      5  S   UNL d   1      -1.611  -0.989   2.440  0.00  0.00     0.055 S 
ATOM      6  O   UNL d   1      -1.641  -1.633   1.143  0.00  0.00    -0.245 OA
ATOM      7  C   UNL d   1      -2.591   0.493   2.339  0.00  0.00     0.142 C 
BRANCH   5   8
ATOM      8  C   UNL d   1      -2.635  -1.979   3.518  0.00  0.00     0.038 A 
ATOM      9  C   UNL d   1      -2.523  -1.849   4.903  0.00  0.00     0.022 A 
ATOM     10  C   UNL d   1      -3.424  -2.520   5.730  0.00  0.00     0.008 A 
ATOM     11  C   UNL d   1      -4.436  -3.321   5.179  0.00  0.00    -0.062 A 
ATOM     12  C   UNL d   1      -4.511  -3.473   3.788  0.00  0.00     0.008 A 
ATOM     13  C   UNL d   1      -5.435  -3.983   6.080  0.00  0.00     0.048 C 
ATOM     14  C   UNL d   1      -3.610  -2.808   2.955  0.00  0.00     0.022 A 
ENDBRANCH   5   8
ENDBRANCH   1   5
BRANCH   3  15
ATOM     15  C   UNL d   1       2.172  -0.350   2.919  0.00  0.00     0.032 A 
ATOM     16  C   UNL d   1       3.227   0.285   2.258  0.00  0.00     0.017 A 
ATOM     17  C   UNL d   1       4.551  -0.118   2.486  0.00  0.00     0.009 A 
ATOM     18  C   UNL d   1       4.860  -1.159   3.385  0.00  0.00    -0.051 A 
ATOM     19  C   UNL d   1       3.787  -1.741   4.082  0.00  0.00     0.009 A 
ATOM     20  C   UNL d   1       2.462  -1.348   3.853  0.00  0.00     0.017 A 
BRANCH  18  21
ATOM     21  C   UNL d   1       6.313  -1.651   3.546  0.00  0.00    -0.024 C 
ATOM     22  C   UNL d   1       6.462  -2.773   4.598  0.00  0.00     0.019 C 
ATOM     23  C   UNL d   1       6.822  -2.216   2.201  0.00  0.00     0.019 C 
ATOM     24  C   UNL d   1       7.239  -0.494   3.975  0.00  0.00     0.019 C 
ENDBRANCH  18  21
ENDBRANCH   3  15
TORSDOF 4
