REMARK  3 active torsions:
REMARK  status: ('A' for Active; 'I' for Inactive)
REMARK    1  A    between atoms: N_2  and  C_1 
REMARK    2  A    between atoms: N_8  and  C_3 
REMARK    3  A    between atoms: N_9  and  C_4 
ROOT
ATOM      1  C   UNL d   1       1.592  -1.202   0.079  0.00  0.00     0.131 A 
ATOM      2  C   UNL d   1       2.404  -0.057   0.059  0.00  0.00     0.066 A 
ATOM      3  C   UNL d   1       0.271   1.294  -0.015  0.00  0.00     0.053 A 
ATOM      4  C   UNL d   1      -0.466   0.096  -0.007  0.00  0.00     0.073 A 
ATOM      5  C   UNL d   1       1.683   1.165   0.009  0.00  0.00     0.062 A 
ATOM      6  C   UNL d   1       0.188  -1.141   0.040  0.00  0.00     0.063 A 
ATOM      7  C   UNL d   1      -1.902   0.074  -0.096  0.00  0.00     0.102 C 
ATOM      8  N   UNL d   1      -3.057   0.005  -0.152  0.00  0.00    -0.191 NA
ENDROOT
BRANCH   3   9
ATOM      9  N   UNL d   1      -0.344   2.545  -0.040  0.00  0.00    -0.380 N 
ATOM     10  C   UNL d   1       0.308   3.756  -0.559  0.00  0.00     0.123 C 
ATOM     11  C   UNL d   1       0.151   4.785   0.552  0.00  0.00     0.021 C 
ATOM     12  C   UNL d   1      -1.191   4.426   1.159  0.00  0.00     0.021 C 
ATOM     13  C   UNL d   1      -1.217   2.899   1.099  0.00  0.00     0.123 C 
ENDBRANCH   3   9
BRANCH   1  14
ATOM     14  N   UNL d   1       2.144  -2.543   0.103  0.00  0.00    -0.113 N 
ATOM     15  O   UNL d   1       2.810  -2.916  -0.871  0.00  0.00    -0.532 OA
ATOM     16  O   UNL d   1       1.855  -3.245   1.085  0.00  0.00    -0.532 OA
ENDBRANCH   1  14
BRANCH   2  17
ATOM     17  N   UNL d   1       3.781  -0.026   0.119  0.00  0.00    -0.379 N 
ATOM     18  C   UNL d   1       4.628  -1.018   0.783  0.00  0.00     0.123 C 
ATOM     19  C   UNL d   1       5.852  -0.209   1.193  0.00  0.00     0.021 C 
ATOM     20  C   UNL d   1       6.032   0.745   0.026  0.00  0.00     0.021 C 
ATOM     21  C   UNL d   1       4.602   1.075  -0.404  0.00  0.00     0.123 C 
ENDBRANCH   2  17
TORSDOF 3
