REMARK  9 active torsions:
REMARK  status: ('A' for Active; 'I' for Inactive)
REMARK    1  A    between atoms: O_6  and  S_1 
REMARK    2  A    between atoms: C_7  and  S_1 
REMARK       I    between atoms: C_2  and  N_4 
REMARK    3  A    between atoms: O_11  and  C_2 
REMARK    4  A    between atoms: C_3  and  C_8 
REMARK    5  A    between atoms: N_4  and  C_3 
REMARK    6  A    between atoms: C_5  and  C_3 
REMARK    7  A    between atoms: O_17  and  C_5 
REMARK    8  A    between atoms: C_8  and  O_6 
REMARK    9  A    between atoms: C_14  and  O_11 
ROOT
ATOM      1  C   UNL d   1       0.083  -3.331   1.654  0.00  0.00     0.211 C 
ENDROOT
BRANCH   1   2
ATOM      2  C   UNL d   1       0.274  -2.628   0.301  0.00  0.00     0.226 C 
BRANCH   2   3
ATOM      3  O   UNL d   1       0.145  -1.207   0.414  0.00  0.00    -0.269 OA
BRANCH   3   4
ATOM      4  S   UNL d   1       1.391  -0.374   1.060  0.00  0.00     0.298 S 
ATOM      5  O   UNL d   1       2.576  -0.647   0.274  0.00  0.00    -0.193 OA
ATOM      6  O   UNL d   1       1.367  -0.603   2.492  0.00  0.00    -0.193 OA
BRANCH   4   7
ATOM      7  C   UNL d   1       0.999   1.338   0.822  0.00  0.00     0.086 A 
ATOM      8  C   UNL d   1      -0.049   1.730  -0.013  0.00  0.00     0.026 A 
ATOM      9  C   UNL d   1      -0.373   3.087  -0.107  0.00  0.00     0.008 A 
ATOM     10  C   UNL d   1       0.340   4.046   0.627  0.00  0.00    -0.062 A 
ATOM     11  C   UNL d   1       1.403   3.638   1.443  0.00  0.00     0.008 A 
ATOM     12  C   UNL d   1      -0.059   5.492   0.559  0.00  0.00     0.048 C 
ATOM     13  C   UNL d   1       1.733   2.286   1.543  0.00  0.00     0.026 A 
ENDBRANCH   4   7
ENDBRANCH   3   4
ENDBRANCH   2   3
ENDBRANCH   1   2
BRANCH   1  14
ATOM     14  N   UNL d   1      -1.191  -3.028   2.300  0.00  0.00    -0.321 N 
ATOM     15  C   UNL d   1      -2.409  -3.240   1.738  0.00  0.00     0.362 C 
ATOM     16  O   UNL d   1      -2.600  -3.809   0.672  0.00  0.00    -0.238 OA
ATOM     17  H   UNL d   1      -1.195  -2.521   3.175  0.00  0.00     0.165 HD
BRANCH  15  18
ATOM     18  O   UNL d   1      -3.347  -2.700   2.542  0.00  0.00    -0.294 OA
BRANCH  18  19
ATOM     19  C   UNL d   1      -4.765  -2.753   2.218  0.00  0.00     0.061 C 
ATOM     20  C   UNL d   1      -5.267  -4.200   2.169  0.00  0.00     0.046 C 
ATOM     21  C   UNL d   1      -5.455  -2.022   3.383  0.00  0.00     0.046 C 
ATOM     22  C   UNL d   1      -5.064  -2.003   0.916  0.00  0.00     0.046 C 
ENDBRANCH  18  19
ENDBRANCH  15  18
ENDBRANCH   1  14
BRANCH   1  23
ATOM     23  C   UNL d   1       0.449  -4.817   1.565  0.00  0.00     0.283 C 
ATOM     24  O   UNL d   1       1.278  -5.270   0.783  0.00  0.00    -0.263 OA
BRANCH  23  25
ATOM     25  O   UNL d   1      -0.091  -5.522   2.602  0.00  0.00    -0.325 OA
ATOM     26  C   UNL d   1       0.451  -6.835   2.753  0.00  0.00     0.213 C 
ENDBRANCH  23  25
ENDBRANCH   1  23
TORSDOF 9
