REMARK  7 active torsions:
REMARK  status: ('A' for Active; 'I' for Inactive)
REMARK    1  A    between atoms: C_2  and  S_1 
REMARK    2  A    between atoms: N_4  and  S_1 
REMARK    3  A    between atoms: C_8  and  C_3 
REMARK    4  A    between atoms: C_13  and  N_4 
REMARK    5  A    between atoms: S_5  and  C_6 
REMARK    6  A    between atoms: C_7  and  S_5 
REMARK    7  A    between atoms: O_12  and  C_8 
ROOT
ATOM      1  C   UNL d   1      -0.062   0.264   1.615  0.00  0.00     0.096 A 
ATOM      2  C   UNL d   1      -0.165  -0.953   2.318  0.00  0.00     0.029 A 
ATOM      3  C   UNL d   1      -0.108   1.490   2.306  0.00  0.00     0.027 A 
ATOM      4  C   UNL d   1      -0.282  -0.896   3.717  0.00  0.00     0.020 A 
ATOM      5  C   UNL d   1      -0.243   1.516   3.688  0.00  0.00     0.002 A 
ATOM      6  C   UNL d   1      -0.333   0.324   4.396  0.00  0.00     0.001 A 
ENDROOT
BRANCH   1   7
ATOM      7  S   UNL d   1       0.122   0.321  -0.148  0.00  0.00     0.260 S 
ATOM      8  O   UNL d   1       0.351   1.694  -0.548  0.00  0.00    -0.200 OA
ATOM      9  O   UNL d   1      -0.961  -0.456  -0.709  0.00  0.00    -0.200 OA
BRANCH   7  10
ATOM     10  N   UNL d   1       1.538  -0.545  -0.405  0.00  0.00    -0.311 N 
ATOM     11  H   UNL d   1       1.340  -1.385  -0.957  0.00  0.00     0.172 HD
BRANCH  10  12
ATOM     12  C   UNL d   1       2.808   0.147  -0.695  0.00  0.00     0.093 C 
ATOM     13  C   UNL d   1       3.818  -0.906  -1.178  0.00  0.00     0.026 C 
ATOM     14  C   UNL d   1       4.226  -1.876  -0.067  0.00  0.00     0.002 C 
ATOM     15  C   UNL d   1       4.739  -1.143   1.168  0.00  0.00     0.000 C 
ATOM     16  C   UNL d   1       3.759  -0.080   1.655  0.00  0.00     0.002 C 
ATOM     17  C   UNL d   1       3.362   0.878   0.532  0.00  0.00     0.026 C 
ENDBRANCH  10  12
ENDBRANCH   7  10
ENDBRANCH   1   7
BRANCH   2  18
ATOM     18  S   UNL d   1      -0.019  -2.599   1.615  0.00  0.00    -0.088 SA
BRANCH  18  19
ATOM     19  C   UNL d   1      -1.712  -3.045   1.211  0.00  0.00     0.022 A 
ATOM     20  C   UNL d   1      -2.113  -3.519  -0.057  0.00  0.00     0.054 A 
ATOM     21  C   UNL d   1      -3.469  -3.827  -0.283  0.00  0.00     0.020 A 
ATOM     22  C   UNL d   1      -4.412  -3.713   0.737  0.00  0.00     0.001 A 
ATOM     23  C   UNL d   1      -4.011  -3.303   2.000  0.00  0.00     0.001 A 
ATOM     24  C   UNL d   1      -2.674  -2.976   2.234  0.00  0.00     0.020 A 
BRANCH  20  25
ATOM     25  C   UNL d   1      -1.212  -3.749  -1.227  0.00  0.00     0.177 C 
ATOM     26  O   UNL d   1      -1.607  -3.724  -2.382  0.00  0.00    -0.646 OA
BRANCH  25  27
ATOM     27  O   UNL d   1       0.050  -4.123  -0.919  0.00  0.00    -0.773 OA
ATOM     28  H   UNL d   1       0.228  -4.147   0.041  0.00  0.00     0.167 HD
ENDBRANCH  25  27
ENDBRANCH  20  25
ENDBRANCH  18  19
ENDBRANCH   2  18
TORSDOF 7
