REMARK  4 active torsions:
REMARK  status: ('A' for Active; 'I' for Inactive)
REMARK    1  A    between atoms: C_3  and  S_1 
REMARK    2  A    between atoms: O_4  and  S_1 
REMARK    3  A    between atoms: S_2  and  C_3 
REMARK    4  A    between atoms: C_5  and  O_4 
ROOT
ATOM      1  O   UNL d   1       0.519  -0.305  -1.494  0.00  0.00    -0.231 OA
ENDROOT
BRANCH   1   2
ATOM      2  S   UNL d   1       0.919  -0.164   0.082  0.00  0.00     0.283 S 
ATOM      3  O   UNL d   1      -0.002  -0.988   0.840  0.00  0.00    -0.197 OA
ATOM      4  O   UNL d   1       2.354  -0.240   0.222  0.00  0.00    -0.197 OA
BRANCH   2   5
ATOM      5  C   UNL d   1       0.420   1.502   0.294  0.00  0.00     0.310 C 
BRANCH   5   6
ATOM      6  S   UNL d   1       0.709   2.070   1.936  0.00  0.00     0.156 S 
ATOM      7  O   UNL d   1       2.136   2.100   2.185  0.00  0.00    -0.227 OA
ATOM      8  O   UNL d   1      -0.057   3.299   2.071  0.00  0.00    -0.227 OA
ATOM      9  C   UNL d   1      -0.030   0.892   3.052  0.00  0.00     0.162 C 
ENDBRANCH   5   6
ENDBRANCH   2   5
ENDBRANCH   1   2
BRANCH   1  10
ATOM     10  C   UNL d   1       1.105  -1.208  -2.354  0.00  0.00     0.111 A 
ATOM     11  C   UNL d   1       1.718  -2.437  -2.062  0.00  0.00     0.070 A 
ATOM     12  C   UNL d   1       2.298  -3.194  -3.091  0.00  0.00     0.050 A 
ATOM     13 CL   UNL d   1       1.746  -3.192  -0.511  0.00  0.00    -0.081 Cl
ATOM     14  C   UNL d   1       2.218  -2.767  -4.412  0.00  0.00     0.035 A 
ATOM     15  C   UNL d   1       1.557  -1.586  -4.724  0.00  0.00     0.026 A 
ATOM     16 CL   UNL d   1       2.917  -3.719  -5.662  0.00  0.00    -0.084 Cl
ATOM     17  C   UNL d   1       1.009  -0.810  -3.700  0.00  0.00     0.041 A 
ENDBRANCH   1  10
TORSDOF 4
