REMARK  4 active torsions:
REMARK  status: ('A' for Active; 'I' for Inactive)
REMARK    1  A    between atoms: C_2  and  C_1 
REMARK    2  A    between atoms: C_9  and  C_3 
REMARK    3  A    between atoms: S_16  and  C_4 
REMARK       I    between atoms: N_12  and  C_9 
REMARK    4  A    between atoms: C_14  and  C_10 
ROOT
ATOM      1  C   UNL d   1       1.452  -0.726   0.053  0.00  0.00     0.023 A 
ATOM      2  C   UNL d   1       0.084   1.189  -0.003  0.00  0.00     0.074 A 
ATOM      3  C   UNL d   1       0.204  -1.296  -0.136  0.00  0.00     0.054 A 
ATOM      4  C   UNL d   1       1.362   0.700   0.176  0.00  0.00     0.040 A 
ATOM      5  S   UNL d   1      -0.996  -0.082  -0.364  0.00  0.00    -0.077 SA
ENDROOT
BRANCH   1   6
ATOM      6  C   UNL d   1       2.766  -1.462   0.063  0.00  0.00     0.086 A 
ATOM      7  N   UNL d   1       2.915  -2.653  -0.478  0.00  0.00    -0.349 N 
ATOM      8  C   UNL d   1       4.247  -3.026  -0.465  0.00  0.00     0.050 A 
ATOM      9  HN  UNL d   1       2.156  -3.220  -0.854  1.00  0.00     0.166 HD
ATOM     10  C   UNL d   1       5.094  -2.137   0.165  0.00  0.00     0.082 A 
ATOM     11  S   UNL d   1       4.212  -0.774   0.701  0.00  0.00    -0.081 SA
BRANCH   8  12
ATOM     12  C   UNL d   1       4.696  -4.252  -1.112  0.00  0.00    -0.009 A 
ATOM     13  C   UNL d   1       4.033  -4.715  -2.259  0.00  0.00     0.015 A 
ATOM     14  C   UNL d   1       4.456  -5.884  -2.901  0.00  0.00     0.024 A 
ATOM     15  C   UNL d   1       5.540  -6.597  -2.393  0.00  0.00     0.034 A 
ATOM     16  C   UNL d   1       6.205  -6.149  -1.254  0.00  0.00     0.024 A 
ATOM     17 CL   UNL d   1       6.059  -8.040  -3.171  0.00  0.00    -0.084 Cl
ATOM     18  C   UNL d   1       5.786  -4.982  -0.615  0.00  0.00     0.015 A 
ENDBRANCH   8  12
ENDBRANCH   1   6
BRANCH   3  19
ATOM     19  S   UNL d   1      -0.287  -2.988  -0.238  0.00  0.00    -0.126 SA
ATOM     20  C   UNL d   1       0.184  -3.619   1.390  0.00  0.00     0.096 C 
ENDBRANCH   3  19
BRANCH   2  21
ATOM     21  C   UNL d   1      -0.271   2.600  -0.099  0.00  0.00     0.260 C 
ATOM     22  N   UNL d   1      -1.450   3.079   0.463  0.00  0.00    -0.344 N 
ATOM     23  C   UNL d   1      -2.352   2.385   1.386  0.00  0.00     0.152 C 
ATOM     24  C   UNL d   1      -1.835   4.476   0.246  0.00  0.00     0.152 C 
ATOM     25  C   UNL d   1      -3.790   2.494   0.866  0.00  0.00     0.187 C 
ATOM     26  O   UNL d   1      -4.169   3.873   0.717  0.00  0.00    -0.388 OA
ATOM     27  C   UNL d   1      -3.299   4.552  -0.205  0.00  0.00     0.187 C 
ATOM     28  O   UNL d   1       0.501   3.383  -0.666  0.00  0.00    -0.267 OA
ENDBRANCH   2  21
TORSDOF 4
