REMARK  4 active torsions:
REMARK  status: ('A' for Active; 'I' for Inactive)
REMARK    1  A    between atoms: C_3  and  S_1 
REMARK    2  A    between atoms: C_8  and  S_1 
REMARK    3  A    between atoms: S_2  and  C_3 
REMARK    4  A    between atoms: C_9  and  S_2 
ROOT
ATOM      1  C   UNL d   1       0.420   1.488   0.690  0.00  0.00     0.279 C 
ENDROOT
BRANCH   1   2
ATOM      2  S   UNL d   1       1.040   1.983   2.256  0.00  0.00     0.157 S 
ATOM      3  O   UNL d   1       0.569   3.342   2.465  0.00  0.00    -0.227 OA
ATOM      4  O   UNL d   1       0.697   0.961   3.225  0.00  0.00    -0.227 OA
BRANCH   2   5
ATOM      5  C   UNL d   1       2.822   2.067   2.110  0.00  0.00     0.137 C 
ATOM      6  C   UNL d   1       3.468   2.453   3.427  0.00  0.00     0.021 C 
ENDBRANCH   2   5
ENDBRANCH   1   2
BRANCH   1   7
ATOM      7  S   UNL d   1       0.938  -0.080   0.085  0.00  0.00     0.157 S 
ATOM      8  O   UNL d   1       2.382  -0.061  -0.026  0.00  0.00    -0.227 OA
ATOM      9  O   UNL d   1       0.140  -0.336  -1.099  0.00  0.00    -0.227 OA
BRANCH   7  10
ATOM     10  C   UNL d   1       0.474  -1.302   1.309  0.00  0.00     0.137 C 
ATOM     11  C   UNL d   1       0.830  -2.705   0.856  0.00  0.00     0.021 C 
ENDBRANCH   7  10
ENDBRANCH   1   7
TORSDOF 4
