REMARK  2 active torsions:
REMARK  status: ('A' for Active; 'I' for Inactive)
REMARK    1  A    between atoms: C_9  and  C_1 
REMARK    2  A    between atoms: N_11  and  C_5 
ROOT
ATOM      1  C   UNL d   1      -1.202   1.119   0.008  0.00  0.00     0.047 A 
ATOM      2  N   UNL d   1      -0.082  -1.003  -0.083  0.00  0.00    -0.336 N 
ATOM      3  HN  UNL d   1      -0.114  -2.022  -0.102  1.00  0.00     0.168 HD
ATOM      4  C   UNL d   1      -1.223  -0.267  -0.017  0.00  0.00     0.023 A 
ATOM      5  C   UNL d   1       1.082  -0.350  -0.123  0.00  0.00     0.154 A 
ATOM      6  N   UNL d   1       1.208   0.975  -0.055  0.00  0.00    -0.342 N 
ATOM      7  HN  UNL d   1       2.121   1.429  -0.051  1.00  0.00     0.167 HD
ATOM      8  C   UNL d   1       0.059   1.682   0.009  0.00  0.00     0.107 A 
ATOM      9  C   UNL d   1      -2.491  -1.070   0.008  0.00  0.00     0.069 C 
ENDROOT
BRANCH   1  10
ATOM     10  C   UNL d   1      -2.424   1.960   0.052  0.00  0.00     0.159 C 
ATOM     11  O   UNL d   1      -3.455   1.520   0.553  0.00  0.00    -0.293 OA
ATOM     12  C   UNL d   1      -2.393   3.354  -0.525  0.00  0.00     0.097 C 
ENDBRANCH   1  10
BRANCH   5  13
ATOM     13  N   UNL d   1       2.233  -1.102  -0.198  0.00  0.00    -0.274 NA
ATOM     14  H   UNL d   1       3.010  -0.588   0.193  0.00  0.00     0.127 HD
ATOM     15  H   UNL d   1       2.060  -2.030   0.163  0.00  0.00     0.127 HD
ENDBRANCH   5  13
TORSDOF 2
