REMARK  9 active torsions:
REMARK  status: ('A' for Active; 'I' for Inactive)
REMARK    1  A    between atoms: N_3  and  C_1 
REMARK       I    between atoms: C_9  and  N_3 
REMARK    2  A    between atoms: S_13  and  C_4 
REMARK    3  A    between atoms: C_12  and  C_9 
REMARK    4  A    between atoms: C_10  and  C_15 
REMARK    5  A    between atoms: C_11  and  C_10 
REMARK    6  A    between atoms: O_24  and  C_11 
REMARK    7  A    between atoms: C_20  and  S_13 
REMARK    8  A    between atoms: C_15  and  C_20 
REMARK    9  A    between atoms: C_26  and  O_24 
ROOT
ATOM      1  C   UNL d   1       0.035   1.164   0.089  0.00  0.00     0.168 C 
ATOM      2  S   UNL d   1       1.165  -0.030   0.529  0.00  0.00    -0.026 SA
ATOM      3  C   UNL d   1       0.150  -1.169  -0.246  0.00  0.00     0.130 C 
ATOM      4  N   UNL d   1      -1.124   0.678  -0.296  0.00  0.00    -0.278 N 
ATOM      5  HN  UNL d   1      -1.970   1.235  -0.414  1.00  0.00     0.189 HD
ATOM      6  N   UNL d   1      -1.047  -0.691  -0.523  0.00  0.00    -0.286 N 
ATOM      7  HN  UNL d   1      -1.824  -1.258  -0.863  1.00  0.00     0.188 HD
ENDROOT
BRANCH   1   8
ATOM      8  N   UNL d   1       0.318   2.510   0.161  0.00  0.00    -0.302 N 
ATOM      9  C   UNL d   1       1.600   3.024   0.167  0.00  0.00     0.257 C 
ATOM     10  O   UNL d   1       2.643   2.381   0.133  0.00  0.00    -0.267 OA
ATOM     11  H   UNL d   1      -0.465   3.103  -0.074  0.00  0.00     0.171 HD
BRANCH   9  12
ATOM     12  C   UNL d   1       1.722   4.509   0.165  0.00  0.00     0.032 A 
ATOM     13  C   UNL d   1       0.745   5.346   0.716  0.00  0.00     0.018 A 
ATOM     14  C   UNL d   1       0.974   6.724   0.789  0.00  0.00     0.025 A 
ATOM     15  C   UNL d   1       2.172   7.263   0.316  0.00  0.00     0.034 A 
ATOM     16  C   UNL d   1       3.138   6.441  -0.257  0.00  0.00     0.025 A 
ATOM     17 CL   UNL d   1       2.471   8.949   0.473  0.00  0.00    -0.084 Cl
ATOM     18  C   UNL d   1       2.912   5.066  -0.333  0.00  0.00     0.018 A 
ENDBRANCH   9  12
ENDBRANCH   1   8
BRANCH   3  19
ATOM     19  S   UNL d   1       0.614  -2.806  -0.678  0.00  0.00    -0.096 SA
BRANCH  19  20
ATOM     20  C   UNL d   1       2.425  -2.716  -0.569  0.00  0.00     0.160 C 
BRANCH  20  21
ATOM     21  C   UNL d   1       3.072  -3.844  -1.340  0.00  0.00     0.145 C 
ATOM     22  O   UNL d   1       3.488  -3.659  -2.493  0.00  0.00    -0.297 OA
BRANCH  21  23
ATOM     23  C   UNL d   1       3.142  -5.216  -0.727  0.00  0.00     0.190 C 
BRANCH  23  24
ATOM     24  C   UNL d   1       3.919  -5.285   0.552  0.00  0.00     0.265 C 
ATOM     25  O   UNL d   1       4.359  -4.325   1.164  0.00  0.00    -0.265 OA
BRANCH  24  26
ATOM     26  O   UNL d   1       4.036  -6.585   0.944  0.00  0.00    -0.322 OA
BRANCH  26  27
ATOM     27  C   UNL d   1       4.708  -6.815   2.192  0.00  0.00     0.174 C 
ATOM     28  C   UNL d   1       6.212  -6.852   1.996  0.00  0.00     0.034 C 
ENDBRANCH  26  27
ENDBRANCH  24  26
ENDBRANCH  23  24
ENDBRANCH  21  23
ENDBRANCH  20  21
ENDBRANCH  19  20
ENDBRANCH   3  19
TORSDOF 9
