REMARK  5 active torsions:
REMARK  status: ('A' for Active; 'I' for Inactive)
REMARK    1  A    between atoms: C_2  and  C_1 
REMARK       I    between atoms: N_5  and  C_2 
REMARK    2  A    between atoms: O_9  and  C_3 
REMARK    3  A    between atoms: C_4  and  C_7 
REMARK    4  A    between atoms: C_6  and  N_5 
REMARK    5  A    between atoms: C_17  and  O_9 
ROOT
ATOM      1  C   UNL d   1      -1.288  -0.774  -0.088  0.00  0.00     0.152 A 
ATOM      2  C   UNL d   1       0.091  -0.616  -0.256  0.00  0.00     0.180 A 
ATOM      3  N   UNL d   1      -2.084   0.254   0.335  0.00  0.00    -0.357 N 
ATOM      4  HN  UNL d   1      -3.079   0.132   0.521  1.00  0.00     0.165 HD
ATOM      5  N   UNL d   1       0.708   0.587  -0.076  0.00  0.00    -0.343 N 
ATOM      6  HN  UNL d   1       1.713   0.707  -0.204  1.00  0.00     0.167 HD
ATOM      7  C   UNL d   1      -1.458   1.444   0.489  0.00  0.00     0.105 A 
ATOM      8  C   UNL d   1      -0.097   1.609   0.283  0.00  0.00     0.107 A 
ENDROOT
BRANCH   1   9
ATOM      9  C   UNL d   1      -1.919  -2.113  -0.265  0.00  0.00     0.277 C 
ATOM     10  N   UNL d   1      -3.234  -2.343  -0.605  0.00  0.00    -0.319 N 
ATOM     11  H   UNL d   1      -3.432  -3.325  -0.441  0.00  0.00     0.169 HD
ATOM     12  O   UNL d   1      -1.259  -3.127  -0.015  0.00  0.00    -0.266 OA
BRANCH  10  13
ATOM     13  C   UNL d   1      -4.321  -1.585  -1.072  0.00  0.00     0.074 A 
ATOM     14  C   UNL d   1      -4.279  -0.318  -1.663  0.00  0.00     0.146 A 
ATOM     15  C   UNL d   1      -5.452   0.343  -2.034  0.00  0.00     0.086 A 
ATOM     16  F   UNL d   1      -3.118   0.263  -1.995  0.00  0.00    -0.204 F 
ATOM     17  C   UNL d   1      -6.676  -0.291  -1.874  0.00  0.00     0.119 A 
ATOM     18  C   UNL d   1      -6.747  -1.580  -1.368  0.00  0.00     0.044 A 
ATOM     19  F   UNL d   1      -7.803   0.335  -2.239  0.00  0.00    -0.206 F 
ATOM     20  C   UNL d   1      -5.572  -2.222  -0.973  0.00  0.00     0.036 A 
ENDBRANCH  10  13
ENDBRANCH   1   9
BRANCH   2  21
ATOM     21  O   UNL d   1       0.880  -1.727  -0.521  0.00  0.00    -0.291 OA
BRANCH  21  22
ATOM     22  C   UNL d   1       2.095  -1.503  -1.114  0.00  0.00     0.078 A 
ATOM     23  C   UNL d   1       3.261  -1.596  -0.351  0.00  0.00     0.053 A 
ATOM     24  C   UNL d   1       4.516  -1.462  -0.968  0.00  0.00     0.050 A 
ATOM     25  C   UNL d   1       4.570  -1.270  -2.360  0.00  0.00     0.016 A 
ATOM     26  C   UNL d   1       3.399  -1.201  -3.117  0.00  0.00     0.004 A 
ATOM     27  C   UNL d   1       2.159  -1.324  -2.494  0.00  0.00     0.037 A 
BRANCH  24  28
ATOM     28  C   UNL d   1       5.791  -1.568  -0.171  0.00  0.00     0.417 C 
ATOM     29  F   UNL d   1       5.628  -1.317   1.158  0.00  0.00    -0.166 F 
ATOM     30  F   UNL d   1       6.351  -2.807  -0.252  0.00  0.00    -0.166 F 
ATOM     31  F   UNL d   1       6.753  -0.700  -0.595  0.00  0.00    -0.166 F 
ENDBRANCH  24  28
ENDBRANCH  21  22
ENDBRANCH   2  21
TORSDOF 5
