REMARK  4 active torsions:
REMARK  status: ('A' for Active; 'I' for Inactive)
REMARK    1  A    between atoms: N_2  and  C_1 
REMARK    2  A    between atoms: C_13  and  N_9 
REMARK    3  A    between atoms: O_11  and  C_15 
REMARK    4  A    between atoms: C_12  and  O_11 
ROOT
ATOM      1  C   UNL d   1       0.959  -4.445   0.132  0.00  0.00     0.082 A 
ATOM      2  C   UNL d   1       0.245  -5.154  -0.861  0.00  0.00     0.104 A 
ATOM      3  C   UNL d   1       1.779  -5.184   1.003  0.00  0.00     0.034 A 
ATOM      4  C   UNL d   1       0.463  -6.536  -1.025  0.00  0.00     0.040 A 
ATOM      5  C   UNL d   1       1.913  -6.569   0.895  0.00  0.00     0.002 A 
ATOM      6  C   UNL d   1       1.268  -7.243  -0.134  0.00  0.00     0.003 A 
ENDROOT
BRANCH   1   7
ATOM      7  N   UNL d   1       1.016  -3.041   0.306  0.00  0.00    -0.297 N 
ATOM      8  N   UNL d   1       0.075  -2.395  -0.189  0.00  0.00    -0.296 N 
ATOM      9  HN  UNL d   1      -0.757  -2.829  -0.590  1.00  0.00     0.187 HD
ATOM     10  HN  UNL d   1       1.781  -2.588   0.806  1.00  0.00     0.187 HD
BRANCH   8  11
ATOM     11  C   UNL d   1       0.274  -1.010  -0.139  0.00  0.00     0.095 A 
ATOM     12  C   UNL d   1       1.442  -0.281  -0.262  0.00  0.00     0.052 A 
ATOM     13  N   UNL d   1       1.048   1.027  -0.175  0.00  0.00    -0.303 N 
ATOM     14  C   UNL d   1       2.861  -0.642  -0.467  0.00  0.00     0.072 C 
ATOM     15  N   UNL d   1      -0.277   1.198  -0.041  0.00  0.00    -0.303 N 
ATOM     16  H   UNL d   1       1.634   1.855  -0.217  0.00  0.00     0.186 HD
ATOM     17  C   UNL d   1      -0.762  -0.052  -0.034  0.00  0.00     0.052 A 
ATOM     18  HN  UNL d   1      -0.793   2.074   0.037  1.00  0.00     0.186 HD
ATOM     19  C   UNL d   1      -2.221  -0.283   0.072  0.00  0.00     0.072 C 
ENDBRANCH   8  11
ENDBRANCH   1   7
BRANCH   2  20
ATOM     20  O   UNL d   1      -0.636  -4.451  -1.663  0.00  0.00    -0.307 OA
BRANCH  20  21
ATOM     21  C   UNL d   1      -1.698  -5.098  -2.255  0.00  0.00     0.098 A 
ATOM     22  C   UNL d   1      -2.611  -5.950  -1.612  0.00  0.00     0.069 A 
ATOM     23  C   UNL d   1      -3.601  -6.601  -2.355  0.00  0.00     0.050 A 
ATOM     24 CL   UNL d   1      -2.620  -6.217   0.097  0.00  0.00    -0.081 Cl
ATOM     25  C   UNL d   1      -3.737  -6.332  -3.715  0.00  0.00     0.035 A 
ATOM     26  C   UNL d   1      -2.902  -5.410  -4.340  0.00  0.00     0.026 A 
ATOM     27 CL   UNL d   1      -4.962  -7.128  -4.623  0.00  0.00    -0.084 Cl
ATOM     28  C   UNL d   1      -1.881  -4.798  -3.611  0.00  0.00     0.041 A 
ENDBRANCH  20  21
ENDBRANCH   2  20
TORSDOF 4
