REMARK  8 active torsions:
REMARK  status: ('A' for Active; 'I' for Inactive)
REMARK    1  A    between atoms: C_6  and  C_3 
REMARK    2  A    between atoms: C_9  and  O_22 
REMARK    3  A    between atoms: O_17  and  C_10 
REMARK       I    between atoms: C_11  and  N_18 
REMARK       I    between atoms: N_19  and  C_11 
REMARK    4  A    between atoms: C_14  and  C_25 
REMARK       I    between atoms: N_20  and  C_14 
REMARK    5  A    between atoms: C_25  and  O_17 
REMARK    6  A    between atoms: N_18  and  N_20 
REMARK    7  A    between atoms: C_29  and  N_19 
REMARK    8  A    between atoms: O_22  and  C_30 
ROOT
ATOM      1  O   UNL d   1       1.279  -6.977  -0.081  0.00  0.00    -0.341 OA
ENDROOT
BRANCH   1   2
ATOM      2  C   UNL d   1       1.484  -5.621  -0.081  0.00  0.00     0.081 C 
ATOM      3  C   UNL d   1       0.890  -4.939  -1.163  0.00  0.00    -0.027 C 
ATOM      4  C   UNL d   1       0.921  -3.530  -1.213  0.00  0.00     0.023 C 
ATOM      5  C   UNL d   1       0.125  -5.638  -2.256  0.00  0.00     0.051 C 
ATOM      6  C   UNL d   1       1.402  -2.792  -0.141  0.00  0.00    -0.006 C 
ATOM      7  C   UNL d   1       2.027  -3.475   0.912  0.00  0.00     0.023 C 
ATOM      8  C   UNL d   1       2.095  -4.885   0.953  0.00  0.00    -0.027 C 
ATOM      9  C   UNL d   1       2.781  -5.482   2.148  0.00  0.00     0.051 C 
BRANCH   6  10
ATOM     10  C   UNL d   1       1.290  -1.297  -0.062  0.00  0.00     0.070 C 
ATOM     11  N   UNL d   1       2.287  -0.676   0.503  0.00  0.00    -0.294 N 
ATOM     12  N   UNL d   1       2.291   0.690   0.569  0.00  0.00    -0.261 N 
ATOM     13  HN  UNL d   1       3.063  -1.208   0.896  1.00  0.00     0.187 HD
ATOM     14  C   UNL d   1       1.336   1.507  -0.017  0.00  0.00     0.272 C 
ATOM     15  C   UNL d   1       3.424   1.305   1.230  0.00  0.00     0.181 C 
ATOM     16  C   UNL d   1       0.195   0.824  -0.653  0.00  0.00     0.046 A 
ATOM     17  O   UNL d   1       1.382   2.736  -0.010  0.00  0.00    -0.266 OA
ATOM     18  C   UNL d   1      -0.822   1.586  -1.252  0.00  0.00     0.018 A 
ATOM     19  C   UNL d   1       0.112  -0.563  -0.606  0.00  0.00     0.009 A 
ATOM     20  C   UNL d   1      -1.934   0.954  -1.797  0.00  0.00     0.001 A 
ATOM     21  C   UNL d   1      -2.067  -0.425  -1.684  0.00  0.00     0.001 A 
ATOM     22  C   UNL d   1      -1.064  -1.177  -1.063  0.00  0.00     0.015 A 
ENDBRANCH   6  10
ENDBRANCH   1   2
BRANCH   1  23
ATOM     23  C   UNL d   1       2.366  -7.819   0.260  0.00  0.00     0.280 C 
BRANCH  23  24
ATOM     24  C   UNL d   1       1.965  -9.265  -0.001  0.00  0.00     0.260 C 
ATOM     25  N   UNL d   1       2.424  -9.813  -1.194  0.00  0.00    -0.264 N 
ATOM     26  H   UNL d   1       3.258  -9.409  -1.613  0.00  0.00     0.190 HD
ATOM     27  O   UNL d   1       1.312  -9.922   0.811  0.00  0.00    -0.269 OA
BRANCH  25  28
ATOM     28  N   UNL d   1       2.353 -11.221  -1.240  0.00  0.00    -0.249 N 
ATOM     29  C   UNL d   1       2.075 -11.960  -2.365  0.00  0.00     0.339 C 
ATOM     30  N   UNL d   1       2.110 -11.247  -3.540  0.00  0.00    -0.308 N 
ATOM     31  O   UNL d   1       1.873 -13.162  -2.239  0.00  0.00    -0.245 OA
ATOM     32  H   UNL d   1       2.146 -10.247  -3.423  0.00  0.00     0.170 HD
ATOM     33  H   UNL d   1       2.144 -11.693  -0.358  0.00  0.00     0.192 HD
BRANCH  30  34
ATOM     34  C   UNL d   1       2.058 -11.764  -4.850  0.00  0.00     0.036 A 
ATOM     35  C   UNL d   1       1.935 -13.123  -5.136  0.00  0.00     0.032 A 
ATOM     36  C   UNL d   1       1.954 -13.577  -6.456  0.00  0.00     0.039 A 
ATOM     37  C   UNL d   1       2.087 -12.689  -7.524  0.00  0.00     0.078 A 
ATOM     38  C   UNL d   1       2.215 -11.329  -7.249  0.00  0.00     0.039 A 
ATOM     39  C   UNL d   1       2.183 -10.869  -5.920  0.00  0.00     0.032 A 
BRANCH  37  40
ATOM     40  O   UNL d   1       2.087 -13.298  -8.739  0.00  0.00    -0.255 OA
BRANCH  40  41
ATOM     41  C   UNL d   1       1.881 -12.541  -9.917  0.00  0.00     0.530 C 
ATOM     42  F   UNL d   1       1.102 -11.458  -9.725  0.00  0.00    -0.144 F 
ATOM     43  F   UNL d   1       3.067 -12.155 -10.434  0.00  0.00    -0.144 F 
ATOM     44  F   UNL d   1       1.265 -13.336 -10.824  0.00  0.00    -0.144 F 
ENDBRANCH  40  41
ENDBRANCH  37  40
ENDBRANCH  30  34
ENDBRANCH  25  28
ENDBRANCH  23  24
ENDBRANCH   1  23
TORSDOF 8
