REMARK  6 active torsions:
REMARK  status: ('A' for Active; 'I' for Inactive)
REMARK    1  A    between atoms: N_3  and  C_1 
REMARK    2  A    between atoms: S_2  and  N_3 
REMARK    3  A    between atoms: C_10  and  S_2 
REMARK    4  A    between atoms: C_9  and  C_4 
REMARK    5  A    between atoms: O_16  and  C_9 
REMARK    6  A    between atoms: C_22  and  O_16 
ROOT
ATOM      1  C   UNL d   1       0.115  -1.089  -0.068  0.00  0.00     0.149 A 
ATOM      2  C   UNL d   1       1.436  -0.686  -0.111  0.00  0.00     0.102 A 
ATOM      3  N   UNL d   1      -0.639   0.054  -0.185  0.00  0.00    -0.280 N 
ATOM      4  N   UNL d   1       0.116   1.169  -0.200  0.00  0.00    -0.307 N 
ATOM      5  HN  UNL d   1      -0.200   2.139  -0.229  1.00  0.00     0.186 HD
ATOM      6  C   UNL d   1       1.373   0.718  -0.169  0.00  0.00     0.129 A 
ATOM      7  C   UNL d   1      -2.046   0.179  -0.479  0.00  0.00     0.179 C 
ENDROOT
BRANCH   1   8
ATOM      8  N   UNL d   1      -0.286  -2.413   0.036  0.00  0.00    -0.264 N 
ATOM      9  H   UNL d   1       0.265  -3.101  -0.466  0.00  0.00     0.180 HD
BRANCH   8  10
ATOM     10  S   UNL d   1      -0.855  -3.076   1.425  0.00  0.00     0.264 S 
ATOM     11  O   UNL d   1      -2.224  -2.656   1.651  0.00  0.00    -0.200 OA
ATOM     12  O   UNL d   1      -0.512  -4.480   1.440  0.00  0.00    -0.200 OA
BRANCH  10  13
ATOM     13  C   UNL d   1       0.128  -2.308   2.721  0.00  0.00     0.080 A 
ATOM     14  C   UNL d   1      -0.387  -1.206   3.412  0.00  0.00     0.027 A 
ATOM     15  C   UNL d   1       0.369  -0.601   4.419  0.00  0.00     0.025 A 
ATOM     16  C   UNL d   1       1.629  -1.106   4.740  0.00  0.00     0.034 A 
ATOM     17  C   UNL d   1       2.139  -2.220   4.070  0.00  0.00     0.025 A 
ATOM     18 CL   UNL d   1       2.558  -0.354   5.971  0.00  0.00    -0.084 Cl
ATOM     19  C   UNL d   1       1.385  -2.836   3.059  0.00  0.00     0.027 A 
ENDBRANCH  10  13
ENDBRANCH   8  10
ENDBRANCH   1   8
BRANCH   2  20
ATOM     20  C   UNL d   1       2.579  -1.559  -0.041  0.00  0.00     0.298 C 
ATOM     21  O   UNL d   1       2.450  -2.776   0.002  0.00  0.00    -0.259 OA
BRANCH  20  22
ATOM     22  O   UNL d   1       3.755  -0.882  -0.007  0.00  0.00    -0.318 OA
BRANCH  22  23
ATOM     23  C   UNL d   1       4.938  -1.687   0.107  0.00  0.00     0.174 C 
ATOM     24  C   UNL d   1       5.342  -2.224  -1.253  0.00  0.00     0.034 C 
ENDBRANCH  22  23
ENDBRANCH  20  22
ENDBRANCH   2  20
TORSDOF 6
