REMARK  4 active torsions:
REMARK  status: ('A' for Active; 'I' for Inactive)
REMARK    1  A    between atoms: S_8  and  C_1 
REMARK       I    between atoms: N_2  and  C_6 
REMARK    2  A    between atoms: C_3  and  N_2 
REMARK    3  A    between atoms: C_6  and  C_15 
REMARK    4  A    between atoms: C_15  and  S_8 
ROOT
ATOM      1  N   UNL d   1      -0.344   5.675  -0.055  0.00  0.00    -0.324 N 
ATOM      2  C   UNL d   1       0.987   5.305  -0.170  0.00  0.00     0.231 C 
ATOM      3  O   UNL d   1       1.935   6.087  -0.144  0.00  0.00    -0.272 OA
ATOM      4  H   UNL d   1      -0.991   4.935   0.194  0.00  0.00     0.169 HD
ENDROOT
BRANCH   1   5
ATOM      5  C   UNL d   1      -0.822   7.007  -0.003  0.00  0.00     0.073 A 
ATOM      6  C   UNL d   1      -0.153   8.116  -0.552  0.00  0.00     0.145 A 
ATOM      7  C   UNL d   1      -0.633   9.412  -0.385  0.00  0.00     0.086 A 
ATOM      8  F   UNL d   1       0.922   7.965  -1.336  0.00  0.00    -0.204 F 
ATOM      9  C   UNL d   1      -1.815   9.611   0.310  0.00  0.00     0.119 A 
ATOM     10  C   UNL d   1      -2.538   8.532   0.807  0.00  0.00     0.044 A 
ATOM     11  F   UNL d   1      -2.276  10.855   0.489  0.00  0.00    -0.206 F 
ATOM     12  C   UNL d   1      -2.050   7.229   0.640  0.00  0.00     0.036 A 
ENDBRANCH   1   5
BRANCH   2  13
ATOM     13  C   UNL d   1       1.284   3.812  -0.142  0.00  0.00     0.183 C 
BRANCH  13  14
ATOM     14  S   UNL d   1      -0.043   2.761  -0.792  0.00  0.00    -0.113 SA
BRANCH  14  15
ATOM     15  C   UNL d   1       0.685   1.166  -0.601  0.00  0.00     0.041 A 
ATOM     16  S   UNL d   1       1.152   0.527   0.918  0.00  0.00    -0.095 SA
ATOM     17  C   UNL d   1       1.638  -0.958   0.224  0.00  0.00     0.051 A 
ATOM     18  C   UNL d   1       1.454  -0.972  -1.141  0.00  0.00     0.009 A 
ATOM     19  C   UNL d   1       0.908   0.259  -1.617  0.00  0.00     0.026 A 
ENDBRANCH  14  15
ENDBRANCH  13  14
ENDBRANCH   2  13
TORSDOF 4
