REMARK  2 active torsions:
REMARK  status: ('A' for Active; 'I' for Inactive)
REMARK       I    between atoms: N_2  and  C_1 
REMARK    1  A    between atoms: C_4  and  C_1 
REMARK    2  A    between atoms: C_5  and  N_2 
ROOT
ATOM      1  C   UNL d   1       1.162  -0.020  -0.151  0.00  0.00     0.256 C 
ATOM      2  N   UNL d   1       0.409  -1.181  -0.236  0.00  0.00    -0.323 N 
ATOM      3  O   UNL d   1       2.345   0.047   0.164  0.00  0.00    -0.267 OA
ATOM      4  H   UNL d   1      -0.588  -1.086  -0.369  0.00  0.00     0.169 HD
ENDROOT
BRANCH   2   5
ATOM      5  C   UNL d   1       0.892  -2.506  -0.121  0.00  0.00     0.035 A 
ATOM      6  C   UNL d   1       2.242  -2.827   0.055  0.00  0.00     0.036 A 
ATOM      7  C   UNL d   1       2.674  -4.162   0.116  0.00  0.00    -0.060 A 
ATOM      8  C   UNL d   1       4.131  -4.479   0.279  0.00  0.00     0.048 C 
ATOM      9  C   UNL d   1       1.734  -5.188   0.003  0.00  0.00     0.007 A 
ATOM     10  C   UNL d   1       0.383  -4.883  -0.163  0.00  0.00     0.003 A 
ATOM     11  C   UNL d   1      -0.035  -3.550  -0.225  0.00  0.00     0.029 A 
ENDBRANCH   2   5
BRANCH   1  12
ATOM     12  C   UNL d   1       0.463   1.266  -0.455  0.00  0.00     0.032 A 
ATOM     13  C   UNL d   1       1.035   2.445   0.047  0.00  0.00     0.017 A 
ATOM     14  C   UNL d   1       0.482   3.690  -0.257  0.00  0.00     0.001 A 
ATOM     15  C   UNL d   1      -0.647   3.766  -1.066  0.00  0.00     0.000 A 
ATOM     16  C   UNL d   1      -1.224   2.600  -1.571  0.00  0.00     0.001 A 
ATOM     17  C   UNL d   1      -0.670   1.350  -1.273  0.00  0.00     0.017 A 
ENDBRANCH   1  12
TORSDOF 2
