REMARK  5 active torsions:
REMARK  status: ('A' for Active; 'I' for Inactive)
REMARK    1  A    between atoms: C_4  and  C_1 
REMARK    2  A    between atoms: C_15  and  N_5 
REMARK    3  A    between atoms: C_18  and  C_6 
REMARK    4  A    between atoms: C_14  and  C_9 
REMARK    5  A    between atoms: C_25  and  C_18 
ROOT
ATOM      1  C   UNL d   1      -0.306   1.272   0.057  0.00  0.00     0.059 A 
ATOM      2  N   UNL d   1       0.907  -0.583   0.122  0.00  0.00    -0.260 N 
ATOM      3  C   UNL d   1       1.000   0.807  -0.001  0.00  0.00     0.050 A 
ATOM      4  N   UNL d   1      -0.382  -0.964   0.371  0.00  0.00    -0.304 N 
ATOM      5  HN  UNL d   1      -0.718  -1.900   0.596  1.00  0.00     0.186 HD
ATOM      6  C   UNL d   1      -1.103   0.143   0.259  0.00  0.00     0.125 A 
ENDROOT
BRANCH   1   7
ATOM      7  C   UNL d   1      -0.804   2.668  -0.019  0.00  0.00     0.185 A 
ATOM      8  N   UNL d   1      -0.053   3.731  -0.220  0.00  0.00    -0.318 N 
ATOM      9  C   UNL d   1      -0.966   4.764  -0.229  0.00  0.00     0.138 A 
ATOM     10  HN  UNL d   1       0.959   3.778  -0.341  1.00  0.00     0.169 HD
ATOM     11  N   UNL d   1      -2.231   4.371  -0.019  0.00  0.00    -0.242 N 
ATOM     12  O   UNL d   1      -2.129   2.992   0.114  0.00  0.00    -0.217 OA
ATOM     13  HN  UNL d   1      -3.070   4.949   0.030  1.00  0.00     0.196 HD
BRANCH   9  14
ATOM     14  C   UNL d   1      -0.577   6.148  -0.480  0.00  0.00     0.010 A 
ATOM     15  C   UNL d   1       0.763   6.468  -0.754  0.00  0.00     0.017 A 
ATOM     16  C   UNL d   1       1.137   7.787  -1.033  0.00  0.00     0.025 A 
ATOM     17  C   UNL d   1       0.174   8.794  -1.038  0.00  0.00     0.034 A 
ATOM     18  C   UNL d   1      -1.157   8.497  -0.757  0.00  0.00     0.025 A 
ATOM     19 CL   UNL d   1       0.631  10.412  -1.401  0.00  0.00    -0.084 Cl
ATOM     20  C   UNL d   1      -1.530   7.179  -0.477  0.00  0.00     0.017 A 
ENDBRANCH   9  14
ENDBRANCH   1   7
BRANCH   3  21
ATOM     21  C   UNL d   1       2.271   1.603  -0.028  0.00  0.00     0.060 C 
BRANCH  21  22
ATOM     22  C   UNL d   1       2.644   2.097  -1.429  0.00  0.00     0.002 C 
ATOM     23  C   UNL d   1       3.931   2.907  -1.398  0.00  0.00     0.005 C 
ENDBRANCH  21  22
ENDBRANCH   3  21
BRANCH   2  24
ATOM     24  C   UNL d   1       1.890  -1.615   0.013  0.00  0.00     0.056 A 
ATOM     25  C   UNL d   1       1.612  -2.871   0.583  0.00  0.00     0.031 A 
ATOM     26  C   UNL d   1       2.507  -3.934   0.444  0.00  0.00     0.002 A 
ATOM     27  C   UNL d   1       3.679  -3.764  -0.285  0.00  0.00     0.000 A 
ATOM     28  C   UNL d   1       3.965  -2.527  -0.856  0.00  0.00     0.002 A 
ATOM     29  C   UNL d   1       3.080  -1.453  -0.701  0.00  0.00     0.031 A 
ENDBRANCH   2  24
TORSDOF 5
