REMARK  13 active torsions:
REMARK  status: ('A' for Active; 'I' for Inactive)
REMARK    1  A    between atoms: S_8  and  C_2 
REMARK    2  A    between atoms: S_9  and  C_3 
REMARK    3  A    between atoms: C_10  and  S_9 
REMARK    4  A    between atoms: C_11  and  C_10 
REMARK    5  A    between atoms: C_19  and  C_11 
REMARK    6  A    between atoms: C_12  and  C_13 
REMARK    7  A    between atoms: C_13  and  C_18 
REMARK    8  A    between atoms: C_14  and  C_20 
REMARK    9  A    between atoms: C_15  and  C_14 
REMARK   10  A    between atoms: C_16  and  C_15 
REMARK   11  A    between atoms: C_17  and  C_16 
REMARK   12  A    between atoms: C_18  and  C_17 
REMARK   13  A    between atoms: C_20  and  C_19 
ROOT
ATOM      1  C   UNL d   1       4.778   0.948  -0.009  0.00  0.00     0.081 C 
ENDROOT
BRANCH   1   2
ATOM      2  S   UNL d   1       3.837  -0.612  -0.008  0.00  0.00    -0.103 SA
BRANCH   2   3
ATOM      3  C   UNL d   1       2.175  -0.067  -0.004  0.00  0.00     0.129 A 
ATOM      4  S   UNL d   1       0.856  -1.173  -0.003  0.00  0.00    -0.038 SA
ATOM      5  C   UNL d   1      -0.186   0.184   0.002  0.00  0.00     0.126 A 
ATOM      6  N   UNL d   1       0.438   1.343   0.002  0.00  0.00    -0.287 N 
ATOM      7  N   UNL d   1       1.815   1.198  -0.001  0.00  0.00    -0.287 N 
ATOM      8  HN  UNL d   1      -0.039   2.245   0.005  1.00  0.00     0.188 HD
ATOM      9  HN  UNL d   1       2.472   1.979  -0.002  1.00  0.00     0.188 HD
BRANCH   5  10
ATOM     10  S   UNL d   1      -1.924   0.068   0.007  0.00  0.00    -0.117 SA
ATOM     11  H   UNL d   1      -2.019  -1.268   0.006  0.00  0.00     0.109 HD
ENDBRANCH   5  10
ENDBRANCH   2   3
ENDBRANCH   1   2
BRANCH   1  12
ATOM     12  C   UNL d   1       6.277   0.620  -0.015  0.00  0.00     0.010 C 
BRANCH  12  13
ATOM     13  C   UNL d   1       7.152   1.880  -0.015  0.00  0.00     0.001 C 
BRANCH  13  14
ATOM     14  C   UNL d   1       8.645   1.524  -0.020  0.00  0.00     0.000 C 
BRANCH  14  15
ATOM     15  C   UNL d   1       9.523   2.778  -0.020  0.00  0.00     0.000 C 
BRANCH  15  16
ATOM     16  C   UNL d   1      11.012   2.423  -0.025  0.00  0.00     0.000 C 
BRANCH  16  17
ATOM     17  C   UNL d   1      11.880   3.682  -0.022  0.00  0.00     0.000 C 
BRANCH  17  18
ATOM     18  C   UNL d   1      13.368   3.332  -0.027  0.00  0.00     0.000 C 
BRANCH  18  19
ATOM     19  C   UNL d   1      14.231   4.593  -0.025  0.00  0.00     0.000 C 
BRANCH  19  20
ATOM     20  C   UNL d   1      15.718   4.241  -0.030  0.00  0.00    -0.000 C 
BRANCH  20  21
ATOM     21  C   UNL d   1      16.586   5.498  -0.026  0.00  0.00    -0.005 C 
ATOM     22  C   UNL d   1      18.064   5.145  -0.031  0.00  0.00     0.005 C 
ENDBRANCH  20  21
ENDBRANCH  19  20
ENDBRANCH  18  19
ENDBRANCH  17  18
ENDBRANCH  16  17
ENDBRANCH  15  16
ENDBRANCH  14  15
ENDBRANCH  13  14
ENDBRANCH  12  13
ENDBRANCH   1  12
TORSDOF 13
