REMARK  2 active torsions:
REMARK  status: ('A' for Active; 'I' for Inactive)
REMARK    1  A    between atoms: S_8  and  C_3 
REMARK    2  A    between atoms: C_7  and  C_4 
ROOT
ATOM      1  N   UNL d   1       0.872  -0.641   0.781  0.00  0.00    -0.336 N 
ATOM      2  HN  UNL d   1       1.577  -1.102   1.355  1.00  0.00     0.168 HD
ATOM      3  C   UNL d   1       0.780   0.697   0.725  0.00  0.00     0.141 A 
ATOM      4  C   UNL d   1      -0.011  -1.351   0.042  0.00  0.00     0.045 A 
ATOM      5  N   UNL d   1      -0.119   1.382   0.007  0.00  0.00    -0.347 N 
ATOM      6  HN  UNL d   1      -0.147   2.402   0.007  1.00  0.00     0.167 HD
ATOM      7  C   UNL d   1      -0.968  -0.728  -0.738  0.00  0.00     0.047 A 
ATOM      8  C   UNL d   1      -0.980   0.647  -0.714  0.00  0.00     0.092 A 
ENDROOT
BRANCH   4   9
ATOM      9  C   UNL d   1       0.094  -2.821   0.157  0.00  0.00    -0.009 A 
ATOM     10  C   UNL d   1       0.520  -3.414   1.363  0.00  0.00     0.015 A 
ATOM     11  C   UNL d   1       0.597  -4.804   1.509  0.00  0.00     0.024 A 
ATOM     12  C   UNL d   1       0.255  -5.628   0.443  0.00  0.00     0.034 A 
ATOM     13  C   UNL d   1      -0.153  -5.075  -0.766  0.00  0.00     0.024 A 
ATOM     14 CL   UNL d   1       0.340  -7.337   0.618  0.00  0.00    -0.084 Cl
ATOM     15  C   UNL d   1      -0.231  -3.684  -0.907  0.00  0.00     0.015 A 
ENDBRANCH   4   9
BRANCH   3  16
ATOM     16  S   UNL d   1       1.949   1.615   1.679  0.00  0.00    -0.107 SA
ATOM     17  H   UNL d   1       2.640   0.527   2.037  0.00  0.00     0.110 HD
ENDBRANCH   3  16
TORSDOF 2
