REMARK  3 active torsions:
REMARK  status: ('A' for Active; 'I' for Inactive)
REMARK    1  A    between atoms: N_2  and  S_1 
REMARK    2  A    between atoms: S_4  and  N_2 
REMARK    3  A    between atoms: C_7  and  S_4 
ROOT
ATOM      1  N   UNL d   1       1.325   2.780   0.477  0.00  0.00    -0.239 N 
ATOM      2  HN  UNL d   1       1.521   3.628  -0.055  1.00  0.00     0.188 HD
ENDROOT
BRANCH   1   3
ATOM      3  S   UNL d   1       0.753   1.473  -0.350  0.00  0.00     0.047 S 
ATOM      4  C   UNL d   1       1.625   0.028   0.196  0.00  0.00     0.257 C 
ATOM      5  S   UNL d   1       0.844  -1.474  -0.339  0.00  0.00     0.156 S 
ATOM      6  O   UNL d   1       0.890  -1.562  -1.784  0.00  0.00    -0.227 OA
ATOM      7  O   UNL d   1       1.387  -2.550   0.471  0.00  0.00    -0.227 OA
ATOM      8  C   UNL d   1      -0.858  -1.272   0.153  0.00  0.00     0.142 C 
ATOM      9  C   UNL d   1      -1.521  -0.036  -0.438  0.00  0.00     0.028 C 
ATOM     10  C   UNL d   1      -0.952   1.260   0.129  0.00  0.00     0.120 C 
ATOM     11  O   UNL d   1       0.864   1.684  -1.773  0.00  0.00    -0.248 OA
ENDBRANCH   1   3
BRANCH   1  12
ATOM     12  S   UNL d   1       1.606   2.814   2.135  0.00  0.00     0.269 S 
ATOM     13  O   UNL d   1       0.344   2.618   2.821  0.00  0.00    -0.200 OA
ATOM     14  O   UNL d   1       2.736   1.955   2.427  0.00  0.00    -0.200 OA
BRANCH  12  15
ATOM     15  C   UNL d   1       2.115   4.497   2.375  0.00  0.00     0.080 A 
ATOM     16  C   UNL d   1       1.166   5.470   2.701  0.00  0.00     0.026 A 
ATOM     17  C   UNL d   1       1.580   6.782   2.939  0.00  0.00     0.008 A 
ATOM     18  C   UNL d   1       2.938   7.126   2.869  0.00  0.00    -0.062 A 
ATOM     19  C   UNL d   1       3.878   6.140   2.541  0.00  0.00     0.008 A 
ATOM     20  C   UNL d   1       3.367   8.539   3.138  0.00  0.00     0.048 C 
ATOM     21  C   UNL d   1       3.472   4.825   2.301  0.00  0.00     0.026 A 
ENDBRANCH  12  15
ENDBRANCH   1  12
TORSDOF 3
