REMARK  3 active torsions:
REMARK  status: ('A' for Active; 'I' for Inactive)
REMARK    1  A    between atoms: C_12  and  N_4 
REMARK    2  A    between atoms: N_17  and  C_11 
REMARK    3  A    between atoms: C_20  and  N_17 
ROOT
ATOM      1  C   UNL d   1       0.047  -0.738  -0.110  0.00  0.00     0.141 C 
ATOM      2  C   UNL d   1       0.006   0.617  -0.013  0.00  0.00     0.128 C 
ATOM      3  N   UNL d   1       1.325  -1.344  -0.230  0.00  0.00    -0.288 N 
ATOM      4  N   UNL d   1      -1.177  -1.486  -0.045  0.00  0.00    -0.262 N 
ATOM      5  N   UNL d   1       2.439   0.719   0.051  0.00  0.00    -0.270 N 
ATOM      6  C   UNL d   1       2.527  -0.641  -0.062  0.00  0.00     0.332 C 
ATOM      7  C   UNL d   1       1.258   1.412   0.004  0.00  0.00     0.269 C 
ATOM      8  C   UNL d   1      -2.447   0.519  -0.324  0.00  0.00     0.099 C 
ATOM      9  C   UNL d   1      -2.436  -0.878   0.089  0.00  0.00     0.269 C 
ATOM     10  C   UNL d   1      -1.287   1.352  -0.034  0.00  0.00     0.208 C 
ATOM     11  C   UNL d   1      -3.409   0.962  -1.153  0.00  0.00     0.109 C 
ATOM     12  O   UNL d   1       3.620  -1.213  -0.033  0.00  0.00    -0.246 OA
ATOM     13  O   UNL d   1       1.242   2.643  -0.031  0.00  0.00    -0.267 OA
ATOM     14  O   UNL d   1      -3.489  -1.453   0.380  0.00  0.00    -0.266 OA
ATOM     15  O   UNL d   1      -1.412   2.564   0.126  0.00  0.00    -0.286 OA
ATOM     16  C   UNL d   1       1.559  -2.759  -0.493  0.00  0.00     0.163 C 
ATOM     17  C   UNL d   1       3.666   1.500   0.102  0.00  0.00     0.164 C 
ENDROOT
BRANCH  11  18
ATOM     18  N   UNL d   1      -4.489   0.246  -1.616  0.00  0.00    -0.365 N 
ATOM     19  H   UNL d   1      -4.658  -0.637  -1.124  0.00  0.00     0.165 HD
BRANCH  18  20
ATOM     20  C   UNL d   1      -5.498   0.631  -2.511  0.00  0.00     0.032 A 
ATOM     21  C   UNL d   1      -5.490   1.843  -3.212  0.00  0.00     0.031 A 
ATOM     22  C   UNL d   1      -6.529   2.176  -4.090  0.00  0.00     0.026 A 
ATOM     23  C   UNL d   1      -7.582   1.288  -4.285  0.00  0.00     0.034 A 
ATOM     24  C   UNL d   1      -7.599   0.067  -3.622  0.00  0.00     0.026 A 
ATOM     25 CL   UNL d   1      -8.864   1.704  -5.352  0.00  0.00    -0.084 Cl
ATOM     26  C   UNL d   1      -6.558  -0.260  -2.747  0.00  0.00     0.031 A 
ENDBRANCH  18  20
ENDBRANCH  11  18
BRANCH   4  27
ATOM     27  C   UNL d   1      -1.312  -2.869  -0.350  0.00  0.00     0.044 A 
ATOM     28  C   UNL d   1      -1.485  -3.239  -1.696  0.00  0.00     0.030 A 
ATOM     29  C   UNL d   1      -1.504  -4.587  -2.048  0.00  0.00     0.002 A 
ATOM     30  C   UNL d   1      -1.402  -5.561  -1.056  0.00  0.00     0.000 A 
ATOM     31  C   UNL d   1      -1.344  -5.191   0.291  0.00  0.00     0.002 A 
ATOM     32  C   UNL d   1      -1.316  -3.841   0.651  0.00  0.00     0.030 A 
ENDBRANCH   4  27
TORSDOF 3
