REMARK  3 active torsions:
REMARK  status: ('A' for Active; 'I' for Inactive)
REMARK    1  A    between atoms: O_4  and  C_2 
REMARK    2  A    between atoms: C_3  and  O_4 
REMARK    3  A    between atoms: C_6  and  C_3 
ROOT
ATOM      1  C   UNL d   1       0.263  -3.729   0.097  0.00  0.00     0.298 C 
ATOM      2  O   UNL d   1       1.477  -3.648  -0.020  0.00  0.00    -0.259 OA
ENDROOT
BRANCH   1   3
ATOM      3  O   UNL d   1      -0.645  -2.719   0.033  0.00  0.00    -0.277 OA
BRANCH   3   4
ATOM      4  C   UNL d   1      -0.367  -1.311  -0.092  0.00  0.00     0.082 C 
ATOM      5  C   UNL d   1      -1.409  -0.475  -0.189  0.00  0.00     0.109 C 
ATOM      6  C   UNL d   1      -1.218   1.004  -0.223  0.00  0.00     0.173 C 
ATOM      7 CL   UNL d   1      -3.041  -1.048  -0.209  0.00  0.00    -0.078 Cl
ATOM      8  O   UNL d   1      -2.177   1.770  -0.319  0.00  0.00    -0.291 OA
ATOM      9  C   UNL d   1       0.174   1.563  -0.043  0.00  0.00     0.085 C 
ATOM     10  C   UNL d   1       1.296   0.607  -0.404  0.00  0.00     0.014 C 
ATOM     11  C   UNL d   1       1.064  -0.858  -0.040  0.00  0.00     0.067 C 
ENDBRANCH   3   4
ENDBRANCH   1   3
BRANCH   1  12
ATOM     12  C   UNL d   1      -0.438  -5.014   0.387  0.00  0.00     0.040 A 
ATOM     13  C   UNL d   1       0.344  -6.166   0.567  0.00  0.00     0.019 A 
ATOM     14  C   UNL d   1      -0.256  -7.382   0.907  0.00  0.00     0.025 A 
ATOM     15  C   UNL d   1      -1.639  -7.453   1.064  0.00  0.00     0.034 A 
ATOM     16  C   UNL d   1      -2.429  -6.322   0.864  0.00  0.00     0.025 A 
ATOM     17 CL   UNL d   1      -2.374  -8.939   1.519  0.00  0.00    -0.084 Cl
ATOM     18  C   UNL d   1      -1.831  -5.104   0.524  0.00  0.00     0.019 A 
ENDBRANCH   1  12
TORSDOF 3
