REMARK  10 active torsions:
REMARK  status: ('A' for Active; 'I' for Inactive)
REMARK    1  A    between atoms: C_4  and  N_22 
REMARK    2  A    between atoms: C_6  and  O_20 
REMARK    3  A    between atoms: C_9  and  O_35 
REMARK    4  A    between atoms: C_12  and  C_23 
REMARK    5  A    between atoms: C_15  and  O_37 
REMARK    6  A    between atoms: C_18  and  O_38 
REMARK    7  A    between atoms: C_19  and  C_42 
REMARK    8  A    between atoms: C_21  and  O_20 
REMARK       I    between atoms: C_31  and  N_22 
REMARK    9  A    between atoms: O_40  and  C_23 
REMARK   10  A    between atoms: O_45  and  C_42 
ROOT
ATOM      1  C   UNL d   1     -13.204  -0.601  -1.544  0.00  0.00    -0.030 C 
ATOM      2  C   UNL d   1     -14.315  -0.084  -2.506  0.00  0.00    -0.001 C 
ATOM      3  C   UNL d   1     -11.653  -0.925  -2.304  0.00  0.00    -0.032 C 
ATOM      4  C   UNL d   1     -10.927  -1.469  -4.829  0.00  0.00    -0.035 C 
ATOM      5  C   UNL d   1     -15.769  -0.671  -2.649  0.00  0.00    -0.002 C 
ATOM      6  C   UNL d   1     -11.732  -0.556  -3.873  0.00  0.00     0.003 C 
ATOM      7  C   UNL d   1     -15.803  -2.137  -2.246  0.00  0.00     0.033 C 
ATOM      8  C   UNL d   1      -9.441  -1.062  -4.585  0.00  0.00     0.004 C 
ATOM      9  C   UNL d   1     -17.173  -2.849  -2.516  0.00  0.00     0.091 C 
ATOM     10  C   UNL d   1      -8.513  -1.665  -5.760  0.00  0.00    -0.017 C 
ATOM     11  C   UNL d   1     -13.804  -1.842  -0.723  0.00  0.00     0.042 C 
ATOM     12  C   UNL d   1     -13.865   0.668  -3.518  0.00  0.00     0.006 C 
ATOM     13  C   UNL d   1     -15.316  -2.184  -0.779  0.00  0.00     0.124 C 
ATOM     14  C   UNL d   1      -8.780  -0.671  -7.000  0.00  0.00     0.133 C 
ATOM     15  C   UNL d   1     -10.236  -0.184  -2.090  0.00  0.00     0.011 C 
ATOM     16  C   UNL d   1     -13.058  -0.163  -4.448  0.00  0.00     0.006 C 
ATOM     17  C   UNL d   1     -11.230  -1.233  -6.362  0.00  0.00     0.012 C 
ATOM     18  C   UNL d   1      -9.055  -0.859  -3.067  0.00  0.00     0.007 C 
ATOM     19  C   UNL d   1     -17.448  -1.307  -4.670  0.00  0.00    -0.046 C 
ATOM     20  C   UNL d   1     -16.241  -0.559  -4.110  0.00  0.00     0.014 C 
ATOM     21  C   UNL d   1     -18.074  -2.278  -3.655  0.00  0.00     0.024 C 
ATOM     22  C   UNL d   1     -10.281  -0.252  -7.053  0.00  0.00     0.034 C 
ATOM     23  C   UNL d   1     -12.995   0.573  -0.549  0.00  0.00     0.016 C 
ATOM     24  C   UNL d   1     -11.203  -2.279  -1.652  0.00  0.00     0.016 C 
ATOM     25  C   UNL d   1     -11.285  -2.934  -4.488  0.00  0.00     0.016 C 
ATOM     26  C   UNL d   1      -7.024  -1.690  -5.380  0.00  0.00     0.018 C 
ATOM     27  C   UNL d   1      -8.777  -3.139  -6.201  0.00  0.00     0.018 C 
ATOM     28  C   UNL d   1     -18.466  -0.229  -5.127  0.00  0.00     0.015 C 
ATOM     29  C   UNL d   1     -17.008  -2.050  -5.971  0.00  0.00     0.015 C 
ENDROOT
BRANCH  14  30
ATOM     30  O   UNL d   1      -8.381  -1.205  -8.275  0.00  0.00    -0.353 OA
BRANCH  30  31
ATOM     31  C   UNL d   1      -8.081  -0.212  -9.310  0.00  0.00     0.286 C 
ATOM     32  C   UNL d   1      -7.867  -1.015 -10.643  0.00  0.00     0.170 C 
ATOM     33  C   UNL d   1      -8.146  -0.220 -11.943  0.00  0.00     0.177 C 
ATOM     34  C   UNL d   1      -9.265   0.810 -11.815  0.00  0.00     0.180 C 
ATOM     35  C   UNL d   1      -9.035   1.630 -10.551  0.00  0.00     0.179 C 
ATOM     36  O   UNL d   1      -9.126   0.763  -9.415  0.00  0.00    -0.349 OA
BRANCH  32  37
ATOM     37  N   UNL d   1      -6.535  -1.639 -10.749  0.00  0.00    -0.349 N 
ATOM     38  C   UNL d   1      -5.413  -0.854 -10.845  0.00  0.00     0.214 C 
ATOM     39  O   UNL d   1      -5.406   0.333 -10.622  0.00  0.00    -0.274 OA
ATOM     40  C   UNL d   1      -4.176  -1.611 -11.285  0.00  0.00     0.117 C 
ATOM     41  H   UNL d   1      -6.498  -2.565 -11.172  0.00  0.00     0.163 HD
ENDBRANCH  32  37
BRANCH  33  42
ATOM     42  O   UNL d   1      -8.420  -1.145 -13.016  0.00  0.00    -0.391 OA
ATOM     43  H   UNL d   1      -9.388  -1.221 -13.118  0.00  0.00     0.210 HD
ENDBRANCH  33  42
BRANCH  34  44
ATOM     44  O   UNL d   1      -9.319   1.632 -12.984  0.00  0.00    -0.390 OA
ATOM     45  H   UNL d   1      -8.409   1.894 -13.227  0.00  0.00     0.210 HD
ENDBRANCH  34  44
BRANCH  35  46
ATOM     46  C   UNL d   1     -10.118   2.709 -10.414  0.00  0.00     0.198 C 
BRANCH  46  47
ATOM     47  O   UNL d   1      -9.886   3.472  -9.228  0.00  0.00    -0.398 OA
ATOM     48  H   UNL d   1      -9.768   2.814  -8.518  0.00  0.00     0.209 HD
ENDBRANCH  46  47
ENDBRANCH  35  46
ENDBRANCH  30  31
ENDBRANCH  14  30
BRANCH  13  49
ATOM     49  O   UNL d   1     -16.082  -1.336   0.067  0.00  0.00    -0.395 OA
ATOM     50  H   UNL d   1     -15.643  -0.470   0.114  0.00  0.00     0.210 HD
ENDBRANCH  13  49
BRANCH   9  51
ATOM     51  C   UNL d   1     -16.948  -4.338  -2.812  0.00  0.00     0.144 C 
ATOM     52  O   UNL d   1     -15.901  -4.826  -3.209  0.00  0.00    -0.650 OA
BRANCH  51  53
ATOM     53  O   UNL d   1     -18.053  -5.101  -2.627  0.00  0.00    -0.776 OA
ATOM     54  H   UNL d   1     -18.844  -4.609  -2.336  0.00  0.00     0.167 HD
ENDBRANCH  51  53
ENDBRANCH   9  51
TORSDOF 10
