REMARK  5 active torsions:
REMARK  status: ('A' for Active; 'I' for Inactive)
REMARK    1  A    between atoms: N_4  and  C_1 
REMARK    2  A    between atoms: C_8  and  C_2 
REMARK    3  A    between atoms: O_12  and  C_3 
REMARK    4  A    between atoms: O_14  and  C_6 
REMARK    5  A    between atoms: O_15  and  C_8 
ROOT
ATOM      1  C   UNL d   1       1.882  -1.032   0.021  0.00  0.00     0.139 A 
ATOM      2  C   UNL d   1       1.648   1.356   0.023  0.00  0.00     0.108 A 
ATOM      3  C   UNL d   1       2.481   0.225   0.075  0.00  0.00     0.121 A 
ATOM      4  C   UNL d   1       0.497  -1.183  -0.063  0.00  0.00     0.065 A 
ATOM      5  C   UNL d   1       0.231   1.238  -0.031  0.00  0.00     0.109 A 
ATOM      6  C   UNL d   1      -0.330  -0.053  -0.070  0.00  0.00     0.071 A 
ATOM      7 CL   UNL d   1      -2.019  -0.418  -0.093  0.00  0.00    -0.081 Cl
ENDROOT
BRANCH   2   8
ATOM      8  C   UNL d   1       2.253   2.711  -0.007  0.00  0.00     0.182 C 
ATOM      9  O   UNL d   1       2.026   3.524  -0.883  0.00  0.00    -0.646 OA
BRANCH   8  10
ATOM     10  O   UNL d   1       3.109   2.937   1.015  0.00  0.00    -0.772 OA
ATOM     11  H   UNL d   1       3.301   2.151   1.565  0.00  0.00     0.167 HD
ENDBRANCH   8  10
ENDBRANCH   2   8
BRANCH   3  12
ATOM     12  O   UNL d   1       3.812   0.322   0.389  0.00  0.00    -0.352 OA
ATOM     13  C   UNL d   1       4.634   0.725  -0.713  0.00  0.00     0.210 C 
ENDBRANCH   3  12
BRANCH   5  14
ATOM     14  O   UNL d   1      -0.412   2.443   0.033  0.00  0.00    -0.353 OA
ATOM     15  C   UNL d   1      -1.819   2.571  -0.058  0.00  0.00     0.210 C 
ENDBRANCH   5  14
BRANCH   1  16
ATOM     16  N   UNL d   1       2.694  -2.230   0.051  0.00  0.00    -0.113 N 
ATOM     17  O   UNL d   1       3.511  -2.381  -0.866  0.00  0.00    -0.532 OA
ATOM     18  O   UNL d   1       2.469  -3.034   0.965  0.00  0.00    -0.532 OA
ENDBRANCH   1  16
TORSDOF 5
