REMARK  10 active torsions:
REMARK  status: ('A' for Active; 'I' for Inactive)
REMARK    1  A    between atoms: S_15  and  C_3 
REMARK    2  A    between atoms: C_7  and  C_4 
REMARK    3  A    between atoms: O_25  and  C_7 
REMARK    4  A    between atoms: C_8  and  O_16 
REMARK    5  A    between atoms: C_9  and  O_24 
REMARK       I    between atoms: N_13  and  C_9 
REMARK    6  A    between atoms: C_22  and  N_13 
REMARK    7  A    between atoms: C_32  and  S_15 
REMARK    8  A    between atoms: O_16  and  C_23 
REMARK    9  A    between atoms: O_24  and  C_33 
REMARK   10  A    between atoms: C_33  and  C_32 
ROOT
ATOM      1  C   UNL d   1       1.345  -3.882   1.343  0.00  0.00     0.107 C 
ENDROOT
BRANCH   1   2
ATOM      2  S   UNL d   1       1.204  -3.252  -0.347  0.00  0.00    -0.119 SA
BRANCH   2   3
ATOM      3  C   UNL d   1       1.176  -1.511  -0.069  0.00  0.00     0.056 A 
ATOM      4  C   UNL d   1       0.079  -0.687   0.052  0.00  0.00     0.041 A 
ATOM      5  C   UNL d   1       0.431   0.728   0.003  0.00  0.00    -0.018 A 
ATOM      6  C   UNL d   1      -1.312  -1.107   0.160  0.00  0.00     0.162 C 
ATOM      7  C   UNL d   1       1.810   0.899  -0.067  0.00  0.00     0.088 A 
ATOM      8  C   UNL d   1      -0.644   1.809  -0.004  0.00  0.00     0.050 C 
ATOM      9  S   UNL d   1       2.625  -0.613  -0.084  0.00  0.00    -0.076 SA
ATOM     10  C   UNL d   1      -2.064   1.269   0.365  0.00  0.00    -0.037 C 
ATOM     11  C   UNL d   1      -2.304  -0.081  -0.348  0.00  0.00     0.093 C 
ATOM     12  C   UNL d   1      -3.166   2.247  -0.085  0.00  0.00     0.015 C 
ATOM     13  C   UNL d   1      -2.188   1.101   1.896  0.00  0.00     0.015 C 
ATOM     14  O   UNL d   1      -1.671  -2.153   0.691  0.00  0.00    -0.292 OA
BRANCH   7  15
ATOM     15  C   UNL d   1       2.558   2.154  -0.139  0.00  0.00     0.300 C 
ATOM     16  O   UNL d   1       2.060   3.268  -0.186  0.00  0.00    -0.259 OA
BRANCH  15  17
ATOM     17  O   UNL d   1       3.910   1.920  -0.151  0.00  0.00    -0.322 OA
ATOM     18  C   UNL d   1       4.726   3.098  -0.208  0.00  0.00     0.213 C 
ENDBRANCH  15  17
ENDBRANCH   7  15
ENDBRANCH   2   3
ENDBRANCH   1   2
BRANCH   1  19
ATOM     19  C   UNL d   1       1.467  -5.410   1.345  0.00  0.00     0.191 C 
BRANCH  19  20
ATOM     20  O   UNL d   1       1.425  -5.837   2.715  0.00  0.00    -0.303 OA
BRANCH  20  21
ATOM     21  C   UNL d   1       2.615  -6.028   3.325  0.00  0.00     0.365 C 
ATOM     22  N   UNL d   1       2.699  -5.510   4.594  0.00  0.00    -0.303 N 
ATOM     23  H   UNL d   1       3.637  -5.596   4.963  0.00  0.00     0.171 HD
ATOM     24  O   UNL d   1       3.590  -6.537   2.784  0.00  0.00    -0.238 OA
BRANCH  22  25
ATOM     25  C   UNL d   1       1.817  -4.638   5.266  0.00  0.00     0.037 A 
ATOM     26  C   UNL d   1       0.510  -4.370   4.860  0.00  0.00     0.032 A 
ATOM     27  C   UNL d   1      -0.239  -3.341   5.441  0.00  0.00     0.039 A 
ATOM     28  C   UNL d   1       0.273  -2.625   6.514  0.00  0.00     0.078 A 
ATOM     29  C   UNL d   1       1.552  -2.942   6.981  0.00  0.00     0.039 A 
ATOM     30  C   UNL d   1       2.318  -3.940   6.368  0.00  0.00     0.032 A 
BRANCH  28  31
ATOM     31  O   UNL d   1      -0.333  -1.600   7.169  0.00  0.00    -0.255 OA
BRANCH  31  32
ATOM     32  C   UNL d   1      -1.740  -1.425   7.092  0.00  0.00     0.530 C 
ATOM     33  F   UNL d   1      -2.412  -2.516   6.671  0.00  0.00    -0.144 F 
ATOM     34  F   UNL d   1      -2.191  -1.125   8.331  0.00  0.00    -0.144 F 
ATOM     35  F   UNL d   1      -2.027  -0.388   6.277  0.00  0.00    -0.144 F 
ENDBRANCH  31  32
ENDBRANCH  28  31
ENDBRANCH  22  25
ENDBRANCH  20  21
ENDBRANCH  19  20
ENDBRANCH   1  19
TORSDOF 10
