REMARK  4 active torsions:
REMARK  status: ('A' for Active; 'I' for Inactive)
REMARK    1  A    between atoms: C_12  and  N_3 
REMARK    2  A    between atoms: C_14  and  N_5 
REMARK    3  A    between atoms: N_11  and  C_7 
REMARK    4  A    between atoms: O_19  and  C_10 
ROOT
ATOM      1  C   UNL d   1      -0.037  -0.726  -0.003  0.00  0.00     0.140 A 
ATOM      2  C   UNL d   1      -0.049   0.633  -0.035  0.00  0.00     0.113 A 
ATOM      3  N   UNL d   1       1.215  -1.398  -0.022  0.00  0.00    -0.247 N 
ATOM      4  C   UNL d   1       2.458  -0.705   0.001  0.00  0.00     0.342 A 
ATOM      5  N   UNL d   1       2.402   0.682   0.014  0.00  0.00    -0.229 N 
ATOM      6  N   UNL d   1      -1.309  -1.385   0.100  0.00  0.00    -0.301 N 
ATOM      7  C   UNL d   1      -2.468   0.741  -0.055  0.00  0.00     0.204 C 
ATOM      8  C   UNL d   1       1.232   1.392  -0.025  0.00  0.00     0.273 A 
ATOM      9  C   UNL d   1      -2.546  -0.709  -0.028  0.00  0.00     0.284 C 
ATOM     10  C   UNL d   1      -1.310   1.393  -0.034  0.00  0.00     0.124 C 
ATOM     11  O   UNL d   1       3.545  -1.300  -0.060  0.00  0.00    -0.245 OA
ATOM     12  O   UNL d   1       1.171   2.630   0.015  0.00  0.00    -0.266 OA
ATOM     13  O   UNL d   1      -3.630  -1.289  -0.081  0.00  0.00    -0.265 OA
ATOM     14  C   UNL d   1      -1.514  -2.796   0.393  0.00  0.00     0.161 C 
ENDROOT
BRANCH   3  15
ATOM     15  C   UNL d   1       1.375  -2.827  -0.136  0.00  0.00     0.045 A 
ATOM     16  C   UNL d   1       2.089  -3.520   0.858  0.00  0.00     0.030 A 
ATOM     17  C   UNL d   1       2.129  -4.915   0.863  0.00  0.00     0.002 A 
ATOM     18  C   UNL d   1       1.466  -5.628  -0.130  0.00  0.00     0.000 A 
ATOM     19  C   UNL d   1       0.818  -4.950  -1.163  0.00  0.00     0.002 A 
ATOM     20  C   UNL d   1       0.798  -3.552  -1.185  0.00  0.00     0.030 A 
ENDBRANCH   3  15
BRANCH   5  21
ATOM     21  C   UNL d   1       3.641   1.414   0.016  0.00  0.00     0.047 A 
ATOM     22  C   UNL d   1       3.895   2.388  -0.962  0.00  0.00     0.030 A 
ATOM     23  C   UNL d   1       5.101   3.093  -0.968  0.00  0.00     0.002 A 
ATOM     24  C   UNL d   1       6.054   2.854   0.019  0.00  0.00     0.000 A 
ATOM     25  C   UNL d   1       5.809   1.899   1.005  0.00  0.00     0.002 A 
ATOM     26  C   UNL d   1       4.615   1.172   0.996  0.00  0.00     0.030 A 
ENDBRANCH   5  21
BRANCH  10  27
ATOM     27  O   UNL d   1      -1.274   2.780  -0.016  0.00  0.00    -0.357 OA
ATOM     28  H   UNL d   1      -0.347   3.108   0.036  0.00  0.00     0.217 HD
ENDBRANCH  10  27
BRANCH   7  29
ATOM     29  N   UNL d   1      -3.689   1.478  -0.043  0.00  0.00    -0.107 N 
ATOM     30  O   UNL d   1      -4.178   1.737   1.070  0.00  0.00    -0.531 OA
ATOM     31  O   UNL d   1      -4.166   1.796  -1.138  0.00  0.00    -0.531 OA
ENDBRANCH   7  29
TORSDOF 4
