REMARK  4 active torsions:
REMARK  status: ('A' for Active; 'I' for Inactive)
REMARK    1  A    between atoms: C_6  and  C_3 
REMARK    2  A    between atoms: C_9  and  O_13 
REMARK       I    between atoms: N_16  and  C_9 
REMARK    3  A    between atoms: O_13  and  C_10 
REMARK    4  A    between atoms: C_20  and  N_16 
ROOT
ATOM      1  C   UNL d   1       1.699  -3.025  -0.574  0.00  0.00    -0.006 C 
ATOM      2  C   UNL d   1       1.802  -5.830  -0.507  0.00  0.00     0.092 C 
ATOM      3  C   UNL d   1       0.835  -5.191  -1.299  0.00  0.00    -0.026 C 
ATOM      4  C   UNL d   1       2.863  -5.095   0.050  0.00  0.00    -0.026 C 
ATOM      5  C   UNL d   1       2.786  -3.686   0.022  0.00  0.00     0.023 C 
ATOM      6  C   UNL d   1       0.816  -3.785  -1.345  0.00  0.00     0.023 C 
ATOM      7  C   UNL d   1       4.086  -5.759   0.616  0.00  0.00     0.051 C 
ATOM      8  C   UNL d   1      -0.146  -5.944  -2.150  0.00  0.00     0.051 C 
ENDROOT
BRANCH   1   9
ATOM      9  C   UNL d   1       1.529  -1.534  -0.389  0.00  0.00     0.070 A 
ATOM     10  N   UNL d   1       2.620  -0.825  -0.325  0.00  0.00    -0.294 N 
ATOM     11  N   UNL d   1       2.545   0.538  -0.181  0.00  0.00    -0.261 N 
ATOM     12  HN  UNL d   1       3.530  -1.282  -0.380  1.00  0.00     0.187 HD
ATOM     13  C   UNL d   1       1.365   1.269  -0.172  0.00  0.00     0.272 A 
ATOM     14  C   UNL d   1       3.793   1.268  -0.111  0.00  0.00     0.181 C 
ATOM     15  C   UNL d   1       0.119   0.493  -0.215  0.00  0.00     0.046 A 
ATOM     16  O   UNL d   1       1.315   2.495  -0.107  0.00  0.00    -0.266 OA
ATOM     17  C   UNL d   1      -1.109   1.176  -0.154  0.00  0.00     0.018 A 
ATOM     18  C   UNL d   1       0.173  -0.899  -0.259  0.00  0.00     0.009 A 
ATOM     19  C   UNL d   1      -2.303   0.465  -0.119  0.00  0.00     0.001 A 
ATOM     20  C   UNL d   1      -2.265  -0.925  -0.101  0.00  0.00     0.001 A 
ATOM     21  C   UNL d   1      -1.037  -1.601  -0.144  0.00  0.00     0.015 A 
ENDBRANCH   1   9
BRANCH   2  22
ATOM     22  O   UNL d   1       1.449  -7.106   0.042  0.00  0.00    -0.260 OA
BRANCH  22  23
ATOM     23  C   UNL d   1       2.313  -8.187   0.114  0.00  0.00     0.370 C 
ATOM     24  N   UNL d   1       2.208  -8.985   1.232  0.00  0.00    -0.302 N 
ATOM     25  H   UNL d   1       2.951  -9.671   1.255  0.00  0.00     0.171 HD
ATOM     26  O   UNL d   1       3.188  -8.415  -0.727  0.00  0.00    -0.238 OA
BRANCH  24  27
ATOM     27  C   UNL d   1       1.400  -8.904   2.388  0.00  0.00     0.036 A 
ATOM     28  C   UNL d   1       0.264  -8.106   2.515  0.00  0.00     0.029 A 
ATOM     29  C   UNL d   1      -0.454  -8.075   3.721  0.00  0.00     0.002 A 
ATOM     30  C   UNL d   1      -0.044  -8.838   4.812  0.00  0.00     0.000 A 
ATOM     31  C   UNL d   1       1.075  -9.653   4.694  0.00  0.00     0.002 A 
ATOM     32  C   UNL d   1       1.784  -9.694   3.486  0.00  0.00     0.029 A 
ENDBRANCH  24  27
ENDBRANCH  22  23
ENDBRANCH   2  22
TORSDOF 4
