REMARK  4 active torsions:
REMARK  status: ('A' for Active; 'I' for Inactive)
REMARK    1  A    between atoms: S_5  and  C_1 
REMARK    2  A    between atoms: N_7  and  C_2 
REMARK       I    between atoms: C_8  and  N_7 
REMARK       I    between atoms: N_11  and  C_8 
REMARK    3  A    between atoms: C_9  and  C_10 
REMARK    4  A    between atoms: C_17  and  N_11 
ROOT
ATOM      1  N   UNL d   1      -2.275  -1.863   0.503  0.00  0.00    -0.302 N 
ATOM      2  C   UNL d   1      -3.582  -2.197   0.644  0.00  0.00     0.325 C 
ATOM      3  N   UNL d   1      -4.449  -1.308   1.204  0.00  0.00    -0.309 N 
ATOM      4  O   UNL d   1      -3.880  -3.327   0.258  0.00  0.00    -0.247 OA
ATOM      5  H   UNL d   1      -1.769  -2.664   0.145  0.00  0.00     0.171 HD
ATOM      6  H   UNL d   1      -4.030  -0.548   1.722  0.00  0.00     0.170 HD
ENDROOT
BRANCH   1   7
ATOM      7  C   UNL d   1      -1.546  -0.702   0.615  0.00  0.00     0.086 A 
ATOM      8  S   UNL d   1      -2.232   0.803   0.969  0.00  0.00    -0.059 SA
ATOM      9  C   UNL d   1      -0.734   1.627   0.776  0.00  0.00     0.112 A 
ATOM     10  C   UNL d   1       0.276   0.734   0.484  0.00  0.00     0.001 A 
ATOM     11  C   UNL d   1      -0.185  -0.616   0.392  0.00  0.00    -0.012 A 
ATOM     12  C   UNL d   1       1.650   1.051   0.255  0.00  0.00     0.010 C 
ATOM     13  C   UNL d   1       0.734  -1.753   0.036  0.00  0.00     0.046 C 
ATOM     14  C   UNL d   1       2.226  -1.377  -0.029  0.00  0.00     0.032 C 
ATOM     15  C   UNL d   1       2.557   0.092   0.008  0.00  0.00    -0.025 C 
BRANCH   9  16
ATOM     16  S   UNL d   1      -0.763   3.401   0.937  0.00  0.00     0.179 S 
ATOM     17  O   UNL d   1      -2.076   3.775   1.428  0.00  0.00    -0.222 OA
ATOM     18  O   UNL d   1       0.446   3.743   1.659  0.00  0.00    -0.222 OA
ATOM     19  C   UNL d   1      -0.601   3.957  -0.738  0.00  0.00     0.167 C 
ENDBRANCH   9  16
ENDBRANCH   1   7
BRANCH   3  20
ATOM     20  C   UNL d   1      -5.857  -1.437   1.252  0.00  0.00     0.037 A 
ATOM     21  C   UNL d   1      -6.562  -2.351   0.460  0.00  0.00     0.045 A 
ATOM     22  C   UNL d   1      -7.966  -2.390   0.456  0.00  0.00     0.050 A 
ATOM     23  C   UNL d   1      -8.669  -1.527   1.306  0.00  0.00     0.016 A 
ATOM     24  C   UNL d   1      -7.978  -0.627   2.118  0.00  0.00     0.003 A 
ATOM     25  C   UNL d   1      -6.580  -0.572   2.079  0.00  0.00     0.029 A 
BRANCH  22  26
ATOM     26  C   UNL d   1      -8.704  -3.303  -0.492  0.00  0.00     0.417 C 
ATOM     27  F   UNL d   1      -7.890  -4.066  -1.274  0.00  0.00    -0.166 F 
ATOM     28  F   UNL d   1      -9.531  -4.175   0.148  0.00  0.00    -0.166 F 
ATOM     29  F   UNL d   1      -9.496  -2.608  -1.358  0.00  0.00    -0.166 F 
ENDBRANCH  22  26
ENDBRANCH   3  20
TORSDOF 4
