REMARK  1 active torsions:
REMARK  status: ('A' for Active; 'I' for Inactive)
REMARK    1  A    between atoms: C_2  and  C_1 
ROOT
ATOM      1  C   UNL d   1      -0.070   1.221  -0.059  0.00  0.00     0.016 A 
ATOM      2  N   UNL d   1      -1.126  -0.778   0.356  0.00  0.00    -0.305 N 
ATOM      3  HN  UNL d   1      -1.794  -1.483   0.668  1.00  0.00     0.186 HD
ATOM      4  N   UNL d   1       0.015  -0.967  -0.314  0.00  0.00    -0.311 N 
ATOM      5  C   UNL d   1      -1.193   0.550   0.527  0.00  0.00     0.034 A 
ATOM      6  C   UNL d   1       0.705   0.186  -0.540  0.00  0.00     0.121 A 
ATOM      7  C   UNL d   1      -2.356   1.112   1.259  0.00  0.00     0.070 C 
ATOM      8  H   UNL d   1       0.271  -1.912  -0.574  0.00  0.00     0.186 HD
ENDROOT
BRANCH   1   9
ATOM      9  C   UNL d   1       0.310   2.637  -0.109  0.00  0.00    -0.001 A 
ATOM     10  C   UNL d   1       0.960   3.249  -1.201  0.00  0.00     0.045 A 
ATOM     11 CL   UNL d   1       1.324   2.438  -2.689  0.00  0.00    -0.083 Cl
ATOM     12  C   UNL d   1       1.321   4.606  -1.151  0.00  0.00     0.024 A 
ATOM     13  C   UNL d   1       1.013   5.383  -0.038  0.00  0.00     0.002 A 
ATOM     14  C   UNL d   1       0.351   4.805   1.036  0.00  0.00     0.001 A 
ATOM     15  C   UNL d   1       0.018   3.446   1.006  0.00  0.00     0.014 A 
ENDBRANCH   1   9
TORSDOF 1
