REMARK  5 active torsions:
REMARK  status: ('A' for Active; 'I' for Inactive)
REMARK    1  A    between atoms: N_3  and  S_1 
REMARK    2  A    between atoms: C_9  and  S_1 
REMARK    3  A    between atoms: C_2  and  N_3 
REMARK    4  A    between atoms: C_12  and  C_7 
REMARK    5  A    between atoms: C_13  and  C_14 
ROOT
ATOM      1  C   UNL d   1       0.318  -0.996  -2.790  0.00  0.00     0.131 A 
ATOM      2  C   UNL d   1       0.979  -0.640  -3.936  0.00  0.00     0.082 A 
ATOM      3  N   UNL d   1       1.779  -2.652  -3.241  0.00  0.00    -0.298 N 
ATOM      4  HN  UNL d   1       2.296  -3.529  -3.176  1.00  0.00     0.187 HD
ATOM      5  C   UNL d   1       1.913  -1.689  -4.170  0.00  0.00     0.062 A 
ATOM      6  N   UNL d   1       0.816  -2.209  -2.417  0.00  0.00    -0.284 N 
ATOM      7  H   UNL d   1       0.535  -2.802  -1.642  0.00  0.00     0.188 HD
ENDROOT
BRANCH   1   8
ATOM      8  N   UNL d   1      -0.622  -0.223  -2.146  0.00  0.00    -0.265 N 
ATOM      9  H   UNL d   1      -1.421   0.120  -2.649  0.00  0.00     0.180 HD
BRANCH   8  10
ATOM     10  S   UNL d   1      -0.252   0.620  -0.792  0.00  0.00     0.264 S 
ATOM     11  O   UNL d   1       0.492  -0.201   0.133  0.00  0.00    -0.200 OA
ATOM     12  O   UNL d   1      -1.435   1.337  -0.360  0.00  0.00    -0.200 OA
BRANCH  10  13
ATOM     13  C   UNL d   1       0.880   1.868  -1.429  0.00  0.00     0.080 A 
ATOM     14  C   UNL d   1       0.378   3.070  -1.945  0.00  0.00     0.027 A 
ATOM     15  C   UNL d   1       1.266   4.040  -2.426  0.00  0.00     0.025 A 
ATOM     16  C   UNL d   1       2.642   3.808  -2.384  0.00  0.00     0.034 A 
ATOM     17  C   UNL d   1       3.141   2.613  -1.867  0.00  0.00     0.025 A 
ATOM     18 CL   UNL d   1       3.729   5.006  -2.967  0.00  0.00    -0.084 Cl
ATOM     19  C   UNL d   1       2.261   1.639  -1.379  0.00  0.00     0.027 A 
ENDBRANCH  10  13
ENDBRANCH   8  10
ENDBRANCH   1   8
BRANCH   5  20
ATOM     20  C   UNL d   1       2.936  -1.748  -5.217  0.00  0.00    -0.008 A 
ATOM     21  C   UNL d   1       4.072  -2.549  -5.067  0.00  0.00     0.014 A 
ATOM     22  C   UNL d   1       5.083  -2.548  -6.038  0.00  0.00     0.009 A 
ATOM     23  C   UNL d   1       4.995  -1.748  -7.192  0.00  0.00    -0.051 A 
ATOM     24  C   UNL d   1       3.833  -0.975  -7.344  0.00  0.00     0.009 A 
ATOM     25  C   UNL d   1       2.822  -0.973  -6.374  0.00  0.00     0.014 A 
BRANCH  23  26
ATOM     26  C   UNL d   1       6.146  -1.718  -8.214  0.00  0.00    -0.024 C 
ATOM     27  C   UNL d   1       5.881  -0.770  -9.407  0.00  0.00     0.019 C 
ATOM     28  C   UNL d   1       7.438  -1.231  -7.521  0.00  0.00     0.019 C 
ATOM     29  C   UNL d   1       6.393  -3.126  -8.796  0.00  0.00     0.019 C 
ENDBRANCH  23  26
ENDBRANCH   5  20
TORSDOF 5
