REMARK  5 active torsions:
REMARK  status: ('A' for Active; 'I' for Inactive)
REMARK    1  A    between atoms: C_3  and  S_1 
REMARK    2  A    between atoms: C_6  and  S_1 
REMARK    3  A    between atoms: C_2  and  C_3 
REMARK    4  A    between atoms: C_4  and  C_8 
REMARK    5  A    between atoms: C_5  and  C_7 
ROOT
ATOM      1  C   UNL d   1       0.450  -1.577  -0.245  0.00  0.00     0.061 A 
ATOM      2  C   UNL d   1      -1.406  -3.072  -0.722  0.00  0.00     0.050 A 
ATOM      3  C   UNL d   1       0.832  -3.975  -0.284  0.00  0.00     0.050 A 
ATOM      4  C   UNL d   1       1.313  -2.668  -0.100  0.00  0.00     0.039 A 
ATOM      5  C   UNL d   1      -0.903  -1.770  -0.555  0.00  0.00     0.039 A 
ATOM      6  C   UNL d   1      -0.526  -4.162  -0.599  0.00  0.00     0.032 A 
ENDROOT
BRANCH   1   7
ATOM      7  S   UNL d   1       1.060   0.076   0.089  0.00  0.00     0.179 S 
ATOM      8  O   UNL d   1       0.004   0.990  -0.302  0.00  0.00    -0.222 OA
ATOM      9  O   UNL d   1       1.531   0.033   1.460  0.00  0.00    -0.222 OA
BRANCH   7  10
ATOM     10  C   UNL d   1       2.447   0.270  -1.032  0.00  0.00     0.187 C 
BRANCH  10  11
ATOM     11  C   UNL d   1       3.067   1.640  -0.848  0.00  0.00    -0.001 A 
ATOM     12  C   UNL d   1       4.092   1.863   0.095  0.00  0.00     0.043 A 
ATOM     13 CL   UNL d   1       4.740   0.589   1.069  0.00  0.00    -0.084 Cl
ATOM     14  C   UNL d   1       4.667   3.130   0.260  0.00  0.00     0.024 A 
ATOM     15  C   UNL d   1       4.236   4.204  -0.512  0.00  0.00     0.003 A 
ATOM     16  C   UNL d   1       3.227   4.010  -1.449  0.00  0.00     0.024 A 
ATOM     17  C   UNL d   1       2.648   2.744  -1.616  0.00  0.00     0.043 A 
ATOM     18 CL   UNL d   1       1.433   2.606  -2.840  0.00  0.00    -0.084 Cl
ENDBRANCH  10  11
ENDBRANCH   7  10
ENDBRANCH   1   7
BRANCH   3  19
ATOM     19  C   UNL d   1       1.737  -5.176  -0.119  0.00  0.00     0.417 C 
ATOM     20  F   UNL d   1       3.014  -4.847   0.215  0.00  0.00    -0.166 F 
ATOM     21  F   UNL d   1       1.298  -6.027   0.847  0.00  0.00    -0.166 F 
ATOM     22  F   UNL d   1       1.827  -5.913  -1.260  0.00  0.00    -0.166 F 
ENDBRANCH   3  19
BRANCH   2  23
ATOM     23  C   UNL d   1      -2.873  -3.324  -0.990  0.00  0.00     0.417 C 
ATOM     24  F   UNL d   1      -3.625  -2.192  -1.046  0.00  0.00    -0.166 F 
ATOM     25  F   UNL d   1      -3.079  -3.972  -2.169  0.00  0.00    -0.166 F 
ATOM     26  F   UNL d   1      -3.442  -4.106  -0.031  0.00  0.00    -0.166 F 
ENDBRANCH   2  23
TORSDOF 5
