REMARK  3 active torsions:
REMARK  status: ('A' for Active; 'I' for Inactive)
REMARK    1  A    between atoms: C_8  and  C_1 
REMARK    2  A    between atoms: C_4  and  C_5 
REMARK       I    between atoms: N_15  and  C_8 
REMARK    3  A    between atoms: C_9  and  N_15 
ROOT
ATOM      1  C   UNL d   1       1.250   0.762  -0.096  0.00  0.00     0.108 A 
ATOM      2  N   UNL d   1       1.384  -0.612   0.163  0.00  0.00    -0.344 N 
ATOM      3  HN  UNL d   1       2.219  -1.061   0.541  1.00  0.00     0.167 HD
ATOM      4  C   UNL d   1       0.260  -1.234  -0.159  0.00  0.00     0.103 A 
ATOM      5  S   UNL d   1      -0.980  -0.228  -0.809  0.00  0.00    -0.079 SA
ATOM      6  C   UNL d   1       0.027   1.132  -0.625  0.00  0.00     0.087 A 
ENDROOT
BRANCH   1   7
ATOM      7  C   UNL d   1       2.312   1.743   0.184  0.00  0.00     0.274 C 
ATOM      8  N   UNL d   1       3.479   1.152   0.610  0.00  0.00    -0.306 N 
ATOM      9  H   UNL d   1       3.510   0.141   0.626  0.00  0.00     0.170 HD
ATOM     10  O   UNL d   1       2.108   2.941   0.024  0.00  0.00    -0.266 OA
BRANCH   8  11
ATOM     11  C   UNL d   1       4.582   1.857   1.052  0.00  0.00     0.131 A 
ATOM     12  N   UNL d   1       4.644   3.185   1.191  0.00  0.00    -0.245 N 
ATOM     13  O   UNL d   1       5.886   3.471   1.713  0.00  0.00    -0.241 OA
ATOM     14  HN  UNL d   1       3.912   3.857   0.957  1.00  0.00     0.196 HD
ATOM     15  C   UNL d   1       6.581   2.318   1.877  0.00  0.00     0.076 A 
ATOM     16  C   UNL d   1       5.805   1.265   1.456  0.00  0.00     0.084 A 
ATOM     17  C   UNL d   1       7.930   2.455   2.453  0.00  0.00     0.079 C 
ENDBRANCH   8  11
ENDBRANCH   1   7
BRANCH   4  18
ATOM     18  C   UNL d   1       0.054  -2.715   0.021  0.00  0.00     0.091 A 
ATOM     19  N   UNL d   1      -1.075  -3.339  -0.347  0.00  0.00    -0.258 N 
ATOM     20  O   UNL d   1      -0.890  -4.672  -0.040  0.00  0.00    -0.242 OA
ATOM     21  HN  UNL d   1      -1.901  -2.915  -0.769  1.00  0.00     0.195 HD
ATOM     22  C   UNL d   1       0.337  -4.843   0.517  0.00  0.00     0.074 A 
ATOM     23  C   UNL d   1       0.977  -3.629   0.583  0.00  0.00     0.068 A 
ATOM     24  C   UNL d   1       0.684  -6.224   0.895  0.00  0.00     0.079 C 
ENDBRANCH   4  18
TORSDOF 3
