REMARK  7 active torsions:
REMARK  status: ('A' for Active; 'I' for Inactive)
REMARK    1  A    between atoms: C_7  and  C_1 
REMARK    2  A    between atoms: C_8  and  C_3 
REMARK    3  A    between atoms: C_9  and  C_6 
REMARK    4  A    between atoms: O_13  and  C_7 
REMARK    5  A    between atoms: S_11  and  C_8 
REMARK    6  A    between atoms: C_12  and  S_11 
REMARK    7  A    between atoms: C_22  and  O_13 
ROOT
ATOM      1  C   UNL d   1       0.023   1.297  -0.091  0.00  0.00     0.105 A 
ATOM      2  S   UNL d   1      -1.103   0.004  -0.154  0.00  0.00    -0.064 SA
ATOM      3  C   UNL d   1       1.316   0.790  -0.098  0.00  0.00     0.043 A 
ATOM      4  N   UNL d   1       1.377  -0.602  -0.054  0.00  0.00    -0.351 N 
ATOM      5  HN  UNL d   1       2.243  -1.140  -0.021  1.00  0.00     0.166 HD
ATOM      6  C   UNL d   1       0.172  -1.136  -0.062  0.00  0.00     0.085 A 
ENDROOT
BRANCH   3   7
ATOM      7  C   UNL d   1       2.592   1.593  -0.064  0.00  0.00     0.138 C 
BRANCH   7   8
ATOM      8  S   UNL d   1       3.984   0.745  -0.891  0.00  0.00    -0.124 SA
BRANCH   8   9
ATOM      9  C   UNL d   1       5.346   1.891  -0.733  0.00  0.00     0.001 A 
ATOM     10  C   UNL d   1       5.279   3.149  -0.124  0.00  0.00     0.020 A 
ATOM     11  C   UNL d   1       6.409   3.976  -0.071  0.00  0.00     0.025 A 
ATOM     12  C   UNL d   1       7.613   3.550  -0.626  0.00  0.00     0.034 A 
ATOM     13  C   UNL d   1       7.700   2.301  -1.230  0.00  0.00     0.025 A 
ATOM     14 CL   UNL d   1       8.995   4.573  -0.567  0.00  0.00    -0.084 Cl
ATOM     15  C   UNL d   1       6.571   1.478  -1.281  0.00  0.00     0.020 A 
ENDBRANCH   8   9
ENDBRANCH   7   8
ENDBRANCH   3   7
BRANCH   1  16
ATOM     16  C   UNL d   1      -0.407   2.674   0.023  0.00  0.00     0.302 C 
ATOM     17  O   UNL d   1       0.339   3.630   0.201  0.00  0.00    -0.259 OA
BRANCH  16  18
ATOM     18  O   UNL d   1      -1.769   2.757   0.018  0.00  0.00    -0.317 OA
BRANCH  18  19
ATOM     19  C   UNL d   1      -2.337   3.940   0.592  0.00  0.00     0.174 C 
ATOM     20  C   UNL d   1      -2.438   3.738   2.094  0.00  0.00     0.034 C 
ENDBRANCH  18  19
ENDBRANCH  16  18
ENDBRANCH   1  16
BRANCH   6  21
ATOM     21  C   UNL d   1      -0.103  -2.579  -0.045  0.00  0.00    -0.002 A 
ATOM     22  C   UNL d   1       0.847  -3.463  -0.580  0.00  0.00     0.014 A 
ATOM     23  C   UNL d   1       0.616  -4.838  -0.604  0.00  0.00     0.001 A 
ATOM     24  C   UNL d   1      -0.569  -5.355  -0.080  0.00  0.00     0.000 A 
ATOM     25  C   UNL d   1      -1.514  -4.499   0.475  0.00  0.00     0.001 A 
ATOM     26  C   UNL d   1      -1.283  -3.122   0.495  0.00  0.00     0.014 A 
ENDBRANCH   6  21
TORSDOF 7
