REMARK  3 active torsions:
REMARK  status: ('A' for Active; 'I' for Inactive)
REMARK    1  A    between atoms: O_10  and  C_2 
REMARK    2  A    between atoms: C_3  and  C_11 
REMARK    3  A    between atoms: C_16  and  O_10 
ROOT
ATOM      1  C   UNL d   1       2.977   4.600  -0.883  0.00  0.00     0.100 A 
ATOM      2  C   UNL d   1       2.418   3.322  -0.725  0.00  0.00     0.098 A 
ATOM      3  C   UNL d   1       2.475   5.735  -0.167  0.00  0.00     0.104 C 
ATOM      4  N   UNL d   1       2.068   6.669   0.397  0.00  0.00    -0.191 NA
ATOM      5  C   UNL d   1       4.074   4.758  -1.744  0.00  0.00     0.057 A 
ATOM      6 CL   UNL d   1       4.762   6.309  -2.090  0.00  0.00    -0.083 Cl
ATOM      7  C   UNL d   1       3.025   2.213  -1.332  0.00  0.00     0.039 A 
ATOM      8  C   UNL d   1       4.145   2.374  -2.144  0.00  0.00     0.005 A 
ATOM      9  C   UNL d   1       4.657   3.649  -2.368  0.00  0.00     0.025 A 
ENDROOT
BRANCH   2  10
ATOM     10  O   UNL d   1       1.345   3.007   0.083  0.00  0.00    -0.309 OA
BRANCH  10  11
ATOM     11  C   UNL d   1       0.172   3.723   0.004  0.00  0.00     0.076 A 
ATOM     12  C   UNL d   1      -0.240   4.480  -1.093  0.00  0.00     0.038 A 
ATOM     13  C   UNL d   1      -1.407   5.249  -1.014  0.00  0.00     0.016 A 
ATOM     14  C   UNL d   1      -2.215   5.216   0.132  0.00  0.00    -0.008 A 
ATOM     15  C   UNL d   1      -1.836   4.386   1.193  0.00  0.00     0.016 A 
ATOM     16  C   UNL d   1      -0.648   3.649   1.131  0.00  0.00     0.038 A 
BRANCH  14  17
ATOM     17  C   UNL d   1      -3.438   6.007   0.206  0.00  0.00     0.059 A 
ATOM     18  N   UNL d   1      -3.572   7.261  -0.341  0.00  0.00    -0.300 N 
ATOM     19  N   UNL d   1      -4.799   7.793  -0.203  0.00  0.00    -0.311 N 
ATOM     20  H   UNL d   1      -2.864   7.806  -0.820  0.00  0.00     0.187 HD
ATOM     21  C   UNL d   1      -5.462   6.869   0.494  0.00  0.00     0.109 A 
ATOM     22  HN  UNL d   1      -5.142   8.689  -0.549  1.00  0.00     0.186 HD
ATOM     23  C   UNL d   1      -4.664   5.751   0.792  0.00  0.00     0.050 A 
ENDBRANCH  14  17
ENDBRANCH  10  11
ENDBRANCH   2  10
TORSDOF 3
