REMARK  7 active torsions:
REMARK  status: ('A' for Active; 'I' for Inactive)
REMARK    1  A    between atoms: N_7  and  S_1 
REMARK    2  A    between atoms: C_9  and  S_1 
REMARK    3  A    between atoms: C_13  and  C_2 
REMARK    4  A    between atoms: C_3  and  C_12 
REMARK    5  A    between atoms: N_10  and  N_7 
REMARK    6  A    between atoms: O_23  and  C_13 
REMARK    7  A    between atoms: C_26  and  O_23 
ROOT
ATOM      1  N   UNL d   1       0.752   0.789   2.582  0.00  0.00    -0.293 N 
ATOM      2  HN  UNL d   1       0.393   0.905   1.635  1.00  0.00     0.187 HD
ATOM      3  C   UNL d   1       0.365   1.585   3.534  0.00  0.00     0.058 C 
ATOM      4  C   UNL d   1       0.803   1.479   4.974  0.00  0.00     0.072 C 
ENDROOT
BRANCH   1   5
ATOM      5  N   UNL d   1       1.683  -0.249   2.877  0.00  0.00    -0.223 N 
ATOM      6  H   UNL d   1       2.133  -0.405   3.783  0.00  0.00     0.200 HD
BRANCH   5   7
ATOM      7  S   UNL d   1       2.152  -1.342   1.666  0.00  0.00     0.276 S 
ATOM      8  O   UNL d   1       0.971  -1.895   1.040  0.00  0.00    -0.199 OA
ATOM      9  O   UNL d   1       3.165  -2.189   2.250  0.00  0.00    -0.199 OA
BRANCH   7  10
ATOM     10  C   UNL d   1       2.953  -0.276   0.483  0.00  0.00     0.083 A 
ATOM     11  C   UNL d   1       2.186   0.330  -0.520  0.00  0.00     0.052 A 
ATOM     12  C   UNL d   1       2.821   1.092  -1.498  0.00  0.00     0.074 A 
ATOM     13 CL   UNL d   1       1.882   1.826  -2.741  0.00  0.00    -0.081 Cl
ATOM     14  C   UNL d   1       4.207   1.245  -1.473  0.00  0.00     0.138 A 
ATOM     15  C   UNL d   1       4.971   0.640  -0.476  0.00  0.00     0.045 A 
ATOM     16  F   UNL d   1       4.835   1.966  -2.414  0.00  0.00    -0.204 F 
ATOM     17  C   UNL d   1       4.346  -0.131   0.506  0.00  0.00     0.028 A 
ENDBRANCH   7  10
ENDBRANCH   5   7
ENDBRANCH   1   5
BRANCH   3  18
ATOM     18  C   UNL d   1      -0.570   2.617   3.181  0.00  0.00     0.124 A 
ATOM     19  C   UNL d   1      -1.527   2.694   2.198  0.00  0.00     0.079 A 
ATOM     20  C   UNL d   1      -2.112   3.975   2.360  0.00  0.00     0.132 A 
ATOM     21  N   UNL d   1      -1.514   4.639   3.366  0.00  0.00    -0.255 N 
ATOM     22  O   UNL d   1      -0.561   3.784   3.878  0.00  0.00    -0.235 OA
ATOM     23  HN  UNL d   1      -1.723   5.585   3.685  1.00  0.00     0.195 HD
BRANCH  20  24
ATOM     24  C   UNL d   1      -3.166   4.565   1.543  0.00  0.00     0.311 C 
ATOM     25  O   UNL d   1      -3.700   3.966   0.612  0.00  0.00    -0.258 OA
BRANCH  24  26
ATOM     26  O   UNL d   1      -3.421   5.862   1.876  0.00  0.00    -0.317 OA
BRANCH  26  27
ATOM     27  C   UNL d   1      -3.989   6.661   0.834  0.00  0.00     0.175 C 
ATOM     28  C   UNL d   1      -2.852   7.165  -0.037  0.00  0.00     0.034 C 
ENDBRANCH  26  27
ENDBRANCH  24  26
ENDBRANCH  20  24
ENDBRANCH   3  18
TORSDOF 7
