REMARK  2 active torsions:
REMARK  status: ('A' for Active; 'I' for Inactive)
REMARK    1  A    between atoms: C_2  and  C_1 
REMARK    2  A    between atoms: O_8  and  C_2 
ROOT
ATOM      1  C   UNL d   1       2.502  -0.005  -0.265  0.00  0.00     0.092 C 
ATOM      2  C   UNL d   1       1.677   1.230   0.144  0.00  0.00     0.054 C 
ATOM      3  C   UNL d   1       1.661  -1.234   0.137  0.00  0.00     0.054 C 
ATOM      4  C   UNL d   1       0.279   0.708   0.039  0.00  0.00    -0.051 A 
ATOM      5  C   UNL d   1       0.271  -0.690   0.032  0.00  0.00    -0.051 A 
ATOM      6  C   UNL d   1      -0.903   1.428  -0.002  0.00  0.00     0.007 A 
ATOM      7  C   UNL d   1      -0.918  -1.398  -0.013  0.00  0.00     0.007 A 
ATOM      8  C   UNL d   1      -2.114  -0.681  -0.067  0.00  0.00     0.001 A 
ATOM      9  C   UNL d   1      -2.107   0.723  -0.062  0.00  0.00     0.001 A 
ENDROOT
BRANCH   1  10
ATOM     10  C   UNL d   1       3.867  -0.017   0.379  0.00  0.00     0.144 C 
ATOM     11  O   UNL d   1       4.285  -0.890   1.121  0.00  0.00    -0.650 OA
BRANCH  10  12
ATOM     12  O   UNL d   1       4.637   1.034   0.011  0.00  0.00    -0.776 OA
ATOM     13  H   UNL d   1       4.223   1.637  -0.635  0.00  0.00     0.167 HD
ENDBRANCH  10  12
ENDBRANCH   1  10
TORSDOF 2
