REMARK  4 active torsions:
REMARK  status: ('A' for Active; 'I' for Inactive)
REMARK    1  A    between atoms: C_2  and  C_1 
REMARK       I    between atoms: N_3  and  C_1 
REMARK       I    between atoms: C_4  and  N_7 
REMARK    2  A    between atoms: C_14  and  C_4 
REMARK    3  A    between atoms: N_7  and  C_15 
REMARK    4  A    between atoms: C_18  and  C_14 
ROOT
ATOM      1  C   UNL d   1       1.118  -0.137  -0.263  0.00  0.00     0.257 C 
ATOM      2  N   UNL d   1       0.161  -1.007  -0.811  0.00  0.00    -0.348 N 
ATOM      3  O   UNL d   1       0.987   1.086  -0.242  0.00  0.00    -0.267 OA
ATOM      4  C   UNL d   1       0.386  -2.428  -1.102  0.00  0.00     0.128 C 
ATOM      5  C   UNL d   1      -0.962  -0.392  -1.513  0.00  0.00     0.128 C 
ATOM      6  C   UNL d   1      -2.247  -1.206  -1.395  0.00  0.00     0.045 C 
ATOM      7  C   UNL d   1      -0.874  -3.265  -0.955  0.00  0.00     0.045 C 
ATOM      8  C   UNL d   1      -2.050  -2.682  -1.741  0.00  0.00     0.087 C 
ENDROOT
BRANCH   8   9
ATOM      9  N   UNL d   1      -1.920  -2.893  -3.183  0.00  0.00    -0.356 N 
ATOM     10  C   UNL d   1      -2.209  -4.115  -3.762  0.00  0.00     0.222 C 
ATOM     11  O   UNL d   1      -2.581  -5.092  -3.116  0.00  0.00    -0.273 OA
ATOM     12  H   UNL d   1      -1.401  -2.222  -3.736  0.00  0.00     0.162 HD
BRANCH  10  13
ATOM     13  C   UNL d   1      -2.062  -4.149  -5.273  0.00  0.00     0.141 C 
BRANCH  13  14
ATOM     14  C   UNL d   1      -0.710  -4.617  -5.753  0.00  0.00    -0.050 A 
ATOM     15  C   UNL d   1      -0.201  -5.865  -5.362  0.00  0.00     0.007 A 
ATOM     16  C   UNL d   1       1.020  -6.322  -5.862  0.00  0.00     0.001 A 
ATOM     17  C   UNL d   1       1.744  -5.541  -6.760  0.00  0.00     0.000 A 
ATOM     18  C   UNL d   1       1.248  -4.302  -7.159  0.00  0.00     0.001 A 
ATOM     19  C   UNL d   1       0.026  -3.844  -6.661  0.00  0.00     0.007 A 
ENDBRANCH  13  14
ENDBRANCH  10  13
ENDBRANCH   8   9
BRANCH   1  20
ATOM     20  C   UNL d   1       2.364  -0.680   0.328  0.00  0.00     0.075 A 
ATOM     21  C   UNL d   1       3.364  -1.244  -0.476  0.00  0.00     0.051 A 
ATOM     22 CL   UNL d   1       3.290  -1.249  -2.204  0.00  0.00    -0.083 Cl
ATOM     23  C   UNL d   1       4.512  -1.792   0.106  0.00  0.00     0.025 A 
ATOM     24  C   UNL d   1       4.716  -1.700   1.482  0.00  0.00     0.003 A 
ATOM     25  C   UNL d   1       3.769  -1.057   2.276  0.00  0.00     0.025 A 
ATOM     26  C   UNL d   1       2.596  -0.550   1.711  0.00  0.00     0.051 A 
ATOM     27 CL   UNL d   1       1.473   0.210   2.784  0.00  0.00    -0.083 Cl
ENDBRANCH   1  20
TORSDOF 4
