REMARK  3 active torsions:
REMARK  status: ('A' for Active; 'I' for Inactive)
REMARK       I    between atoms: N_2  and  C_1 
REMARK       I    between atoms: N_3  and  C_1 
REMARK    1  A    between atoms: C_5  and  N_3 
REMARK    2  A    between atoms: C_6  and  N_4 
REMARK    3  A    between atoms: O_20  and  C_14 
ROOT
ATOM      1  C   UNL d   1       0.916  -0.052  -0.169  0.00  0.00     0.323 C 
ATOM      2  N   UNL d   1       0.584   0.497   1.071  0.00  0.00    -0.331 N 
ATOM      3  N   UNL d   1       0.519  -1.363  -0.313  0.00  0.00    -0.306 N 
ATOM      4  N   UNL d   1      -0.371   2.017   3.295  0.00  0.00    -0.376 N 
ATOM      5  O   UNL d   1       1.570   0.570  -1.002  0.00  0.00    -0.247 OA
ATOM      6  C   UNL d   1       1.119   1.841   1.347  0.00  0.00     0.147 C 
ATOM      7  C   UNL d   1      -0.721   0.216   1.675  0.00  0.00     0.147 C 
ATOM      8  C   UNL d   1       1.006   2.258   2.837  0.00  0.00     0.143 C 
ATOM      9  C   UNL d   1      -0.770   0.604   3.156  0.00  0.00     0.143 C 
ATOM     10  H   UNL d   1       0.498  -1.864   0.568  0.00  0.00     0.171 HD
ENDROOT
BRANCH   3  11
ATOM     11  C   UNL d   1       0.903  -2.156  -1.418  0.00  0.00     0.075 A 
ATOM     12  C   UNL d   1       1.335  -3.456  -1.163  0.00  0.00     0.146 A 
ATOM     13  C   UNL d   1       1.847  -4.255  -2.177  0.00  0.00     0.086 A 
ATOM     14  F   UNL d   1       1.324  -3.926   0.095  0.00  0.00    -0.204 F 
ATOM     15  C   UNL d   1       1.875  -3.749  -3.468  0.00  0.00     0.119 A 
ATOM     16  C   UNL d   1       1.388  -2.477  -3.759  0.00  0.00     0.044 A 
ATOM     17  F   UNL d   1       2.389  -4.498  -4.455  0.00  0.00    -0.206 F 
ATOM     18  C   UNL d   1       0.899  -1.671  -2.727  0.00  0.00     0.036 A 
ENDBRANCH   3  11
BRANCH   4  19
ATOM     19  C   UNL d   1      -0.996   2.813   4.248  0.00  0.00     0.064 A 
ATOM     20  C   UNL d   1      -1.151   4.215   4.148  0.00  0.00     0.094 A 
ATOM     21  C   UNL d   1      -1.974   4.913   5.053  0.00  0.00     0.039 A 
ATOM     22  C   UNL d   1      -2.633   4.255   6.088  0.00  0.00     0.003 A 
ATOM     23  C   UNL d   1      -2.422   2.898   6.266  0.00  0.00     0.002 A 
ATOM     24  C   UNL d   1      -1.613   2.203   5.365  0.00  0.00     0.032 A 
BRANCH  20  25
ATOM     25  O   UNL d   1      -0.486   5.046   3.281  0.00  0.00    -0.354 OA
ATOM     26  C   UNL d   1      -0.703   4.812   1.896  0.00  0.00     0.210 C 
ENDBRANCH  20  25
ENDBRANCH   4  19
TORSDOF 3
