REMARK  3 active torsions:
REMARK  status: ('A' for Active; 'I' for Inactive)
REMARK    1  A    between atoms: C_11  and  C_3 
REMARK    2  A    between atoms: N_15  and  C_11 
REMARK    3  A    between atoms: O_16  and  N_13 
ROOT
ATOM      1  C   UNL d   1       4.147  -4.037   0.005  0.00  0.00     0.142 A 
ATOM      2  N   UNL d   1       5.521  -3.755   0.001  0.00  0.00    -0.244 N 
ATOM      3  C   UNL d   1       3.491  -2.816  -0.016  0.00  0.00     0.066 A 
ATOM      4  N   UNL d   1       5.752  -2.418   0.009  0.00  0.00    -0.302 N 
ATOM      5  HN  UNL d   1       6.653  -1.939   0.022  1.00  0.00     0.186 HD
ATOM      6  N   UNL d   1       3.665  -5.323   0.021  0.00  0.00    -0.344 N 
ATOM      7  HN  UNL d   1       2.665  -5.521   0.048  1.00  0.00     0.167 HD
ATOM      8  C   UNL d   1       6.463  -4.796  -0.005  0.00  0.00     0.034 A 
ATOM      9  C   UNL d   1       4.536  -1.871  -0.005  0.00  0.00     0.126 A 
ATOM     10  C   UNL d   1       6.032  -6.069  -0.013  0.00  0.00     0.051 A 
ATOM     11  C   UNL d   1       4.552  -6.277   0.002  0.00  0.00     0.009 A 
ATOM     12  C   UNL d   1       7.926  -4.471  -0.009  0.00  0.00     0.070 C 
ATOM     13  C   UNL d   1       4.054  -7.700  -0.010  0.00  0.00     0.068 C 
ENDROOT
BRANCH   3  14
ATOM     14  C   UNL d   1       2.066  -2.564  -0.033  0.00  0.00     0.113 C 
ATOM     15  N   UNL d   1       1.651  -1.339   0.062  0.00  0.00    -0.257 N 
ATOM     16  HN  UNL d   1       2.258  -0.523   0.136  1.00  0.00     0.195 HD
BRANCH  15  17
ATOM     17  O   UNL d   1       0.245  -1.297   0.048  0.00  0.00    -0.289 OA
ATOM     18  H   UNL d   1       0.070  -0.339   0.023  0.00  0.00     0.244 HD
ENDBRANCH  15  17
BRANCH  14  19
ATOM     19  N   UNL d   1       1.284  -3.677  -0.139  0.00  0.00    -0.286 NA
ATOM     20  H   UNL d   1       1.712  -4.552   0.158  0.00  0.00     0.125 HD
ATOM     21  H   UNL d   1       0.338  -3.520   0.183  0.00  0.00     0.125 HD
ENDBRANCH  14  19
ENDBRANCH   3  14
TORSDOF 3
