REMARK  5 active torsions:
REMARK  status: ('A' for Active; 'I' for Inactive)
REMARK    1  A    between atoms: C_8  and  C_3 
REMARK    2  A    between atoms: C_16  and  C_7 
REMARK    3  A    between atoms: O_14  and  C_8 
REMARK    4  A    between atoms: O_15  and  C_10 
REMARK    5  A    between atoms: C_17  and  C_16 
ROOT
ATOM      1  C   UNL d   1       0.108  -0.781  -0.050  0.00  0.00     0.099 A 
ATOM      2  O   UNL d   1      -0.703  -1.900  -0.084  0.00  0.00    -0.302 OA
ATOM      3  C   UNL d   1      -2.079  -1.726  -0.042  0.00  0.00     0.153 A 
ATOM      4  C   UNL d   1      -0.435   0.509  -0.006  0.00  0.00     0.049 A 
ATOM      5  C   UNL d   1      -2.702  -0.541  -0.004  0.00  0.00     0.100 A 
ATOM      6  C   UNL d   1      -1.896   0.682   0.002  0.00  0.00     0.187 A 
ATOM      7  C   UNL d   1       1.509  -0.972  -0.039  0.00  0.00     0.010 A 
ATOM      8  C   UNL d   1       0.390   1.632   0.052  0.00  0.00     0.021 A 
ATOM      9  C   UNL d   1       2.318   0.178   0.018  0.00  0.00     0.074 A 
ATOM     10  O   UNL d   1      -2.426   1.785   0.021  0.00  0.00    -0.287 OA
ATOM     11  C   UNL d   1       1.769   1.460   0.068  0.00  0.00     0.038 A 
ENDROOT
BRANCH   3  12
ATOM     12  C   UNL d   1      -2.941  -2.939  -0.031  0.00  0.00     0.201 C 
ATOM     13  O   UNL d   1      -4.159  -2.929  -0.016  0.00  0.00    -0.645 OA
BRANCH  12  14
ATOM     14  O   UNL d   1      -2.209  -4.076  -0.037  0.00  0.00    -0.771 OA
ATOM     15  H   UNL d   1      -1.248  -3.903  -0.048  0.00  0.00     0.167 HD
ENDBRANCH  12  14
ENDBRANCH   3  12
BRANCH   7  16
ATOM     16  C   UNL d   1       2.097  -2.368  -0.048  0.00  0.00     0.044 C 
BRANCH  16  17
ATOM     17  C   UNL d   1       2.267  -2.996  -1.436  0.00  0.00     0.000 C 
ATOM     18  C   UNL d   1       3.313  -2.319  -2.310  0.00  0.00     0.005 C 
ENDBRANCH  16  17
ENDBRANCH   7  16
BRANCH   9  19
ATOM     19  O   UNL d   1       3.684   0.144   0.042  0.00  0.00    -0.360 OA
ATOM     20  H   UNL d   1       4.008  -0.737  -0.194  0.00  0.00     0.217 HD
ENDBRANCH   9  19
TORSDOF 5
