REMARK  3 active torsions:
REMARK  status: ('A' for Active; 'I' for Inactive)
REMARK    1  A    between atoms: N_9  and  C_5 
REMARK    2  A    between atoms: O_11  and  C_6 
REMARK    3  A    between atoms: O_10  and  C_7 
ROOT
ATOM      1  N   UNL d   1      -0.284  -1.129  -0.083  0.00  0.00    -0.313 N 
ATOM      2  HN  UNL d   1      -0.821  -1.996  -0.094  1.00  0.00     0.170 HD
ATOM      3  N   UNL d   1      -0.239   1.234  -0.099  0.00  0.00    -0.313 N 
ATOM      4  HN  UNL d   1      -0.742   2.121  -0.120  1.00  0.00     0.170 HD
ATOM      5  C   UNL d   1      -0.873   0.064  -0.146  0.00  0.00     0.158 A 
ATOM      6  C   UNL d   1       1.057  -1.127  -0.003  0.00  0.00     0.148 A 
ATOM      7  C   UNL d   1       1.102   1.179  -0.025  0.00  0.00     0.148 A 
ATOM      8  C   UNL d   1       1.818   0.010   0.026  0.00  0.00     0.112 A 
ENDROOT
BRANCH   5   9
ATOM      9  N   UNL d   1      -2.251   0.077  -0.214  0.00  0.00    -0.274 NA
ATOM     10  H   UNL d   1      -2.607   0.937   0.179  0.00  0.00     0.127 HD
ATOM     11  H   UNL d   1      -2.616  -0.789   0.155  0.00  0.00     0.127 HD
ENDBRANCH   5   9
BRANCH   7  12
ATOM     12  O   UNL d   1       1.840   2.347   0.011  0.00  0.00    -0.341 OA
ATOM     13  C   UNL d   1       1.034   3.521  -0.037  0.00  0.00     0.211 C 
ENDBRANCH   7  12
BRANCH   6  14
ATOM     14  O   UNL d   1       1.737  -2.329   0.062  0.00  0.00    -0.341 OA
ATOM     15  C   UNL d   1       0.868  -3.458   0.033  0.00  0.00     0.211 C 
ENDBRANCH   6  14
TORSDOF 3
