REMARK  8 active torsions:
REMARK  status: ('A' for Active; 'I' for Inactive)
REMARK    1  A    between atoms: C_9  and  N_1 
REMARK    2  A    between atoms: C_7  and  C_5 
REMARK       I    between atoms: C_11  and  N_12 
REMARK    3  A    between atoms: C_29  and  C_11 
REMARK    4  A    between atoms: N_12  and  C_24 
REMARK    5  A    between atoms: C_13  and  C_30 
REMARK    6  A    between atoms: O_26  and  C_13 
REMARK    7  A    between atoms: O_25  and  C_29 
REMARK    8  A    between atoms: C_30  and  O_25 
ROOT
ATOM      1  C   UNL d   1       2.133  -1.363  -0.151  0.00  0.00     0.057 A 
ATOM      2  C   UNL d   1       2.300  -2.306  -1.173  0.00  0.00     0.034 A 
ATOM      3  C   UNL d   1       3.157  -1.153   0.774  0.00  0.00     0.034 A 
ATOM      4  C   UNL d   1       4.449  -2.940  -0.243  0.00  0.00     0.034 A 
ATOM      5  C   UNL d   1       4.297  -1.960   0.741  0.00  0.00     0.032 A 
ATOM      6  C   UNL d   1       3.466  -3.077  -1.228  0.00  0.00     0.032 A 
ENDROOT
BRANCH   1   7
ATOM      7  N   UNL d   1       0.926  -0.625  -0.028  0.00  0.00    -0.255 N 
ATOM      8  C   UNL d   1      -0.371  -1.025  -0.324  0.00  0.00     0.076 C 
ATOM      9  C   UNL d   1      -1.131   0.126  -0.280  0.00  0.00     0.069 C 
ATOM     10  C   UNL d   1      -0.822  -2.384  -0.474  0.00  0.00     0.033 A 
ATOM     11  C   UNL d   1      -0.283   1.127   0.257  0.00  0.00     0.135 C 
ATOM     12  N   UNL d   1       0.954   0.641   0.468  0.00  0.00    -0.289 N 
ATOM     13  HN  UNL d   1       1.742   1.119   0.906  1.00  0.00     0.187 HD
ATOM     14  S   UNL d   1      -2.065  -2.811  -1.572  0.00  0.00    -0.100 SA
ATOM     15  C   UNL d   1      -0.404  -3.482   0.257  0.00  0.00     0.021 A 
ATOM     16  C   UNL d   1      -2.044  -4.446  -1.067  0.00  0.00     0.050 A 
ATOM     17  C   UNL d   1      -1.101  -4.674  -0.089  0.00  0.00     0.008 A 
BRANCH  11  18
ATOM     18  C   UNL d   1      -0.700   2.527   0.622  0.00  0.00     0.434 C 
ATOM     19  F   UNL d   1       0.272   3.245   1.243  0.00  0.00    -0.165 F 
ATOM     20  F   UNL d   1      -1.074   3.237  -0.477  0.00  0.00    -0.165 F 
ATOM     21  F   UNL d   1      -1.774   2.521   1.457  0.00  0.00    -0.165 F 
ENDBRANCH  11  18
ENDBRANCH   1   7
BRANCH   4  22
ATOM     22  N   UNL d   1       5.566  -3.794  -0.306  0.00  0.00    -0.325 N 
ATOM     23  C   UNL d   1       6.458  -4.046   0.724  0.00  0.00     0.245 C 
ATOM     24  O   UNL d   1       6.352  -3.668   1.888  0.00  0.00    -0.271 OA
ATOM     25  H   UNL d   1       5.675  -4.346  -1.146  0.00  0.00     0.169 HD
BRANCH  23  26
ATOM     26  C   UNL d   1       7.609  -4.952   0.298  0.00  0.00     0.271 C 
BRANCH  26  27
ATOM     27  O   UNL d   1       8.270  -4.435  -0.863  0.00  0.00    -0.372 OA
BRANCH  27  28
ATOM     28  C   UNL d   1       9.513  -5.104  -1.087  0.00  0.00     0.277 C 
BRANCH  28  29
ATOM     29  C   UNL d   1       9.264  -6.449  -1.748  0.00  0.00     0.164 C 
ATOM     30  O   UNL d   1       9.786  -7.500  -1.412  0.00  0.00    -0.648 OA
BRANCH  29  31
ATOM     31  O   UNL d   1       8.363  -6.354  -2.758  0.00  0.00    -0.775 OA
ATOM     32  H   UNL d   1       8.056  -5.428  -2.851  0.00  0.00     0.167 HD
ENDBRANCH  29  31
ENDBRANCH  28  29
ENDBRANCH  27  28
ENDBRANCH  26  27
ENDBRANCH  23  26
ENDBRANCH   4  22
TORSDOF 8
