REMARK  5 active torsions:
REMARK  status: ('A' for Active; 'I' for Inactive)
REMARK    1  A    between atoms: N_5  and  C_1 
REMARK    2  A    between atoms: C_3  and  C_2 
REMARK       I    between atoms: N_6  and  C_3 
REMARK    3  A    between atoms: O_22  and  C_4 
REMARK       I    between atoms: C_8  and  N_6 
REMARK       I    between atoms: N_12  and  C_8 
REMARK    4  A    between atoms: O_24  and  C_9 
REMARK    5  A    between atoms: C_10  and  N_12 
ROOT
ATOM      1  C   UNL d   1       3.188  -2.710  -1.801  0.00  0.00     0.265 C 
ATOM      2  N   UNL d   1       4.346  -1.968  -2.037  0.00  0.00    -0.275 N 
ATOM      3  C   UNL d   1       5.656  -2.375  -2.220  0.00  0.00     0.327 C 
ATOM      4  N   UNL d   1       5.851  -3.727  -2.320  0.00  0.00    -0.308 N 
ATOM      5  O   UNL d   1       3.104  -3.890  -2.114  0.00  0.00    -0.267 OA
ATOM      6  O   UNL d   1       6.527  -1.510  -2.253  0.00  0.00    -0.247 OA
ATOM      7  H   UNL d   1       4.312  -0.970  -1.871  0.00  0.00     0.173 HD
ATOM      8  H   UNL d   1       5.027  -4.220  -2.658  0.00  0.00     0.170 HD
ENDROOT
BRANCH   1   9
ATOM      9  C   UNL d   1       2.066  -1.975  -1.094  0.00  0.00     0.102 C 
ATOM     10  C   UNL d   1       1.045  -2.687  -0.428  0.00  0.00     0.119 C 
ATOM     11  C   UNL d   1       0.237  -1.998   0.497  0.00  0.00     0.138 C 
ATOM     12  C   UNL d   1       0.375  -0.623   0.735  0.00  0.00     0.061 C 
ATOM     13  C   UNL d   1       1.272   0.094  -0.037  0.00  0.00     0.048 C 
ATOM     14  C   UNL d   1       2.077  -0.568  -0.980  0.00  0.00     0.104 C 
ATOM     15 BR   UNL d   1       1.367   1.972   0.215  0.00  0.00    -0.048 Br
BRANCH  10  16
ATOM     16  O   UNL d   1       0.645  -3.897  -0.929  0.00  0.00    -0.352 OA
ATOM     17  C   UNL d   1       1.004  -5.032  -0.149  0.00  0.00     0.210 C 
ENDBRANCH  10  16
BRANCH  11  18
ATOM     18  N   UNL d   1      -0.789  -2.688   1.252  0.00  0.00    -0.113 N 
ATOM     19  O   UNL d   1      -0.417  -3.581   2.024  0.00  0.00    -0.532 OA
ATOM     20  O   UNL d   1      -1.947  -2.264   1.141  0.00  0.00    -0.532 OA
ENDBRANCH  11  18
BRANCH  14  21
ATOM     21  O   UNL d   1       2.848   0.181  -1.841  0.00  0.00    -0.353 OA
ATOM     22  C   UNL d   1       2.062   0.564  -2.985  0.00  0.00     0.210 C 
ENDBRANCH  14  21
ENDBRANCH   1   9
BRANCH   4  23
ATOM     23  C   UNL d   1       7.112  -4.350  -2.504  0.00  0.00     0.048 A 
ATOM     24  C   UNL d   1       8.222  -4.084  -1.664  0.00  0.00    -0.033 A 
ATOM     25  C   UNL d   1       9.429  -4.783  -1.874  0.00  0.00     0.028 A 
ATOM     26  C   UNL d   1       8.217  -3.122  -0.506  0.00  0.00     0.050 C 
ATOM     27  C   UNL d   1       9.528  -5.754  -2.861  0.00  0.00     0.012 A 
ATOM     28  C   UNL d   1       8.440  -6.030  -3.677  0.00  0.00     0.028 A 
ATOM     29 BR   UNL d   1      11.143  -6.710  -3.087  0.00  0.00    -0.051 Br
ATOM     30  C   UNL d   1       7.232  -5.324  -3.521  0.00  0.00    -0.033 A 
ATOM     31  C   UNL d   1       6.129  -5.646  -4.495  0.00  0.00     0.050 C 
ENDBRANCH   4  23
TORSDOF 5
