REMARK  2 active torsions:
REMARK  status: ('A' for Active; 'I' for Inactive)
REMARK    1  A    between atoms: O_7  and  C_5 
REMARK    2  A    between atoms: O_8  and  C_6 
ROOT
ATOM      1  C   UNL d   1       0.766  -0.413  -0.024  0.00  0.00    -0.016 A 
ATOM      2  C   UNL d   1      -0.721  -0.423   0.002  0.00  0.00    -0.016 A 
ATOM      3  C   UNL d   1       1.478   0.805  -0.029  0.00  0.00    -0.016 A 
ATOM      4  C   UNL d   1      -1.451   0.785  -0.024  0.00  0.00    -0.016 A 
ATOM      5  C   UNL d   1       0.772   2.138   0.026  0.00  0.00     0.185 C 
ATOM      6  C   UNL d   1      -0.763   2.119  -0.169  0.00  0.00     0.185 C 
ATOM      7  C   UNL d   1       1.533  -1.599  -0.025  0.00  0.00     0.013 A 
ATOM      8  C   UNL d   1      -1.475  -1.614   0.053  0.00  0.00     0.013 A 
ATOM      9  C   UNL d   1       2.891   0.805  -0.010  0.00  0.00     0.011 A 
ATOM     10  C   UNL d   1      -2.860   0.778   0.019  0.00  0.00     0.011 A 
ATOM     11  C   UNL d   1       2.932  -1.586  -0.015  0.00  0.00     0.001 A 
ATOM     12  C   UNL d   1       3.614  -0.381  -0.005  0.00  0.00     0.001 A 
ATOM     13  C   UNL d   1      -2.874  -1.615   0.078  0.00  0.00     0.001 A 
ATOM     14  C   UNL d   1      -3.570  -0.416   0.068  0.00  0.00     0.001 A 
ENDROOT
BRANCH   5  15
ATOM     15  O   UNL d   1       1.372   3.014  -0.947  0.00  0.00    -0.388 OA
ATOM     16  H   UNL d   1       0.651   3.202  -1.585  0.00  0.00     0.210 HD
ENDBRANCH   5  15
BRANCH   6  17
ATOM     17  O   UNL d   1      -1.064   2.662  -1.477  0.00  0.00    -0.388 OA
ATOM     18  H   UNL d   1      -1.528   1.969  -1.981  0.00  0.00     0.210 HD
ENDBRANCH   6  17
TORSDOF 2
