REMARK  2 active torsions:
REMARK  status: ('A' for Active; 'I' for Inactive)
REMARK    1  A    between atoms: S_7  and  C_2 
REMARK    2  A    between atoms: C_13  and  C_9 
ROOT
ATOM      1  C   UNL d   1       0.065  -0.774  -0.081  0.00  0.00     0.044 A 
ATOM      2  C   UNL d   1       1.187  -1.585  -0.024  0.00  0.00     0.087 A 
ATOM      3  C   UNL d   1       0.432   0.636  -0.054  0.00  0.00    -0.014 A 
ATOM      4  S   UNL d   1       2.630  -0.662   0.061  0.00  0.00    -0.068 SA
ATOM      5  C   UNL d   1       1.800   0.822  -0.016  0.00  0.00     0.093 A 
ATOM      6  C   UNL d   1      -1.343  -1.167  -0.211  0.00  0.00     0.162 C 
ATOM      7  C   UNL d   1      -0.616   1.724  -0.112  0.00  0.00     0.051 C 
ATOM      8  C   UNL d   1      -1.984   1.208   0.411  0.00  0.00     0.030 C 
ATOM      9  C   UNL d   1       2.468   2.084  -0.048  0.00  0.00     0.107 C 
ATOM     10  C   UNL d   1      -2.338  -0.035  -0.437  0.00  0.00     0.093 C 
ATOM     11  N   UNL d   1       2.966   3.135  -0.089  0.00  0.00    -0.191 NA
ATOM     12  O   UNL d   1      -1.720  -2.335  -0.226  0.00  0.00    -0.292 OA
ENDROOT
BRANCH   2  13
ATOM     13  S   UNL d   1       1.264  -3.331  -0.209  0.00  0.00     0.053 S 
ATOM     14  O   UNL d   1       2.707  -3.722  -0.072  0.00  0.00    -0.253 OA
ATOM     15  C   UNL d   1       0.404  -3.934   1.254  0.00  0.00     0.133 C 
ENDBRANCH   2  13
BRANCH   8  16
ATOM     16  C   UNL d   1      -2.054   0.967   1.925  0.00  0.00    -0.053 A 
ATOM     17  C   UNL d   1      -1.217   1.648   2.824  0.00  0.00     0.008 A 
ATOM     18  C   UNL d   1      -1.277   1.407   4.201  0.00  0.00     0.007 A 
ATOM     19  C   UNL d   1      -2.192   0.495   4.725  0.00  0.00    -0.062 A 
ATOM     20  C   UNL d   1      -3.054  -0.165   3.850  0.00  0.00     0.007 A 
ATOM     21  C   UNL d   1      -2.242   0.245   6.202  0.00  0.00     0.048 C 
ATOM     22  C   UNL d   1      -2.993   0.077   2.473  0.00  0.00     0.008 A 
ENDBRANCH   8  16
TORSDOF 2
