REMARK  2 active torsions:
REMARK  status: ('A' for Active; 'I' for Inactive)
REMARK    1  A    between atoms: C_8  and  C_1 
REMARK    2  A    between atoms: N_7  and  C_8 
ROOT
ATOM      1  C   UNL d   1      -0.997   0.727   0.129  0.00  0.00    -0.017 C 
ATOM      2  C   UNL d   1       0.303   1.305   0.242  0.00  0.00    -0.047 C 
ATOM      3  C   UNL d   1      -1.128  -0.672  -0.094  0.00  0.00    -0.047 C 
ATOM      4  C   UNL d   1       1.454   0.489   0.068  0.00  0.00    -0.049 C 
ATOM      5  C   UNL d   1       0.026  -1.498  -0.116  0.00  0.00    -0.049 C 
ATOM      6  C   UNL d   1       1.318  -0.918  -0.034  0.00  0.00    -0.049 C 
ATOM      7  C   UNL d   1      -2.493  -1.309  -0.245  0.00  0.00     0.049 C 
ATOM      8  C   UNL d   1       0.482   2.785   0.512  0.00  0.00     0.049 C 
ATOM      9  C   UNL d   1       2.837   1.108   0.062  0.00  0.00     0.049 C 
ATOM     10  C   UNL d   1      -0.094  -3.008  -0.200  0.00  0.00     0.049 C 
ATOM     11  C   UNL d   1       2.565  -1.777  -0.091  0.00  0.00     0.049 C 
ENDROOT
BRANCH   1  12
ATOM     12  C   UNL d   1      -2.236   1.604   0.316  0.00  0.00     0.312 C 
BRANCH  12  13
ATOM     13  N   UNL d   1      -3.047   1.941  -0.862  0.00  0.00     0.093 N 
ATOM     14  C   UNL d   1      -2.383   2.253  -2.123  0.00  0.00     0.277 C 
ATOM     15  C   UNL d   1      -2.071   3.731  -2.464  0.00  0.00     0.010 C 
ATOM     16  C   UNL d   1      -2.254   3.948  -3.977  0.00  0.00     0.011 C 
ATOM     17  C   UNL d   1      -2.888   4.801  -1.723  0.00  0.00     0.007 C 
ATOM     18  C   UNL d   1      -3.486   4.339  -0.406  0.00  0.00     0.031 C 
ATOM     19  C   UNL d   1      -4.071   2.935  -0.537  0.00  0.00     0.273 C 
ENDBRANCH  12  13
ENDBRANCH   1  12
TORSDOF 2
