REMARK  4 active torsions:
REMARK  status: ('A' for Active; 'I' for Inactive)
REMARK    1  A    between atoms: S_2  and  N_1 
REMARK    2  A    between atoms: C_5  and  S_2 
REMARK    3  A    between atoms: C_4  and  C_3 
REMARK    4  A    between atoms: O_14  and  C_4 
ROOT
ATOM      1  S   UNL d   1      -1.437  -1.077   1.825  0.00  0.00     0.262 S 
ATOM      2  O   UNL d   1      -2.691  -0.497   2.251  0.00  0.00    -0.200 OA
ATOM      3  O   UNL d   1      -1.238  -2.511   1.832  0.00  0.00    -0.200 OA
ENDROOT
BRANCH   1   4
ATOM      4  N   UNL d   1      -1.112  -0.521   0.275  0.00  0.00    -0.282 N 
ATOM      5  C   UNL d   1       0.033  -1.101  -0.449  0.00  0.00     0.257 C 
ATOM      6  S   UNL d   1       1.312   0.192  -0.408  0.00  0.00    -0.131 SA
ATOM      7  C   UNL d   1       0.100   1.533  -0.345  0.00  0.00     0.097 C 
ATOM      8  C   UNL d   1      -1.262   0.921  -0.024  0.00  0.00     0.147 C 
BRANCH   5   9
ATOM      9  C   UNL d   1      -0.324  -1.361  -1.923  0.00  0.00     0.292 C 
ATOM     10  O   UNL d   1      -1.096  -0.680  -2.594  0.00  0.00    -0.262 OA
BRANCH   9  11
ATOM     11  O   UNL d   1       0.415  -2.394  -2.428  0.00  0.00    -0.324 OA
ATOM     12  C   UNL d   1       0.248  -2.581  -3.835  0.00  0.00     0.213 C 
ENDBRANCH   9  11
ENDBRANCH   5   9
ENDBRANCH   1   4
BRANCH   1  13
ATOM     13  C   UNL d   1      -0.157  -0.349   2.835  0.00  0.00     0.079 A 
ATOM     14  C   UNL d   1      -0.366   0.911   3.412  0.00  0.00     0.027 A 
ATOM     15  C   UNL d   1       0.615   1.466   4.238  0.00  0.00     0.025 A 
ATOM     16  C   UNL d   1       1.784   0.753   4.499  0.00  0.00     0.034 A 
ATOM     17  C   UNL d   1       1.983  -0.512   3.946  0.00  0.00     0.025 A 
ATOM     18 CL   UNL d   1       2.985   1.434   5.528  0.00  0.00    -0.084 Cl
ATOM     19  C   UNL d   1       1.006  -1.072   3.117  0.00  0.00     0.027 A 
ENDBRANCH   1  13
TORSDOF 4
