REMARK  4 active torsions:
REMARK  status: ('A' for Active; 'I' for Inactive)
REMARK    1  A    between atoms: S_13  and  C_2 
REMARK    2  A    between atoms: C_7  and  C_4 
REMARK       I    between atoms: N_12  and  C_7 
REMARK    3  A    between atoms: N_10  and  N_12 
REMARK    4  A    between atoms: C_18  and  C_16 
ROOT
ATOM      1  C   UNL d   1       0.248   0.896   0.132  0.00  0.00     0.002 C 
ATOM      2  C   UNL d   1       1.595   1.147  -0.113  0.00  0.00     0.051 C 
ATOM      3  C   UNL d   1      -0.031  -0.520  -0.071  0.00  0.00    -0.025 C 
ATOM      4  C   UNL d   1       1.119  -1.289  -0.193  0.00  0.00     0.082 C 
ATOM      5  S   UNL d   1       2.488  -0.294  -0.380  0.00  0.00    -0.076 SA
ATOM      6  C   UNL d   1      -0.859   1.852   0.594  0.00  0.00     0.085 C 
ATOM      7  S   UNL d   1      -0.988   3.368  -0.428  0.00  0.00    -0.142 SA
ATOM      8  S   UNL d   1      -0.507   2.344   2.350  0.00  0.00    -0.142 SA
ATOM      9  C   UNL d   1      -1.432  -1.060  -0.034  0.00  0.00     0.041 C 
ATOM     10  C   UNL d   1      -2.278   1.197   0.616  0.00  0.00     0.037 C 
ATOM     11  C   UNL d   1      -2.437   0.038  -0.370  0.00  0.00     0.007 C 
ATOM     12  C   UNL d   1      -0.449   4.132   2.101  0.00  0.00     0.086 C 
ATOM     13  C   UNL d   1      -1.353   4.495   0.943  0.00  0.00     0.086 C 
ENDROOT
BRANCH   4  14
ATOM     14  C   UNL d   1       1.210  -2.752  -0.157  0.00  0.00     0.277 C 
ATOM     15  N   UNL d   1       2.490  -3.297  -0.215  0.00  0.00    -0.266 N 
ATOM     16  H   UNL d   1       3.297  -2.690  -0.264  0.00  0.00     0.190 HD
ATOM     17  O   UNL d   1       0.208  -3.463  -0.036  0.00  0.00    -0.265 OA
BRANCH  15  18
ATOM     18  N   UNL d   1       2.647  -4.639  -0.027  0.00  0.00    -0.308 N 
ATOM     19  C   UNL d   1       3.858  -5.098  -0.005  0.00  0.00     0.118 C 
ATOM     20  HN  UNL d   1       1.843  -5.256   0.091  1.00  0.00     0.186 HD
BRANCH  19  21
ATOM     21  C   UNL d   1       4.122  -6.532   0.236  0.00  0.00    -0.019 A 
ATOM     22  C   UNL d   1       3.069  -7.423   0.478  0.00  0.00     0.013 A 
ATOM     23  C   UNL d   1       3.335  -8.772   0.719  0.00  0.00     0.001 A 
ATOM     24  C   UNL d   1       4.652  -9.232   0.719  0.00  0.00     0.000 A 
ATOM     25  C   UNL d   1       5.705  -8.346   0.477  0.00  0.00     0.001 A 
ATOM     26  C   UNL d   1       5.441  -6.994   0.237  0.00  0.00     0.013 A 
ENDBRANCH  19  21
ENDBRANCH  15  18
ENDBRANCH   4  14
BRANCH   2  27
ATOM     27  S   UNL d   1       2.460   2.686  -0.084  0.00  0.00    -0.126 SA
ATOM     28  C   UNL d   1       2.443   3.113  -1.844  0.00  0.00     0.096 C 
ENDBRANCH   2  27
TORSDOF 4
