REMARK  4 active torsions:
REMARK  status: ('A' for Active; 'I' for Inactive)
REMARK    1  A    between atoms: C_3  and  C_1 
REMARK    2  A    between atoms: C_5  and  C_1 
REMARK    3  A    between atoms: C_4  and  C_3 
REMARK    4  A    between atoms: N_6  and  C_5 
ROOT
ATOM      1  C   UNL d   1       0.938  -0.069   0.037  0.00  0.00     0.096 C 
ATOM      2  C   UNL d   1       0.264   1.089  -0.150  0.00  0.00     0.060 C 
ATOM      3  S   UNL d   1      -1.476   1.234  -0.066  0.00  0.00    -0.121 SA
ATOM      4  S   UNL d   1       1.111   2.614  -0.379  0.00  0.00    -0.121 SA
ATOM      5  C   UNL d   1      -1.101   3.217  -1.977  0.00  0.00     0.021 C 
ATOM      6  C   UNL d   1       0.421   3.113  -1.984  0.00  0.00     0.081 C 
ATOM      7  C   UNL d   1      -1.797   1.883  -1.730  0.00  0.00     0.081 C 
ENDROOT
BRANCH   1   8
ATOM      8  C   UNL d   1       0.290  -1.408   0.229  0.00  0.00     0.174 C 
ATOM      9  O   UNL d   1      -0.832  -1.679  -0.178  0.00  0.00    -0.291 OA
BRANCH   8  10
ATOM     10  C   UNL d   1       1.116  -2.480   0.874  0.00  0.00     0.061 A 
ATOM     11  C   UNL d   1       1.251  -3.817   0.178  0.00  0.00     0.013 A 
ATOM     12  C   UNL d   1       0.457  -3.713   1.449  0.00  0.00     0.013 A 
ENDBRANCH   8  10
ENDBRANCH   1   8
BRANCH   1  13
ATOM     13  C   UNL d   1       2.458  -0.069   0.037  0.00  0.00    -0.031 C 
BRANCH  13  14
ATOM     14  N   UNL d   1       3.719  -0.069   0.037  0.00  0.00    -0.365 N 
ATOM     15  HN2 UNL d   1       2.699  -0.069   0.037  1.00  0.00     0.165 HD
ATOM     16  HN1 UNL d   1       4.739  -0.069   0.037  1.00  0.00     0.165 HD
ENDBRANCH  13  14
ENDBRANCH   1  13
TORSDOF 4
