REMARK  4 active torsions:
REMARK  status: ('A' for Active; 'I' for Inactive)
REMARK    1  A    between atoms: C_7  and  C_1 
REMARK    2  A    between atoms: C_4  and  C_8 
REMARK       I    between atoms: C_5  and  N_10 
REMARK    3  A    between atoms: C_9  and  C_5 
REMARK       I    between atoms: N_11  and  C_7 
REMARK    4  A    between atoms: N_10  and  N_11 
ROOT
ATOM      1  C   UNL d   1      -3.236   0.256  -0.086  0.00  0.00     0.272 C 
ATOM      2  N   UNL d   1      -3.965   1.368   0.287  0.00  0.00    -0.263 N 
ATOM      3  O   UNL d   1      -3.817  -0.742  -0.525  0.00  0.00    -0.266 OA
ATOM      4  H   UNL d   1      -3.624   2.191   0.774  0.00  0.00     0.190 HD
ENDROOT
BRANCH   1   5
ATOM      5  C   UNL d   1      -1.754   0.217   0.060  0.00  0.00     0.055 A 
ATOM      6  C   UNL d   1      -0.868   1.294   0.095  0.00  0.00     0.021 A 
ATOM      7  N   UNL d   1       0.488   1.116   0.138  0.00  0.00    -0.355 N 
ATOM      8  C   UNL d   1      -1.277   2.735   0.057  0.00  0.00     0.069 C 
ATOM      9  C   UNL d   1       1.008  -0.146   0.128  0.00  0.00     0.117 A 
ATOM     10  HN  UNL d   1       1.109   1.924   0.178  1.00  0.00     0.166 HD
ATOM     11  C   UNL d   1       0.183  -1.262   0.114  0.00  0.00     0.035 A 
ATOM     12  C   UNL d   1      -1.195  -1.074   0.082  0.00  0.00     0.021 A 
BRANCH   9  13
ATOM     13  C   UNL d   1       2.518  -0.354   0.098  0.00  0.00     0.432 C 
ATOM     14  F   UNL d   1       3.248   0.795   0.092  0.00  0.00    -0.165 F 
ATOM     15  F   UNL d   1       2.966  -1.077   1.166  0.00  0.00    -0.165 F 
ATOM     16  F   UNL d   1       2.920  -1.055  -1.005  0.00  0.00    -0.165 F 
ENDBRANCH   9  13
ENDBRANCH   1   5
BRANCH   2  17
ATOM     17  N   UNL d   1      -5.356   1.238   0.189  0.00  0.00    -0.263 N 
ATOM     18  C   UNL d   1      -6.202   2.292   0.461  0.00  0.00     0.277 C 
ATOM     19  O   UNL d   1      -5.763   3.379   0.837  0.00  0.00    -0.265 OA
ATOM     20  H   UNL d   1      -5.702   0.348  -0.172  0.00  0.00     0.190 HD
BRANCH  18  21
ATOM     21  C   UNL d   1      -7.623   2.014   0.265  0.00  0.00     0.074 A 
ATOM     22  S   UNL d   1      -8.196   0.442  -0.128  0.00  0.00    -0.097 SA
ATOM     23  C   UNL d   1      -9.822   0.961  -0.170  0.00  0.00     0.050 A 
ATOM     24  C   UNL d   1      -9.940   2.304   0.110  0.00  0.00     0.009 A 
ATOM     25  C   UNL d   1      -8.674   2.909   0.366  0.00  0.00     0.025 A 
ENDBRANCH  18  21
ENDBRANCH   2  17
TORSDOF 4
