REMARK  7 active torsions:
REMARK  status: ('A' for Active; 'I' for Inactive)
REMARK    1  A    between atoms: N_9  and  C_1 
REMARK    2  A    between atoms: C_15  and  N_2 
REMARK    3  A    between atoms: C_3  and  C_15 
REMARK    4  A    between atoms: S_16  and  C_10 
REMARK    5  A    between atoms: C_22  and  S_16 
REMARK    6  A    between atoms: C_18  and  C_22 
REMARK       I    between atoms: N_20  and  C_18 
REMARK    7  A    between atoms: C_24  and  N_20 
ROOT
ATOM      1  C   UNL d   1       3.291   0.783  -0.205  0.00  0.00     0.120 A 
ATOM      2  N   UNL d   1       3.566   0.230  -1.438  0.00  0.00    -0.318 N 
ATOM      3  C   UNL d   1       4.840  -0.260  -1.341  0.00  0.00     0.162 A 
ATOM      4  N   UNL d   1       4.330   0.587   0.588  0.00  0.00    -0.285 N 
ATOM      5  HN  UNL d   1       4.405   0.885   1.560  1.00  0.00     0.188 HD
ATOM      6  N   UNL d   1       5.289  -0.084  -0.120  0.00  0.00    -0.278 N 
ATOM      7  HN  UNL d   1       6.193  -0.393   0.238  1.00  0.00     0.189 HD
ATOM      8  C   UNL d   1       2.687   0.110  -2.574  0.00  0.00     0.160 C 
ENDROOT
BRANCH   3   9
ATOM      9  S   UNL d   1       5.711  -0.976  -2.649  0.00  0.00    -0.083 SA
BRANCH   9  10
ATOM     10  C   UNL d   1       7.269  -1.459  -1.847  0.00  0.00     0.185 C 
BRANCH  10  11
ATOM     11  C   UNL d   1       8.221  -0.281  -1.692  0.00  0.00     0.231 C 
ATOM     12  N   UNL d   1       7.869   0.594  -0.680  0.00  0.00    -0.327 N 
ATOM     13  H   UNL d   1       7.066   0.334  -0.113  0.00  0.00     0.169 HD
ATOM     14  O   UNL d   1       9.223  -0.194  -2.398  0.00  0.00    -0.272 OA
BRANCH  12  15
ATOM     15  C   UNL d   1       8.469   1.826  -0.360  0.00  0.00     0.034 A 
ATOM     16  C   UNL d   1       9.423   2.455  -1.160  0.00  0.00     0.031 A 
ATOM     17  C   UNL d   1       9.965   3.687  -0.779  0.00  0.00     0.026 A 
ATOM     18  C   UNL d   1       9.559   4.286   0.411  0.00  0.00     0.034 A 
ATOM     19  C   UNL d   1       8.600   3.673   1.212  0.00  0.00     0.026 A 
ATOM     20 CL   UNL d   1      10.242   5.790   0.890  0.00  0.00    -0.084 Cl
ATOM     21  C   UNL d   1       8.046   2.452   0.819  0.00  0.00     0.031 A 
ENDBRANCH  12  15
ENDBRANCH  10  11
ENDBRANCH   9  10
ENDBRANCH   3   9
BRANCH   1  22
ATOM     22  C   UNL d   1       2.013   1.417   0.207  0.00  0.00     0.227 C 
BRANCH  22  23
ATOM     23  N   UNL d   1       1.918   2.804  -0.240  0.00  0.00    -0.287 N 
ATOM     24  C   UNL d   1       2.239   3.950   0.457  0.00  0.00     0.060 A 
ATOM     25  C   UNL d   1       1.689   4.993  -0.278  0.00  0.00     0.150 A 
ATOM     26  C   UNL d   1       2.993   3.946   1.741  0.00  0.00     0.072 C 
ATOM     27  C   UNL d   1       1.155   4.387  -1.445  0.00  0.00     0.057 A 
ATOM     28  N   UNL d   1       1.305   3.056  -1.417  0.00  0.00    -0.300 N 
ATOM     29  C   UNL d   1       0.474   5.020  -2.604  0.00  0.00     0.072 C 
ATOM     30  HN  UNL d   1       1.018   2.382  -2.127  1.00  0.00     0.187 HD
BRANCH  25  31
ATOM     31  N   UNL d   1       1.656   6.389   0.078  0.00  0.00    -0.112 N 
ATOM     32  O   UNL d   1       2.089   6.709   1.192  0.00  0.00    -0.532 OA
ATOM     33  O   UNL d   1       1.168   7.169  -0.748  0.00  0.00    -0.532 OA
ENDBRANCH  25  31
ENDBRANCH  22  23
ENDBRANCH   1  22
TORSDOF 7
