REMARK  3 active torsions:
REMARK  status: ('A' for Active; 'I' for Inactive)
REMARK    1  A    between atoms: C_2  and  C_1 
REMARK       I    between atoms: N_3  and  C_2 
REMARK    2  A    between atoms: C_19  and  N_6 
REMARK    3  A    between atoms: C_18  and  C_19 
ROOT
ATOM      1  C   UNL d   1       0.460   2.547   0.116  0.00  0.00     0.262 C 
ATOM      2  N   UNL d   1       1.551   3.439   0.085  0.00  0.00    -0.344 N 
ATOM      3  N   UNL d   1       4.128   4.907   0.135  0.00  0.00     0.095 N 
ATOM      4  O   UNL d   1       0.411   1.613  -0.682  0.00  0.00    -0.267 OA
ATOM      5  C   UNL d   1       2.509   3.322  -1.024  0.00  0.00     0.156 C 
ATOM      6  C   UNL d   1       1.720   4.627   0.929  0.00  0.00     0.156 C 
ATOM      7  C   UNL d   1       3.191   4.935   1.274  0.00  0.00     0.292 C 
ATOM      8  C   UNL d   1       3.952   3.618  -0.572  0.00  0.00     0.292 C 
ENDROOT
BRANCH   3   9
ATOM      9  C   UNL d   1       3.926   6.082  -0.728  0.00  0.00     0.311 C 
BRANCH   9  10
ATOM     10  C   UNL d   1       4.914   6.190  -1.868  0.00  0.00    -0.027 A 
ATOM     11  C   UNL d   1       4.453   6.204  -3.196  0.00  0.00     0.048 A 
ATOM     12  C   UNL d   1       5.378   6.340  -4.204  0.00  0.00     0.105 A 
ATOM     13  O   UNL d   1       5.100   6.379  -5.535  0.00  0.00    -0.323 OA
ATOM     14  C   UNL d   1       6.725   6.461  -3.946  0.00  0.00     0.105 A 
ATOM     15  C   UNL d   1       6.424   6.543  -6.083  0.00  0.00     0.352 A 
ATOM     16  O   UNL d   1       7.459   6.596  -5.079  0.00  0.00    -0.323 OA
ATOM     17  C   UNL d   1       7.217   6.444  -2.658  0.00  0.00     0.040 A 
ATOM     18  C   UNL d   1       6.301   6.306  -1.612  0.00  0.00     0.012 A 
ENDBRANCH   9  10
ENDBRANCH   3   9
BRANCH   1  19
ATOM     19  C   UNL d   1      -0.576   2.711   1.135  0.00  0.00     0.090 C 
ATOM     20  C   UNL d   1      -1.147   1.737   1.935  0.00  0.00     0.034 C 
ATOM     21  C   UNL d   1      -2.083   2.251   2.872  0.00  0.00     0.028 C 
ATOM     22 BR   UNL d   1      -0.747  -0.113   1.923  0.00  0.00    -0.049 Br
ATOM     23  C   UNL d   1      -2.253   3.608   2.721  0.00  0.00     0.052 C 
ATOM     24  S   UNL d   1      -1.413   4.198   1.354  0.00  0.00    -0.095 SA
ENDBRANCH   1  19
TORSDOF 3
