REMARK  3 active torsions:
REMARK  status: ('A' for Active; 'I' for Inactive)
REMARK    1  A    between atoms: C_12  and  C_1 
REMARK    2  A    between atoms: C_13  and  C_8 
REMARK    3  A    between atoms: C_15  and  C_12 
ROOT
ATOM      1  C   UNL d   1      -2.349  -0.761   0.050  0.00  0.00     0.065 A 
ATOM      2  C   UNL d   1      -0.210   0.468   0.105  0.00  0.00     0.089 A 
ATOM      3  C   UNL d   1      -1.256  -1.620  -0.054  0.00  0.00    -0.026 A 
ATOM      4  C   UNL d   1       0.004  -0.898   0.010  0.00  0.00     0.027 A 
ATOM      5  S   UNL d   1      -1.853   0.868   0.244  0.00  0.00    -0.067 SA
ATOM      6  N   UNL d   1       0.718   1.439   0.112  0.00  0.00    -0.335 N 
ATOM      7  HN  UNL d   1       0.492   2.431   0.183  1.00  0.00     0.168 HD
ATOM      8  C   UNL d   1       1.969   0.973   0.015  0.00  0.00     0.116 A 
ATOM      9  N   UNL d   1       2.311  -0.329  -0.026  0.00  0.00    -0.345 N 
ATOM     10  HN  UNL d   1       3.295  -0.593  -0.071  1.00  0.00     0.167 HD
ATOM     11  C   UNL d   1       1.356  -1.291  -0.009  0.00  0.00     0.020 A 
ATOM     12  C   UNL d   1      -1.355  -3.107  -0.230  0.00  0.00     0.050 C 
ATOM     13  C   UNL d   1       1.860  -2.701  -0.018  0.00  0.00     0.069 C 
ENDROOT
BRANCH   1  14
ATOM     14  C   UNL d   1      -3.767  -1.116   0.102  0.00  0.00     0.199 C 
ATOM     15  O   UNL d   1      -4.160  -2.166   0.617  0.00  0.00    -0.286 OA
BRANCH  14  16
ATOM     16  C   UNL d   1      -4.814  -0.231  -0.491  0.00  0.00     0.015 A 
ATOM     17  C   UNL d   1      -6.085  -0.203   0.101  0.00  0.00     0.015 A 
ATOM     18  C   UNL d   1      -7.103   0.579  -0.450  0.00  0.00     0.001 A 
ATOM     19  C   UNL d   1      -6.860   1.331  -1.597  0.00  0.00     0.000 A 
ATOM     20  C   UNL d   1      -5.603   1.300  -2.200  0.00  0.00     0.001 A 
ATOM     21  C   UNL d   1      -4.584   0.512  -1.658  0.00  0.00     0.015 A 
ENDBRANCH  14  16
ENDBRANCH   1  14
BRANCH   8  22
ATOM     22  C   UNL d   1       3.077   1.948  -0.084  0.00  0.00     0.008 A 
ATOM     23  C   UNL d   1       2.866   3.336   0.019  0.00  0.00     0.015 A 
ATOM     24  C   UNL d   1       3.925   4.244  -0.096  0.00  0.00     0.001 A 
ATOM     25  C   UNL d   1       5.221   3.786  -0.317  0.00  0.00     0.000 A 
ATOM     26  C   UNL d   1       5.462   2.420  -0.421  0.00  0.00     0.001 A 
ATOM     27  C   UNL d   1       4.402   1.517  -0.304  0.00  0.00     0.015 A 
ENDBRANCH   8  22
TORSDOF 3
