REMARK  7 active torsions:
REMARK  status: ('A' for Active; 'I' for Inactive)
REMARK    1  A    between atoms: C_3  and  C_1 
REMARK    2  A    between atoms: O_13  and  C_2 
REMARK    3  A    between atoms: O_14  and  C_3 
REMARK    4  A    between atoms: O_16  and  C_4 
REMARK    5  A    between atoms: N_10  and  C_5 
REMARK    6  A    between atoms: N_6  and  C_8 
REMARK    7  A    between atoms: O_15  and  N_6 
ROOT
ATOM      1  C   UNL d   1       1.599  -0.275   0.273  0.00  0.00     0.108 C 
ATOM      2  C   UNL d   1       0.719  -1.352   0.049  0.00  0.00     0.114 C 
ATOM      3  C   UNL d   1       1.111   1.034   0.157  0.00  0.00     0.087 C 
ATOM      4  C   UNL d   1      -0.668  -1.139  -0.103  0.00  0.00     0.068 C 
ATOM      5  C   UNL d   1      -0.249   1.252  -0.074  0.00  0.00     0.040 C 
ATOM      6  C   UNL d   1      -1.133   0.177  -0.184  0.00  0.00     0.035 C 
ENDROOT
BRANCH   4   7
ATOM      7  N   UNL d   1      -1.541  -2.247  -0.101  0.00  0.00    -0.349 N 
ATOM      8  C   UNL d   1      -2.820  -2.270   0.365  0.00  0.00     0.204 C 
ATOM      9  H   UNL d   1      -1.073  -3.148  -0.086  0.00  0.00     0.167 HD
BRANCH   8  10
ATOM     10  N   UNL d   1      -3.490  -3.353   0.597  0.00  0.00    -0.265 N 
ATOM     11  HN  UNL d   1      -3.155  -4.304   0.441  1.00  0.00     0.194 HD
BRANCH  10  12
ATOM     12  O   UNL d   1      -4.751  -3.005   1.099  0.00  0.00    -0.289 OA
ATOM     13  H   UNL d   1      -5.159  -3.876   1.264  0.00  0.00     0.244 HD
ENDBRANCH  10  12
ENDBRANCH   8  10
ENDBRANCH   4   7
BRANCH   2  14
ATOM     14  O   UNL d   1       1.167  -2.656   0.074  0.00  0.00    -0.352 OA
ATOM     15  C   UNL d   1       1.519  -3.066  -1.256  0.00  0.00     0.210 C 
ENDBRANCH   2  14
BRANCH   1  16
ATOM     16  C   UNL d   1       2.943  -0.509   0.841  0.00  0.00     0.298 C 
ATOM     17  O   UNL d   1       3.353   0.054   1.845  0.00  0.00    -0.259 OA
BRANCH  16  18
ATOM     18  O   UNL d   1       3.637  -1.407   0.100  0.00  0.00    -0.322 OA
ATOM     19  C   UNL d   1       4.867  -1.819   0.704  0.00  0.00     0.213 C 
ENDBRANCH  16  18
ENDBRANCH   1  16
BRANCH   3  20
ATOM     20  O   UNL d   1       1.853   2.173   0.310  0.00  0.00    -0.355 OA
ATOM     21  C   UNL d   1       2.974   2.256  -0.571  0.00  0.00     0.210 C 
ENDBRANCH   3  20
TORSDOF 7
