REMARK  5 active torsions:
REMARK  status: ('A' for Active; 'I' for Inactive)
REMARK    1  A    between atoms: C_10  and  C_1 
REMARK    2  A    between atoms: C_15  and  C_7 
REMARK       I    between atoms: C_8  and  N_9 
REMARK    3  A    between atoms: C_12  and  C_8 
REMARK       I    between atoms: N_9  and  C_11 
REMARK       I    between atoms: C_11  and  N_14 
REMARK    4  A    between atoms: N_14  and  C_13 
REMARK    5  A    between atoms: C_18  and  C_19 
ROOT
ATOM      1  C   UNL d   1      -0.605  -2.263  -0.817  0.00  0.00     0.043 A 
ATOM      2  C   UNL d   1      -1.860  -2.500  -1.415  0.00  0.00     0.050 A 
ATOM      3  C   UNL d   1      -0.046  -3.279  -0.002  0.00  0.00     0.018 A 
ATOM      4  C   UNL d   1      -2.449  -3.773  -1.256  0.00  0.00     0.030 A 
ATOM      5  C   UNL d   1      -0.662  -4.514   0.173  0.00  0.00     0.001 A 
ATOM      6  C   UNL d   1      -1.855  -4.771  -0.481  0.00  0.00     0.002 A 
ENDROOT
BRANCH   1   7
ATOM      7  C   UNL d   1       0.184  -1.044  -0.969  0.00  0.00     0.177 A 
ATOM      8  O   UNL d   1       1.036  -0.769   0.071  0.00  0.00    -0.273 OA
ATOM      9  C   UNL d   1       1.798   0.254  -0.420  0.00  0.00     0.174 A 
ATOM     10  N   UNL d   1       1.417   0.617  -1.629  0.00  0.00    -0.277 N 
ATOM     11  N   UNL d   1       0.346  -0.209  -1.976  0.00  0.00    -0.277 N 
ATOM     12  HN  UNL d   1       1.825   1.356  -2.200  1.00  0.00     0.189 HD
ATOM     13  HN  UNL d   1      -0.201  -0.173  -2.836  1.00  0.00     0.189 HD
BRANCH   9  14
ATOM     14  C   UNL d   1       2.910   0.682   0.429  0.00  0.00     0.017 A 
ATOM     15  C   UNL d   1       2.938   0.400   1.799  0.00  0.00     0.016 A 
ATOM     16  C   UNL d   1       4.015   0.798   2.606  0.00  0.00     0.009 A 
ATOM     17  C   UNL d   1       5.113   1.493   2.072  0.00  0.00    -0.051 A 
ATOM     18  C   UNL d   1       5.085   1.761   0.694  0.00  0.00     0.009 A 
ATOM     19  C   UNL d   1       4.000   1.365  -0.114  0.00  0.00     0.016 A 
BRANCH  17  20
ATOM     20  C   UNL d   1       6.269   1.944   2.989  0.00  0.00    -0.024 C 
ATOM     21  C   UNL d   1       7.409   2.673   2.241  0.00  0.00     0.019 C 
ATOM     22  C   UNL d   1       5.729   2.922   4.057  0.00  0.00     0.019 C 
ATOM     23  C   UNL d   1       6.902   0.729   3.703  0.00  0.00     0.019 C 
ENDBRANCH  17  20
ENDBRANCH   9  14
ENDBRANCH   1   7
BRANCH   2  24
ATOM     24  N   UNL d   1      -2.534  -1.542  -2.219  0.00  0.00    -0.312 N 
ATOM     25  C   UNL d   1      -3.917  -1.460  -2.313  0.00  0.00     0.305 C 
ATOM     26  N   UNL d   1      -4.400  -1.089  -3.556  0.00  0.00    -0.175 NA
ATOM     27  O   UNL d   1      -4.703  -1.906  -1.487  0.00  0.00    -0.253 OA
ATOM     28  C   UNL d   1      -4.763   0.186  -3.958  0.00  0.00     0.242 C 
ATOM     29  H   UNL d   1      -5.298  -1.558  -3.597  0.00  0.00     0.141 HD
ATOM     30  O   UNL d   1      -5.914   0.369  -4.361  0.00  0.00    -0.273 OA
ATOM     31  H   UNL d   1      -1.986  -0.785  -2.610  0.00  0.00     0.170 HD
BRANCH  28  32
ATOM     32  C   UNL d   1      -3.822   1.325  -3.962  0.00  0.00     0.065 A 
ATOM     33  C   UNL d   1      -2.445   1.190  -4.099  0.00  0.00     0.131 A 
ATOM     34  F   UNL d   1      -1.883  -0.015  -4.260  0.00  0.00    -0.205 F 
ATOM     35  C   UNL d   1      -1.611   2.307  -4.099  0.00  0.00     0.043 A 
ATOM     36  C   UNL d   1      -2.159   3.586  -4.008  0.00  0.00     0.003 A 
ATOM     37  C   UNL d   1      -3.542   3.743  -3.929  0.00  0.00     0.001 A 
ATOM     38  C   UNL d   1      -4.369   2.619  -3.908  0.00  0.00     0.020 A 
ENDBRANCH  28  32
ENDBRANCH   2  24
TORSDOF 5
