REMARK  3 active torsions:
REMARK  status: ('A' for Active; 'I' for Inactive)
REMARK    1  A    between atoms: N_2  and  S_1 
REMARK    2  A    between atoms: C_7  and  S_1 
REMARK    3  A    between atoms: C_3  and  N_2 
ROOT
ATOM      1  S   UNL d   1       1.128  -0.078  -0.068  0.00  0.00     0.247 S 
ATOM      2  O   UNL d   1       0.328  -0.640  -1.135  0.00  0.00    -0.205 OA
ATOM      3  O   UNL d   1       2.569  -0.017  -0.165  0.00  0.00    -0.205 OA
ENDROOT
BRANCH   1   4
ATOM      4  N   UNL d   1       0.640  -0.922   1.319  0.00  0.00    -0.165 NA
ATOM      5  H   UNL d   1      -0.048  -1.600   0.991  0.00  0.00     0.147 HD
BRANCH   4   6
ATOM      6  C   UNL d   1       1.659  -1.487   2.083  0.00  0.00     0.117 A 
ATOM      7  N   UNL d   1       2.245  -0.830   3.085  0.00  0.00    -0.249 N 
ATOM      8  O   UNL d   1       3.186  -1.707   3.602  0.00  0.00    -0.241 OA
ATOM      9  HN  UNL d   1       2.044   0.118   3.403  1.00  0.00     0.196 HD
ATOM     10  C   UNL d   1       3.143  -2.877   2.908  0.00  0.00     0.075 A 
ATOM     11  C   UNL d   1       2.165  -2.795   1.947  0.00  0.00     0.079 A 
ATOM     12  C   UNL d   1       4.110  -3.914   3.308  0.00  0.00     0.079 C 
ENDBRANCH   4   6
ENDBRANCH   1   4
BRANCH   1  13
ATOM     13  C   UNL d   1       0.540   1.567   0.244  0.00  0.00     0.076 A 
ATOM     14  C   UNL d   1      -0.390   2.147  -0.627  0.00  0.00     0.051 A 
ATOM     15  C   UNL d   1      -0.795   3.463  -0.409  0.00  0.00     0.074 A 
ATOM     16 CL   UNL d   1      -1.926   4.186  -1.487  0.00  0.00    -0.081 Cl
ATOM     17  C   UNL d   1      -0.276   4.186   0.666  0.00  0.00     0.138 A 
ATOM     18  C   UNL d   1       0.649   3.605   1.533  0.00  0.00     0.045 A 
ATOM     19  F   UNL d   1      -0.650   5.455   0.881  0.00  0.00    -0.204 F 
ATOM     20  C   UNL d   1       1.064   2.290   1.322  0.00  0.00     0.028 A 
ENDBRANCH   1  13
TORSDOF 3
