REMARK  6 active torsions:
REMARK  status: ('A' for Active; 'I' for Inactive)
REMARK    1  A    between atoms: C_5  and  C_1 
REMARK    2  A    between atoms: C_20  and  N_2 
REMARK    3  A    between atoms: N_19  and  C_5 
REMARK    4  A    between atoms: O_12  and  N_7 
REMARK    5  A    between atoms: C_9  and  O_12 
REMARK    6  A    between atoms: C_11  and  C_9 
ROOT
ATOM      1  C   UNL d   1      -0.671  -2.502  -0.137  0.00  0.00     0.127 C 
ATOM      2  N   UNL d   1       0.165  -3.495  -0.066  0.00  0.00    -0.244 N 
ATOM      3  HN  UNL d   1      -0.116  -4.466   0.072  1.00  0.00     0.196 HD
ENDROOT
BRANCH   1   4
ATOM      4  C   UNL d   1      -2.092  -2.802  -0.067  0.00  0.00     0.092 A 
ATOM      5  N   UNL d   1      -2.717  -3.881   0.520  0.00  0.00    -0.289 N 
ATOM      6  N   UNL d   1      -4.066  -3.848   0.408  0.00  0.00    -0.303 N 
ATOM      7  C   UNL d   1      -4.320  -2.736  -0.282  0.00  0.00     0.024 A 
ATOM      8  HN  UNL d   1      -4.739  -4.524   0.771  1.00  0.00     0.186 HD
ATOM      9  C   UNL d   1      -3.132  -2.045  -0.589  0.00  0.00     0.060 A 
ATOM     10  C   UNL d   1      -5.716  -2.372  -0.624  0.00  0.00     0.070 C 
BRANCH   5  11
ATOM     11  C   UNL d   1      -2.146  -4.945   1.327  0.00  0.00     0.145 C 
ATOM     12  C   UNL d   1      -1.992  -6.244   0.556  0.00  0.00     0.028 C 
ENDBRANCH   5  11
ENDBRANCH   1   4
BRANCH   1  13
ATOM     13  N   UNL d   1      -0.253  -1.200  -0.282  0.00  0.00    -0.285 NA
ATOM     14  H   UNL d   1      -0.879  -0.511   0.117  0.00  0.00     0.125 HD
ATOM     15  H   UNL d   1       0.710  -1.068  -0.004  0.00  0.00     0.125 HD
ENDBRANCH   1  13
BRANCH   2  16
ATOM     16  O   UNL d   1       1.515  -3.074  -0.203  0.00  0.00    -0.193 OA
BRANCH  16  17
ATOM     17  C   UNL d   1       2.322  -4.173  -0.332  0.00  0.00     0.315 C 
ATOM     18  O   UNL d   1       1.972  -5.348  -0.330  0.00  0.00    -0.257 OA
BRANCH  17  19
ATOM     19  C   UNL d   1       3.760  -3.798  -0.447  0.00  0.00     0.044 A 
ATOM     20  C   UNL d   1       4.706  -4.838  -0.419  0.00  0.00     0.041 A 
ATOM     21  C   UNL d   1       6.070  -4.561  -0.498  0.00  0.00     0.036 A 
ATOM     22 CL   UNL d   1       7.209  -5.849  -0.444  0.00  0.00    -0.084 Cl
ATOM     23  C   UNL d   1       6.518  -3.249  -0.614  0.00  0.00     0.047 A 
ATOM     24  C   UNL d   1       5.584  -2.216  -0.658  0.00  0.00     0.036 A 
ATOM     25  C   UNL d   1       4.211  -2.476  -0.579  0.00  0.00     0.041 A 
ATOM     26 CL   UNL d   1       6.136  -0.592  -0.807  0.00  0.00    -0.084 Cl
ENDBRANCH  17  19
ENDBRANCH  16  17
ENDBRANCH   2  16
TORSDOF 6
