REMARK  3 active torsions:
REMARK  status: ('A' for Active; 'I' for Inactive)
REMARK    1  A    between atoms: C_12  and  C_3 
REMARK    2  A    between atoms: C_11  and  C_6 
REMARK       I    between atoms: N_13  and  C_11 
REMARK    3  A    between atoms: C_18  and  N_13 
ROOT
ATOM      1  C   UNL d   1       0.059   0.752  -0.256  0.00  0.00     0.172 A 
ATOM      2  N   UNL d   1      -0.284  -0.478   0.222  0.00  0.00    -0.235 N 
ATOM      3  C   UNL d   1      -2.026   0.664  -0.064  0.00  0.00     0.207 A 
ATOM      4  N   UNL d   1      -0.983   1.509  -0.458  0.00  0.00    -0.316 N 
ATOM      5  HN  UNL d   1      -1.027   2.465  -0.810  1.00  0.00     0.169 HD
ATOM      6  C   UNL d   1       1.940  -0.793   0.039  0.00  0.00     0.100 A 
ATOM      7  N   UNL d   1      -1.617  -0.553   0.374  0.00  0.00    -0.273 N 
ATOM      8  HN  UNL d   1      -2.178  -1.328   0.728  1.00  0.00     0.189 HD
ATOM      9  C   UNL d   1       0.765  -1.361   0.396  0.00  0.00     0.055 A 
ATOM     10  S   UNL d   1       1.768   0.890  -0.503  0.00  0.00    -0.044 SA
ATOM     11  C   UNL d   1       0.466  -2.740   0.878  0.00  0.00     0.072 C 
ENDROOT
BRANCH   6  12
ATOM     12  C   UNL d   1       3.250  -1.514  -0.041  0.00  0.00     0.265 C 
ATOM     13  N   UNL d   1       4.322  -0.768  -0.484  0.00  0.00    -0.322 N 
ATOM     14  H   UNL d   1       4.181   0.231  -0.587  0.00  0.00     0.169 HD
ATOM     15  O   UNL d   1       3.299  -2.704   0.262  0.00  0.00    -0.267 OA
BRANCH  13  16
ATOM     16  C   UNL d   1       5.576  -1.274  -0.906  0.00  0.00     0.035 A 
ATOM     17  C   UNL d   1       5.858  -2.639  -1.029  0.00  0.00     0.031 A 
ATOM     18  C   UNL d   1       7.073  -3.079  -1.565  0.00  0.00     0.026 A 
ATOM     19  C   UNL d   1       8.026  -2.152  -1.969  0.00  0.00     0.034 A 
ATOM     20  C   UNL d   1       7.782  -0.789  -1.817  0.00  0.00     0.026 A 
ATOM     21 CL   UNL d   1       9.496  -2.691  -2.680  0.00  0.00    -0.084 Cl
ATOM     22  C   UNL d   1       6.560  -0.352  -1.288  0.00  0.00     0.031 A 
ENDBRANCH  13  16
ENDBRANCH   6  12
BRANCH   3  23
ATOM     23  C   UNL d   1      -3.493   1.044  -0.138  0.00  0.00     0.450 C 
ATOM     24  F   UNL d   1      -3.692   2.308  -0.597  0.00  0.00    -0.163 F 
ATOM     25  F   UNL d   1      -4.189   0.218  -0.969  0.00  0.00    -0.163 F 
ATOM     26  F   UNL d   1      -4.103   0.973   1.078  0.00  0.00    -0.163 F 
ENDBRANCH   3  23
TORSDOF 3
