REMARK  6 active torsions:
REMARK  status: ('A' for Active; 'I' for Inactive)
REMARK    1  A    between atoms: C_8  and  N_1 
REMARK    2  A    between atoms: C_5  and  C_12 
REMARK    3  A    between atoms: C_7  and  O_11 
REMARK    4  A    between atoms: C_15  and  C_7 
REMARK    5  A    between atoms: C_14  and  C_8 
REMARK    6  A    between atoms: O_11  and  N_9 
ROOT
ATOM      1  N   UNL d   1       4.378  -1.128  -0.307  0.00  0.00    -0.264 N 
ATOM      2  HN  UNL d   1       5.382  -1.098  -0.482  1.00  0.00     0.194 HD
ATOM      3  C   UNL d   1       3.732  -2.228  -0.060  0.00  0.00     0.025 C 
ATOM      4  C   UNL d   1       2.241  -2.341   0.144  0.00  0.00     0.067 C 
ENDROOT
BRANCH   1   5
ATOM      5  O   UNL d   1       3.561   0.019  -0.309  0.00  0.00    -0.195 OA
BRANCH   5   6
ATOM      6  C   UNL d   1       4.001   0.879  -1.279  0.00  0.00     0.315 C 
ATOM      7  O   UNL d   1       4.656   0.582  -2.272  0.00  0.00    -0.257 OA
BRANCH   6   8
ATOM      8  C   UNL d   1       3.630   2.287  -0.967  0.00  0.00     0.041 A 
ATOM      9  C   UNL d   1       4.062   3.287  -1.853  0.00  0.00     0.018 A 
ATOM     10  C   UNL d   1       3.859   4.638  -1.561  0.00  0.00     0.017 A 
ATOM     11  C   UNL d   1       3.217   5.019  -0.375  0.00  0.00     0.048 A 
ATOM     12  C   UNL d   1       2.745   4.017   0.489  0.00  0.00     0.017 A 
ATOM     13  C   UNL d   1       2.949   2.661   0.199  0.00  0.00     0.018 A 
BRANCH  11  14
ATOM     14  C   UNL d   1       3.058   6.477  -0.008  0.00  0.00     0.417 C 
ATOM     15  F   UNL d   1       3.594   7.332  -0.923  0.00  0.00    -0.166 F 
ATOM     16  F   UNL d   1       1.755   6.843   0.129  0.00  0.00    -0.166 F 
ATOM     17  F   UNL d   1       3.659   6.778   1.177  0.00  0.00    -0.166 F 
ENDBRANCH  11  14
ENDBRANCH   6   8
ENDBRANCH   5   6
ENDBRANCH   1   5
BRANCH   3  18
ATOM     18  C   UNL d   1       4.540  -3.523  -0.026  0.00  0.00     0.188 C 
BRANCH  18  19
ATOM     19  N   UNL d   1       4.960  -3.844   1.314  0.00  0.00    -0.285 N 
ATOM     20  C   UNL d   1       4.305  -4.697   2.176  0.00  0.00     0.373 A 
ATOM     21  O   UNL d   1       5.017  -4.850   3.374  0.00  0.00    -0.259 OA
ATOM     22  O   UNL d   1       3.243  -5.262   1.952  0.00  0.00    -0.237 OA
ATOM     23  C   UNL d   1       6.135  -4.060   3.161  0.00  0.00     0.107 A 
ATOM     24  C   UNL d   1       6.120  -3.435   1.928  0.00  0.00     0.073 A 
ATOM     25  C   UNL d   1       7.183  -3.904   4.044  0.00  0.00     0.040 A 
ATOM     26  C   UNL d   1       7.145  -2.613   1.512  0.00  0.00     0.033 A 
ATOM     27  C   UNL d   1       8.221  -2.441   2.390  0.00  0.00     0.002 A 
ATOM     28  C   UNL d   1       8.241  -3.082   3.645  0.00  0.00     0.003 A 
ENDBRANCH  18  19
ENDBRANCH   3  18
TORSDOF 6
