REMARK  5 active torsions:
REMARK  status: ('A' for Active; 'I' for Inactive)
REMARK    1  A    between atoms: C_3  and  C_1 
REMARK    2  A    between atoms: S_23  and  C_2 
REMARK       I    between atoms: C_10  and  N_4 
REMARK    3  A    between atoms: C_11  and  C_10 
REMARK    4  A    between atoms: C_12  and  C_15 
REMARK    5  A    between atoms: C_13  and  C_16 
ROOT
ATOM      1  C   UNL d   1      -0.123  -1.255  -0.090  0.00  0.00     0.024 A 
ATOM      2  C   UNL d   1      -0.776  -0.315  -0.878  0.00  0.00     0.055 A 
ATOM      3  S   UNL d   1      -0.058   1.232  -0.756  0.00  0.00    -0.071 SA
ATOM      4  C   UNL d   1       0.980  -0.660   0.657  0.00  0.00    -0.020 A 
ATOM      5  C   UNL d   1       1.100   0.695   0.366  0.00  0.00     0.093 A 
ATOM      6  C   UNL d   1       2.082   1.578   0.929  0.00  0.00     0.107 C 
ATOM      7  N   UNL d   1       2.885   2.262   1.405  0.00  0.00    -0.191 NA
ATOM      8  C   UNL d   1       1.910  -1.347   1.619  0.00  0.00     0.051 C 
ENDROOT
BRANCH   1   9
ATOM      9  C   UNL d   1      -0.477  -2.690  -0.007  0.00  0.00     0.062 C 
ATOM     10  N   UNL d   1      -0.786  -3.437  -1.074  0.00  0.00    -0.291 N 
ATOM     11  N   UNL d   1      -1.046  -4.679  -0.575  0.00  0.00    -0.231 N 
ATOM     12  HN  UNL d   1      -0.820  -3.141  -2.050  1.00  0.00     0.187 HD
ATOM     13  C   UNL d   1      -1.571  -5.709  -1.398  0.00  0.00     0.276 C 
ATOM     14  C   UNL d   1      -0.730  -4.741   0.767  0.00  0.00     0.122 C 
ATOM     15  O   UNL d   1      -1.535  -5.565  -2.620  0.00  0.00    -0.265 OA
ATOM     16  C   UNL d   1      -0.478  -3.456   1.177  0.00  0.00     0.051 C 
BRANCH  13  17
ATOM     17  C   UNL d   1      -2.180  -6.968  -0.868  0.00  0.00     0.035 A 
ATOM     18  C   UNL d   1      -2.937  -6.970   0.313  0.00  0.00     0.033 A 
ATOM     19  C   UNL d   1      -3.532  -8.150   0.788  0.00  0.00     0.049 A 
ATOM     20  C   UNL d   1      -3.388  -9.329   0.041  0.00  0.00     0.032 A 
ATOM     21  C   UNL d   1      -2.675  -9.340  -1.171  0.00  0.00     0.049 A 
ATOM     22  C   UNL d   1      -2.067  -8.152  -1.614  0.00  0.00     0.033 A 
BRANCH  19  23
ATOM     23  C   UNL d   1      -4.338  -8.158   2.068  0.00  0.00     0.417 C 
ATOM     24  F   UNL d   1      -4.412  -6.935   2.662  0.00  0.00    -0.166 F 
ATOM     25  F   UNL d   1      -5.621  -8.562   1.872  0.00  0.00    -0.166 F 
ATOM     26  F   UNL d   1      -3.812  -8.996   3.002  0.00  0.00    -0.166 F 
ENDBRANCH  19  23
BRANCH  21  27
ATOM     27  C   UNL d   1      -2.603 -10.615  -1.982  0.00  0.00     0.417 C 
ATOM     28  F   UNL d   1      -1.919 -10.484  -3.150  0.00  0.00    -0.166 F 
ATOM     29  F   UNL d   1      -1.996 -11.624  -1.300  0.00  0.00    -0.166 F 
ATOM     30  F   UNL d   1      -3.838 -11.080  -2.316  0.00  0.00    -0.166 F 
ENDBRANCH  21  27
ENDBRANCH  13  17
ENDBRANCH   1   9
BRANCH   2  31
ATOM     31  S   UNL d   1      -2.232  -0.514  -1.857  0.00  0.00    -0.126 SA
ATOM     32  C   UNL d   1      -1.504  -0.693  -3.503  0.00  0.00     0.096 C 
ENDBRANCH   2  31
TORSDOF 5
