REMARK  2 active torsions:
REMARK  status: ('A' for Active; 'I' for Inactive)
REMARK    1  A    between atoms: C_2  and  N_1 
REMARK    2  A    between atoms: N_6  and  C_3 
ROOT
ATOM      1  C   UNL d   1       0.254  -0.847  -0.950  0.00  0.00     0.104 A 
ATOM      2  C   UNL d   1      -1.566  -2.414  -2.458  0.00  0.00     0.042 A 
ATOM      3  C   UNL d   1      -1.885  -1.079  -2.070  0.00  0.00    -0.033 A 
ATOM      4  C   UNL d   1      -0.284  -2.916  -2.119  0.00  0.00    -0.033 A 
ATOM      5  C   UNL d   1      -0.970  -0.304  -1.334  0.00  0.00     0.045 A 
ATOM      6  C   UNL d   1       0.600  -2.141  -1.339  0.00  0.00     0.045 A 
ATOM      7  C   UNL d   1       0.219  -4.274  -2.540  0.00  0.00     0.050 C 
ATOM      8  C   UNL d   1      -3.211  -0.440  -2.404  0.00  0.00     0.050 C 
ENDROOT
BRANCH   2   9
ATOM      9  N   UNL d   1      -2.545  -3.168  -3.105  0.00  0.00    -0.379 N 
ATOM     10  C   UNL d   1      -2.792  -4.566  -2.722  0.00  0.00     0.133 C 
ATOM     11  C   UNL d   1      -4.288  -4.893  -2.796  0.00  0.00     0.093 C 
ATOM     12  S   UNL d   1      -4.982  -4.655  -4.471  0.00  0.00    -0.166 SA
ATOM     13  C   UNL d   1      -4.356  -2.962  -4.767  0.00  0.00     0.093 C 
ATOM     14  C   UNL d   1      -2.845  -2.847  -4.512  0.00  0.00     0.133 C 
ENDBRANCH   2   9
BRANCH   1  15
ATOM     15  N   UNL d   1       1.178  -0.057  -0.126  0.00  0.00    -0.116 N 
ATOM     16  O   UNL d   1       0.873   1.123   0.110  0.00  0.00    -0.532 OA
ATOM     17  O   UNL d   1       2.202  -0.612   0.289  0.00  0.00    -0.532 OA
ENDBRANCH   1  15
TORSDOF 2
