REMARK  4 active torsions:
REMARK  status: ('A' for Active; 'I' for Inactive)
REMARK       I    between atoms: C_5  and  N_1 
REMARK    1  A    between atoms: C_8  and  C_5 
REMARK    2  A    between atoms: C_15  and  C_8 
REMARK    3  A    between atoms: O_18  and  C_9 
REMARK    4  A    between atoms: O_20  and  C_13 
ROOT
ATOM      1  N   UNL d   1       4.115  -0.757  -1.000  0.00  0.00    -0.183 N 
ATOM      2  C   UNL d   1       4.098  -1.341  -2.263  0.00  0.00     0.280 C 
ATOM      3  N   UNL d   1       4.276   0.654  -0.896  0.00  0.00    -0.253 N 
ATOM      4  C   UNL d   1       4.699   1.432  -1.948  0.00  0.00     0.271 C 
ATOM      5  C   UNL d   1       3.803  -1.403   0.207  0.00  0.00     0.250 C 
ATOM      6  C   UNL d   1       4.020  -0.431  -3.410  0.00  0.00     0.050 A 
ATOM      7  C   UNL d   1       4.473   0.875  -3.295  0.00  0.00     0.049 A 
ATOM      8  O   UNL d   1       4.233  -2.535  -2.503  0.00  0.00    -0.265 OA
ATOM      9  O   UNL d   1       5.167   2.557  -1.795  0.00  0.00    -0.266 OA
ATOM     10  O   UNL d   1       3.626  -0.750   1.244  0.00  0.00    -0.271 OA
ATOM     11  C   UNL d   1       3.588  -0.934  -4.642  0.00  0.00     0.018 A 
ATOM     12  C   UNL d   1       4.640   1.647  -4.450  0.00  0.00     0.018 A 
ATOM     13  C   UNL d   1       3.708  -0.151  -5.785  0.00  0.00     0.001 A 
ATOM     14  C   UNL d   1       4.275   1.121  -5.695  0.00  0.00     0.001 A 
ATOM     15  H   UNL d   1       4.420   1.009   0.052  0.00  0.00     0.191 HD
ENDROOT
BRANCH   5  16
ATOM     16  C   UNL d   1       3.644  -2.924   0.219  0.00  0.00     0.144 C 
BRANCH  16  17
ATOM     17  C   UNL d   1       2.255  -3.476  -0.041  0.00  0.00    -0.046 A 
ATOM     18  C   UNL d   1       1.110  -2.673  -0.142  0.00  0.00     0.047 A 
ATOM     19  C   UNL d   1      -0.144  -3.217  -0.480  0.00  0.00     0.102 A 
ATOM     20  C   UNL d   1      -0.285  -4.610  -0.575  0.00  0.00     0.101 A 
ATOM     21  C   UNL d   1       0.845  -5.421  -0.433  0.00  0.00     0.040 A 
ATOM     22  C   UNL d   1       2.101  -4.862  -0.183  0.00  0.00     0.010 A 
BRANCH  19  23
ATOM     23  O   UNL d   1      -1.242  -2.437  -0.723  0.00  0.00    -0.353 OA
ATOM     24  C   UNL d   1      -1.034  -1.100  -1.165  0.00  0.00     0.210 C 
ENDBRANCH  19  23
BRANCH  20  25
ATOM     25  O   UNL d   1      -1.428  -5.318  -0.853  0.00  0.00    -0.353 OA
ATOM     26  C   UNL d   1      -2.661  -4.739  -0.440  0.00  0.00     0.210 C 
ENDBRANCH  20  25
ENDBRANCH  16  17
ENDBRANCH   5  16
TORSDOF 4
