REMARK  5 active torsions:
REMARK  status: ('A' for Active; 'I' for Inactive)
REMARK    1  A    between atoms: C_6  and  C_1 
REMARK    2  A    between atoms: S_16  and  C_3 
REMARK    3  A    between atoms: C_7  and  C_6 
REMARK    4  A    between atoms: N_11  and  N_8 
REMARK    5  A    between atoms: C_13  and  N_11 
ROOT
ATOM      1  C   UNL d   1      -0.130  -4.661   0.666  0.00  0.00     0.180 C 
ATOM      2  N   UNL d   1       0.598  -4.698   1.748  0.00  0.00    -0.287 N 
ATOM      3  HN  UNL d   1       0.791  -3.834   2.253  1.00  0.00     0.188 HD
ATOM      4  C   UNL d   1      -0.458  -5.900  -0.002  0.00  0.00     0.123 C 
ATOM      5  N   UNL d   1      -0.700  -6.921  -0.499  0.00  0.00    -0.190 NA
ENDROOT
BRANCH   1   6
ATOM      6  C   UNL d   1      -0.664  -3.348   0.160  0.00  0.00     0.228 C 
ATOM      7  O   UNL d   1      -1.849  -3.332  -0.165  0.00  0.00    -0.284 OA
BRANCH   6   8
ATOM      8  C   UNL d   1       0.219  -2.188   0.112  0.00  0.00     0.066 A 
ATOM      9  S   UNL d   1       1.922  -2.360   0.038  0.00  0.00    -0.078 SA
ATOM     10  C   UNL d   1       2.194  -0.672  -0.012  0.00  0.00     0.052 A 
ATOM     11  C   UNL d   1       0.999   0.018   0.002  0.00  0.00    -0.005 A 
ATOM     12  C   UNL d   1      -0.147  -0.848   0.051  0.00  0.00    -0.025 A 
ATOM     13  C   UNL d   1       0.838   1.436  -0.055  0.00  0.00     0.010 A 
ATOM     14  C   UNL d   1      -1.555  -0.307   0.021  0.00  0.00     0.045 A 
ATOM     15  C   UNL d   1      -1.661   1.232   0.049  0.00  0.00     0.032 A 
ATOM     16  C   UNL d   1      -0.375   2.010  -0.028  0.00  0.00    -0.025 A 
BRANCH  10  17
ATOM     17  S   UNL d   1       3.836  -0.049  -0.150  0.00  0.00    -0.126 SA
ATOM     18  C   UNL d   1       4.048   0.752   1.455  0.00  0.00     0.096 C 
ENDBRANCH  10  17
ENDBRANCH   6   8
ENDBRANCH   1   6
BRANCH   2  19
ATOM     19  N   UNL d   1       1.102  -5.871   2.211  0.00  0.00    -0.298 N 
ATOM     20  H   UNL d   1       0.864  -6.801   1.854  0.00  0.00     0.187 HD
BRANCH  19  21
ATOM     21  C   UNL d   1       1.956  -5.872   3.335  0.00  0.00     0.069 A 
ATOM     22  C   UNL d   1       2.488  -7.078   3.832  0.00  0.00     0.062 A 
ATOM     23 CL   UNL d   1       2.103  -8.588   3.077  0.00  0.00    -0.082 Cl
ATOM     24  C   UNL d   1       3.341  -7.094   4.940  0.00  0.00     0.026 A 
ATOM     25  C   UNL d   1       3.683  -5.899   5.570  0.00  0.00     0.002 A 
ATOM     26  C   UNL d   1       3.179  -4.693   5.087  0.00  0.00     0.002 A 
ATOM     27  C   UNL d   1       2.327  -4.682   3.979  0.00  0.00     0.033 A 
ENDBRANCH  19  21
ENDBRANCH   2  19
TORSDOF 5
