REMARK  5 active torsions:
REMARK  status: ('A' for Active; 'I' for Inactive)
REMARK    1  A    between atoms: O_6  and  N_1 
REMARK    2  A    between atoms: C_9  and  C_3 
REMARK    3  A    between atoms: C_10  and  C_3 
REMARK    4  A    between atoms: C_4  and  O_6 
REMARK    5  A    between atoms: C_5  and  C_4 
ROOT
ATOM      1  N   UNL d   1       1.037  -0.095  -0.005  0.00  0.00    -0.256 N 
ATOM      2  HN  UNL d   1       0.488  -0.321  -0.834  1.00  0.00     0.195 HD
ATOM      3  C   UNL d   1       0.487   0.070   1.165  0.00  0.00     0.075 C 
ENDROOT
BRANCH   3   4
ATOM      4  C   UNL d   1       1.220   0.281   2.461  0.00  0.00    -0.007 A 
ATOM      5  C   UNL d   1       0.697   1.147   3.437  0.00  0.00     0.017 A 
ATOM      6  C   UNL d   1       1.322   1.274   4.680  0.00  0.00     0.043 A 
ATOM      7  C   UNL d   1       2.496   0.577   4.931  0.00  0.00     0.116 A 
ATOM      8  C   UNL d   1       3.046  -0.261   3.969  0.00  0.00     0.043 A 
ATOM      9  F   UNL d   1       3.098   0.703   6.119  0.00  0.00    -0.206 F 
ATOM     10  C   UNL d   1       2.397  -0.428   2.743  0.00  0.00     0.017 A 
ENDBRANCH   3   4
BRANCH   3  11
ATOM     11  C   UNL d   1      -1.023   0.041   1.186  0.00  0.00    -0.007 A 
ATOM     12  C   UNL d   1      -1.747  -0.440   2.288  0.00  0.00     0.017 A 
ATOM     13  C   UNL d   1      -3.144  -0.380   2.291  0.00  0.00     0.043 A 
ATOM     14  C   UNL d   1      -3.816   0.126   1.184  0.00  0.00     0.116 A 
ATOM     15  C   UNL d   1      -3.118   0.567   0.067  0.00  0.00     0.043 A 
ATOM     16  F   UNL d   1      -5.153   0.187   1.195  0.00  0.00    -0.206 F 
ATOM     17  C   UNL d   1      -1.721   0.524   0.066  0.00  0.00     0.017 A 
ENDBRANCH   3  11
BRANCH   1  18
ATOM     18  O   UNL d   1       2.436   0.059  -0.055  0.00  0.00    -0.194 OA
BRANCH  18  19
ATOM     19  C   UNL d   1       2.955  -0.854  -0.936  0.00  0.00     0.315 C 
ATOM     20  O   UNL d   1       2.409  -1.874  -1.338  0.00  0.00    -0.257 OA
BRANCH  19  21
ATOM     21  C   UNL d   1       4.321  -0.474  -1.383  0.00  0.00     0.043 A 
ATOM     22  C   UNL d   1       4.980   0.679  -0.943  0.00  0.00     0.043 A 
ATOM     23  C   UNL d   1       6.240   1.012  -1.463  0.00  0.00     0.056 A 
ATOM     24 CL   UNL d   1       6.985   2.461  -0.886  0.00  0.00    -0.083 Cl
ATOM     25  C   UNL d   1       6.849   0.193  -2.423  0.00  0.00     0.055 A 
ATOM     26  C   UNL d   1       6.206  -0.969  -2.848  0.00  0.00     0.026 A 
ATOM     27 CL   UNL d   1       8.382   0.566  -3.126  0.00  0.00    -0.083 Cl
ATOM     28  C   UNL d   1       4.951  -1.302  -2.330  0.00  0.00     0.019 A 
ENDBRANCH  19  21
ENDBRANCH  18  19
ENDBRANCH   1  18
TORSDOF 5
