REMARK  6 active torsions:
REMARK  status: ('A' for Active; 'I' for Inactive)
REMARK    1  A    between atoms: C_4  and  C_1 
REMARK    2  A    between atoms: C_2  and  C_6 
REMARK    3  A    between atoms: C_3  and  C_5 
REMARK       I    between atoms: N_9  and  C_4 
REMARK    4  A    between atoms: N_12  and  C_7 
REMARK    5  A    between atoms: C_23  and  N_9 
REMARK    6  A    between atoms: C_13  and  N_12 
ROOT
ATOM      1  C   UNL d   1       1.051   0.095   0.056  0.00  0.00     0.127 C 
ATOM      2  C   UNL d   1       0.308  -1.026   0.113  0.00  0.00     0.116 C 
ATOM      3  C   UNL d   1       0.452   1.378   0.030  0.00  0.00     0.106 C 
ATOM      4  N   UNL d   1      -0.009   2.443   0.007  0.00  0.00    -0.191 NA
ENDROOT
BRANCH   1   5
ATOM      5  C   UNL d   1       2.545  -0.066   0.060  0.00  0.00     0.268 C 
ATOM      6  N   UNL d   1       3.271   1.089  -0.184  0.00  0.00    -0.322 N 
ATOM      7  H   UNL d   1       2.770   1.954  -0.353  0.00  0.00     0.169 HD
ATOM      8  O   UNL d   1       3.032  -1.176   0.263  0.00  0.00    -0.266 OA
BRANCH   6   9
ATOM      9  C   UNL d   1       4.681   1.216  -0.209  0.00  0.00     0.035 A 
ATOM     10  C   UNL d   1       5.570   0.154  -0.006  0.00  0.00     0.032 A 
ATOM     11  C   UNL d   1       6.951   0.371  -0.014  0.00  0.00     0.044 A 
ATOM     12  C   UNL d   1       7.446   1.650  -0.229  0.00  0.00     0.116 A 
ATOM     13  C   UNL d   1       6.583   2.715  -0.447  0.00  0.00     0.044 A 
ATOM     14  F   UNL d   1       8.768   1.858  -0.224  0.00  0.00    -0.206 F 
ATOM     15  C   UNL d   1       5.202   2.498  -0.440  0.00  0.00     0.032 A 
ENDBRANCH   6   9
ENDBRANCH   1   5
BRANCH   2  16
ATOM     16  N   UNL d   1      -1.060  -1.188   0.072  0.00  0.00    -0.364 N 
ATOM     17  H   UNL d   1      -1.631  -0.384  -0.177  0.00  0.00     0.165 HD
BRANCH  16  18
ATOM     18  C   UNL d   1      -1.764  -2.372   0.348  0.00  0.00     0.033 A 
ATOM     19  C   UNL d   1      -1.287  -3.333   1.248  0.00  0.00     0.045 A 
ATOM     20  C   UNL d   1      -1.973  -4.539   1.470  0.00  0.00     0.050 A 
ATOM     21  C   UNL d   1      -3.141  -4.798   0.740  0.00  0.00     0.032 A 
ATOM     22  C   UNL d   1      -3.624  -3.867  -0.194  0.00  0.00     0.050 A 
ATOM     23  C   UNL d   1      -2.933  -2.656  -0.368  0.00  0.00     0.045 A 
BRANCH  20  24
ATOM     24  C   UNL d   1      -1.443  -5.521   2.487  0.00  0.00     0.417 C 
ATOM     25  F   UNL d   1      -2.165  -6.673   2.555  0.00  0.00    -0.166 F 
ATOM     26  F   UNL d   1      -0.161  -5.897   2.229  0.00  0.00    -0.166 F 
ATOM     27  F   UNL d   1      -1.438  -5.008   3.748  0.00  0.00    -0.166 F 
ENDBRANCH  20  24
BRANCH  22  28
ATOM     28  C   UNL d   1      -4.854  -4.152  -1.021  0.00  0.00     0.417 C 
ATOM     29  F   UNL d   1      -5.388  -5.385  -0.796  0.00  0.00    -0.166 F 
ATOM     30  F   UNL d   1      -5.855  -3.261  -0.787  0.00  0.00    -0.166 F 
ATOM     31  F   UNL d   1      -4.603  -4.092  -2.358  0.00  0.00    -0.166 F 
ENDBRANCH  22  28
ENDBRANCH  16  18
ENDBRANCH   2  16
TORSDOF 6
