REMARK  6 active torsions:
REMARK  status: ('A' for Active; 'I' for Inactive)
REMARK    1  A    between atoms: C_3  and  S_1 
REMARK    2  A    between atoms: C_5  and  S_1 
REMARK    3  A    between atoms: N_4  and  C_2 
REMARK    4  A    between atoms: C_9  and  C_5 
REMARK    5  A    between atoms: C_6  and  C_10 
REMARK    6  A    between atoms: C_7  and  N_11 
REMARK       I    between atoms: N_11  and  C_9 
ROOT
ATOM      1  S   UNL d   1       0.091   0.076   0.211  0.00  0.00     0.186 S 
ATOM      2  O   UNL d   1       1.401   0.697   0.147  0.00  0.00    -0.222 OA
ATOM      3  O   UNL d   1      -0.968   0.503  -0.673  0.00  0.00    -0.222 OA
ENDROOT
BRANCH   1   4
ATOM      4  C   UNL d   1      -0.529   0.373   1.867  0.00  0.00     0.092 A 
ATOM      5  C   UNL d   1      -1.853   0.118   2.243  0.00  0.00     0.125 A 
ATOM      6  C   UNL d   1      -2.318   0.405   3.543  0.00  0.00     0.053 A 
ATOM      7  C   UNL d   1      -1.470   1.010   4.482  0.00  0.00     0.050 A 
ATOM      8  C   UNL d   1      -0.163   1.330   4.085  0.00  0.00     0.018 A 
ATOM      9  C   UNL d   1       0.306   1.014   2.796  0.00  0.00     0.027 A 
BRANCH   5  10
ATOM     10  N   UNL d   1      -2.831  -0.442   1.333  0.00  0.00    -0.114 N 
ATOM     11  O   UNL d   1      -2.653  -1.610   0.982  0.00  0.00    -0.532 OA
ATOM     12  O   UNL d   1      -3.817   0.258   1.074  0.00  0.00    -0.532 OA
ENDBRANCH   5  10
BRANCH   7  13
ATOM     13  C   UNL d   1      -1.957   1.339   5.879  0.00  0.00     0.417 C 
ATOM     14  F   UNL d   1      -3.209   0.873   6.134  0.00  0.00    -0.166 F 
ATOM     15  F   UNL d   1      -1.155   0.808   6.841  0.00  0.00    -0.166 F 
ATOM     16  F   UNL d   1      -1.995   2.678   6.113  0.00  0.00    -0.166 F 
ENDBRANCH   7  13
ENDBRANCH   1   4
BRANCH   1  17
ATOM     17  C   UNL d   1       0.356  -1.652   0.075  0.00  0.00     0.248 C 
BRANCH  17  18
ATOM     18  C   UNL d   1       0.686  -2.099  -1.319  0.00  0.00     0.236 C 
ATOM     19  N   UNL d   1       1.803  -1.539  -1.933  0.00  0.00    -0.325 N 
ATOM     20  H   UNL d   1       2.436  -1.016  -1.340  0.00  0.00     0.169 HD
ATOM     21  O   UNL d   1       0.059  -3.059  -1.779  0.00  0.00    -0.272 OA
BRANCH  19  22
ATOM     22  C   UNL d   1       2.367  -2.146  -3.097  0.00  0.00     0.046 C 
ATOM     23  C   UNL d   1       1.576  -2.443  -4.228  0.00  0.00    -0.034 C 
ATOM     24  C   UNL d   1       2.095  -3.271  -5.242  0.00  0.00     0.015 C 
ATOM     25  C   UNL d   1       0.187  -1.899  -4.440  0.00  0.00     0.050 C 
ATOM     26  C   UNL d   1       3.403  -3.748  -5.189  0.00  0.00    -0.061 C 
ATOM     27  C   UNL d   1       4.225  -3.323  -4.143  0.00  0.00     0.015 C 
ATOM     28  C   UNL d   1       3.896  -4.707  -6.232  0.00  0.00     0.048 C 
ATOM     29  C   UNL d   1       3.728  -2.522  -3.091  0.00  0.00    -0.034 C 
ATOM     30  C   UNL d   1       4.709  -2.139  -2.017  0.00  0.00     0.050 C 
ENDBRANCH  19  22
ENDBRANCH  17  18
ENDBRANCH   1  17
TORSDOF 6
