REMARK  2 active torsions:
REMARK  status: ('A' for Active; 'I' for Inactive)
REMARK       I    between atoms: N_2  and  C_1 
REMARK       I    between atoms: N_6  and  C_1 
REMARK    1  A    between atoms: C_3  and  N_2 
REMARK    2  A    between atoms: O_8  and  C_7 
ROOT
ATOM      1  C   UNL d   1       0.989  -2.030   1.566  0.00  0.00     0.038 A 
ATOM      2  C   UNL d   1       2.064  -1.690   2.393  0.00  0.00     0.066 A 
ATOM      3  C   UNL d   1       2.602  -2.617   3.291  0.00  0.00     0.070 A 
ATOM      4  C   UNL d   1       0.976  -4.248   2.550  0.00  0.00     0.005 A 
ATOM      5  C   UNL d   1       0.447  -3.317   1.653  0.00  0.00     0.030 A 
ATOM      6  C   UNL d   1       2.053  -3.897   3.363  0.00  0.00     0.037 A 
ENDROOT
BRANCH   1   7
ATOM      7  N   UNL d   1       0.411  -1.134   0.641  0.00  0.00    -0.314 N 
ATOM      8  C   UNL d   1       0.796   0.156   0.380  0.00  0.00     0.296 C 
ATOM      9  O   UNL d   1       1.726   0.787   0.856  0.00  0.00    -0.254 OA
ATOM     10  N   UNL d   1      -0.005   0.753  -0.549  0.00  0.00    -0.254 NA
ATOM     11  H   UNL d   1      -0.991   0.548  -0.525  0.00  0.00     0.128 HD
ATOM     12  H   UNL d   1       0.214   1.737  -0.656  0.00  0.00     0.128 HD
ATOM     13  H   UNL d   1      -0.319  -1.500   0.049  0.00  0.00     0.170 HD
ENDBRANCH   1   7
BRANCH   3  14
ATOM     14  O   UNL d   1       3.652  -2.386   4.139  0.00  0.00    -0.356 OA
ATOM     15  C   UNL d   1       4.240  -1.091   4.082  0.00  0.00     0.210 C 
ENDBRANCH   3  14
TORSDOF 2
