REMARK  7 active torsions:
REMARK  status: ('A' for Active; 'I' for Inactive)
REMARK    1  A    between atoms: C_5  and  C_1 
REMARK    2  A    between atoms: C_8  and  C_2 
REMARK       I    between atoms: N_15  and  C_8 
REMARK    3  A    between atoms: C_9  and  C_18 
REMARK    4  A    between atoms: C_29  and  N_15 
REMARK    5  A    between atoms: C_18  and  S_21 
REMARK    6  A    between atoms: S_21  and  C_30 
REMARK    7  A    between atoms: C_30  and  C_29 
ROOT
ATOM      1  C   UNL d   1       0.405  -2.687  -0.510  0.00  0.00     0.256 C 
ATOM      2  O   UNL d   1      -0.422  -3.539  -0.830  0.00  0.00    -0.267 OA
ATOM      3  N   UNL d   1       1.732  -2.974  -0.261  0.00  0.00    -0.356 N 
ATOM      4  H   UNL d   1       2.233  -2.298   0.306  0.00  0.00     0.162 HD
ENDROOT
BRANCH   1   5
ATOM      5  C   UNL d   1       0.043  -1.305  -0.276  0.00  0.00     0.092 A 
ATOM      6  C   UNL d   1      -1.098  -0.762   0.413  0.00  0.00     0.086 A 
ATOM      7  N   UNL d   1      -1.018   0.580   0.429  0.00  0.00    -0.259 N 
ATOM      8  O   UNL d   1       0.102   0.926  -0.278  0.00  0.00    -0.241 OA
ATOM      9  HN  UNL d   1      -1.669   1.220   0.883  1.00  0.00     0.195 HD
ATOM     10  C   UNL d   1       0.752  -0.191  -0.686  0.00  0.00     0.090 A 
ATOM     11  C   UNL d   1       1.989   0.059  -1.452  0.00  0.00     0.080 C 
BRANCH   6  12
ATOM     12  C   UNL d   1      -2.216  -1.428   1.106  0.00  0.00     0.037 A 
ATOM     13  C   UNL d   1      -2.007  -2.480   2.023  0.00  0.00     0.048 A 
ATOM     14 CL   UNL d   1      -0.436  -3.015   2.528  0.00  0.00    -0.083 Cl
ATOM     15  C   UNL d   1      -3.082  -3.102   2.678  0.00  0.00     0.025 A 
ATOM     16  C   UNL d   1      -4.381  -2.642   2.501  0.00  0.00     0.003 A 
ATOM     17  C   UNL d   1      -4.611  -1.572   1.647  0.00  0.00     0.025 A 
ATOM     18  C   UNL d   1      -3.550  -0.986   0.936  0.00  0.00     0.048 A 
ATOM     19 CL   UNL d   1      -4.011   0.288  -0.151  0.00  0.00    -0.083 Cl
ENDBRANCH   6  12
ENDBRANCH   1   5
BRANCH   3  20
ATOM     20  C   UNL d   1       2.186  -4.349  -0.121  0.00  0.00     0.133 C 
BRANCH  20  21
ATOM     21  C   UNL d   1       3.697  -4.446   0.122  0.00  0.00     0.093 C 
BRANCH  21  22
ATOM     22  S   UNL d   1       4.150  -3.553   1.655  0.00  0.00    -0.163 SA
BRANCH  22  23
ATOM     23  C   UNL d   1       5.954  -3.822   1.636  0.00  0.00     0.117 C 
BRANCH  23  24
ATOM     24  C   UNL d   1       6.599  -3.248   2.869  0.00  0.00     0.011 A 
ATOM     25  C   UNL d   1       7.054  -1.923   2.849  0.00  0.00     0.125 A 
ATOM     26  F   UNL d   1       6.936  -1.198   1.726  0.00  0.00    -0.205 F 
ATOM     27  C   UNL d   1       7.633  -1.321   3.964  0.00  0.00     0.043 A 
ATOM     28  C   UNL d   1       7.770  -2.043   5.145  0.00  0.00     0.005 A 
ATOM     29  C   UNL d   1       7.322  -3.363   5.196  0.00  0.00     0.024 A 
ATOM     30  C   UNL d   1       6.739  -3.960   4.072  0.00  0.00     0.044 A 
ATOM     31 CL   UNL d   1       6.206  -5.597   4.229  0.00  0.00    -0.084 Cl
ENDBRANCH  23  24
ENDBRANCH  22  23
ENDBRANCH  21  22
ENDBRANCH  20  21
ENDBRANCH   3  20
TORSDOF 7
