REMARK  6 active torsions:
REMARK  status: ('A' for Active; 'I' for Inactive)
REMARK    1  A    between atoms: S_2  and  N_10 
REMARK    2  A    between atoms: C_13  and  S_2 
REMARK    3  A    between atoms: N_10  and  N_18 
REMARK    4  A    between atoms: C_11  and  C_15 
REMARK    5  A    between atoms: C_12  and  C_16 
REMARK    6  A    between atoms: N_18  and  C_17 
ROOT
ATOM      1  N   UNL d   1      -4.612  -0.943   0.194  0.00  0.00    -0.221 N 
ATOM      2  H   UNL d   1      -4.831   0.050   0.112  0.00  0.00     0.200 HD
ENDROOT
BRANCH   1   3
ATOM      3  S   UNL d   1      -5.897  -1.875   0.761  0.00  0.00     0.276 S 
ATOM      4  O   UNL d   1      -7.059  -1.016   0.792  0.00  0.00    -0.199 OA
ATOM      5  O   UNL d   1      -5.891  -3.147   0.071  0.00  0.00    -0.199 OA
BRANCH   3   6
ATOM      6  C   UNL d   1      -5.394  -2.164   2.448  0.00  0.00     0.082 A 
ATOM      7  C   UNL d   1      -5.730  -1.234   3.440  0.00  0.00     0.041 A 
ATOM      8  C   UNL d   1      -5.388  -1.482   4.778  0.00  0.00     0.050 A 
ATOM      9  C   UNL d   1      -4.707  -2.672   5.096  0.00  0.00     0.032 A 
ATOM     10  C   UNL d   1      -4.373  -3.613   4.104  0.00  0.00     0.050 A 
ATOM     11  C   UNL d   1      -4.727  -3.349   2.773  0.00  0.00     0.041 A 
BRANCH   8  12
ATOM     12  C   UNL d   1      -5.753  -0.506   5.874  0.00  0.00     0.417 C 
ATOM     13  F   UNL d   1      -6.407   0.598   5.420  0.00  0.00    -0.166 F 
ATOM     14  F   UNL d   1      -6.563  -1.064   6.814  0.00  0.00    -0.166 F 
ATOM     15  F   UNL d   1      -4.661  -0.046   6.542  0.00  0.00    -0.166 F 
ENDBRANCH   8  12
BRANCH  10  16
ATOM     16  C   UNL d   1      -3.660  -4.892   4.483  0.00  0.00     0.417 C 
ATOM     17  F   UNL d   1      -3.408  -5.708   3.424  0.00  0.00    -0.166 F 
ATOM     18  F   UNL d   1      -2.455  -4.656   5.071  0.00  0.00    -0.166 F 
ATOM     19  F   UNL d   1      -4.373  -5.636   5.372  0.00  0.00    -0.166 F 
ENDBRANCH  10  16
ENDBRANCH   3   6
ENDBRANCH   1   3
BRANCH   1  20
ATOM     20  N   UNL d   1      -3.260  -1.469   0.045  0.00  0.00    -0.276 N 
ATOM     21  H   UNL d   1      -3.118  -2.478   0.012  0.00  0.00     0.189 HD
BRANCH  20  22
ATOM     22  C   UNL d   1      -2.077  -0.716  -0.008  0.00  0.00     0.122 A 
ATOM     23  N   UNL d   1      -0.913  -1.384  -0.113  0.00  0.00    -0.326 N 
ATOM     24  C   UNL d   1       0.184  -0.593  -0.106  0.00  0.00     0.136 A 
ATOM     25  HN  UNL d   1      -0.863  -2.400  -0.191  1.00  0.00     0.169 HD
ATOM     26  C   UNL d   1       0.235   0.796   0.006  0.00  0.00     0.039 A 
ATOM     27  N   UNL d   1       1.486  -1.006  -0.205  0.00  0.00    -0.280 N 
ATOM     28  C   UNL d   1       1.629   1.102  -0.035  0.00  0.00     0.036 A 
ATOM     29  C   UNL d   1      -0.991   1.479   0.122  0.00  0.00    -0.042 A 
ATOM     30  C   UNL d   1       2.330   2.408   0.032  0.00  0.00     0.070 C 
ATOM     31  N   UNL d   1       2.381  -0.002  -0.160  0.00  0.00    -0.301 N 
ATOM     32  HN  UNL d   1       3.398  -0.066  -0.209  1.00  0.00     0.187 HD
ATOM     33  C   UNL d   1      -1.207   2.957   0.271  0.00  0.00     0.049 C 
ATOM     34  C   UNL d   1      -2.143   0.673   0.102  0.00  0.00     0.057 A 
ATOM     35  C   UNL d   1       1.970  -2.355  -0.345  0.00  0.00     0.179 C 
ENDBRANCH  20  22
ENDBRANCH   1  20
TORSDOF 6
