REMARK  5 active torsions:
REMARK  status: ('A' for Active; 'I' for Inactive)
REMARK       I    between atoms: N_2  and  C_1 
REMARK    1  A    between atoms: C_5  and  C_1 
REMARK       I    between atoms: C_6  and  N_2 
REMARK    2  A    between atoms: C_3  and  C_7 
REMARK    3  A    between atoms: C_4  and  C_8 
REMARK       I    between atoms: N_10  and  C_6 
REMARK    4  A    between atoms: N_16  and  N_10 
REMARK    5  A    between atoms: C_12  and  N_16 
ROOT
ATOM      1  N   UNL d   1       3.139  -1.556   0.963  0.00  0.00    -0.202 NA
ATOM      2  H   UNL d   1       2.681  -0.650   0.787  0.00  0.00     0.153 HD
ENDROOT
BRANCH   1   3
ATOM      3  C   UNL d   1       4.513  -1.501   0.635  0.00  0.00     0.029 A 
ATOM      4  C   UNL d   1       5.138  -0.243   0.611  0.00  0.00     0.041 A 
ATOM      5  C   UNL d   1       6.531  -0.107   0.490  0.00  0.00     0.050 A 
ATOM      6  C   UNL d   1       7.313  -1.265   0.400  0.00  0.00     0.032 A 
ATOM      7  C   UNL d   1       6.720  -2.537   0.444  0.00  0.00     0.050 A 
ATOM      8  C   UNL d   1       5.319  -2.641   0.555  0.00  0.00     0.041 A 
BRANCH   5   9
ATOM      9  C   UNL d   1       7.152   1.269   0.505  0.00  0.00     0.417 C 
ATOM     10  F   UNL d   1       8.514   1.250   0.505  0.00  0.00    -0.166 F 
ATOM     11  F   UNL d   1       6.789   2.019  -0.571  0.00  0.00    -0.166 F 
ATOM     12  F   UNL d   1       6.791   1.988   1.603  0.00  0.00    -0.166 F 
ENDBRANCH   5   9
BRANCH   7  13
ATOM     13  C   UNL d   1       7.568  -3.787   0.434  0.00  0.00     0.417 C 
ATOM     14  F   UNL d   1       8.905  -3.532   0.369  0.00  0.00    -0.166 F 
ATOM     15  F   UNL d   1       7.391  -4.541   1.554  0.00  0.00    -0.166 F 
ATOM     16  F   UNL d   1       7.292  -4.603  -0.619  0.00  0.00    -0.166 F 
ENDBRANCH   7  13
ENDBRANCH   1   3
BRANCH   1  17
ATOM     17  N   UNL d   1       2.382  -2.576   0.324  0.00  0.00    -0.268 N 
ATOM     18  C   UNL d   1       1.084  -2.192   0.078  0.00  0.00     0.337 C 
ATOM     19  N   UNL d   1       0.161  -3.159  -0.184  0.00  0.00    -0.274 N 
ATOM     20  O   UNL d   1       0.734  -1.008   0.073  0.00  0.00    -0.246 OA
ATOM     21  C   UNL d   1       0.332  -4.498  -0.486  0.00  0.00     0.261 C 
ATOM     22  H   UNL d   1      -0.736  -2.741  -0.387  0.00  0.00     0.173 HD
ATOM     23  O   UNL d   1       1.345  -5.136  -0.225  0.00  0.00    -0.267 OA
ATOM     24  H   UNL d   1       2.512  -3.521   0.685  0.00  0.00     0.185 HD
BRANCH  21  25
ATOM     25  C   UNL d   1      -0.895  -5.177  -1.005  0.00  0.00     0.054 A 
ATOM     26  C   UNL d   1      -1.799  -4.582  -1.900  0.00  0.00     0.049 A 
ATOM     27 CL   UNL d   1      -1.515  -3.055  -2.659  0.00  0.00    -0.083 Cl
ATOM     28  C   UNL d   1      -2.991  -5.234  -2.235  0.00  0.00     0.025 A 
ATOM     29  C   UNL d   1      -3.278  -6.491  -1.703  0.00  0.00     0.002 A 
ATOM     30  C   UNL d   1      -2.364  -7.110  -0.855  0.00  0.00     0.001 A 
ATOM     31  C   UNL d   1      -1.173  -6.461  -0.510  0.00  0.00     0.019 A 
ENDBRANCH  21  25
ENDBRANCH   1  17
TORSDOF 5
