REMARK  2 active torsions:
REMARK  status: ('A' for Active; 'I' for Inactive)
REMARK    1  A    between atoms: C_8  and  N_4 
REMARK    2  A    between atoms: O_17  and  C_12 
ROOT
ATOM      1  N   UNL d   1       1.584  -1.310  -0.725  0.00  0.00    -0.301 N 
ATOM      2  HN  UNL d   1       1.015  -1.904  -0.121  1.00  0.00     0.187 HD
ATOM      3  C   UNL d   1       1.464  -1.146  -2.009  0.00  0.00     0.042 C 
ATOM      4  N   UNL d   1       2.635  -0.515  -0.356  0.00  0.00    -0.291 N 
ATOM      5  C   UNL d   1       2.377  -0.118  -2.624  0.00  0.00     0.058 C 
ATOM      6  C   UNL d   1       0.561  -1.886  -2.894  0.00  0.00    -0.005 A 
ATOM      7  C   UNL d   1       3.405  -0.053  -1.501  0.00  0.00     0.160 C 
ATOM      8  C   UNL d   1      -0.329  -1.200  -3.734  0.00  0.00    -0.046 A 
ATOM      9  C   UNL d   1       1.653   1.214  -2.816  0.00  0.00     0.013 C 
ATOM     10  C   UNL d   1       0.752  -3.266  -3.011  0.00  0.00     0.014 A 
ATOM     11  C   UNL d   1       0.586   1.172  -3.909  0.00  0.00     0.005 C 
ATOM     12  C   UNL d   1      -0.605   0.275  -3.573  0.00  0.00     0.039 C 
ATOM     13  C   UNL d   1      -1.005  -1.930  -4.724  0.00  0.00     0.008 A 
ATOM     14  C   UNL d   1       0.075  -3.973  -4.004  0.00  0.00     0.001 A 
ATOM     15  C   UNL d   1      -0.793  -3.304  -4.866  0.00  0.00     0.001 A 
ENDROOT
BRANCH   4  16
ATOM     16  C   UNL d   1       3.016  -0.315   0.967  0.00  0.00     0.051 A 
ATOM     17  C   UNL d   1       4.298   0.145   1.302  0.00  0.00     0.034 A 
ATOM     18  C   UNL d   1       4.656   0.421   2.626  0.00  0.00     0.039 A 
ATOM     19  C   UNL d   1       3.736   0.257   3.658  0.00  0.00     0.068 A 
ATOM     20  C   UNL d   1       2.464  -0.225   3.355  0.00  0.00     0.039 A 
ATOM     21  C   UNL d   1       2.118  -0.516   2.024  0.00  0.00     0.034 A 
BRANCH  19  22
ATOM     22  O   UNL d   1       4.208   0.593   4.896  0.00  0.00    -0.356 OA
ATOM     23  C   UNL d   1       3.261   0.631   5.955  0.00  0.00     0.210 C 
ENDBRANCH  19  22
ENDBRANCH   4  16
TORSDOF 2
