REMARK  7 active torsions:
REMARK  status: ('A' for Active; 'I' for Inactive)
REMARK    1  A    between atoms: C_8  and  C_2 
REMARK    2  A    between atoms: S_9  and  C_3 
REMARK    3  A    between atoms: C_10  and  C_8 
REMARK    4  A    between atoms: O_12  and  C_10 
REMARK    5  A    between atoms: O_13  and  C_10 
REMARK    6  A    between atoms: C_15  and  O_12 
REMARK    7  A    between atoms: C_14  and  O_13 
ROOT
ATOM      1  N   UNL d   1       0.534   0.516  -0.673  0.00  0.00    -0.320 N 
ATOM      2  C   UNL d   1       0.922  -0.622   0.000  0.00  0.00     0.104 A 
ATOM      3  C   UNL d   1      -0.696   0.838  -0.163  0.00  0.00     0.159 A 
ATOM      4  N   UNL d   1      -0.056  -0.990   0.809  0.00  0.00    -0.287 N 
ATOM      5  HN  UNL d   1      -0.053  -1.810   1.415  1.00  0.00     0.188 HD
ATOM      6  N   UNL d   1      -1.076  -0.078   0.693  0.00  0.00    -0.279 N 
ATOM      7  HN  UNL d   1      -1.969  -0.109   1.184  1.00  0.00     0.189 HD
ATOM      8  C   UNL d   1       1.272   1.235  -1.679  0.00  0.00     0.159 C 
ENDROOT
BRANCH   2   9
ATOM      9  C   UNL d   1       2.267  -1.262  -0.075  0.00  0.00     0.138 C 
BRANCH   9  10
ATOM     10  C   UNL d   1       2.194  -2.783  -0.274  0.00  0.00     0.266 C 
BRANCH  10  11
ATOM     11  O   UNL d   1       1.837  -3.023  -1.645  0.00  0.00    -0.361 OA
BRANCH  11  12
ATOM     12  C   UNL d   1       1.697  -4.415  -1.922  0.00  0.00     0.166 C 
ATOM     13  C   UNL d   1       1.253  -4.580  -3.363  0.00  0.00     0.033 C 
ENDBRANCH  11  12
ENDBRANCH  10  11
BRANCH  10  14
ATOM     14  O   UNL d   1       3.487  -3.351  -0.026  0.00  0.00    -0.361 OA
BRANCH  14  15
ATOM     15  C   UNL d   1       3.750  -3.577   1.356  0.00  0.00     0.166 C 
ATOM     16  C   UNL d   1       5.114  -4.229   1.470  0.00  0.00     0.033 C 
ENDBRANCH  14  15
ENDBRANCH  10  14
ENDBRANCH   9  10
ENDBRANCH   2   9
BRANCH   3  17
ATOM     17  S   UNL d   1      -1.579   2.269  -0.557  0.00  0.00    -0.105 SA
ATOM     18  H   UNL d   1      -0.556   3.133  -0.601  0.00  0.00     0.110 HD
ENDBRANCH   3  17
TORSDOF 7
