REMARK  7 active torsions:
REMARK  status: ('A' for Active; 'I' for Inactive)
REMARK    1  A    between atoms: N_10  and  C_3 
REMARK    2  A    between atoms: C_8  and  C_7 
REMARK    3  A    between atoms: C_13  and  C_7 
REMARK    4  A    between atoms: C_11  and  C_9 
REMARK    5  A    between atoms: C_14  and  C_9 
REMARK    6  A    between atoms: C_12  and  C_11 
REMARK    7  A    between atoms: C_16  and  C_12 
ROOT
ATOM      1  N   UNL d   1      -0.049   1.575   0.199  0.00  0.00    -0.303 N 
ATOM      2  HN  UNL d   1      -0.458   2.491   0.381  1.00  0.00     0.171 HD
ATOM      3  C   UNL d   1       1.214   1.397   0.007  0.00  0.00     0.150 A 
ATOM      4  C   UNL d   1       0.052  -0.799  -0.082  0.00  0.00     0.087 A 
ATOM      5  S   UNL d   1       1.693  -0.262  -0.252  0.00  0.00    -0.048 SA
ATOM      6  C   UNL d   1      -0.797   0.421   0.136  0.00  0.00     0.265 A 
ATOM      7  C   UNL d   1      -0.370  -2.087  -0.112  0.00  0.00    -0.003 C 
ATOM      8  O   UNL d   1      -2.014   0.408   0.272  0.00  0.00    -0.267 OA
ENDROOT
BRANCH   7   9
ATOM      9  C   UNL d   1      -1.768  -2.521  -0.026  0.00  0.00     0.022 C 
ATOM     10  C   UNL d   1      -2.780  -2.332  -0.907  0.00  0.00    -0.040 C 
BRANCH  10  11
ATOM     11  C   UNL d   1      -2.655  -1.525  -2.184  0.00  0.00     0.123 C 
BRANCH  11  12
ATOM     12  C   UNL d   1      -2.180  -2.304  -3.415  0.00  0.00     0.163 C 
ATOM     13  O   UNL d   1      -2.450  -3.492  -3.596  0.00  0.00    -0.292 OA
BRANCH  12  14
ATOM     14  C   UNL d   1      -1.374  -1.592  -4.459  0.00  0.00     0.010 A 
ATOM     15  C   UNL d   1      -1.035  -0.238  -4.366  0.00  0.00     0.015 A 
ATOM     16  C   UNL d   1      -0.173   0.341  -5.302  0.00  0.00     0.007 A 
ATOM     17  C   UNL d   1       0.340  -0.412  -6.361  0.00  0.00    -0.062 A 
ATOM     18  C   UNL d   1      -0.057  -1.746  -6.499  0.00  0.00     0.007 A 
ATOM     19  C   UNL d   1       1.331   0.205  -7.302  0.00  0.00     0.048 C 
ATOM     20  C   UNL d   1      -0.906  -2.331  -5.555  0.00  0.00     0.015 A 
ENDBRANCH  12  14
ENDBRANCH  11  12
ENDBRANCH  10  11
BRANCH  10  21
ATOM     21  C   UNL d   1      -4.128  -2.895  -0.585  0.00  0.00    -0.029 A 
ATOM     22  C   UNL d   1      -4.614  -2.888   0.736  0.00  0.00     0.013 A 
ATOM     23  C   UNL d   1      -5.872  -3.413   1.054  0.00  0.00     0.024 A 
ATOM     24  C   UNL d   1      -6.677  -3.933   0.046  0.00  0.00     0.034 A 
ATOM     25  C   UNL d   1      -6.235  -3.926  -1.271  0.00  0.00     0.024 A 
ATOM     26 CL   UNL d   1      -8.226  -4.576   0.430  0.00  0.00    -0.084 Cl
ATOM     27  C   UNL d   1      -4.971  -3.410  -1.581  0.00  0.00     0.013 A 
ENDBRANCH  10  21
ENDBRANCH   7   9
BRANCH   7  28
ATOM     28  C   UNL d   1       0.640  -3.180  -0.042  0.00  0.00    -0.024 A 
ATOM     29  C   UNL d   1       1.193  -3.532   1.201  0.00  0.00     0.013 A 
ATOM     30  C   UNL d   1       2.050  -4.627   1.312  0.00  0.00     0.007 A 
ATOM     31  C   UNL d   1       2.366  -5.394   0.184  0.00  0.00    -0.062 A 
ATOM     32  C   UNL d   1       1.819  -5.039  -1.057  0.00  0.00     0.007 A 
ATOM     33  C   UNL d   1       3.255  -6.592   0.325  0.00  0.00     0.048 C 
ATOM     34  C   UNL d   1       0.958  -3.944  -1.169  0.00  0.00     0.013 A 
ENDBRANCH   7  28
BRANCH   3  35
ATOM     35  N   UNL d   1       2.147   2.403   0.052  0.00  0.00    -0.361 N 
ATOM     36  C   UNL d   1       3.472   2.373  -0.531  0.00  0.00     0.125 C 
ATOM     37  C   UNL d   1       4.154   3.606   0.048  0.00  0.00     0.021 C 
ATOM     38  C   UNL d   1       3.022   4.608   0.189  0.00  0.00     0.021 C 
ATOM     39  C   UNL d   1       1.788   3.754   0.476  0.00  0.00     0.125 C 
ENDBRANCH   3  35
TORSDOF 7
