REMARK  3 active torsions:
REMARK  status: ('A' for Active; 'I' for Inactive)
REMARK    1  A    between atoms: C_3  and  C_1 
REMARK    2  A    between atoms: C_10  and  C_2 
REMARK       I    between atoms: N_15  and  C_10 
REMARK    3  A    between atoms: N_16  and  N_15 
ROOT
ATOM      1  C   UNL d   1      -1.244  -0.897  -0.085  0.00  0.00     0.145 A 
ATOM      2  C   UNL d   1       0.071  -1.326   0.056  0.00  0.00     0.095 A 
ATOM      3  O   UNL d   1      -1.240   0.442  -0.348  0.00  0.00    -0.234 OA
ATOM      4  N   UNL d   1       0.038   0.936  -0.273  0.00  0.00    -0.264 N 
ATOM      5  HN  UNL d   1       0.326   1.910  -0.367  1.00  0.00     0.194 HD
ATOM      6  C   UNL d   1       0.830  -0.119  -0.049  0.00  0.00     0.047 A 
ATOM      7  C   UNL d   1       2.292   0.140  -0.004  0.00  0.00     0.071 C 
ENDROOT
BRANCH   1   8
ATOM      8  C   UNL d   1      -2.517  -1.671   0.033  0.00  0.00     0.094 A 
ATOM      9  N   UNL d   1      -3.650  -1.236  -0.536  0.00  0.00    -0.258 N 
ATOM     10  O   UNL d   1      -4.609  -2.194  -0.251  0.00  0.00    -0.242 OA
ATOM     11  HN  UNL d   1      -3.779  -0.376  -1.070  1.00  0.00     0.195 HD
ATOM     12  C   UNL d   1      -4.064  -3.154   0.541  0.00  0.00     0.074 A 
ATOM     13  C   UNL d   1      -2.745  -2.856   0.767  0.00  0.00     0.068 A 
ATOM     14  C   UNL d   1      -4.953  -4.247   0.968  0.00  0.00     0.079 C 
ENDBRANCH   1   8
BRANCH   2  15
ATOM     15  C   UNL d   1       0.477  -2.712   0.167  0.00  0.00     0.270 C 
ATOM     16  O   UNL d   1      -0.177  -3.639  -0.307  0.00  0.00    -0.266 OA
ATOM     17  N   UNL d   1       1.663  -2.974   0.851  0.00  0.00    -0.290 N 
ATOM     18  H   UNL d   1       2.237  -2.234   1.242  0.00  0.00     0.183 HD
BRANCH  17  19
ATOM     19  N   UNL d   1       2.119  -4.313   0.955  0.00  0.00    -0.247 NA
ATOM     20  H   UNL d   1       1.563  -4.872   0.289  0.00  0.00     0.143 HD
ATOM     21  H   UNL d   1       1.836  -4.677   1.868  0.00  0.00     0.143 HD
ENDBRANCH  17  19
ENDBRANCH   2  15
TORSDOF 3
