REMARK  7 active torsions:
REMARK  status: ('A' for Active; 'I' for Inactive)
REMARK    1  A    between atoms: C_3  and  C_1 
REMARK    2  A    between atoms: C_5  and  C_2 
REMARK    3  A    between atoms: O_22  and  C_5 
REMARK    4  A    between atoms: C_15  and  C_6 
REMARK    5  A    between atoms: N_9  and  C_15 
REMARK    6  A    between atoms: C_13  and  C_14 
REMARK    7  A    between atoms: O_23  and  C_17 
ROOT
ATOM      1  C   UNL d   1       5.911   2.482  -1.444  0.00  0.00     0.337 C 
ENDROOT
BRANCH   1   2
ATOM      2  N   UNL d   1       6.832   3.503  -0.877  0.00  0.00     0.094 N 
ATOM      3  C   UNL d   1       6.268   4.851  -1.042  0.00  0.00     0.273 C 
ATOM      4  C   UNL d   1       6.794   5.943  -0.096  0.00  0.00     0.040 C 
ATOM      5  C   UNL d   1       7.092   5.518   1.358  0.00  0.00     0.025 C 
ATOM      6  C   UNL d   1       7.849   4.189   1.326  0.00  0.00     0.040 C 
ATOM      7  C   UNL d   1       7.120   3.127   0.514  0.00  0.00     0.273 C 
BRANCH   5   8
ATOM      8  C   UNL d   1       5.931   5.526   2.357  0.00  0.00    -0.021 A 
ATOM      9  C   UNL d   1       6.015   5.917   3.713  0.00  0.00     0.074 A 
ATOM     10  C   UNL d   1       4.847   5.912   4.511  0.00  0.00     0.037 A 
ATOM     11  C   UNL d   1       3.610   5.516   4.023  0.00  0.00     0.003 A 
ATOM     12  C   UNL d   1       3.519   5.089   2.717  0.00  0.00     0.001 A 
ATOM     13  C   UNL d   1       4.660   5.091   1.909  0.00  0.00     0.010 A 
BRANCH   9  14
ATOM     14  O   UNL d   1       7.066   6.318   4.485  0.00  0.00    -0.355 OA
ATOM     15  C   UNL d   1       8.376   6.502   4.002  0.00  0.00     0.210 C 
ENDBRANCH   9  14
ENDBRANCH   5   8
ENDBRANCH   1   2
BRANCH   1  16
ATOM     16  C   UNL d   1       5.915   2.375  -2.929  0.00  0.00     0.082 A 
ATOM     17  O   UNL d   1       4.751   1.956  -3.512  0.00  0.00    -0.312 OA
ATOM     18  C   UNL d   1       4.988   1.763  -4.846  0.00  0.00     0.087 A 
ATOM     19  C   UNL d   1       6.309   2.086  -5.109  0.00  0.00     0.040 A 
ATOM     20  C   UNL d   1       6.897   2.489  -3.888  0.00  0.00     0.037 A 
BRANCH  18  21
ATOM     21  C   UNL d   1       4.003   1.223  -5.846  0.00  0.00     0.021 A 
ATOM     22  C   UNL d   1       2.635   1.087  -5.647  0.00  0.00     0.093 A 
ATOM     23  S   UNL d   1       1.887   0.304  -6.994  0.00  0.00    -0.095 SA
ATOM     24  C   UNL d   1       3.352   0.203  -7.853  0.00  0.00     0.051 A 
ATOM     25  C   UNL d   1       4.399   0.729  -7.135  0.00  0.00     0.023 A 
BRANCH  22  26
ATOM     26  C   UNL d   1       1.749   1.486  -4.570  0.00  0.00     0.300 C 
ATOM     27  O   UNL d   1       0.706   0.923  -4.254  0.00  0.00    -0.259 OA
BRANCH  26  28
ATOM     28  O   UNL d   1       2.176   2.648  -4.001  0.00  0.00    -0.322 OA
ATOM     29  C   UNL d   1       1.338   3.128  -2.950  0.00  0.00     0.213 C 
ENDBRANCH  26  28
ENDBRANCH  22  26
ENDBRANCH  18  21
ENDBRANCH   1  16
TORSDOF 7
