REMARK  6 active torsions:
REMARK  status: ('A' for Active; 'I' for Inactive)
REMARK    1  A    between atoms: N_2  and  C_1 
REMARK    2  A    between atoms: C_3  and  N_4 
REMARK    3  A    between atoms: N_8  and  C_3 
REMARK       I    between atoms: N_4  and  C_5 
REMARK    4  A    between atoms: C_5  and  C_9 
REMARK    5  A    between atoms: O_12  and  C_7 
REMARK    6  A    between atoms: C_17  and  O_12 
ROOT
ATOM      1  C   UNL d   1       1.635  -0.627   0.293  0.00  0.00     0.137 C 
ATOM      2  C   UNL d   1       0.635  -1.609   0.223  0.00  0.00     0.056 C 
ATOM      3  C   UNL d   1       1.311   0.718   0.499  0.00  0.00     0.109 C 
ATOM      4  C   UNL d   1      -0.695  -1.241   0.459  0.00  0.00     0.035 C 
ATOM      5  C   UNL d   1       0.011   1.046   0.880  0.00  0.00     0.041 C 
ATOM      6  C   UNL d   1      -0.984   0.066   0.885  0.00  0.00     0.020 C 
ENDROOT
BRANCH   4   7
ATOM      7  C   UNL d   1      -1.784  -2.234   0.193  0.00  0.00     0.257 C 
ATOM      8  N   UNL d   1      -3.011  -1.645  -0.140  0.00  0.00    -0.300 N 
ATOM      9  H   UNL d   1      -2.962  -0.659  -0.361  0.00  0.00     0.171 HD
ATOM     10  O   UNL d   1      -1.518  -3.425   0.194  0.00  0.00    -0.267 OA
BRANCH   8  11
ATOM     11  C   UNL d   1      -4.262  -2.095  -0.494  0.00  0.00     0.176 C 
ATOM     12  S   UNL d   1      -5.241  -0.903  -1.175  0.00  0.00    -0.041 SA
BRANCH  11  13
ATOM     13  N   UNL d   1      -4.619  -3.412  -0.294  0.00  0.00    -0.358 N 
ATOM     14  C   UNL d   1      -4.314  -4.078   0.979  0.00  0.00     0.125 C 
ATOM     15  C   UNL d   1      -4.151  -5.583   0.799  0.00  0.00     0.020 C 
ATOM     16  C   UNL d   1      -5.411  -6.180   0.179  0.00  0.00     0.003 C 
ATOM     17  C   UNL d   1      -5.731  -5.483  -1.137  0.00  0.00     0.020 C 
ATOM     18  C   UNL d   1      -5.801  -3.967  -0.976  0.00  0.00     0.125 C 
ENDBRANCH  11  13
ENDBRANCH   8  11
ENDBRANCH   4   7
BRANCH   1  19
ATOM     19  N   UNL d   1       3.020  -1.037   0.134  0.00  0.00    -0.113 N 
ATOM     20  O   UNL d   1       3.276  -1.801  -0.807  0.00  0.00    -0.532 OA
ATOM     21  O   UNL d   1       3.836  -0.623   0.968  0.00  0.00    -0.532 OA
ENDBRANCH   1  19
BRANCH   3  22
ATOM     22  O   UNL d   1       2.172   1.777   0.352  0.00  0.00    -0.308 OA
BRANCH  22  23
ATOM     23  C   UNL d   1       2.821   1.944  -0.858  0.00  0.00     0.076 A 
ATOM     24  C   UNL d   1       2.478   1.318  -2.063  0.00  0.00     0.039 A 
ATOM     25  C   UNL d   1       3.303   1.457  -3.184  0.00  0.00     0.026 A 
ATOM     26  C   UNL d   1       4.432   2.271  -3.119  0.00  0.00     0.034 A 
ATOM     27  C   UNL d   1       4.727   2.969  -1.951  0.00  0.00     0.026 A 
ATOM     28 CL   UNL d   1       5.470   2.406  -4.484  0.00  0.00    -0.084 Cl
ATOM     29  C   UNL d   1       3.922   2.804  -0.821  0.00  0.00     0.039 A 
ENDBRANCH  22  23
ENDBRANCH   3  22
TORSDOF 6
