REMARK  6 active torsions:
REMARK  status: ('A' for Active; 'I' for Inactive)
REMARK    1  A    between atoms: C_7  and  S_1 
REMARK    2  A    between atoms: C_14  and  S_1 
REMARK    3  A    between atoms: C_11  and  C_4 
REMARK    4  A    between atoms: C_5  and  C_7 
REMARK    5  A    between atoms: C_6  and  C_10 
REMARK    6  A    between atoms: C_16  and  C_14 
ROOT
ATOM      1  S   UNL d   1       0.889   0.035   0.108  0.00  0.00     0.154 S 
ATOM      2  O   UNL d   1       0.376  -1.314   0.296  0.00  0.00    -0.227 OA
ATOM      3  O   UNL d   1       0.509   1.085   1.033  0.00  0.00    -0.227 OA
ENDROOT
BRANCH   1   4
ATOM      4  C   UNL d   1       0.386   0.595  -1.516  0.00  0.00     0.205 C 
BRANCH   4   5
ATOM      5  C   UNL d   1       0.931  -0.338  -2.537  0.00  0.00     0.065 A 
ATOM      6  N   UNL d   1       2.091  -0.178  -3.146  0.00  0.00    -0.350 N 
ATOM      7  C   UNL d   1       2.327  -1.238  -4.026  0.00  0.00     0.085 A 
ATOM      8  HN  UNL d   1       2.725   0.607  -2.996  1.00  0.00     0.166 HD
ATOM      9  C   UNL d   1       1.307  -2.170  -4.073  0.00  0.00     0.084 A 
ATOM     10  S   UNL d   1       0.041  -1.730  -3.015  0.00  0.00    -0.085 SA
BRANCH   7  11
ATOM     11  C   UNL d   1       3.557  -1.360  -4.819  0.00  0.00     0.172 C 
ATOM     12  O   UNL d   1       3.737  -2.315  -5.575  0.00  0.00    -0.291 OA
ATOM     13  C   UNL d   1       4.615  -0.293  -4.696  0.00  0.00     0.098 C 
ENDBRANCH   7  11
ENDBRANCH   4   5
ENDBRANCH   1   4
BRANCH   1  14
ATOM     14  C   UNL d   1       2.681  -0.025   0.041  0.00  0.00     0.179 C 
BRANCH  14  15
ATOM     15  C   UNL d   1       3.229  -0.488   1.370  0.00  0.00    -0.043 A 
ATOM     16  C   UNL d   1       3.443  -1.853   1.619  0.00  0.00     0.024 A 
ATOM     17  C   UNL d   1       4.011  -2.294   2.825  0.00  0.00     0.048 A 
ATOM     18  C   UNL d   1       4.366  -1.346   3.798  0.00  0.00     0.016 A 
ATOM     19  C   UNL d   1       4.122   0.009   3.578  0.00  0.00     0.001 A 
ATOM     20  C   UNL d   1       3.552   0.433   2.374  0.00  0.00     0.008 A 
BRANCH  17  21
ATOM     21  C   UNL d   1       4.247  -3.765   3.075  0.00  0.00     0.417 C 
ATOM     22  F   UNL d   1       3.849  -4.557   2.040  0.00  0.00    -0.166 F 
ATOM     23  F   UNL d   1       5.563  -4.054   3.275  0.00  0.00    -0.166 F 
ATOM     24  F   UNL d   1       3.591  -4.229   4.174  0.00  0.00    -0.166 F 
ENDBRANCH  17  21
ENDBRANCH  14  15
ENDBRANCH   1  14
TORSDOF 6
