REMARK  5 active torsions:
REMARK  status: ('A' for Active; 'I' for Inactive)
REMARK       I    between atoms: N_2  and  C_1 
REMARK    1  A    between atoms: C_5  and  C_1 
REMARK    2  A    between atoms: C_4  and  N_7 
REMARK    3  A    between atoms: N_10  and  C_6 
REMARK    4  A    between atoms: S_17  and  C_6 
REMARK    5  A    between atoms: N_7  and  N_10 
ROOT
ATOM      1  C   UNL d   1       0.951   0.136  -0.084  0.00  0.00     0.261 C 
ATOM      2  N   UNL d   1       0.303  -0.126  -1.259  0.00  0.00    -0.302 N 
ATOM      3  HN  UNL d   1      -0.706  -0.277  -1.269  1.00  0.00     0.171 HD
ATOM      4  C   UNL d   1       0.983  -0.180  -2.357  0.00  0.00     0.161 C 
ATOM      5  O   UNL d   1       2.156   0.028   0.115  0.00  0.00    -0.267 OA
ENDROOT
BRANCH   4   6
ATOM      6  N   UNL d   1       2.351  -0.027  -2.526  0.00  0.00    -0.279 N 
ATOM      7  H   UNL d   1       2.838   0.077  -1.628  0.00  0.00     0.189 HD
BRANCH   6   8
ATOM      8  N   UNL d   1       3.047  -0.725  -3.480  0.00  0.00    -0.295 N 
ATOM      9  H   UNL d   1       2.995  -1.746  -3.395  0.00  0.00     0.187 HD
BRANCH   8  10
ATOM     10  C   UNL d   1       4.204  -0.295  -4.174  0.00  0.00     0.091 A 
ATOM     11  C   UNL d   1       4.990  -1.283  -4.816  0.00  0.00     0.065 A 
ATOM     12  C   UNL d   1       6.117  -0.962  -5.578  0.00  0.00     0.050 A 
ATOM     13 CL   UNL d   1       4.582  -2.964  -4.669  0.00  0.00    -0.082 Cl
ATOM     14  C   UNL d   1       6.479   0.367  -5.723  0.00  0.00     0.037 A 
ATOM     15  C   UNL d   1       5.729   1.371  -5.118  0.00  0.00     0.050 A 
ATOM     16 CL   UNL d   1       7.858   0.777  -6.667  0.00  0.00    -0.084 Cl
ATOM     17  C   UNL d   1       4.598   1.047  -4.352  0.00  0.00     0.065 A 
ATOM     18 CL   UNL d   1       3.731   2.390  -3.687  0.00  0.00    -0.082 Cl
ENDBRANCH   8  10
ENDBRANCH   6   8
ENDBRANCH   4   6
BRANCH   4  19
ATOM     19  S   UNL d   1       0.048  -0.480  -3.840  0.00  0.00    -0.097 SA
ATOM     20  C   UNL d   1      -1.640  -0.244  -3.246  0.00  0.00     0.099 C 
ENDBRANCH   4  19
BRANCH   1  21
ATOM     21  C   UNL d   1       0.060   0.593   0.999  0.00  0.00     0.075 A 
ATOM     22  C   UNL d   1      -0.643   1.797   0.858  0.00  0.00     0.051 A 
ATOM     23 CL   UNL d   1      -0.440   2.851  -0.499  0.00  0.00    -0.083 Cl
ATOM     24  C   UNL d   1      -1.532   2.211   1.856  0.00  0.00     0.025 A 
ATOM     25  C   UNL d   1      -1.711   1.435   3.000  0.00  0.00     0.003 A 
ATOM     26  C   UNL d   1      -0.999   0.246   3.151  0.00  0.00     0.025 A 
ATOM     27  C   UNL d   1      -0.114  -0.180   2.152  0.00  0.00     0.051 A 
ATOM     28 CL   UNL d   1       0.689  -1.690   2.397  0.00  0.00    -0.083 Cl
ENDBRANCH   1  21
TORSDOF 5
