REMARK  3 active torsions:
REMARK  status: ('A' for Active; 'I' for Inactive)
REMARK    1  A    between atoms: C_7  and  C_1 
REMARK    2  A    between atoms: N_5  and  C_2 
REMARK    3  A    between atoms: O_15  and  C_7 
ROOT
ATOM      1  C   UNL d   1       1.362  -1.342   0.038  0.00  0.00     0.108 A 
ATOM      2  C   UNL d   1      -0.029  -1.392  -0.023  0.00  0.00     0.083 A 
ATOM      3  C   UNL d   1      -0.608  -0.073  -0.076  0.00  0.00     0.079 A 
ATOM      4  S   UNL d   1       1.929   0.281   0.093  0.00  0.00    -0.092 SA
ATOM      5  C   UNL d   1       0.353   0.914  -0.028  0.00  0.00     0.075 A 
ATOM      6  C   UNL d   1      -2.000   0.277  -0.099  0.00  0.00     0.102 C 
ATOM      7  N   UNL d   1      -3.120   0.582  -0.116  0.00  0.00    -0.191 NA
ENDROOT
BRANCH   2   8
ATOM      8  N   UNL d   1      -0.793  -2.610  -0.024  0.00  0.00    -0.330 N 
ATOM      9  C   UNL d   1      -2.015  -2.820  -0.632  0.00  0.00     0.097 A 
ATOM     10  C   UNL d   1      -2.406  -4.126  -0.431  0.00  0.00     0.019 A 
ATOM     11  C   UNL d   1      -1.418  -4.740   0.361  0.00  0.00     0.019 A 
ATOM     12  C   UNL d   1      -0.454  -3.789   0.612  0.00  0.00     0.097 A 
ENDBRANCH   2   8
BRANCH   1  13
ATOM     13  C   UNL d   1       2.329  -2.424  -0.068  0.00  0.00     0.302 C 
ATOM     14  O   UNL d   1       2.171  -3.448  -0.722  0.00  0.00    -0.259 OA
BRANCH  13  15
ATOM     15  O   UNL d   1       3.438  -2.171   0.687  0.00  0.00    -0.322 OA
ATOM     16  C   UNL d   1       4.395  -3.233   0.674  0.00  0.00     0.213 C 
ENDBRANCH  13  15
ENDBRANCH   1  13
TORSDOF 3
