REMARK  2 active torsions:
REMARK  status: ('A' for Active; 'I' for Inactive)
REMARK    1  A    between atoms: O_7  and  C_1 
REMARK    2  A    between atoms: C_11  and  O_7 
ROOT
ATOM      1  C   UNL d   1      -1.032  -1.518  -0.178  0.00  0.00     0.152 C 
ATOM      2  C   UNL d   1      -1.530  -0.274  -0.103  0.00  0.00     0.122 C 
ATOM      3  C   UNL d   1       0.449  -1.706  -0.283  0.00  0.00     0.218 C 
ATOM      4  C   UNL d   1      -0.680   0.944  -0.044  0.00  0.00     0.207 C 
ATOM      5  C   UNL d   1       1.320  -0.528  -0.108  0.00  0.00     0.031 A 
ATOM      6  C   UNL d   1       0.780   0.750  -0.034  0.00  0.00     0.030 A 
ATOM      7  O   UNL d   1       0.968  -2.786  -0.537  0.00  0.00    -0.284 OA
ATOM      8  O   UNL d   1      -1.143   2.075   0.007  0.00  0.00    -0.286 OA
ATOM      9 CL   UNL d   1      -3.244   0.005  -0.082  0.00  0.00    -0.077 Cl
ATOM     10  C   UNL d   1       1.627   1.865   0.046  0.00  0.00     0.016 A 
ATOM     11  C   UNL d   1       2.712  -0.700  -0.063  0.00  0.00     0.016 A 
ATOM     12  C   UNL d   1       3.012   1.692   0.068  0.00  0.00     0.001 A 
ATOM     13  C   UNL d   1       3.554   0.409   0.026  0.00  0.00     0.001 A 
ENDROOT
BRANCH   1  14
ATOM     14  O   UNL d   1      -1.913  -2.595  -0.305  0.00  0.00    -0.305 OA
BRANCH  14  15
ATOM     15  C   UNL d   1      -1.646  -3.829   0.233  0.00  0.00     0.076 A 
ATOM     16  C   UNL d   1      -0.892  -4.050   1.386  0.00  0.00     0.037 A 
ATOM     17  C   UNL d   1      -0.669  -5.355   1.833  0.00  0.00     0.003 A 
ATOM     18  C   UNL d   1      -1.242  -6.434   1.160  0.00  0.00     0.000 A 
ATOM     19  C   UNL d   1      -2.046  -6.212   0.045  0.00  0.00     0.003 A 
ATOM     20  C   UNL d   1      -2.249  -4.911  -0.416  0.00  0.00     0.037 A 
ENDBRANCH  14  15
ENDBRANCH   1  14
TORSDOF 2
