REMARK  2 active torsions:
REMARK  status: ('A' for Active; 'I' for Inactive)
REMARK    1  A    between atoms: C_14  and  C_3 
REMARK    2  A    between atoms: C_12  and  C_8 
ROOT
ATOM      1  C   UNL d   1      -2.710   0.710  -0.560  0.00  0.00     0.150 C 
ATOM      2  C   UNL d   1      -1.380   1.406  -0.293  0.00  0.00     0.195 C 
ATOM      3  C   UNL d   1      -2.708  -0.539   0.396  0.00  0.00     0.200 C 
ATOM      4  O   UNL d   1      -1.545  -1.388   0.248  0.00  0.00    -0.337 OA
ATOM      5  N   UNL d   1      -2.762   0.247  -1.972  0.00  0.00    -0.319 N 
ATOM      6  HN  UNL d   1      -1.954  -0.075  -2.505  1.00  0.00     0.181 HD
ATOM      7  C   UNL d   1      -0.185   0.559  -0.229  0.00  0.00     0.046 A 
ATOM      8  C   UNL d   1      -3.933   1.652  -0.479  0.00  0.00     0.078 C 
ATOM      9  C   UNL d   1      -0.344  -0.790   0.040  0.00  0.00     0.083 A 
ATOM     10  N   UNL d   1      -3.942   0.304  -2.422  0.00  0.00    -0.339 N 
ATOM     11  HN  UNL d   1      -4.222  -0.035  -3.342  1.00  0.00     0.179 HD
ATOM     12  O   UNL d   1      -1.234   2.602  -0.041  0.00  0.00    -0.289 OA
ATOM     13  C   UNL d   1      -4.866   0.928  -1.446  0.00  0.00     0.151 C 
ATOM     14  C   UNL d   1       1.092   1.109  -0.387  0.00  0.00     0.018 A 
ATOM     15  C   UNL d   1       0.780  -1.614   0.113  0.00  0.00     0.038 A 
ATOM     16  C   UNL d   1       2.215   0.287  -0.300  0.00  0.00     0.001 A 
ATOM     17  C   UNL d   1       2.059  -1.076  -0.056  0.00  0.00     0.003 A 
ENDROOT
BRANCH   3  18
ATOM     18  C   UNL d   1      -3.867  -1.521   0.254  0.00  0.00    -0.026 A 
ATOM     19  C   UNL d   1      -3.909  -2.429  -0.824  0.00  0.00     0.010 A 
ATOM     20  C   UNL d   1      -4.985  -3.297  -1.000  0.00  0.00     0.001 A 
ATOM     21  C   UNL d   1      -6.032  -3.290  -0.086  0.00  0.00     0.000 A 
ATOM     22  C   UNL d   1      -5.994  -2.425   1.008  0.00  0.00     0.001 A 
ATOM     23  C   UNL d   1      -4.917  -1.548   1.183  0.00  0.00     0.010 A 
ENDBRANCH   3  18
BRANCH   8  24
ATOM     24  C   UNL d   1      -3.789   3.102  -0.992  0.00  0.00    -0.049 A 
ATOM     25  C   UNL d   1      -3.373   3.393  -2.308  0.00  0.00     0.009 A 
ATOM     26  C   UNL d   1      -3.291   4.707  -2.772  0.00  0.00     0.024 A 
ATOM     27  C   UNL d   1      -3.612   5.757  -1.923  0.00  0.00     0.034 A 
ATOM     28  C   UNL d   1      -4.008   5.500  -0.613  0.00  0.00     0.024 A 
ATOM     29 CL   UNL d   1      -3.522   7.375  -2.499  0.00  0.00    -0.084 Cl
ATOM     30  C   UNL d   1      -4.099   4.180  -0.149  0.00  0.00     0.009 A 
ENDBRANCH   8  24
TORSDOF 2
