REMARK  3 active torsions:
REMARK  status: ('A' for Active; 'I' for Inactive)
REMARK    1  A    between atoms: C_5  and  CA_1 
REMARK    2  A    between atoms: C_8  and  C_2 
REMARK    3  A    between atoms: OXT_10  and  C_5 
ROOT
ATOM      1  CA  UNL d   1      -0.819  -1.018  -0.329  0.00  0.00     0.143 A 
ATOM      2  C   UNL d   1       0.516  -1.153   0.006  0.00  0.00     0.120 A 
ATOM      3  N   UNL d   1      -1.245   0.283  -0.060  0.00  0.00    -0.339 N 
ATOM      4  HN  UNL d   1      -2.166   0.693  -0.214  1.00  0.00     0.167 HD
ATOM      5  C   UNL d   1      -0.171   0.853   0.440  0.00  0.00     0.234 A 
ATOM      6  O   UNL d   1       0.926   0.055   0.519  0.00  0.00    -0.303 OA
ENDROOT
BRANCH   2   7
ATOM      7  C   UNL d   1       1.522  -2.201  -0.056  0.00  0.00     0.000 A 
ATOM      8  C   UNL d   1       1.536  -3.113  -1.119  0.00  0.00     0.014 A 
ATOM      9  C   UNL d   1       2.445  -4.173  -1.147  0.00  0.00     0.001 A 
ATOM     10  C   UNL d   1       3.373  -4.319  -0.120  0.00  0.00     0.000 A 
ATOM     11  C   UNL d   1       3.403  -3.396   0.923  0.00  0.00     0.001 A 
ATOM     12  C   UNL d   1       2.486  -2.341   0.954  0.00  0.00     0.014 A 
ENDBRANCH   2   7
BRANCH   1  13
ATOM     13  C   UNL d   1      -1.744  -2.008  -0.865  0.00  0.00     0.196 C 
ATOM     14  O   UNL d   1      -1.494  -3.183  -1.077  0.00  0.00    -0.645 OA
BRANCH  13  15
ATOM     15  OXT UNL d   1      -2.969  -1.467  -1.115  0.00  0.00    -0.772 OA
ATOM     16  HXT UNL d   1      -2.940  -0.517  -0.854  0.00  0.00     0.167 HD
ENDBRANCH  13  15
ENDBRANCH   1  13
TORSDOF 3
