REMARK  2 active torsions:
REMARK  status: ('A' for Active; 'I' for Inactive)
REMARK    1  A    between atoms: S_13  and  C_3 
REMARK    2  A    between atoms: C_14  and  C_8 
ROOT
ATOM      1  C   UNL d   1       0.093  -0.730  -0.130  0.00  0.00     0.042 A 
ATOM      2  C   UNL d   1       0.448   0.681  -0.147  0.00  0.00    -0.014 A 
ATOM      3  C   UNL d   1       1.215  -1.539  -0.116  0.00  0.00     0.056 A 
ATOM      4  C   UNL d   1       1.816   0.873  -0.174  0.00  0.00     0.093 A 
ATOM      5  S   UNL d   1       2.660  -0.608  -0.139  0.00  0.00    -0.071 SA
ATOM      6  C   UNL d   1      -1.315  -1.151  -0.139  0.00  0.00     0.162 C 
ATOM      7  C   UNL d   1      -0.611   1.761  -0.122  0.00  0.00     0.051 C 
ATOM      8  C   UNL d   1      -1.961   1.225   0.420  0.00  0.00     0.030 C 
ATOM      9  C   UNL d   1       2.481   2.143  -0.213  0.00  0.00     0.107 C 
ATOM     10  C   UNL d   1      -2.331  -0.045  -0.372  0.00  0.00     0.093 C 
ATOM     11  N   UNL d   1       2.987   3.185  -0.242  0.00  0.00    -0.191 NA
ATOM     12  O   UNL d   1      -1.687  -2.317  -0.033  0.00  0.00    -0.292 OA
ENDROOT
BRANCH   3  13
ATOM     13  S   UNL d   1       1.341  -3.296  -0.197  0.00  0.00    -0.126 SA
ATOM     14  C   UNL d   1       0.711  -3.817   1.415  0.00  0.00     0.096 C 
ENDBRANCH   3  13
BRANCH   8  15
ATOM     15  C   UNL d   1      -2.033   1.004   1.933  0.00  0.00    -0.053 A 
ATOM     16  C   UNL d   1      -0.929   1.167   2.787  0.00  0.00     0.007 A 
ATOM     17  C   UNL d   1      -1.040   0.962   4.164  0.00  0.00     0.001 A 
ATOM     18  C   UNL d   1      -2.261   0.599   4.719  0.00  0.00     0.000 A 
ATOM     19  C   UNL d   1      -3.369   0.432   3.895  0.00  0.00     0.001 A 
ATOM     20  C   UNL d   1      -3.258   0.634   2.516  0.00  0.00     0.007 A 
ENDBRANCH   8  15
TORSDOF 2
