REMARK  6 active torsions:
REMARK  status: ('A' for Active; 'I' for Inactive)
REMARK    1  A    between atoms: S_2  and  N_1 
REMARK    2  A    between atoms: C_7  and  S_2 
REMARK    3  A    between atoms: C_11  and  C_5 
REMARK    4  A    between atoms: C_9  and  C_14 
REMARK    5  A    between atoms: C_10  and  C_13 
REMARK    6  A    between atoms: C_12  and  C_11 
ROOT
ATOM      1  N   UNL d   1      -0.187  -1.133   0.097  0.00  0.00    -0.181 N 
ATOM      2  N   UNL d   1       1.117  -0.758   0.094  0.00  0.00    -0.288 N 
ATOM      3  HN  UNL d   1       1.937  -1.365   0.089  1.00  0.00     0.188 HD
ATOM      4  C   UNL d   1      -0.228   1.093  -0.022  0.00  0.00    -0.005 A 
ATOM      5  C   UNL d   1      -1.042  -0.044   0.004  0.00  0.00     0.051 A 
ATOM      6  C   UNL d   1       1.095   0.575   0.100  0.00  0.00     0.032 A 
ATOM      7  C   UNL d   1      -2.526  -0.162   0.017  0.00  0.00     0.072 C 
ATOM      8  C   UNL d   1       2.392   1.288   0.226  0.00  0.00     0.070 C 
ENDROOT
BRANCH   1   9
ATOM      9  S   UNL d   1      -0.661  -2.815  -0.026  0.00  0.00     0.282 S 
ATOM     10  O   UNL d   1       0.344  -3.580   0.685  0.00  0.00    -0.198 OA
ATOM     11  O   UNL d   1      -2.068  -2.896   0.323  0.00  0.00    -0.198 OA
BRANCH   9  12
ATOM     12  C   UNL d   1      -0.490  -3.205  -1.755  0.00  0.00     0.083 A 
ATOM     13  C   UNL d   1       0.698  -2.900  -2.430  0.00  0.00     0.041 A 
ATOM     14  C   UNL d   1       0.862  -3.278  -3.771  0.00  0.00     0.050 A 
ATOM     15  C   UNL d   1      -0.177  -3.977  -4.412  0.00  0.00     0.032 A 
ATOM     16  C   UNL d   1      -1.364  -4.310  -3.733  0.00  0.00     0.050 A 
ATOM     17  C   UNL d   1      -1.517  -3.906  -2.399  0.00  0.00     0.041 A 
BRANCH  14  18
ATOM     18  C   UNL d   1       2.139  -2.973  -4.522  0.00  0.00     0.417 C 
ATOM     19  F   UNL d   1       3.093  -2.374  -3.760  0.00  0.00    -0.166 F 
ATOM     20  F   UNL d   1       2.715  -4.093  -5.037  0.00  0.00    -0.166 F 
ATOM     21  F   UNL d   1       1.925  -2.141  -5.579  0.00  0.00    -0.166 F 
ENDBRANCH  14  18
BRANCH  16  22
ATOM     22  C   UNL d   1      -2.425  -5.130  -4.433  0.00  0.00     0.417 C 
ATOM     23  F   UNL d   1      -3.502  -5.408  -3.651  0.00  0.00    -0.166 F 
ATOM     24  F   UNL d   1      -2.912  -4.509  -5.541  0.00  0.00    -0.166 F 
ATOM     25  F   UNL d   1      -1.947  -6.333  -4.855  0.00  0.00    -0.166 F 
ENDBRANCH  16  22
ENDBRANCH   9  12
ENDBRANCH   1   9
BRANCH   4  26
ATOM     26  C   UNL d   1      -0.653   2.540  -0.044  0.00  0.00     0.086 C 
BRANCH  26  27
ATOM     27  C   UNL d   1      -0.712   2.990  -1.486  0.00  0.00     0.006 A 
ATOM     28  C   UNL d   1      -1.878   2.767  -2.236  0.00  0.00     0.124 A 
ATOM     29  F   UNL d   1      -2.961   2.236  -1.655  0.00  0.00    -0.205 F 
ATOM     30  C   UNL d   1      -1.987   3.122  -3.580  0.00  0.00     0.043 A 
ATOM     31  C   UNL d   1      -0.919   3.735  -4.220  0.00  0.00     0.005 A 
ATOM     32  C   UNL d   1       0.232   4.022  -3.492  0.00  0.00     0.024 A 
ATOM     33  C   UNL d   1       0.328   3.674  -2.136  0.00  0.00     0.043 A 
ATOM     34 CL   UNL d   1       1.740   4.223  -1.306  0.00  0.00    -0.084 Cl
ENDBRANCH  26  27
ENDBRANCH   4  26
TORSDOF 6
