REMARK  3 active torsions:
REMARK  status: ('A' for Active; 'I' for Inactive)
REMARK    1  A    between atoms: C_2  and  C_1 
REMARK    2  A    between atoms: N_20  and  C_3 
REMARK    3  A    between atoms: C_13  and  C_8 
ROOT
ATOM      1  C   UNL d   1      -0.783   1.232   0.038  0.00  0.00     0.042 A 
ATOM      2  C   UNL d   1      -1.463   0.070   0.091  0.00  0.00     0.090 A 
ATOM      3  C   UNL d   1      -0.683  -1.214   0.023  0.00  0.00     0.281 A 
ATOM      4  N   UNL d   1       1.388   0.045  -0.054  0.00  0.00    -0.301 N 
ATOM      5  HN  UNL d   1       2.407   0.045  -0.095  1.00  0.00     0.186 HD
ATOM      6  N   UNL d   1       0.678  -1.112  -0.028  0.00  0.00    -0.265 N 
ATOM      7  C   UNL d   1       0.709   1.151  -0.027  0.00  0.00     0.036 A 
ATOM      8  O   UNL d   1      -1.264  -2.299  -0.005  0.00  0.00    -0.265 OA
ATOM      9  C   UNL d   1       1.506   2.438  -0.051  0.00  0.00     0.070 C 
ATOM     10  H   UNL d   1       1.208  -1.975  -0.079  0.00  0.00     0.190 HD
ENDROOT
BRANCH   1  11
ATOM     11  C   UNL d   1      -1.430   2.506   0.073  0.00  0.00     0.064 A 
ATOM     12  N   UNL d   1      -1.832   3.175  -1.016  0.00  0.00    -0.299 N 
ATOM     13  N   UNL d   1      -2.451   4.263  -0.521  0.00  0.00    -0.299 N 
ATOM     14  HN  UNL d   1      -1.700   2.919  -1.995  1.00  0.00     0.187 HD
ATOM     15  C   UNL d   1      -2.463   4.315   0.843  0.00  0.00     0.061 A 
ATOM     16  H   UNL d   1      -2.852   4.926  -1.175  0.00  0.00     0.187 HD
ATOM     17  C   UNL d   1      -1.788   3.191   1.262  0.00  0.00     0.063 A 
BRANCH  15  18
ATOM     18  C   UNL d   1      -3.095   5.362   1.690  0.00  0.00    -0.001 A 
ATOM     19  C   UNL d   1      -3.815   6.420   1.179  0.00  0.00     0.063 A 
ATOM     20  S   UNL d   1      -4.424   7.446   2.410  0.00  0.00    -0.113 SA
ATOM     21  C   UNL d   1      -3.726   6.479   3.635  0.00  0.00     0.050 A 
ATOM     22  C   UNL d   1      -3.048   5.398   3.116  0.00  0.00     0.021 A 
ENDBRANCH  15  18
ENDBRANCH   1  11
BRANCH   2  23
ATOM     23  N   UNL d   1      -2.854  -0.063   0.176  0.00  0.00    -0.297 NA
ATOM     24  H   UNL d   1      -3.345   0.674  -0.328  0.00  0.00     0.124 HD
ATOM     25  H   UNL d   1      -3.140  -1.000  -0.123  0.00  0.00     0.124 HD
ENDBRANCH   2  23
TORSDOF 3
