REMARK  8 active torsions:
REMARK  status: ('A' for Active; 'I' for Inactive)
REMARK    1  A    between atoms: C_8  and  C_1 
REMARK    2  A    between atoms: N_7  and  C_2 
REMARK    3  A    between atoms: C_12  and  C_4 
REMARK       I    between atoms: C_6  and  N_7 
REMARK    4  A    between atoms: C_9  and  C_6 
REMARK    5  A    between atoms: O_23  and  C_8 
REMARK    6  A    between atoms: C_11  and  C_10 
REMARK    7  A    between atoms: O_22  and  C_11 
REMARK    8  A    between atoms: C_13  and  C_14 
ROOT
ATOM      1  C   UNL d   1       0.115   1.462  -0.638  0.00  0.00     0.107 A 
ATOM      2  C   UNL d   1       1.378   0.907  -0.508  0.00  0.00     0.059 A 
ATOM      3  S   UNL d   1      -1.107   0.241  -0.448  0.00  0.00    -0.081 SA
ATOM      4  C   UNL d   1       0.033  -1.041  -0.311  0.00  0.00     0.018 A 
ATOM      5  C   UNL d   1       1.308  -0.518  -0.383  0.00  0.00     0.051 A 
ENDROOT
BRANCH   2   6
ATOM      6  N   UNL d   1       2.647   1.496  -0.504  0.00  0.00    -0.321 N 
ATOM      7  C   UNL d   1       2.998   2.749  -0.044  0.00  0.00     0.257 C 
ATOM      8  O   UNL d   1       2.204   3.609   0.328  0.00  0.00    -0.267 OA
ATOM      9  H   UNL d   1       3.373   0.798  -0.502  0.00  0.00     0.169 HD
BRANCH   7  10
ATOM     10  C   UNL d   1       4.473   3.082   0.019  0.00  0.00     0.049 A 
ATOM     11  C   UNL d   1       5.543   2.183   0.219  0.00  0.00     0.053 A 
ATOM     12  C   UNL d   1       6.865   2.663   0.340  0.00  0.00     0.019 A 
ATOM     13  C   UNL d   1       7.137   4.026   0.266  0.00  0.00     0.001 A 
ATOM     14  C   UNL d   1       6.098   4.923   0.056  0.00  0.00     0.001 A 
ATOM     15  C   UNL d   1       4.785   4.456  -0.076  0.00  0.00     0.018 A 
BRANCH  11  16
ATOM     16  C   UNL d   1       5.354   0.739   0.458  0.00  0.00     0.177 C 
ATOM     17  O   UNL d   1       4.421   0.289   1.101  0.00  0.00    -0.646 OA
BRANCH  16  18
ATOM     18  O   UNL d   1       6.222  -0.057  -0.195  0.00  0.00    -0.773 OA
ATOM     19  H   UNL d   1       6.873   0.377  -0.773  0.00  0.00     0.167 HD
ENDBRANCH  16  18
ENDBRANCH  11  16
ENDBRANCH   7  10
ENDBRANCH   2   6
BRANCH   1  20
ATOM     20  C   UNL d   1      -0.282   2.830  -0.964  0.00  0.00     0.302 C 
ATOM     21  O   UNL d   1      -1.268   3.436  -0.566  0.00  0.00    -0.259 OA
BRANCH  20  22
ATOM     22  O   UNL d   1       0.619   3.322  -1.879  0.00  0.00    -0.322 OA
ATOM     23  C   UNL d   1       0.630   4.732  -2.083  0.00  0.00     0.213 C 
ENDBRANCH  20  22
ENDBRANCH   1  20
BRANCH   4  24
ATOM     24  C   UNL d   1      -0.322  -2.472  -0.104  0.00  0.00    -0.019 A 
ATOM     25  C   UNL d   1      -1.438  -3.092  -0.674  0.00  0.00     0.013 A 
ATOM     26  C   UNL d   1      -1.696  -4.470  -0.474  0.00  0.00     0.009 A 
ATOM     27  C   UNL d   1      -0.857  -5.288   0.309  0.00  0.00    -0.051 A 
ATOM     28  C   UNL d   1       0.275  -4.666   0.850  0.00  0.00     0.009 A 
ATOM     29  C   UNL d   1       0.532  -3.296   0.651  0.00  0.00     0.013 A 
BRANCH  27  30
ATOM     30  C   UNL d   1      -1.202  -6.770   0.587  0.00  0.00    -0.024 C 
ATOM     31  C   UNL d   1      -0.180  -7.488   1.505  0.00  0.00     0.019 C 
ATOM     32  C   UNL d   1      -2.573  -6.858   1.295  0.00  0.00     0.019 C 
ATOM     33  C   UNL d   1      -1.274  -7.589  -0.720  0.00  0.00     0.019 C 
ENDBRANCH  27  30
ENDBRANCH   4  24
TORSDOF 8
