REMARK  6 active torsions:
REMARK  status: ('A' for Active; 'I' for Inactive)
REMARK    1  A    between atoms: N_5  and  S_1 
REMARK    2  A    between atoms: C_12  and  S_1 
REMARK    3  A    between atoms: N_2  and  C_4 
REMARK    4  A    between atoms: C_6  and  C_3 
REMARK    5  A    between atoms: C_14  and  N_5 
REMARK    6  A    between atoms: O_20  and  C_6 
ROOT
ATOM      1  C   UNL d   1       2.402   0.719  -4.341  0.00  0.00     0.066 A 
ATOM      2  C   UNL d   1       1.497   0.606  -5.435  0.00  0.00     0.047 A 
ATOM      3  C   UNL d   1       2.041   0.271  -3.051  0.00  0.00     0.050 A 
ATOM      4  C   UNL d   1       0.193   0.170  -5.109  0.00  0.00     0.033 A 
ATOM      5  C   UNL d   1       0.781  -0.263  -2.817  0.00  0.00     0.043 A 
ATOM      6  C   UNL d   1      -0.166  -0.256  -3.826  0.00  0.00     0.032 A 
ENDROOT
BRANCH   5   7
ATOM      7  N   UNL d   1       0.458  -0.805  -1.548  0.00  0.00    -0.281 N 
ATOM      8  H   UNL d   1      -0.025  -1.701  -1.508  0.00  0.00     0.179 HD
BRANCH   7   9
ATOM      9  S   UNL d   1       0.090   0.204  -0.252  0.00  0.00     0.263 S 
ATOM     10  O   UNL d   1       1.187   1.130  -0.059  0.00  0.00    -0.200 OA
ATOM     11  O   UNL d   1      -0.355  -0.662   0.815  0.00  0.00    -0.200 OA
BRANCH   9  12
ATOM     12  C   UNL d   1      -1.320   1.121  -0.828  0.00  0.00     0.079 A 
ATOM     13  C   UNL d   1      -2.607   0.607  -0.629  0.00  0.00     0.025 A 
ATOM     14  C   UNL d   1      -3.714   1.349  -1.043  0.00  0.00     0.002 A 
ATOM     15  C   UNL d   1      -3.532   2.596  -1.644  0.00  0.00     0.000 A 
ATOM     16  C   UNL d   1      -2.246   3.109  -1.827  0.00  0.00     0.002 A 
ATOM     17  C   UNL d   1      -1.135   2.376  -1.412  0.00  0.00     0.025 A 
ENDBRANCH   9  12
ENDBRANCH   7   9
ENDBRANCH   5   7
BRANCH   1  18
ATOM     18  C   UNL d   1       3.705   1.451  -4.460  0.00  0.00     0.178 C 
ATOM     19  O   UNL d   1       3.878   2.419  -5.175  0.00  0.00    -0.646 OA
BRANCH  18  20
ATOM     20  O   UNL d   1       4.711   0.945  -3.705  0.00  0.00    -0.773 OA
ATOM     21  H   UNL d   1       4.521   0.143  -3.189  0.00  0.00     0.167 HD
ENDBRANCH  18  20
ENDBRANCH   1  18
BRANCH   2  22
ATOM     22  N   UNL d   1       1.809   0.825  -6.772  0.00  0.00    -0.379 N 
ATOM     23  C   UNL d   1       0.849   1.351  -7.756  0.00  0.00     0.127 C 
ATOM     24  C   UNL d   1       0.681   0.354  -8.919  0.00  0.00    -0.000 C 
ATOM     25  C   UNL d   1      -0.246   0.908 -10.001  0.00  0.00     0.011 C 
ATOM     26  C   UNL d   1       2.047   0.003  -9.531  0.00  0.00     0.011 C 
ATOM     27  C   UNL d   1       3.009  -0.506  -8.453  0.00  0.00    -0.000 C 
ATOM     28  C   UNL d   1       3.141   0.522  -7.316  0.00  0.00     0.127 C 
ATOM     29  C   UNL d   1       4.376  -0.827  -9.054  0.00  0.00     0.011 C 
ENDBRANCH   2  22
TORSDOF 6
