REMARK  8 active torsions:
REMARK  status: ('A' for Active; 'I' for Inactive)
REMARK    1  A    between atoms: C_7  and  C_1 
REMARK    2  A    between atoms: N_11  and  C_2 
REMARK    3  A    between atoms: C_4  and  C_9 
REMARK    4  A    between atoms: C_5  and  C_10 
REMARK    5  A    between atoms: O_27  and  C_7 
REMARK       I    between atoms: C_13  and  N_11 
REMARK    6  A    between atoms: C_26  and  C_13 
REMARK    7  A    between atoms: C_16  and  S_18 
REMARK    8  A    between atoms: S_18  and  C_26 
ROOT
ATOM      1  S   UNL d   1       5.398   3.358  -0.385  0.00  0.00    -0.121 SA
ENDROOT
BRANCH   1   2
ATOM      2  C   UNL d   1       5.384   2.271  -1.804  0.00  0.00     0.002 A 
ATOM      3  C   UNL d   1       4.241   1.881  -2.509  0.00  0.00     0.034 A 
ATOM      4  C   UNL d   1       4.316   0.953  -3.562  0.00  0.00     0.050 A 
ATOM      5  C   UNL d   1       5.566   0.430  -3.924  0.00  0.00     0.032 A 
ATOM      6  C   UNL d   1       6.732   0.838  -3.262  0.00  0.00     0.050 A 
ATOM      7  C   UNL d   1       6.624   1.751  -2.199  0.00  0.00     0.034 A 
BRANCH   4   8
ATOM      8  C   UNL d   1       3.052   0.543  -4.282  0.00  0.00     0.417 C 
ATOM      9  F   UNL d   1       3.274  -0.316  -5.315  0.00  0.00    -0.166 F 
ATOM     10  F   UNL d   1       2.167  -0.080  -3.459  0.00  0.00    -0.166 F 
ATOM     11  F   UNL d   1       2.395   1.609  -4.814  0.00  0.00    -0.166 F 
ENDBRANCH   4   8
BRANCH   6  12
ATOM     12  C   UNL d   1       8.092   0.327  -3.679  0.00  0.00     0.417 C 
ATOM     13  F   UNL d   1       8.043  -0.560  -4.710  0.00  0.00    -0.166 F 
ATOM     14  F   UNL d   1       8.917   1.330  -4.084  0.00  0.00    -0.166 F 
ATOM     15  F   UNL d   1       8.739  -0.310  -2.666  0.00  0.00    -0.166 F 
ENDBRANCH   6  12
ENDBRANCH   1   2
BRANCH   1  16
ATOM     16  C   UNL d   1       3.637   3.613   0.029  0.00  0.00     0.182 C 
BRANCH  16  17
ATOM     17  C   UNL d   1       2.864   2.348   0.369  0.00  0.00     0.231 C 
ATOM     18  N   UNL d   1       3.619   1.283   0.833  0.00  0.00    -0.325 N 
ATOM     19  H   UNL d   1       4.595   1.282   0.560  0.00  0.00     0.169 HD
ATOM     20  O   UNL d   1       1.645   2.311   0.193  0.00  0.00    -0.272 OA
BRANCH  18  21
ATOM     21  C   UNL d   1       3.048   0.063   1.190  0.00  0.00     0.064 A 
ATOM     22  C   UNL d   1       1.929  -0.076   2.004  0.00  0.00     0.107 A 
ATOM     23  S   UNL d   1       1.511  -1.728   2.212  0.00  0.00    -0.093 SA
ATOM     24  C   UNL d   1       2.821  -2.253   1.265  0.00  0.00     0.059 A 
ATOM     25  C   UNL d   1       3.577  -1.211   0.762  0.00  0.00    -0.027 A 
ATOM     26  C   UNL d   1       4.725  -1.442  -0.167  0.00  0.00     0.051 C 
BRANCH  22  27
ATOM     27  C   UNL d   1       1.199   0.949   2.732  0.00  0.00     0.302 C 
ATOM     28  O   UNL d   1       1.676   2.007   3.143  0.00  0.00    -0.259 OA
BRANCH  27  29
ATOM     29  O   UNL d   1      -0.102   0.580   2.923  0.00  0.00    -0.322 OA
ATOM     30  C   UNL d   1      -0.896   1.552   3.599  0.00  0.00     0.213 C 
ENDBRANCH  27  29
ENDBRANCH  22  27
ENDBRANCH  18  21
ENDBRANCH  16  17
ENDBRANCH   1  16
TORSDOF 8
