REMARK  4 active torsions:
REMARK  status: ('A' for Active; 'I' for Inactive)
REMARK    1  A    between atoms: C_5  and  N_1 
REMARK    2  A    between atoms: C_3  and  C_5 
REMARK       I    between atoms: N_7  and  C_3 
REMARK    3  A    between atoms: C_15  and  N_7 
REMARK    4  A    between atoms: C_8  and  C_9 
ROOT
ATOM      1  C   UNL d   1      -0.302   3.108  -1.206  0.00  0.00     0.235 C 
ATOM      2  N   UNL d   1       0.312   2.129  -1.978  0.00  0.00    -0.326 N 
ATOM      3  O   UNL d   1       0.228   4.142  -0.808  0.00  0.00    -0.272 OA
ATOM      4  H   UNL d   1      -0.181   1.246  -2.052  0.00  0.00     0.169 HD
ENDROOT
BRANCH   1   5
ATOM      5  C   UNL d   1      -1.764   2.796  -0.850  0.00  0.00     0.198 C 
BRANCH   5   6
ATOM      6  N   UNL d   1      -1.954   1.917   0.338  0.00  0.00    -0.274 NA
ATOM      7  C   UNL d   1      -3.298   2.002   0.809  0.00  0.00     0.017 A 
ATOM      8  C   UNL d   1      -3.615   2.442   2.111  0.00  0.00    -0.036 A 
ATOM      9  C   UNL d   1      -4.366   1.682  -0.046  0.00  0.00     0.025 A 
ATOM     10  C   UNL d   1      -4.957   2.579   2.513  0.00  0.00     0.015 A 
ATOM     11  C   UNL d   1      -2.537   2.769   3.109  0.00  0.00     0.041 C 
ATOM     12  C   UNL d   1      -6.006   2.298   1.633  0.00  0.00    -0.061 A 
ATOM     13  C   UNL d   1      -5.699   1.831   0.355  0.00  0.00     0.008 A 
ATOM     14  C   UNL d   1      -7.426   2.502   2.072  0.00  0.00     0.048 C 
ATOM     15  C   UNL d   1      -1.228   3.083   2.406  0.00  0.00     0.019 C 
ATOM     16  C   UNL d   1      -0.941   1.974   1.409  0.00  0.00     0.096 C 
ENDBRANCH   5   6
ENDBRANCH   1   5
BRANCH   2  17
ATOM     17  C   UNL d   1       1.579   2.216  -2.602  0.00  0.00     0.034 A 
ATOM     18  C   UNL d   1       2.344   3.384  -2.638  0.00  0.00     0.030 A 
ATOM     19  C   UNL d   1       3.580   3.413  -3.296  0.00  0.00     0.017 A 
ATOM     20  C   UNL d   1       4.079   2.269  -3.924  0.00  0.00     0.009 A 
ATOM     21  C   UNL d   1       3.314   1.099  -3.910  0.00  0.00     0.017 A 
ATOM     22  C   UNL d   1       2.072   1.077  -3.254  0.00  0.00     0.030 A 
BRANCH  20  23
ATOM     23  C   UNL d   1       5.404   2.363  -4.600  0.00  0.00     0.155 C 
ATOM     24  O   UNL d   1       5.798   3.454  -5.009  0.00  0.00    -0.293 OA
ATOM     25  C   UNL d   1       6.253   1.128  -4.755  0.00  0.00     0.096 C 
ENDBRANCH  20  23
ENDBRANCH   2  17
TORSDOF 4
