REMARK  7 active torsions:
REMARK  status: ('A' for Active; 'I' for Inactive)
REMARK       I    between atoms: N_5  and  C_1 
REMARK       I    between atoms: N_6  and  C_1 
REMARK    1  A    between atoms: C_2  and  S_7 
REMARK    2  A    between atoms: C_15  and  N_5 
REMARK    3  A    between atoms: C_14  and  N_6 
REMARK    4  A    between atoms: S_7  and  C_16 
REMARK    5  A    between atoms: O_10  and  C_8 
REMARK    6  A    between atoms: C_18  and  O_10 
REMARK    7  A    between atoms: O_30  and  C_20 
ROOT
ATOM      1  C   UNL d   1       1.060  -0.714   2.019  0.00  0.00     0.325 C 
ATOM      2  N   UNL d   1       2.380  -0.379   1.772  0.00  0.00    -0.309 N 
ATOM      3  N   UNL d   1       0.257  -0.591   0.897  0.00  0.00    -0.307 N 
ATOM      4  O   UNL d   1       0.634  -1.048   3.119  0.00  0.00    -0.247 OA
ATOM      5  H   UNL d   1       2.581   0.070   0.892  0.00  0.00     0.170 HD
ATOM      6  H   UNL d   1       0.707  -0.512  -0.002  0.00  0.00     0.170 HD
ENDROOT
BRANCH   3   7
ATOM      7  C   UNL d   1      -1.161  -0.672   0.911  0.00  0.00     0.051 A 
ATOM      8  C   UNL d   1      -1.923  -0.788   2.072  0.00  0.00     0.119 A 
ATOM      9  N   UNL d   1      -3.272  -0.839   2.104  0.00  0.00    -0.344 N 
ATOM     10  C   UNL d   1      -3.920  -0.822   0.925  0.00  0.00     0.148 A 
ATOM     11  HN  UNL d   1      -3.779  -0.890   2.987  1.00  0.00     0.167 HD
ATOM     12  C   UNL d   1      -3.269  -0.677  -0.290  0.00  0.00     0.059 A 
ATOM     13  C   UNL d   1      -1.867  -0.605  -0.294  0.00  0.00     0.035 A 
BRANCH  10  14
ATOM     14  O   UNL d   1      -5.301  -0.980   0.927  0.00  0.00    -0.294 OA
BRANCH  14  15
ATOM     15  C   UNL d   1      -5.816  -1.741   1.959  0.00  0.00     0.078 A 
ATOM     16  C   UNL d   1      -6.966  -1.285   2.607  0.00  0.00     0.040 A 
ATOM     17  C   UNL d   1      -7.506  -2.015   3.676  0.00  0.00     0.039 A 
ATOM     18  C   UNL d   1      -6.899  -3.201   4.093  0.00  0.00     0.068 A 
ATOM     19  C   UNL d   1      -5.779  -3.677   3.412  0.00  0.00     0.039 A 
ATOM     20  C   UNL d   1      -5.247  -2.959   2.343  0.00  0.00     0.040 A 
BRANCH  18  21
ATOM     21  O   UNL d   1      -7.333  -4.004   5.112  0.00  0.00    -0.356 OA
ATOM     22  C   UNL d   1      -7.981  -3.338   6.189  0.00  0.00     0.210 C 
ENDBRANCH  18  21
ENDBRANCH  14  15
ENDBRANCH  10  14
ENDBRANCH   3   7
BRANCH   2  23
ATOM     23  C   UNL d   1       3.394  -0.314   2.764  0.00  0.00     0.036 A 
ATOM     24  C   UNL d   1       3.265  -0.879   4.036  0.00  0.00     0.031 A 
ATOM     25  C   UNL d   1       4.245  -0.685   5.016  0.00  0.00     0.021 A 
ATOM     26  C   UNL d   1       5.377   0.078   4.738  0.00  0.00     0.009 A 
ATOM     27  C   UNL d   1       5.550   0.576   3.443  0.00  0.00     0.021 A 
ATOM     28  C   UNL d   1       4.567   0.382   2.462  0.00  0.00     0.031 A 
BRANCH  26  29
ATOM     29  S   UNL d   1       6.618   0.373   5.976  0.00  0.00    -0.016 SA
BRANCH  29  30
ATOM     30  C   UNL d   1       5.680   1.296   7.210  0.00  0.00     0.448 C 
ATOM     31  F   UNL d   1       4.374   1.464   6.901  0.00  0.00    -0.160 F 
ATOM     32  F   UNL d   1       5.729   0.674   8.413  0.00  0.00    -0.160 F 
ATOM     33  F   UNL d   1       6.209   2.533   7.381  0.00  0.00    -0.160 F 
ENDBRANCH  29  30
ENDBRANCH  26  29
ENDBRANCH   2  23
TORSDOF 7
