REMARK  7 active torsions:
REMARK  status: ('A' for Active; 'I' for Inactive)
REMARK    1  A    between atoms: C_12  and  C_1 
REMARK    2  A    between atoms: C_2  and  O_8 
REMARK       I    between atoms: N_3  and  C_2 
REMARK    3  A    between atoms: C_7  and  N_3 
REMARK    4  A    between atoms: O_8  and  C_22 
REMARK    5  A    between atoms: O_18  and  C_12 
REMARK    6  A    between atoms: C_23  and  O_18 
REMARK    7  A    between atoms: C_22  and  C_23 
ROOT
ATOM      1  O   UNL d   1      -1.891   6.710   0.330  0.00  0.00    -0.302 OA
ENDROOT
BRANCH   1   2
ATOM      2  C   UNL d   1      -1.922   7.517  -0.758  0.00  0.00     0.365 C 
ATOM      3  N   UNL d   1      -2.084   8.855  -0.517  0.00  0.00    -0.303 N 
ATOM      4  H   UNL d   1      -2.218   9.358  -1.384  0.00  0.00     0.171 HD
ATOM      5  O   UNL d   1      -1.872   7.109  -1.916  0.00  0.00    -0.238 OA
BRANCH   3   6
ATOM      6  C   UNL d   1      -2.113   9.614   0.665  0.00  0.00     0.036 A 
ATOM      7  C   UNL d   1      -1.797   9.127   1.934  0.00  0.00     0.031 A 
ATOM      8  C   UNL d   1      -1.786   9.985   3.041  0.00  0.00     0.026 A 
ATOM      9  C   UNL d   1      -2.099  11.333   2.887  0.00  0.00     0.034 A 
ATOM     10  C   UNL d   1      -2.442  11.830   1.635  0.00  0.00     0.026 A 
ATOM     11 CL   UNL d   1      -2.044  12.389   4.243  0.00  0.00    -0.084 Cl
ATOM     12  C   UNL d   1      -2.446  10.972   0.529  0.00  0.00     0.031 A 
ENDBRANCH   3   6
ENDBRANCH   1   2
BRANCH   1  13
ATOM     13  C   UNL d   1      -2.049   5.310   0.059  0.00  0.00     0.207 C 
BRANCH  13  14
ATOM     14  C   UNL d   1      -0.719   4.589  -0.143  0.00  0.00     0.195 C 
BRANCH  14  15
ATOM     15  O   UNL d   1      -0.998   3.213  -0.413  0.00  0.00    -0.384 OA
BRANCH  15  16
ATOM     16  C   UNL d   1       0.181   2.415  -0.492  0.00  0.00     0.211 C 
BRANCH  16  17
ATOM     17  C   UNL d   1      -0.209   0.974  -0.680  0.00  0.00     0.026 A 
ATOM     18  C   UNL d   1       0.188   0.295  -1.838  0.00  0.00     0.126 A 
ATOM     19  F   UNL d   1       0.919   0.928  -2.766  0.00  0.00    -0.205 F 
ATOM     20  C   UNL d   1      -0.139  -1.043  -2.061  0.00  0.00     0.043 A 
ATOM     21  C   UNL d   1      -0.884  -1.739  -1.115  0.00  0.00     0.005 A 
ATOM     22  C   UNL d   1      -1.288  -1.090   0.051  0.00  0.00     0.024 A 
ATOM     23  C   UNL d   1      -0.950   0.253   0.271  0.00  0.00     0.045 A 
ATOM     24 CL   UNL d   1      -1.455   0.961   1.766  0.00  0.00    -0.084 Cl
ENDBRANCH  16  17
ENDBRANCH  15  16
ENDBRANCH  14  15
ENDBRANCH  13  14
ENDBRANCH   1  13
TORSDOF 7
