REMARK  7 active torsions:
REMARK  status: ('A' for Active; 'I' for Inactive)
REMARK    1  A    between atoms: C_9  and  C_1 
REMARK    2  A    between atoms: S_20  and  C_2 
REMARK    3  A    between atoms: C_6  and  C_3 
REMARK    4  A    between atoms: S_21  and  C_13 
REMARK    5  A    between atoms: C_16  and  C_24 
REMARK       I    between atoms: N_19  and  C_16 
REMARK    6  A    between atoms: C_25  and  N_19 
REMARK    7  A    between atoms: C_24  and  S_21 
ROOT
ATOM      1  C   UNL d   1       1.421   2.538  -0.160  0.00  0.00     0.048 A 
ATOM      2  N   UNL d   1       0.987   3.612   0.525  0.00  0.00    -0.336 N 
ATOM      3  HN  UNL d   1       0.139   3.579   1.091  1.00  0.00     0.168 HD
ATOM      4  C   UNL d   1       1.721   4.726   0.427  0.00  0.00     0.145 A 
ATOM      5  N   UNL d   1       2.791   4.884  -0.361  0.00  0.00    -0.347 N 
ATOM      6  HN  UNL d   1       3.288   5.772  -0.428  1.00  0.00     0.167 HD
ATOM      7  C   UNL d   1       2.528   2.587  -0.981  0.00  0.00     0.047 A 
ATOM      8  C   UNL d   1       3.169   3.800  -1.059  0.00  0.00     0.092 A 
ENDROOT
BRANCH   1   9
ATOM      9  C   UNL d   1       0.603   1.325  -0.027  0.00  0.00     0.022 A 
ATOM     10  C   UNL d   1       0.209   0.831   1.216  0.00  0.00     0.054 A 
ATOM     11  S   UNL d   1      -0.775  -0.551   1.043  0.00  0.00    -0.079 SA
ATOM     12  C   UNL d   1      -0.655  -0.569  -0.661  0.00  0.00     0.046 A 
ATOM     13  C   UNL d   1       0.096   0.506  -1.128  0.00  0.00    -0.028 A 
ATOM     14  C   UNL d   1       0.381   0.798  -2.576  0.00  0.00     0.050 C 
BRANCH  10  15
ATOM     15  S   UNL d   1       0.672   1.470   2.810  0.00  0.00    -0.126 SA
ATOM     16  C   UNL d   1      -0.326   0.546   3.994  0.00  0.00     0.096 C 
ENDBRANCH  10  15
BRANCH  12  17
ATOM     17  C   UNL d   1      -1.309  -1.604  -1.436  0.00  0.00     0.092 A 
ATOM     18  N   UNL d   1      -1.783  -1.380  -2.645  0.00  0.00    -0.353 N 
ATOM     19  C   UNL d   1      -2.278  -2.542  -3.206  0.00  0.00     0.012 A 
ATOM     20  HN  UNL d   1      -1.783  -0.469  -3.105  1.00  0.00     0.166 HD
ATOM     21  C   UNL d   1      -2.805  -2.498  -4.593  0.00  0.00     0.068 C 
ATOM     22  C   UNL d   1      -2.208  -3.651  -2.387  0.00  0.00     0.076 A 
ATOM     23  S   UNL d   1      -1.484  -3.232  -0.893  0.00  0.00    -0.081 SA
ENDBRANCH  12  17
ENDBRANCH   1   9
BRANCH   4  24
ATOM     24  S   UNL d   1       1.052   6.140   1.254  0.00  0.00    -0.085 SA
BRANCH  24  25
ATOM     25  C   UNL d   1       0.900   7.227  -0.181  0.00  0.00     0.185 C 
BRANCH  25  26
ATOM     26  C   UNL d   1       0.038   6.716  -1.336  0.00  0.00     0.231 C 
ATOM     27  N   UNL d   1      -0.737   5.594  -1.104  0.00  0.00    -0.327 N 
ATOM     28  H   UNL d   1      -0.740   5.228  -0.152  0.00  0.00     0.169 HD
ATOM     29  O   UNL d   1       0.058   7.344  -2.394  0.00  0.00    -0.272 OA
BRANCH  27  30
ATOM     30  C   UNL d   1      -1.443   4.827  -2.057  0.00  0.00     0.034 A 
ATOM     31  C   UNL d   1      -1.431   5.096  -3.428  0.00  0.00     0.031 A 
ATOM     32  C   UNL d   1      -2.119   4.268  -4.324  0.00  0.00     0.026 A 
ATOM     33  C   UNL d   1      -2.822   3.167  -3.851  0.00  0.00     0.034 A 
ATOM     34  C   UNL d   1      -2.846   2.882  -2.490  0.00  0.00     0.026 A 
ATOM     35 CL   UNL d   1      -3.657   2.148  -4.957  0.00  0.00    -0.084 Cl
ATOM     36  C   UNL d   1      -2.153   3.713  -1.595  0.00  0.00     0.031 A 
ENDBRANCH  27  30
ENDBRANCH  25  26
ENDBRANCH  24  25
ENDBRANCH   4  24
TORSDOF 7
