REMARK  4 active torsions:
REMARK  status: ('A' for Active; 'I' for Inactive)
REMARK    1  A    between atoms: C_8  and  C_1 
REMARK    2  A    between atoms: N_7  and  C_2 
REMARK    3  A    between atoms: S_9  and  C_8 
REMARK    4  A    between atoms: C_14  and  S_9 
ROOT
ATOM      1  C   UNL d   1       0.573  -1.231   0.053  0.00  0.00     0.143 C 
ATOM      2  C   UNL d   1      -0.807  -1.373  -0.089  0.00  0.00     0.159 C 
ATOM      3  N   UNL d   1       0.725   0.093   0.408  0.00  0.00    -0.290 N 
ATOM      4  N   UNL d   1      -0.414   0.810   0.338  0.00  0.00    -0.300 N 
ATOM      5  HN  UNL d   1      -0.525   1.817   0.459  1.00  0.00     0.187 HD
ATOM      6  C   UNL d   1      -1.367  -0.090   0.074  0.00  0.00     0.057 C 
ATOM      7  C   UNL d   1       1.884   0.773   0.945  0.00  0.00     0.178 C 
ATOM      8  C   UNL d   1      -2.778   0.359  -0.036  0.00  0.00     0.072 C 
ENDROOT
BRANCH   1   9
ATOM      9  C   UNL d   1       1.567  -2.273  -0.051  0.00  0.00     0.244 C 
ATOM     10  O   UNL d   1       1.365  -3.433   0.291  0.00  0.00    -0.278 OA
BRANCH   9  11
ATOM     11  S   UNL d   1       3.113  -1.764  -0.702  0.00  0.00    -0.046 SA
BRANCH  11  12
ATOM     12  C   UNL d   1       3.499  -2.884  -2.032  0.00  0.00     0.008 A 
ATOM     13  C   UNL d   1       2.594  -3.766  -2.630  0.00  0.00     0.019 A 
ATOM     14  C   UNL d   1       2.978  -4.538  -3.733  0.00  0.00     0.001 A 
ATOM     15  C   UNL d   1       4.267  -4.436  -4.252  0.00  0.00     0.000 A 
ATOM     16  C   UNL d   1       5.183  -3.575  -3.659  0.00  0.00     0.001 A 
ATOM     17  C   UNL d   1       4.800  -2.808  -2.555  0.00  0.00     0.019 A 
ENDBRANCH  11  12
ENDBRANCH   9  11
ENDBRANCH   1   9
BRANCH   2  18
ATOM     18  N   UNL d   1      -1.503  -2.583  -0.385  0.00  0.00    -0.111 N 
ATOM     19  O   UNL d   1      -1.127  -3.211  -1.383  0.00  0.00    -0.532 OA
ATOM     20  O   UNL d   1      -2.453  -2.869   0.352  0.00  0.00    -0.532 OA
ENDBRANCH   2  18
TORSDOF 4
