REMARK  5 active torsions:
REMARK  status: ('A' for Active; 'I' for Inactive)
REMARK    1  A    between atoms: N_4  and  C_1 
REMARK    2  A    between atoms: N_5  and  C_2 
REMARK    3  A    between atoms: O_16  and  C_3 
REMARK    4  A    between atoms: C_7  and  C_8 
REMARK    5  A    between atoms: C_23  and  O_16 
ROOT
ATOM      1  C   UNL d   1       0.846  -2.508  -2.814  0.00  0.00     0.140 A 
ATOM      2  C   UNL d   1       1.922  -4.560  -2.267  0.00  0.00     0.140 A 
ATOM      3  C   UNL d   1       1.497  -3.296  -1.863  0.00  0.00     0.142 A 
ATOM      4  C   UNL d   1       1.113  -4.202  -4.536  0.00  0.00     0.052 A 
ATOM      5  C   UNL d   1       1.753  -5.015  -3.588  0.00  0.00     0.055 A 
ATOM      6  C   UNL d   1       0.656  -2.934  -4.141  0.00  0.00     0.055 A 
ENDROOT
BRANCH   3   7
ATOM      7  O   UNL d   1       1.520  -2.882  -0.565  0.00  0.00    -0.306 OA
BRANCH   7   8
ATOM      8  C   UNL d   1       2.692  -2.702   0.125  0.00  0.00     0.079 A 
ATOM      9  C   UNL d   1       2.477  -2.565   1.491  0.00  0.00     0.075 A 
ATOM     10  C   UNL d   1       3.518  -2.155   2.309  0.00  0.00     0.092 A 
ATOM     11  O   UNL d   1       3.146  -1.813   3.613  0.00  0.00    -0.275 OA
ATOM     12  C   UNL d   1       4.817  -1.960   1.833  0.00  0.00     0.004 A 
ATOM     13  C   UNL d   1       3.825  -0.727   4.115  0.00  0.00     0.288 C 
ATOM     14  O   UNL d   1       3.310   0.096   4.863  0.00  0.00    -0.260 OA
ATOM     15  C   UNL d   1       5.268  -0.709   3.819  0.00  0.00     0.090 C 
ATOM     16  C   UNL d   1       5.787  -1.374   2.772  0.00  0.00    -0.043 C 
ATOM     17  C   UNL d   1       7.269  -1.416   2.568  0.00  0.00     0.049 C 
ATOM     18  C   UNL d   1       5.048  -2.205   0.473  0.00  0.00     0.017 A 
ATOM     19  C   UNL d   1       3.980  -2.542  -0.389  0.00  0.00     0.038 A 
ENDBRANCH   7   8
ENDBRANCH   3   7
BRANCH   2  20
ATOM     20  N   UNL d   1       2.494  -5.485  -1.309  0.00  0.00    -0.113 N 
ATOM     21  O   UNL d   1       1.776  -5.846  -0.371  0.00  0.00    -0.532 OA
ATOM     22  O   UNL d   1       3.649  -5.870  -1.538  0.00  0.00    -0.532 OA
ENDBRANCH   2  20
BRANCH   1  23
ATOM     23  N   UNL d   1       0.297  -1.209  -2.446  0.00  0.00    -0.113 N 
ATOM     24  O   UNL d   1      -0.532  -1.182  -1.524  0.00  0.00    -0.532 OA
ATOM     25  O   UNL d   1       0.662  -0.242  -3.120  0.00  0.00    -0.532 OA
ENDBRANCH   1  23
BRANCH   4  26
ATOM     26  C   UNL d   1       0.865  -4.693  -5.946  0.00  0.00     0.417 C 
ATOM     27  F   UNL d   1       1.431  -5.903  -6.197  0.00  0.00    -0.166 F 
ATOM     28  F   UNL d   1      -0.460  -4.829  -6.211  0.00  0.00    -0.166 F 
ATOM     29  F   UNL d   1       1.357  -3.839  -6.881  0.00  0.00    -0.166 F 
ENDBRANCH   4  26
TORSDOF 5
