REMARK  6 active torsions:
REMARK  status: ('A' for Active; 'I' for Inactive)
REMARK    1  A    between atoms: C_5  and  C_1 
REMARK    2  A    between atoms: N_10  and  N_2 
REMARK    3  A    between atoms: C_4  and  O_12 
REMARK    4  A    between atoms: C_11  and  C_5 
REMARK    5  A    between atoms: C_15  and  N_10 
REMARK    6  A    between atoms: O_12  and  C_22 
ROOT
ATOM      1  C   UNL d   1       1.162   0.093  -0.018  0.00  0.00     0.179 C 
ATOM      2  N   UNL d   1       2.394  -0.213  -0.310  0.00  0.00    -0.287 N 
ATOM      3  HN  UNL d   1       2.810  -1.061   0.074  1.00  0.00     0.188 HD
ATOM      4  C   UNL d   1       0.563   1.266  -0.616  0.00  0.00     0.123 C 
ATOM      5  N   UNL d   1       0.145   2.237  -1.091  0.00  0.00    -0.190 NA
ENDROOT
BRANCH   1   6
ATOM      6  C   UNL d   1       0.396  -0.788   0.922  0.00  0.00     0.220 C 
ATOM      7  O   UNL d   1      -0.779  -1.017   0.657  0.00  0.00    -0.284 OA
BRANCH   6   8
ATOM      8  C   UNL d   1       1.042  -1.370   2.128  0.00  0.00     0.017 A 
ATOM      9  C   UNL d   1       2.210  -0.846   2.698  0.00  0.00     0.018 A 
ATOM     10  C   UNL d   1       2.770  -1.438   3.842  0.00  0.00     0.038 A 
ATOM     11  C   UNL d   1       2.150  -2.533   4.441  0.00  0.00     0.078 A 
ATOM     12  C   UNL d   1       1.002  -3.070   3.854  0.00  0.00     0.038 A 
ATOM     13  C   UNL d   1       0.442  -2.489   2.715  0.00  0.00     0.018 A 
BRANCH  11  14
ATOM     14  O   UNL d   1       2.564  -3.188   5.560  0.00  0.00    -0.255 OA
BRANCH  14  15
ATOM     15  C   UNL d   1       3.320  -2.493   6.538  0.00  0.00     0.530 C 
ATOM     16  F   UNL d   1       3.188  -1.151   6.468  0.00  0.00    -0.144 F 
ATOM     17  F   UNL d   1       2.894  -2.883   7.761  0.00  0.00    -0.144 F 
ATOM     18  F   UNL d   1       4.625  -2.815   6.421  0.00  0.00    -0.144 F 
ENDBRANCH  14  15
ENDBRANCH  11  14
ENDBRANCH   6   8
ENDBRANCH   1   6
BRANCH   2  19
ATOM     19  N   UNL d   1       3.134   0.594  -1.126  0.00  0.00    -0.300 N 
ATOM     20  H   UNL d   1       2.995   1.607  -1.115  0.00  0.00     0.187 HD
BRANCH  19  21
ATOM     21  C   UNL d   1       4.481   0.218  -1.328  0.00  0.00     0.049 A 
ATOM     22  C   UNL d   1       4.893  -1.120  -1.248  0.00  0.00     0.056 A 
ATOM     23  C   UNL d   1       6.226  -1.479  -1.477  0.00  0.00     0.058 A 
ATOM     24 CL   UNL d   1       6.641  -3.152  -1.355  0.00  0.00    -0.082 Cl
ATOM     25  C   UNL d   1       7.166  -0.495  -1.792  0.00  0.00     0.055 A 
ATOM     26  C   UNL d   1       6.765   0.840  -1.891  0.00  0.00     0.028 A 
ATOM     27 CL   UNL d   1       8.832  -0.856  -2.070  0.00  0.00    -0.083 Cl
ATOM     28  C   UNL d   1       5.429   1.190  -1.673  0.00  0.00     0.033 A 
ENDBRANCH  19  21
ENDBRANCH   2  19
TORSDOF 6
