REMARK  8 active torsions:
REMARK  status: ('A' for Active; 'I' for Inactive)
REMARK    1  A    between atoms: C_8  and  N_1 
REMARK    2  A    between atoms: C_12  and  C_2 
REMARK    3  A    between atoms: S_11  and  C_5 
REMARK    4  A    between atoms: C_23  and  S_11 
REMARK    5  A    between atoms: C_15  and  C_23 
REMARK    6  A    between atoms: C_20  and  C_15 
REMARK    7  A    between atoms: C_17  and  C_18 
REMARK    8  A    between atoms: C_34  and  C_22 
ROOT
ATOM      1  N   UNL d   1      -0.338  -1.288   0.083  0.00  0.00    -0.275 N 
ATOM      2  C   UNL d   1       0.912  -0.656  -0.042  0.00  0.00     0.139 A 
ATOM      3  N   UNL d   1       0.721   0.655  -0.076  0.00  0.00    -0.282 N 
ATOM      4  HN  UNL d   1       1.457   1.357  -0.144  1.00  0.00     0.188 HD
ATOM      5  C   UNL d   1      -1.244  -0.229   0.101  0.00  0.00     0.168 A 
ATOM      6  N   UNL d   1      -0.617   0.917  -0.006  0.00  0.00    -0.278 N 
ATOM      7  HN  UNL d   1      -1.051   1.840  -0.033  1.00  0.00     0.189 HD
ENDROOT
BRANCH   5   8
ATOM      8  S   UNL d   1      -2.938  -0.365   0.456  0.00  0.00    -0.084 SA
BRANCH   8   9
ATOM      9  C   UNL d   1      -3.550   1.343   0.223  0.00  0.00     0.166 C 
BRANCH   9  10
ATOM     10  C   UNL d   1      -5.052   1.410   0.502  0.00  0.00     0.169 C 
ATOM     11  O   UNL d   1      -5.735   0.417   0.760  0.00  0.00    -0.291 OA
BRANCH  10  12
ATOM     12  C   UNL d   1      -5.755   2.735   0.461  0.00  0.00     0.011 A 
ATOM     13  C   UNL d   1      -5.125   3.937   0.139  0.00  0.00     0.016 A 
ATOM     14  C   UNL d   1      -5.855   5.143   0.149  0.00  0.00     0.013 A 
ATOM     15  C   UNL d   1      -7.227   5.189   0.466  0.00  0.00    -0.026 A 
ATOM     16  C   UNL d   1      -7.844   3.962   0.760  0.00  0.00     0.013 A 
ATOM     17  C   UNL d   1      -7.122   2.760   0.765  0.00  0.00     0.016 A 
BRANCH  15  18
ATOM     18  C   UNL d   1      -7.988   6.467   0.512  0.00  0.00    -0.026 A 
ATOM     19  C   UNL d   1      -9.042   6.663   1.427  0.00  0.00     0.012 A 
ATOM     20  C   UNL d   1      -9.755   7.866   1.486  0.00  0.00     0.001 A 
ATOM     21  C   UNL d   1      -9.425   8.914   0.634  0.00  0.00     0.000 A 
ATOM     22  C   UNL d   1      -8.390   8.752  -0.281  0.00  0.00     0.001 A 
ATOM     23  C   UNL d   1      -7.687   7.542  -0.345  0.00  0.00     0.012 A 
ENDBRANCH  15  18
ENDBRANCH  10  12
ENDBRANCH   9  10
ENDBRANCH   8   9
ENDBRANCH   5   8
BRANCH   1  24
ATOM     24  C   UNL d   1      -0.605  -2.693   0.163  0.00  0.00     0.046 A 
ATOM     25  C   UNL d   1       0.277  -3.547   0.848  0.00  0.00     0.069 A 
ATOM     26  C   UNL d   1       0.058  -4.908   0.774  0.00  0.00     0.107 A 
ATOM     27  O   UNL d   1       0.860  -5.869   1.308  0.00  0.00    -0.323 OA
ATOM     28  C   UNL d   1      -1.015  -5.437   0.103  0.00  0.00     0.105 A 
ATOM     29  C   UNL d   1       0.160  -7.064   0.901  0.00  0.00     0.352 A 
ATOM     30  O   UNL d   1      -1.032  -6.795   0.136  0.00  0.00    -0.323 OA
ATOM     31  C   UNL d   1      -1.934  -4.631  -0.532  0.00  0.00     0.042 A 
ATOM     32  C   UNL d   1      -1.720  -3.248  -0.510  0.00  0.00     0.033 A 
ENDBRANCH   1  24
BRANCH   2  33
ATOM     33  C   UNL d   1       2.248  -1.269  -0.150  0.00  0.00     0.010 A 
ATOM     34  C   UNL d   1       2.510  -2.415  -0.907  0.00  0.00     0.016 A 
ATOM     35  C   UNL d   1       3.777  -3.018  -0.886  0.00  0.00     0.009 A 
ATOM     36  C   UNL d   1       4.849  -2.461  -0.167  0.00  0.00    -0.051 A 
ATOM     37  C   UNL d   1       4.600  -1.264   0.517  0.00  0.00     0.009 A 
ATOM     38  C   UNL d   1       3.323  -0.681   0.528  0.00  0.00     0.016 A 
BRANCH  36  39
ATOM     39  C   UNL d   1       6.221  -3.165  -0.145  0.00  0.00    -0.024 C 
ATOM     40  C   UNL d   1       7.312  -2.373   0.611  0.00  0.00     0.019 C 
ATOM     41  C   UNL d   1       6.088  -4.537   0.550  0.00  0.00     0.019 C 
ATOM     42  C   UNL d   1       6.732  -3.380  -1.586  0.00  0.00     0.019 C 
ENDBRANCH  36  39
ENDBRANCH   2  33
TORSDOF 8
