REMARK  4 active torsions:
REMARK  status: ('A' for Active; 'I' for Inactive)
REMARK    1  A    between atoms: C_3  and  C_1 
REMARK    2  A    between atoms: C_4  and  C_2 
REMARK       I    between atoms: N_11  and  C_3 
REMARK    3  A    between atoms: O_14  and  C_7 
REMARK    4  A    between atoms: O_15  and  C_12 
ROOT
ATOM      1  C   UNL d   1       0.854  -0.409   0.701  0.00  0.00     0.112 C 
ATOM      2  C   UNL d   1       0.362   0.831   0.890  0.00  0.00     0.042 C 
ATOM      3  C   UNL d   1       1.988  -0.901   1.401  0.00  0.00     0.105 C 
ATOM      4  N   UNL d   1       2.893  -1.362   1.962  0.00  0.00    -0.191 NA
ENDROOT
BRANCH   1   5
ATOM      5  C   UNL d   1       0.151  -1.266  -0.295  0.00  0.00     0.260 C 
ATOM      6  O   UNL d   1      -0.810  -0.884  -0.953  0.00  0.00    -0.267 OA
ATOM      7  N   UNL d   1       0.635  -2.526  -0.475  0.00  0.00    -0.365 N 
ATOM      8  H   UNL d   1       1.428  -2.927   0.014  0.00  0.00     0.159 HD
ATOM      9  H   UNL d   1       0.165  -3.113  -1.157  0.00  0.00     0.159 HD
ENDBRANCH   1   5
BRANCH   2  10
ATOM     10  C   UNL d   1       0.954   1.808   1.815  0.00  0.00     0.002 A 
ATOM     11  C   UNL d   1       1.986   2.686   1.456  0.00  0.00     0.078 A 
ATOM     12  C   UNL d   1       2.600   3.467   2.439  0.00  0.00     0.040 A 
ATOM     13  C   UNL d   1       2.163   3.424   3.767  0.00  0.00     0.039 A 
ATOM     14  C   UNL d   1       1.098   2.597   4.118  0.00  0.00     0.069 A 
ATOM     15  C   UNL d   1       0.511   1.783   3.149  0.00  0.00     0.051 A 
BRANCH  11  16
ATOM     16  O   UNL d   1       2.566   2.770   0.219  0.00  0.00    -0.355 OA
ATOM     17  C   UNL d   1       1.678   2.942  -0.882  0.00  0.00     0.210 C 
ENDBRANCH  11  16
BRANCH  14  18
ATOM     18  O   UNL d   1       0.584   2.466   5.379  0.00  0.00    -0.356 OA
ATOM     19  C   UNL d   1       0.764   3.588   6.236  0.00  0.00     0.210 C 
ENDBRANCH  14  18
ENDBRANCH   2  10
TORSDOF 4
