REMARK  4 active torsions:
REMARK  status: ('A' for Active; 'I' for Inactive)
REMARK    1  A    between atoms: C_2  and  C_1 
REMARK       I    between atoms: N_10  and  C_2 
REMARK    2  A    between atoms: C_7  and  C_11 
REMARK    3  A    between atoms: C_8  and  C_12 
REMARK    4  A    between atoms: C_13  and  N_10 
ROOT
ATOM      1  C   UNL d   1      -3.252   0.342   0.339  0.00  0.00     0.258 C 
ATOM      2  N   UNL d   1      -3.800   1.471  -0.255  0.00  0.00    -0.321 N 
ATOM      3  O   UNL d   1      -3.871  -0.579   0.860  0.00  0.00    -0.267 OA
ATOM      4  H   UNL d   1      -3.201   1.998  -0.880  0.00  0.00     0.169 HD
ENDROOT
BRANCH   1   5
ATOM      5  C   UNL d   1      -1.788   0.178   0.208  0.00  0.00     0.054 A 
ATOM      6  C   UNL d   1      -0.861   1.132   0.628  0.00  0.00     0.021 A 
ATOM      7  N   UNL d   1       0.478   0.919   0.522  0.00  0.00    -0.355 N 
ATOM      8  C   UNL d   1      -1.261   2.435   1.251  0.00  0.00     0.069 C 
ATOM      9  C   UNL d   1       0.930  -0.279   0.040  0.00  0.00     0.117 A 
ATOM     10  HN  UNL d   1       1.139   1.645   0.799  1.00  0.00     0.166 HD
ATOM     11  C   UNL d   1       0.049  -1.279  -0.368  0.00  0.00     0.035 A 
ATOM     12  C   UNL d   1      -1.320  -1.043  -0.280  0.00  0.00     0.021 A 
BRANCH   9  13
ATOM     13  C   UNL d   1       2.430  -0.551  -0.029  0.00  0.00     0.432 C 
ATOM     14  F   UNL d   1       3.211   0.508   0.325  0.00  0.00    -0.165 F 
ATOM     15  F   UNL d   1       2.809  -1.583   0.781  0.00  0.00    -0.165 F 
ATOM     16  F   UNL d   1       2.835  -0.907  -1.284  0.00  0.00    -0.165 F 
ENDBRANCH   9  13
ENDBRANCH   1   5
BRANCH   2  17
ATOM     17  C   UNL d   1      -5.199   1.688  -0.366  0.00  0.00     0.057 A 
ATOM     18  C   UNL d   1      -5.740   2.399  -1.446  0.00  0.00     0.032 A 
ATOM     19  N   UNL d   1      -7.078   2.463  -1.685  0.00  0.00    -0.354 N 
ATOM     20  C   UNL d   1      -4.877   3.074  -2.472  0.00  0.00     0.070 C 
ATOM     21  C   UNL d   1      -7.930   1.834  -0.826  0.00  0.00     0.117 A 
ATOM     22  HN  UNL d   1      -7.437   2.973  -2.493  1.00  0.00     0.166 HD
ATOM     23  C   UNL d   1      -7.469   1.225   0.336  0.00  0.00     0.036 A 
ATOM     24  C   UNL d   1      -6.096   1.157   0.562  0.00  0.00     0.034 A 
BRANCH  21  25
ATOM     25  C   UNL d   1      -9.414   1.736  -1.159  0.00  0.00     0.432 C 
ATOM     26  F   UNL d   1      -9.743   2.183  -2.404  0.00  0.00    -0.165 F 
ATOM     27  F   UNL d   1      -9.870   0.447  -1.103  0.00  0.00    -0.165 F 
ATOM     28  F   UNL d   1     -10.199   2.434  -0.288  0.00  0.00    -0.165 F 
ENDBRANCH  21  25
ENDBRANCH   2  17
TORSDOF 4
