REMARK  4 active torsions:
REMARK  status: ('A' for Active; 'I' for Inactive)
REMARK    1  A    between atoms: C_6  and  C_1 
REMARK    2  A    between atoms: N_4  and  C_2 
REMARK       I    between atoms: C_3  and  N_4 
REMARK    3  A    between atoms: C_5  and  C_3 
REMARK    4  A    between atoms: O_13  and  C_6 
ROOT
ATOM      1  C   UNL d   1       2.961   2.780   0.283  0.00  0.00     0.259 C 
ATOM      2  N   UNL d   1       2.717   1.453  -0.014  0.00  0.00    -0.321 N 
ATOM      3  O   UNL d   1       2.114   3.656   0.420  0.00  0.00    -0.267 OA
ATOM      4  H   UNL d   1       3.482   0.800   0.119  0.00  0.00     0.169 HD
ENDROOT
BRANCH   2   5
ATOM      5  C   UNL d   1       1.463   0.868  -0.197  0.00  0.00     0.058 C 
ATOM      6  C   UNL d   1       0.261   1.453  -0.574  0.00  0.00     0.106 C 
ATOM      7  S   UNL d   1      -1.044   0.331  -0.469  0.00  0.00    -0.094 SA
ATOM      8  C   UNL d   1      -0.002  -0.959  -0.087  0.00  0.00     0.053 C 
ATOM      9  C   UNL d   1       1.306  -0.545   0.004  0.00  0.00     0.038 C 
BRANCH   6  10
ATOM     10  C   UNL d   1      -0.067   2.778  -1.060  0.00  0.00     0.302 C 
ATOM     11  O   UNL d   1      -1.089   3.409  -0.810  0.00  0.00    -0.259 OA
BRANCH  10  12
ATOM     12  O   UNL d   1       0.887   3.189  -1.952  0.00  0.00    -0.322 OA
ATOM     13  C   UNL d   1       0.720   4.539  -2.381  0.00  0.00     0.213 C 
ENDBRANCH  10  12
ENDBRANCH   6  10
ENDBRANCH   2   5
BRANCH   1  14
ATOM     14  C   UNL d   1       4.384   3.153   0.513  0.00  0.00     0.070 A 
ATOM     15  C   UNL d   1       5.349   2.223   0.904  0.00  0.00     0.132 A 
ATOM     16  F   UNL d   1       5.037   0.924   1.039  0.00  0.00    -0.205 F 
ATOM     17  C   UNL d   1       6.656   2.618   1.180  0.00  0.00     0.043 A 
ATOM     18  C   UNL d   1       7.016   3.959   1.056  0.00  0.00     0.003 A 
ATOM     19  C   UNL d   1       6.068   4.899   0.651  0.00  0.00     0.001 A 
ATOM     20  C   UNL d   1       4.756   4.500   0.384  0.00  0.00     0.020 A 
ENDBRANCH   1  14
TORSDOF 4
