REMARK  7 active torsions:
REMARK  status: ('A' for Active; 'I' for Inactive)
REMARK    1  A    between atoms: C_12  and  C_1 
REMARK    2  A    between atoms: C_3  and  C_2 
REMARK    3  A    between atoms: C_16  and  C_10 
REMARK    4  A    between atoms: O_20  and  C_12 
REMARK    5  A    between atoms: O_17  and  C_16 
REMARK    6  A    between atoms: C_18  and  O_17 
REMARK    7  A    between atoms: C_25  and  O_20 
ROOT
ATOM      1  C   UNL d   1      -1.486   2.279  -0.036  0.00  0.00     0.075 A 
ATOM      2  N   UNL d   1      -2.328   2.577   1.018  0.00  0.00    -0.349 N 
ATOM      3  HN  UNL d   1      -2.453   1.997   1.848  1.00  0.00     0.166 HD
ATOM      4  C   UNL d   1      -2.947   3.719   0.795  0.00  0.00     0.075 A 
ATOM      5  C   UNL d   1      -1.433   3.232  -1.032  0.00  0.00     0.084 A 
ATOM      6  S   UNL d   1      -2.486   4.531  -0.652  0.00  0.00    -0.084 SA
ENDROOT
BRANCH   1   7
ATOM      7  C   UNL d   1      -0.726   1.000  -0.059  0.00  0.00     0.128 A 
ATOM      8  C   UNL d   1       0.021   0.481  -1.091  0.00  0.00     0.079 A 
ATOM      9  C   UNL d   1       0.451  -0.791  -0.632  0.00  0.00     0.132 A 
ATOM     10  N   UNL d   1       0.045  -0.997   0.631  0.00  0.00    -0.255 N 
ATOM     11  O   UNL d   1      -0.702   0.112   0.977  0.00  0.00    -0.235 OA
ATOM     12  HN  UNL d   1       0.248  -1.808   1.216  1.00  0.00     0.195 HD
BRANCH   9  13
ATOM     13  C   UNL d   1       1.168  -1.801  -1.407  0.00  0.00     0.311 C 
ATOM     14  O   UNL d   1       1.425  -1.660  -2.596  0.00  0.00    -0.258 OA
BRANCH  13  15
ATOM     15  O   UNL d   1       1.442  -2.927  -0.684  0.00  0.00    -0.317 OA
BRANCH  15  16
ATOM     16  C   UNL d   1       1.804  -4.090  -1.439  0.00  0.00     0.175 C 
ATOM     17  C   UNL d   1       0.535  -4.842  -1.795  0.00  0.00     0.034 C 
ENDBRANCH  15  16
ENDBRANCH  13  15
ENDBRANCH   9  13
ENDBRANCH   1   7
BRANCH   4  18
ATOM     18  C   UNL d   1      -3.956   4.333   1.720  0.00  0.00     0.240 C 
BRANCH  18  19
ATOM     19  O   UNL d   1      -5.240   4.193   1.106  0.00  0.00    -0.345 OA
BRANCH  19  20
ATOM     20  C   UNL d   1      -6.305   4.736   1.773  0.00  0.00     0.070 A 
ATOM     21  C   UNL d   1      -6.252   5.407   2.995  0.00  0.00     0.060 A 
ATOM     22  C   UNL d   1      -7.423   5.924   3.553  0.00  0.00     0.036 A 
ATOM     23 CL   UNL d   1      -7.349   6.762   5.056  0.00  0.00    -0.084 Cl
ATOM     24  C   UNL d   1      -8.649   5.774   2.908  0.00  0.00     0.024 A 
ATOM     25  C   UNL d   1      -8.706   5.098   1.692  0.00  0.00     0.004 A 
ATOM     26  C   UNL d   1      -7.537   4.582   1.129  0.00  0.00     0.037 A 
ENDBRANCH  19  20
ENDBRANCH  18  19
ENDBRANCH   4  18
TORSDOF 7
