REMARK  4 active torsions:
REMARK  status: ('A' for Active; 'I' for Inactive)
REMARK    1  A    between atoms: C_2  and  C_1 
REMARK       I    between atoms: N_3  and  C_1 
REMARK    2  A    between atoms: C_4  and  N_3 
REMARK    3  A    between atoms: O_6  and  C_5 
REMARK    4  A    between atoms: C_10  and  O_6 
ROOT
ATOM      1  C   UNL d   1      -1.020   1.039   0.078  0.00  0.00     0.069 C 
ATOM      2  C   UNL d   1      -1.574   0.131   1.002  0.00  0.00     0.102 C 
ATOM      3  C   UNL d   1      -1.756   2.174  -0.281  0.00  0.00     0.032 C 
ATOM      4  C   UNL d   1      -2.906   0.273   1.408  0.00  0.00     0.039 C 
ATOM      5  C   UNL d   1      -3.661   1.360   0.971  0.00  0.00     0.003 C 
ATOM      6  C   UNL d   1      -3.076   2.325   0.153  0.00  0.00     0.002 C 
ENDROOT
BRANCH   1   7
ATOM      7  N   UNL d   1       0.256   0.887  -0.512  0.00  0.00    -0.320 N 
ATOM      8  C   UNL d   1       0.746  -0.329  -0.946  0.00  0.00     0.258 C 
ATOM      9  O   UNL d   1       0.059  -1.347  -1.052  0.00  0.00    -0.267 OA
ATOM     10  H   UNL d   1       0.744   1.725  -0.802  0.00  0.00     0.169 HD
BRANCH   8  11
ATOM     11  C   UNL d   1       2.170  -0.400  -1.397  0.00  0.00     0.054 A 
ATOM     12  C   UNL d   1       3.208   0.458  -1.006  0.00  0.00     0.049 A 
ATOM     13 CL   UNL d   1       2.993   1.881  -0.049  0.00  0.00    -0.083 Cl
ATOM     14  C   UNL d   1       4.527   0.186  -1.403  0.00  0.00     0.025 A 
ATOM     15  C   UNL d   1       4.821  -0.916  -2.208  0.00  0.00     0.002 A 
ATOM     16  C   UNL d   1       3.795  -1.747  -2.636  0.00  0.00     0.001 A 
ATOM     17  C   UNL d   1       2.485  -1.494  -2.231  0.00  0.00     0.019 A 
ENDBRANCH   8  11
ENDBRANCH   1   7
BRANCH   2  18
ATOM     18  O   UNL d   1      -0.899  -0.917   1.593  0.00  0.00    -0.309 OA
BRANCH  18  19
ATOM     19  C   UNL d   1       0.325  -0.679   2.186  0.00  0.00     0.076 A 
ATOM     20  C   UNL d   1       0.735   0.547   2.714  0.00  0.00     0.037 A 
ATOM     21  C   UNL d   1       2.034   0.695   3.209  0.00  0.00     0.003 A 
ATOM     22  C   UNL d   1       2.909  -0.391   3.214  0.00  0.00     0.000 A 
ATOM     23  C   UNL d   1       2.481  -1.632   2.748  0.00  0.00     0.003 A 
ATOM     24  C   UNL d   1       1.189  -1.776   2.241  0.00  0.00     0.037 A 
ENDBRANCH  18  19
ENDBRANCH   2  18
TORSDOF 4
