REMARK  13 active torsions:
REMARK  status: ('A' for Active; 'I' for Inactive)
REMARK    1  A    between atoms: C_4  and  C_1 
REMARK    2  A    between atoms: C_5  and  C_1 
REMARK    3  A    between atoms: N_2  and  C_6 
REMARK    4  A    between atoms: S_10  and  C_3 
REMARK    5  A    between atoms: N_18  and  C_3 
REMARK    6  A    between atoms: O_22  and  C_4 
REMARK    7  A    between atoms: N_7  and  C_5 
REMARK    8  A    between atoms: C_16  and  S_10 
REMARK    9  A    between atoms: C_12  and  C_14 
REMARK   10  A    between atoms: C_14  and  C_16 
REMARK   11  A    between atoms: C_24  and  N_18 
REMARK   12  A    between atoms: C_20  and  C_24 
REMARK   13  A    between atoms: C_27  and  O_22 
ROOT
ATOM      1  C   UNL d   1       0.936  -0.029   0.072  0.00  0.00     0.134 C 
ATOM      2  C   UNL d   1       0.210   0.592   1.037  0.00  0.00     0.092 C 
ENDROOT
BRANCH   2   3
ATOM      3  S   UNL d   1      -1.494   0.147   1.341  0.00  0.00    -0.103 SA
BRANCH   3   4
ATOM      4  C   UNL d   1      -2.379   1.014   0.025  0.00  0.00     0.164 C 
BRANCH   4   5
ATOM      5  C   UNL d   1      -3.898   0.987   0.179  0.00  0.00     0.169 C 
ATOM      6  O   UNL d   1      -4.499   0.701   1.206  0.00  0.00    -0.291 OA
BRANCH   5   7
ATOM      7  C   UNL d   1      -4.685   1.479  -0.999  0.00  0.00     0.013 A 
ATOM      8  C   UNL d   1      -4.201   1.358  -2.304  0.00  0.00     0.051 A 
ATOM      9  C   UNL d   1      -4.879   1.979  -3.360  0.00  0.00     0.103 A 
ATOM     10  C   UNL d   1      -6.072   2.674  -3.132  0.00  0.00     0.036 A 
ATOM     11  C   UNL d   1      -6.594   2.732  -1.839  0.00  0.00     0.003 A 
ATOM     12  C   UNL d   1      -5.906   2.136  -0.774  0.00  0.00     0.015 A 
BRANCH   9  13
ATOM     13  N   UNL d   1      -4.295   1.935  -4.708  0.00  0.00    -0.116 N 
ATOM     14  O   UNL d   1      -3.220   1.335  -4.849  0.00  0.00    -0.532 OA
ATOM     15  O   UNL d   1      -4.900   2.521  -5.617  0.00  0.00    -0.532 OA
ENDBRANCH   9  13
ENDBRANCH   5   7
ENDBRANCH   4   5
ENDBRANCH   3   4
ENDBRANCH   2   3
BRANCH   2  16
ATOM     16  N   UNL d   1       0.763   1.415   2.018  0.00  0.00    -0.380 N 
ATOM     17  H   UNL d   1       1.426   0.924   2.618  0.00  0.00     0.160 HD
BRANCH  16  18
ATOM     18  C   UNL d   1       1.181   2.788   1.789  0.00  0.00     0.147 C 
BRANCH  18  19
ATOM     19  C   UNL d   1       0.625   3.590   2.929  0.00  0.00    -0.018 C 
ATOM     20  C   UNL d   1       1.346   4.323   3.787  0.00  0.00     0.008 C 
ENDBRANCH  18  19
ENDBRANCH  16  18
ENDBRANCH   2  16
BRANCH   1  21
ATOM     21  C   UNL d   1       0.409  -0.986  -0.975  0.00  0.00     0.305 C 
ATOM     22  O   UNL d   1      -0.740  -1.089  -1.363  0.00  0.00    -0.258 OA
BRANCH  21  23
ATOM     23  O   UNL d   1       1.442  -1.714  -1.493  0.00  0.00    -0.317 OA
BRANCH  23  24
ATOM     24  C   UNL d   1       1.140  -2.642  -2.550  0.00  0.00     0.174 C 
ATOM     25  C   UNL d   1       1.190  -1.948  -3.899  0.00  0.00     0.034 C 
ENDBRANCH  23  24
ENDBRANCH  21  23
ENDBRANCH   1  21
BRANCH   1  26
ATOM     26  C   UNL d   1       2.456  -0.029   0.072  0.00  0.00    -0.028 C 
BRANCH  26  27
ATOM     27  N   UNL d   1       3.717  -0.029   0.072  0.00  0.00    -0.365 N 
ATOM     28  HN2 UNL d   1       2.697  -0.029   0.072  1.00  0.00     0.165 HD
ATOM     29  HN1 UNL d   1       4.737  -0.029   0.072  1.00  0.00     0.165 HD
ENDBRANCH  26  27
ENDBRANCH   1  26
TORSDOF 13
