REMARK  4 active torsions:
REMARK  status: ('A' for Active; 'I' for Inactive)
REMARK    1  A    between atoms: N_10  and  C_1 
REMARK    2  A    between atoms: C_11  and  C_7 
REMARK    3  A    between atoms: C_12  and  C_7 
REMARK    4  A    between atoms: N_8  and  N_10 
ROOT
ATOM      1  N   UNL d   1      -0.825   2.465   0.353  0.00  0.00    -0.296 N 
ATOM      2  H   UNL d   1      -0.016   3.066   0.475  0.00  0.00     0.187 HD
ENDROOT
BRANCH   1   3
ATOM      3  N   UNL d   1      -2.039   3.018   0.117  0.00  0.00    -0.294 N 
ATOM      4  C   UNL d   1      -2.350   4.181   0.613  0.00  0.00     0.139 C 
ATOM      5  HN  UNL d   1      -2.717   2.517  -0.456  1.00  0.00     0.187 HD
BRANCH   4   6
ATOM      6  C   UNL d   1      -1.457   5.021   1.502  0.00  0.00     0.177 C 
ATOM      7  O   UNL d   1      -1.898   5.371   2.596  0.00  0.00    -0.291 OA
ATOM      8  C   UNL d   1      -0.081   5.387   1.030  0.00  0.00     0.098 C 
ENDBRANCH   4   6
BRANCH   4   9
ATOM      9  C   UNL d   1      -3.747   4.680   0.307  0.00  0.00     0.177 C 
ATOM     10  O   UNL d   1      -3.905   5.868   0.058  0.00  0.00    -0.291 OA
ATOM     11  C   UNL d   1      -4.868   3.678   0.341  0.00  0.00     0.098 C 
ENDBRANCH   4   9
ENDBRANCH   1   3
BRANCH   1  12
ATOM     12  C   UNL d   1      -0.537   1.161   0.125  0.00  0.00     0.095 A 
ATOM     13  C   UNL d   1       0.743   0.658   0.025  0.00  0.00     0.054 A 
ATOM     14  N   UNL d   1       0.581  -0.700  -0.083  0.00  0.00    -0.299 N 
ATOM     15  C   UNL d   1       2.071   1.322   0.019  0.00  0.00     0.072 C 
ATOM     16  C   UNL d   1       1.602  -1.722  -0.072  0.00  0.00     0.177 C 
ATOM     17  N   UNL d   1      -0.704  -1.088  -0.166  0.00  0.00    -0.301 N 
ATOM     18  C   UNL d   1      -1.401   0.051  -0.041  0.00  0.00     0.052 A 
ATOM     19  HN  UNL d   1      -1.066  -2.033  -0.294  1.00  0.00     0.187 HD
ATOM     20  C   UNL d   1      -2.882   0.016  -0.064  0.00  0.00     0.072 C 
ENDBRANCH   1  12
TORSDOF 4
