REMARK  7 active torsions:
REMARK  status: ('A' for Active; 'I' for Inactive)
REMARK    1  A    between atoms: N_2  and  C_1 
REMARK    2  A    between atoms: C_3  and  C_1 
REMARK    3  A    between atoms: C_4  and  C_1 
REMARK    4  A    between atoms: N_6  and  C_1 
REMARK       I    between atoms: C_5  and  N_2 
REMARK    5  A    between atoms: C_7  and  C_5 
REMARK    6  A    between atoms: C_8  and  N_6 
REMARK    7  A    between atoms: O_20  and  C_12 
ROOT
ATOM      1  C   UNL d   1       1.044  -0.007   0.299  0.00  0.00     0.291 C 
ENDROOT
BRANCH   1   2
ATOM      2  N   UNL d   1       0.643   0.352  -1.092  0.00  0.00    -0.320 N 
ATOM      3  C   UNL d   1       0.367  -0.548  -2.086  0.00  0.00     0.256 C 
ATOM      4  O   UNL d   1       0.507  -1.744  -1.899  0.00  0.00    -0.268 OA
ATOM      5  H   UNL d   1       0.721   1.340  -1.297  0.00  0.00     0.165 HD
BRANCH   3   6
ATOM      6  C   UNL d   1      -0.132   0.001  -3.389  0.00  0.00     0.065 A 
ATOM      7  C   UNL d   1      -0.933  -0.788  -4.228  0.00  0.00     0.084 A 
ATOM      8  C   UNL d   1      -1.252  -0.356  -5.521  0.00  0.00     0.038 A 
ATOM      9  C   UNL d   1      -0.873   0.914  -5.948  0.00  0.00     0.003 A 
ATOM     10  C   UNL d   1      -0.174   1.752  -5.084  0.00  0.00     0.001 A 
ATOM     11  C   UNL d   1       0.213   1.296  -3.818  0.00  0.00     0.020 A 
BRANCH   7  12
ATOM     12  O   UNL d   1      -1.458  -2.005  -3.879  0.00  0.00    -0.355 OA
ATOM     13  C   UNL d   1      -2.384  -1.901  -2.791  0.00  0.00     0.210 C 
ENDBRANCH   7  12
ENDBRANCH   3   6
ENDBRANCH   1   2
BRANCH   1  14
ATOM     14  C   UNL d   1       0.116  -1.115   0.929  0.00  0.00     0.435 C 
ATOM     15  F   UNL d   1      -1.163  -1.023   0.489  0.00  0.00    -0.167 F 
ATOM     16  F   UNL d   1       0.560  -2.362   0.604  0.00  0.00    -0.167 F 
ATOM     17  F   UNL d   1       0.080  -1.110   2.281  0.00  0.00    -0.167 F 
ENDBRANCH   1  14
BRANCH   1  18
ATOM     18  C   UNL d   1       0.875   1.257   1.217  0.00  0.00     0.435 C 
ATOM     19  F   UNL d   1       0.347   2.288   0.483  0.00  0.00    -0.167 F 
ATOM     20  F   UNL d   1       0.033   1.108   2.261  0.00  0.00    -0.167 F 
ATOM     21  F   UNL d   1       2.040   1.724   1.724  0.00  0.00    -0.167 F 
ENDBRANCH   1  18
BRANCH   1  22
ATOM     22  N   UNL d   1       2.435  -0.557   0.226  0.00  0.00    -0.237 NA
ATOM     23  H   UNL d   1       2.373  -1.499  -0.172  0.00  0.00     0.132 HD
BRANCH  22  24
ATOM     24  C   UNL d   1       3.460   0.124  -0.423  0.00  0.00     0.082 A 
ATOM     25  N   UNL d   1       3.288   1.384  -0.873  0.00  0.00    -0.357 N 
ATOM     26  C   UNL d   1       4.338   1.962  -1.502  0.00  0.00     0.089 A 
ATOM     27  HN  UNL d   1       2.405   1.879  -0.746  1.00  0.00     0.166 HD
ATOM     28  C   UNL d   1       5.564   1.347  -1.712  0.00  0.00     0.017 A 
ATOM     29  C   UNL d   1       5.736   0.062  -1.226  0.00  0.00     0.005 A 
ATOM     30  C   UNL d   1       4.676  -0.547  -0.562  0.00  0.00     0.042 A 
ENDBRANCH  22  24
ENDBRANCH   1  22
TORSDOF 7
