REMARK  5 active torsions:
REMARK  status: ('A' for Active; 'I' for Inactive)
REMARK    1  A    between atoms: C_6  and  C_1 
REMARK    2  A    between atoms: C_8  and  C_2 
REMARK    3  A    between atoms: C_9  and  N_3 
REMARK    4  A    between atoms: O_16  and  C_8 
REMARK    5  A    between atoms: C_21  and  O_16 
ROOT
ATOM      1  C   UNL d   1       1.023  -0.825  -0.016  0.00  0.00     0.158 C 
ATOM      2  C   UNL d   1      -0.307  -1.225  -0.003  0.00  0.00     0.089 C 
ATOM      3  N   UNL d   1       1.021   0.555   0.054  0.00  0.00    -0.251 N 
ATOM      4  N   UNL d   1      -0.238   1.025   0.283  0.00  0.00    -0.303 N 
ATOM      5  HN  UNL d   1      -0.514   1.986   0.486  1.00  0.00     0.186 HD
ATOM      6  C   UNL d   1      -1.028  -0.039   0.185  0.00  0.00     0.127 C 
ENDROOT
BRANCH   3   7
ATOM      7  C   UNL d   1       2.080   1.505  -0.073  0.00  0.00     0.057 A 
ATOM      8  C   UNL d   1       3.249   1.231  -0.793  0.00  0.00     0.033 A 
ATOM      9  C   UNL d   1       4.269   2.186  -0.873  0.00  0.00     0.026 A 
ATOM     10  C   UNL d   1       4.121   3.421  -0.248  0.00  0.00     0.034 A 
ATOM     11  C   UNL d   1       2.950   3.720   0.443  0.00  0.00     0.026 A 
ATOM     12 CL   UNL d   1       5.383   4.584  -0.346  0.00  0.00    -0.084 Cl
ATOM     13  C   UNL d   1       1.927   2.770   0.520  0.00  0.00     0.033 A 
ENDBRANCH   3   7
BRANCH   1  14
ATOM     14  C   UNL d   1       2.243  -1.646   0.020  0.00  0.00     0.435 C 
ATOM     15  F   UNL d   1       2.011  -2.904   0.471  0.00  0.00    -0.165 F 
ATOM     16  F   UNL d   1       2.816  -1.766  -1.201  0.00  0.00    -0.165 F 
ATOM     17  F   UNL d   1       3.178  -1.130   0.857  0.00  0.00    -0.165 F 
ENDBRANCH   1  14
BRANCH   2  18
ATOM     18  C   UNL d   1      -0.817  -2.568  -0.148  0.00  0.00     0.297 C 
ATOM     19  O   UNL d   1      -0.233  -3.439  -0.769  0.00  0.00    -0.259 OA
BRANCH  18  20
ATOM     20  O   UNL d   1      -2.055  -2.701   0.414  0.00  0.00    -0.318 OA
BRANCH  20  21
ATOM     21  C   UNL d   1      -2.778  -3.874   0.021  0.00  0.00     0.174 C 
ATOM     22  C   UNL d   1      -3.543  -3.537  -1.245  0.00  0.00     0.034 C 
ENDBRANCH  20  21
ENDBRANCH  18  20
ENDBRANCH   2  18
TORSDOF 5
