REMARK  4 active torsions:
REMARK  status: ('A' for Active; 'I' for Inactive)
REMARK    1  A    between atoms: N_2  and  C_1 
REMARK    2  A    between atoms: O_9  and  C_3 
REMARK    3  A    between atoms: N_7  and  C_5 
REMARK    4  A    between atoms: C_16  and  O_9 
ROOT
ATOM      1  C   UNL d   1       1.760  -1.159   0.022  0.00  0.00     0.138 A 
ATOM      2  C   UNL d   1       2.400   0.070  -0.109  0.00  0.00     0.111 A 
ATOM      3  C   UNL d   1       0.366  -1.255   0.087  0.00  0.00     0.065 A 
ATOM      4  C   UNL d   1       0.202   1.161  -0.144  0.00  0.00     0.063 A 
ATOM      5  C   UNL d   1       1.609   1.217  -0.260  0.00  0.00     0.071 A 
ATOM      6  C   UNL d   1      -0.418  -0.095   0.016  0.00  0.00     0.063 A 
ATOM      7 CL   UNL d   1      -2.124  -0.365  -0.028  0.00  0.00    -0.082 Cl
ENDROOT
BRANCH   2   8
ATOM      8  O   UNL d   1       3.775   0.117  -0.102  0.00  0.00    -0.308 OA
BRANCH   8   9
ATOM      9  C   UNL d   1       4.414   1.158   0.537  0.00  0.00     0.076 A 
ATOM     10  C   UNL d   1       3.926   1.805   1.679  0.00  0.00     0.039 A 
ATOM     11  C   UNL d   1       4.624   2.886   2.222  0.00  0.00     0.026 A 
ATOM     12  C   UNL d   1       5.834   3.284   1.658  0.00  0.00     0.034 A 
ATOM     13  C   UNL d   1       6.358   2.602   0.561  0.00  0.00     0.026 A 
ATOM     14 CL   UNL d   1       6.687   4.620   2.325  0.00  0.00    -0.084 Cl
ATOM     15  C   UNL d   1       5.647   1.538   0.001  0.00  0.00     0.039 A 
ENDBRANCH   8   9
ENDBRANCH   2   8
BRANCH   1  16
ATOM     16  N   UNL d   1       2.532  -2.383   0.075  0.00  0.00    -0.113 N 
ATOM     17  O   UNL d   1       3.268  -2.635  -0.885  0.00  0.00    -0.532 OA
ATOM     18  O   UNL d   1       2.355  -3.108   1.063  0.00  0.00    -0.532 OA
ENDBRANCH   1  16
BRANCH   4  19
ATOM     19  N   UNL d   1      -0.503   2.405  -0.143  0.00  0.00    -0.331 N 
ATOM     20  C   UNL d   1      -1.668   2.710   0.534  0.00  0.00     0.096 A 
ATOM     21  C   UNL d   1      -1.995   4.030   0.315  0.00  0.00     0.019 A 
ATOM     22  C   UNL d   1      -0.985   4.582  -0.493  0.00  0.00     0.019 A 
ATOM     23  C   UNL d   1      -0.075   3.579  -0.743  0.00  0.00     0.096 A 
ENDBRANCH   4  19
TORSDOF 4
