REMARK  6 active torsions:
REMARK  status: ('A' for Active; 'I' for Inactive)
REMARK    1  A    between atoms: C_7  and  C_1 
REMARK    2  A    between atoms: C_12  and  N_2 
REMARK    3  A    between atoms: C_13  and  C_6 
REMARK       I    between atoms: N_11  and  C_7 
REMARK       I    between atoms: C_8  and  N_14 
REMARK       I    between atoms: N_10  and  C_8 
REMARK    4  A    between atoms: C_9  and  N_10 
REMARK    5  A    between atoms: N_14  and  N_11 
REMARK    6  A    between atoms: C_19  and  C_12 
ROOT
ATOM      1  C   UNL d   1      -0.449  -2.658  -0.044  0.00  0.00     0.288 C 
ATOM      2  N   UNL d   1      -0.230  -3.301  -1.260  0.00  0.00    -0.261 N 
ATOM      3  O   UNL d   1      -0.676  -3.255   1.000  0.00  0.00    -0.264 OA
ATOM      4  H   UNL d   1       0.089  -2.738  -2.044  0.00  0.00     0.190 HD
ENDROOT
BRANCH   1   5
ATOM      5  C   UNL d   1      -0.299  -1.228  -0.125  0.00  0.00     0.122 C 
ATOM      6  N   UNL d   1       0.890  -0.561   0.036  0.00  0.00    -0.282 N 
ATOM      7  N   UNL d   1       0.781   0.771  -0.133  0.00  0.00    -0.301 N 
ATOM      8  C   UNL d   1      -0.538   0.999  -0.165  0.00  0.00     0.036 C 
ATOM      9  HN  UNL d   1       1.535   1.453  -0.218  1.00  0.00     0.187 HD
ATOM     10  C   UNL d   1      -1.252  -0.230  -0.212  0.00  0.00     0.064 C 
BRANCH   6  11
ATOM     11  C   UNL d   1       2.189  -1.118   0.404  0.00  0.00     0.188 C 
BRANCH  11  12
ATOM     12  C   UNL d   1       2.300  -1.357   1.891  0.00  0.00    -0.038 A 
ATOM     13  C   UNL d   1       2.742  -2.596   2.376  0.00  0.00     0.009 A 
ATOM     14  C   UNL d   1       2.848  -2.822   3.750  0.00  0.00     0.001 A 
ATOM     15  C   UNL d   1       2.520  -1.814   4.654  0.00  0.00     0.000 A 
ATOM     16  C   UNL d   1       2.097  -0.573   4.187  0.00  0.00     0.001 A 
ATOM     17  C   UNL d   1       1.997  -0.342   2.815  0.00  0.00     0.009 A 
ENDBRANCH  11  12
ENDBRANCH   6  11
BRANCH   8  18
ATOM     18  C   UNL d   1      -1.047   2.432  -0.110  0.00  0.00    -0.007 C 
ATOM     19  C   UNL d   1      -2.586   2.498  -0.120  0.00  0.00     0.021 C 
ATOM     20  C   UNL d   1      -0.555   3.110   1.190  0.00  0.00     0.021 C 
ATOM     21  C   UNL d   1      -0.521   3.240  -1.314  0.00  0.00     0.021 C 
ENDBRANCH   8  18
ENDBRANCH   1   5
BRANCH   2  22
ATOM     22  N   UNL d   1       0.282  -4.612  -1.222  0.00  0.00    -0.248 N 
ATOM     23  C   UNL d   1      -0.457  -5.763  -1.384  0.00  0.00     0.339 C 
ATOM     24  N   UNL d   1      -1.780  -5.562  -1.679  0.00  0.00    -0.307 N 
ATOM     25  O   UNL d   1       0.128  -6.836  -1.297  0.00  0.00    -0.245 OA
ATOM     26  H   UNL d   1      -1.961  -4.634  -2.026  0.00  0.00     0.171 HD
ATOM     27  H   UNL d   1       1.209  -4.759  -0.834  0.00  0.00     0.192 HD
BRANCH  24  28
ATOM     28  C   UNL d   1      -2.790  -6.544  -1.847  0.00  0.00     0.048 A 
ATOM     29  C   UNL d   1      -2.883  -7.718  -1.062  0.00  0.00    -0.035 A 
ATOM     30  C   UNL d   1      -3.943  -8.622  -1.287  0.00  0.00     0.009 A 
ATOM     31  C   UNL d   1      -1.943  -8.087   0.056  0.00  0.00     0.050 C 
ATOM     32  C   UNL d   1      -4.932  -8.358  -2.225  0.00  0.00     0.001 A 
ATOM     33  C   UNL d   1      -4.865  -7.193  -2.975  0.00  0.00     0.009 A 
ATOM     34  C   UNL d   1      -3.798  -6.289  -2.814  0.00  0.00    -0.035 A 
ATOM     35  C   UNL d   1      -3.802  -5.080  -3.714  0.00  0.00     0.050 C 
ENDBRANCH  24  28
ENDBRANCH   2  22
TORSDOF 6
