REMARK  3 active torsions:
REMARK  status: ('A' for Active; 'I' for Inactive)
REMARK       I    between atoms: N_2  and  C_1 
REMARK       I    between atoms: N_3  and  C_1 
REMARK    1  A    between atoms: C_4  and  N_3 
REMARK    2  A    between atoms: C_13  and  N_5 
REMARK    3  A    between atoms: C_20  and  C_13 
ROOT
ATOM      1  C   UNL d   1       0.788   0.195  -0.415  0.00  0.00     0.322 C 
ATOM      2  N   UNL d   1       0.307   0.576   0.839  0.00  0.00    -0.332 N 
ATOM      3  N   UNL d   1       1.715   1.051  -0.969  0.00  0.00    -0.309 N 
ATOM      4  N   UNL d   1      -2.052   1.585   2.627  0.00  0.00     0.094 N 
ATOM      5  O   UNL d   1       0.407  -0.842  -0.957  0.00  0.00    -0.247 OA
ATOM      6  C   UNL d   1      -0.692  -0.289   1.485  0.00  0.00     0.157 C 
ATOM      7  C   UNL d   1      -2.040   0.398   1.759  0.00  0.00     0.292 C 
ATOM      8  C   UNL d   1       0.048   2.881   1.803  0.00  0.00     0.050 C 
ATOM      9  C   UNL d   1       0.881   1.608   1.695  0.00  0.00     0.129 C 
ATOM     10  C   UNL d   1      -1.474   2.753   1.965  0.00  0.00     0.274 C 
ATOM     11  H   UNL d   1       1.739   1.982  -0.587  0.00  0.00     0.170 HD
ENDROOT
BRANCH   3  12
ATOM     12  C   UNL d   1       2.543   0.818  -2.092  0.00  0.00     0.039 A 
ATOM     13  C   UNL d   1       2.567  -0.378  -2.815  0.00  0.00     0.053 A 
ATOM     14  C   UNL d   1       3.459  -0.542  -3.880  0.00  0.00     0.037 A 
ATOM     15 CL   UNL d   1       3.474  -2.022  -4.760  0.00  0.00    -0.084 Cl
ATOM     16  C   UNL d   1       4.341   0.472  -4.235  0.00  0.00     0.048 A 
ATOM     17  C   UNL d   1       4.316   1.664  -3.521  0.00  0.00     0.037 A 
ATOM     18  C   UNL d   1       3.422   1.845  -2.462  0.00  0.00     0.053 A 
ATOM     19 CL   UNL d   1       5.409   2.928  -3.935  0.00  0.00    -0.084 Cl
ENDBRANCH   3  12
BRANCH   4  20
ATOM     20  C   UNL d   1      -1.588   1.380   4.001  0.00  0.00     0.311 C 
BRANCH  20  21
ATOM     21  C   UNL d   1      -2.407   0.391   4.808  0.00  0.00    -0.030 A 
ATOM     22  C   UNL d   1      -1.825  -0.793   5.287  0.00  0.00     0.009 A 
ATOM     23  C   UNL d   1      -2.557  -1.673   6.089  0.00  0.00     0.001 A 
ATOM     24  C   UNL d   1      -3.878  -1.379   6.419  0.00  0.00     0.000 A 
ATOM     25  C   UNL d   1      -4.472  -0.214   5.937  0.00  0.00     0.001 A 
ATOM     26  C   UNL d   1      -3.743   0.665   5.134  0.00  0.00     0.009 A 
ENDBRANCH  20  21
ENDBRANCH   4  20
TORSDOF 3
