REMARK  11 active torsions:
REMARK  status: ('A' for Active; 'I' for Inactive)
REMARK    1  A    between atoms: C_3  and  C_1 
REMARK    2  A    between atoms: C_6  and  C_1 
REMARK    3  A    between atoms: C_2  and  C_9 
REMARK    4  A    between atoms: O_11  and  C_2 
REMARK    5  A    between atoms: C_9  and  C_6 
REMARK    6  A    between atoms: O_14  and  C_10 
REMARK    7  A    between atoms: C_15  and  O_14 
REMARK    8  A    between atoms: C_16  and  C_15 
REMARK    9  A    between atoms: C_19  and  C_16 
REMARK   10  A    between atoms: C_17  and  C_18 
REMARK   11  A    between atoms: C_18  and  C_19 
ROOT
ATOM      1  C   UNL d   1       0.232   0.956   0.739  0.00  0.00     0.010 A 
ATOM      2  C   UNL d   1       0.618   2.302   0.771  0.00  0.00     0.018 A 
ATOM      3  C   UNL d   1      -0.950   0.579   1.380  0.00  0.00     0.018 A 
ATOM      4  C   UNL d   1      -1.397   2.878   2.002  0.00  0.00     0.068 A 
ATOM      5  C   UNL d   1      -0.189   3.257   1.412  0.00  0.00     0.037 A 
ATOM      6  C   UNL d   1      -1.770   1.536   1.981  0.00  0.00     0.037 A 
ENDROOT
BRANCH   1   7
ATOM      7  C   UNL d   1       1.082  -0.045   0.006  0.00  0.00     0.160 C 
ATOM      8  O   UNL d   1       2.275   0.174  -0.164  0.00  0.00    -0.292 OA
BRANCH   7   9
ATOM      9  C   UNL d   1       0.387  -1.261  -0.600  0.00  0.00     0.094 C 
BRANCH   9  10
ATOM     10  C   UNL d   1       1.316  -2.463  -0.774  0.00  0.00     0.117 C 
BRANCH  10  11
ATOM     11  C   UNL d   1       0.540  -3.656  -1.282  0.00  0.00     0.139 C 
ATOM     12  O   UNL d   1      -0.659  -3.671  -1.502  0.00  0.00    -0.650 OA
BRANCH  11  13
ATOM     13  O   UNL d   1       1.313  -4.751  -1.467  0.00  0.00    -0.776 OA
ATOM     14  H   UNL d   1       2.258  -4.613  -1.256  0.00  0.00     0.167 HD
ENDBRANCH  11  13
ENDBRANCH  10  11
ENDBRANCH   9  10
ENDBRANCH   7   9
ENDBRANCH   1   7
BRANCH   4  15
ATOM     15  O   UNL d   1      -2.257   3.705   2.669  0.00  0.00    -0.351 OA
BRANCH  15  16
ATOM     16  C   UNL d   1      -2.236   5.073   2.264  0.00  0.00     0.175 C 
BRANCH  16  17
ATOM     17  C   UNL d   1      -3.241   5.844   3.112  0.00  0.00     0.027 C 
BRANCH  17  18
ATOM     18  C   UNL d   1      -3.275   7.313   2.700  0.00  0.00     0.002 C 
BRANCH  18  19
ATOM     19  C   UNL d   1      -4.269   8.099   3.547  0.00  0.00    -0.000 C 
BRANCH  19  20
ATOM     20  C   UNL d   1      -4.307   9.567   3.129  0.00  0.00    -0.005 C 
ATOM     21  C   UNL d   1      -5.301  10.344   3.974  0.00  0.00     0.005 C 
ENDBRANCH  19  20
ENDBRANCH  18  19
ENDBRANCH  17  18
ENDBRANCH  16  17
ENDBRANCH  15  16
ENDBRANCH   4  15
TORSDOF 11
