REMARK  3 active torsions:
REMARK  status: ('A' for Active; 'I' for Inactive)
REMARK    1  A    between atoms: C_2  and  C_1 
REMARK       I    between atoms: N_6  and  C_2 
REMARK    2  A    between atoms: N_10  and  N_6 
REMARK    3  A    between atoms: O_12  and  C_8 
ROOT
ATOM      1  C   UNL d   1       0.880  -1.190  -0.042  0.00  0.00     0.053 A 
ATOM      2  C   UNL d   1       0.257   0.066  -0.023  0.00  0.00     0.026 A 
ATOM      3  C   UNL d   1       2.291  -1.261  -0.023  0.00  0.00     0.055 A 
ATOM      4  C   UNL d   1       1.039   1.225   0.026  0.00  0.00     0.023 A 
ATOM      5  C   UNL d   1       3.066  -0.103   0.025  0.00  0.00     0.069 A 
ATOM      6 BR   UNL d   1      -1.620   0.339  -0.129  0.00  0.00    -0.050 Br
ATOM      7  C   UNL d   1       2.432   1.138   0.048  0.00  0.00     0.038 A 
ENDROOT
BRANCH   1   8
ATOM      8  C   UNL d   1       0.171  -2.504  -0.128  0.00  0.00     0.267 C 
ATOM      9  O   UNL d   1       0.693  -3.442  -0.728  0.00  0.00    -0.266 OA
ATOM     10  N   UNL d   1      -1.044  -2.622   0.528  0.00  0.00    -0.290 N 
ATOM     11  H   UNL d   1      -1.435  -1.848   1.062  0.00  0.00     0.183 HD
BRANCH  10  12
ATOM     12  N   UNL d   1      -1.736  -3.850   0.489  0.00  0.00    -0.247 NA
ATOM     13  H   UNL d   1      -1.077  -4.546   0.107  0.00  0.00     0.143 HD
ATOM     14  H   UNL d   1      -2.458  -3.781  -0.233  0.00  0.00     0.143 HD
ENDBRANCH  10  12
ENDBRANCH   1   8
BRANCH   5  15
ATOM     15  O   UNL d   1       4.430  -0.042   0.046  0.00  0.00    -0.356 OA
ATOM     16  C   UNL d   1       5.136  -1.278   0.036  0.00  0.00     0.210 C 
ENDBRANCH   5  15
TORSDOF 3
