REMARK  5 active torsions:
REMARK  status: ('A' for Active; 'I' for Inactive)
REMARK    1  A    between atoms: N_3  and  S_1 
REMARK    2  A    between atoms: C_13  and  S_1 
REMARK    3  A    between atoms: C_2  and  N_9 
REMARK       I    between atoms: N_9  and  C_10 
REMARK       I    between atoms: C_10  and  N_14 
REMARK    4  A    between atoms: N_14  and  C_18 
REMARK    5  A    between atoms: C_18  and  C_21 
ROOT
ATOM      1  N   UNL d   1       0.543  -0.693  -1.247  0.00  0.00    -0.307 N 
ATOM      2  C   UNL d   1       0.860  -2.140  -1.373  0.00  0.00     0.136 C 
ATOM      3  C   UNL d   1       0.866   0.181  -2.399  0.00  0.00     0.136 C 
ATOM      4  C   UNL d   1       0.458  -0.456  -3.730  0.00  0.00     0.027 C 
ATOM      5  C   UNL d   1       0.457  -2.704  -2.729  0.00  0.00     0.027 C 
ATOM      6  C   UNL d   1       1.024  -1.873  -3.887  0.00  0.00     0.006 C 
ENDROOT
BRANCH   6   7
ATOM      7  C   UNL d   1       2.562  -1.831  -3.926  0.00  0.00     0.129 C 
BRANCH   7   8
ATOM      8  N   UNL d   1       3.176  -3.141  -4.007  0.00  0.00    -0.342 N 
ATOM      9  C   UNL d   1       4.445  -3.315  -3.473  0.00  0.00     0.320 C 
ATOM     10  N   UNL d   1       4.874  -4.613  -3.586  0.00  0.00    -0.305 N 
ATOM     11  O   UNL d   1       5.057  -2.397  -2.942  0.00  0.00    -0.247 OA
ATOM     12  H   UNL d   1       4.419  -5.189  -4.277  0.00  0.00     0.171 HD
ATOM     13  H   UNL d   1       2.953  -3.696  -4.820  0.00  0.00     0.164 HD
BRANCH  10  14
ATOM     14  C   UNL d   1       6.022  -5.137  -3.000  0.00  0.00     0.092 A 
ATOM     15  C   UNL d   1       6.759  -4.712  -1.912  0.00  0.00     0.101 A 
ATOM     16  O   UNL d   1       7.811  -5.558  -1.728  0.00  0.00    -0.240 OA
ATOM     17  C   UNL d   1       6.663  -3.657  -0.886  0.00  0.00     0.081 C 
ATOM     18  N   UNL d   1       7.762  -6.580  -2.649  0.00  0.00    -0.263 N 
ATOM     19  C   UNL d   1       6.679  -6.340  -3.394  0.00  0.00     0.058 A 
ATOM     20  HN  UNL d   1       8.415  -7.358  -2.743  1.00  0.00     0.194 HD
ATOM     21  C   UNL d   1       6.317  -7.281  -4.477  0.00  0.00     0.072 C 
ENDBRANCH  10  14
ENDBRANCH   7   8
ENDBRANCH   6   7
BRANCH   1  22
ATOM     22  S   UNL d   1       0.884  -0.020   0.299  0.00  0.00     0.260 S 
ATOM     23  O   UNL d   1       0.100  -0.759   1.268  0.00  0.00    -0.200 OA
ATOM     24  O   UNL d   1       0.789   1.420   0.205  0.00  0.00    -0.200 OA
BRANCH  22  25
ATOM     25  C   UNL d   1       2.599  -0.437   0.593  0.00  0.00     0.079 A 
ATOM     26  C   UNL d   1       3.622   0.393   0.126  0.00  0.00     0.025 A 
ATOM     27  C   UNL d   1       4.951   0.069   0.412  0.00  0.00     0.002 A 
ATOM     28  C   UNL d   1       5.253  -1.063   1.173  0.00  0.00     0.000 A 
ATOM     29  C   UNL d   1       4.229  -1.883   1.646  0.00  0.00     0.002 A 
ATOM     30  C   UNL d   1       2.900  -1.567   1.364  0.00  0.00     0.025 A 
ENDBRANCH  22  25
ENDBRANCH   1  22
TORSDOF 5
