REMARK  10 active torsions:
REMARK  status: ('A' for Active; 'I' for Inactive)
REMARK    1  A    between atoms: C_2  and  S_1 
REMARK    2  A    between atoms: C_3  and  S_1 
REMARK    3  A    between atoms: C_22  and  C_2 
REMARK    4  A    between atoms: C_23  and  C_3 
REMARK    5  A    between atoms: S_8  and  C_22 
REMARK    6  A    between atoms: C_24  and  S_8 
REMARK    7  A    between atoms: S_9  and  C_23 
REMARK    8  A    between atoms: C_25  and  S_9 
REMARK    9  A    between atoms: C_10  and  C_24 
REMARK   10  A    between atoms: C_11  and  C_25 
ROOT
ATOM      1  S   UNL d   1       1.014   0.045   0.080  0.00  0.00     0.145 S 
ATOM      2  O   UNL d   1       0.409  -0.748   1.131  0.00  0.00    -0.228 OA
ATOM      3  O   UNL d   1       2.456   0.125  -0.056  0.00  0.00    -0.228 OA
ENDROOT
BRANCH   1   4
ATOM      4  C   UNL d   1       0.378   1.705   0.201  0.00  0.00     0.150 C 
BRANCH   4   5
ATOM      5  C   UNL d   1       0.826   2.387   1.482  0.00  0.00     0.089 C 
BRANCH   5   6
ATOM      6  S   UNL d   1       0.113   4.069   1.499  0.00  0.00    -0.164 SA
BRANCH   6   7
ATOM      7  C   UNL d   1       0.781   4.671   3.084  0.00  0.00     0.112 C 
BRANCH   7   8
ATOM      8  C   UNL d   1       0.322   6.087   3.348  0.00  0.00    -0.049 A 
ATOM      9  C   UNL d   1      -0.874   6.332   4.041  0.00  0.00     0.009 A 
ATOM     10  C   UNL d   1      -1.323   7.640   4.243  0.00  0.00     0.024 A 
ATOM     11  C   UNL d   1      -0.581   8.711   3.750  0.00  0.00     0.034 A 
ATOM     12  C   UNL d   1       0.608   8.486   3.061  0.00  0.00     0.024 A 
ATOM     13 CL   UNL d   1      -1.142  10.321   3.985  0.00  0.00    -0.084 Cl
ATOM     14  C   UNL d   1       1.058   7.178   2.858  0.00  0.00     0.009 A 
ENDBRANCH   7   8
ENDBRANCH   6   7
ENDBRANCH   5   6
ENDBRANCH   4   5
ENDBRANCH   1   4
BRANCH   1  15
ATOM     15  C   UNL d   1       0.341  -0.495  -1.478  0.00  0.00     0.150 C 
BRANCH  15  16
ATOM     16  C   UNL d   1       0.762  -1.915  -1.810  0.00  0.00     0.089 C 
BRANCH  16  17
ATOM     17  S   UNL d   1       0.017  -2.363  -3.417  0.00  0.00    -0.164 SA
BRANCH  17  18
ATOM     18  C   UNL d   1       0.651  -4.063  -3.586  0.00  0.00     0.112 C 
BRANCH  18  19
ATOM     19  C   UNL d   1       0.187  -4.680  -4.885  0.00  0.00    -0.049 A 
ATOM     20  C   UNL d   1       0.955  -4.546  -6.053  0.00  0.00     0.009 A 
ATOM     21  C   UNL d   1       0.510  -5.087  -7.263  0.00  0.00     0.024 A 
ATOM     22  C   UNL d   1      -0.708  -5.761  -7.314  0.00  0.00     0.034 A 
ATOM     23  C   UNL d   1      -1.484  -5.900  -6.166  0.00  0.00     0.024 A 
ATOM     24 CL   UNL d   1      -1.260  -6.420  -8.805  0.00  0.00    -0.084 Cl
ATOM     25  C   UNL d   1      -1.040  -5.359  -4.956  0.00  0.00     0.009 A 
ENDBRANCH  18  19
ENDBRANCH  17  18
ENDBRANCH  16  17
ENDBRANCH  15  16
ENDBRANCH   1  15
TORSDOF 10
