REMARK  3 active torsions:
REMARK  status: ('A' for Active; 'I' for Inactive)
REMARK    1  A    between atoms: O_13  and  C_5 
REMARK    2  A    between atoms: C_11  and  C_7 
REMARK       I    between atoms: N_15  and  C_11 
REMARK    3  A    between atoms: C_16  and  O_13 
ROOT
ATOM      1  C   UNL d   1       0.146  -0.758  -0.021  0.00  0.00     0.068 A 
ATOM      2  C   UNL d   1       0.160   0.630  -0.049  0.00  0.00     0.137 A 
ATOM      3  N   UNL d   1       2.328  -0.049  -0.163  0.00  0.00    -0.301 N 
ATOM      4  HN  UNL d   1       3.346  -0.030  -0.226  1.00  0.00     0.187 HD
ATOM      5  C   UNL d   1      -1.098  -1.421   0.083  0.00  0.00     0.109 A 
ATOM      6  N   UNL d   1       1.475   0.997  -0.127  0.00  0.00    -0.280 N 
ATOM      7  C   UNL d   1      -2.227  -0.596   0.263  0.00  0.00     0.082 A 
ATOM      8  C   UNL d   1       1.522  -1.120  -0.096  0.00  0.00     0.039 A 
ATOM      9  N   UNL d   1      -0.901   1.456   0.014  0.00  0.00    -0.349 N 
ATOM     10  HN  UNL d   1      -0.833   2.471  -0.052  1.00  0.00     0.167 HD
ATOM     11  C   UNL d   1      -2.068   0.792   0.176  0.00  0.00     0.109 A 
ATOM     12  C   UNL d   1       1.998   2.339  -0.122  0.00  0.00     0.179 C 
ATOM     13  C   UNL d   1       2.110  -2.482  -0.068  0.00  0.00     0.071 C 
ENDROOT
BRANCH   5  14
ATOM     14  O   UNL d   1      -1.058  -2.795   0.090  0.00  0.00    -0.309 OA
BRANCH  14  15
ATOM     15  C   UNL d   1      -2.051  -3.542  -0.497  0.00  0.00     0.076 A 
ATOM     16  C   UNL d   1      -2.827  -3.140  -1.586  0.00  0.00     0.039 A 
ATOM     17  C   UNL d   1      -3.935  -3.906  -1.963  0.00  0.00     0.026 A 
ATOM     18  C   UNL d   1      -4.222  -5.096  -1.293  0.00  0.00     0.034 A 
ATOM     19  C   UNL d   1      -3.383  -5.554  -0.279  0.00  0.00     0.026 A 
ATOM     20 CL   UNL d   1      -5.630  -5.993  -1.703  0.00  0.00    -0.084 Cl
ATOM     21  C   UNL d   1      -2.290  -4.780   0.111  0.00  0.00     0.039 A 
ENDBRANCH  14  15
ENDBRANCH   5  14
BRANCH   7  22
ATOM     22  C   UNL d   1      -3.605  -1.036   0.569  0.00  0.00     0.253 C 
ATOM     23  O   UNL d   1      -4.569  -0.467   0.067  0.00  0.00    -0.268 OA
ATOM     24  N   UNL d   1      -3.770  -2.051   1.460  0.00  0.00    -0.366 N 
ATOM     25  H   UNL d   1      -3.004  -2.618   1.799  0.00  0.00     0.159 HD
ATOM     26  H   UNL d   1      -4.709  -2.412   1.572  0.00  0.00     0.159 HD
ENDBRANCH   7  22
TORSDOF 3
