REMARK  4 active torsions:
REMARK  status: ('A' for Active; 'I' for Inactive)
REMARK    1  A    between atoms: N_7  and  C_2 
REMARK    2  A    between atoms: C_8  and  C_4 
REMARK    3  A    between atoms: O_14  and  C_8 
REMARK    4  A    between atoms: C_19  and  O_14 
ROOT
ATOM      1  C   UNL d   1       0.229  -0.847   0.032  0.00  0.00     0.051 A 
ATOM      2  C   UNL d   1       1.379  -1.627   0.082  0.00  0.00     0.087 A 
ATOM      3  C   UNL d   1       0.519   0.577   0.013  0.00  0.00    -0.018 A 
ATOM      4  C   UNL d   1       1.881   0.830  -0.013  0.00  0.00     0.089 A 
ATOM      5  S   UNL d   1       2.767  -0.616   0.155  0.00  0.00    -0.065 SA
ATOM      6  C   UNL d   1      -1.159  -1.332   0.013  0.00  0.00     0.163 C 
ATOM      7  C   UNL d   1      -0.573   1.618  -0.039  0.00  0.00     0.050 C 
ATOM      8  C   UNL d   1      -1.963   1.061   0.366  0.00  0.00    -0.037 C 
ATOM      9  C   UNL d   1      -2.214  -0.292  -0.331  0.00  0.00     0.093 C 
ATOM     10  O   UNL d   1      -1.497  -2.495   0.214  0.00  0.00    -0.292 OA
ATOM     11  C   UNL d   1      -3.055   2.052  -0.079  0.00  0.00     0.015 C 
ATOM     12  C   UNL d   1      -2.063   0.901   1.898  0.00  0.00     0.015 C 
ENDROOT
BRANCH   2  13
ATOM     13  N   UNL d   1       1.481  -2.994   0.042  0.00  0.00    -0.374 N 
ATOM     14  C   UNL d   1       2.627  -3.721   0.605  0.00  0.00     0.123 C 
ATOM     15  C   UNL d   1       3.062  -4.670  -0.505  0.00  0.00     0.021 C 
ATOM     16  C   UNL d   1       1.747  -5.020  -1.171  0.00  0.00     0.021 C 
ATOM     17  C   UNL d   1       1.000  -3.690  -1.165  0.00  0.00     0.123 C 
ENDBRANCH   2  13
BRANCH   4  18
ATOM     18  C   UNL d   1       2.562   2.106  -0.197  0.00  0.00     0.300 C 
ATOM     19  O   UNL d   1       2.001   3.179  -0.398  0.00  0.00    -0.259 OA
BRANCH  18  20
ATOM     20  O   UNL d   1       3.917   1.940  -0.218  0.00  0.00    -0.317 OA
BRANCH  20  21
ATOM     21  C   UNL d   1       4.685   3.003  -0.794  0.00  0.00     0.174 C 
ATOM     22  C   UNL d   1       4.773   2.774  -2.293  0.00  0.00     0.034 C 
ENDBRANCH  20  21
ENDBRANCH  18  20
ENDBRANCH   4  18
TORSDOF 4
