REMARK  4 active torsions:
REMARK  status: ('A' for Active; 'I' for Inactive)
REMARK    1  A    between atoms: C_8  and  S_1 
REMARK    2  A    between atoms: O_9  and  S_1 
REMARK    3  A    between atoms: C_10  and  C_2 
REMARK    4  A    between atoms: C_3  and  O_9 
ROOT
ATOM      1  O   UNL d   1       0.353   1.152  -1.037  0.00  0.00    -0.209 OA
ENDROOT
BRANCH   1   2
ATOM      2  C   UNL d   1       0.842   2.398  -1.046  0.00  0.00     0.177 A 
ATOM      3  C   UNL d   1       1.960   2.974  -0.419  0.00  0.00     0.094 A 
ATOM      4  C   UNL d   1       1.872   4.324  -0.717  0.00  0.00     0.138 A 
ATOM      5  N   UNL d   1       0.782   4.449  -1.540  0.00  0.00    -0.290 N 
ATOM      6  N   UNL d   1       0.148   3.280  -1.760  0.00  0.00    -0.277 N 
ATOM      7  C   UNL d   1       0.222   5.651  -2.117  0.00  0.00     0.178 C 
ATOM      8  HN  UNL d   1      -0.674   3.111  -2.340  1.00  0.00     0.189 HD
BRANCH   4   9
ATOM      9  C   UNL d   1       2.693   5.463  -0.257  0.00  0.00     0.434 C 
ATOM     10  F   UNL d   1       2.249   6.664  -0.703  0.00  0.00    -0.165 F 
ATOM     11  F   UNL d   1       2.710   5.538   1.097  0.00  0.00    -0.165 F 
ATOM     12  F   UNL d   1       3.982   5.349  -0.663  0.00  0.00    -0.165 F 
ENDBRANCH   4   9
ENDBRANCH   1   2
BRANCH   1  13
ATOM     13  S   UNL d   1       0.979  -0.004  -0.087  0.00  0.00     0.306 S 
ATOM     14  O   UNL d   1       2.289  -0.343  -0.615  0.00  0.00    -0.193 OA
ATOM     15  O   UNL d   1       0.833   0.357   1.312  0.00  0.00    -0.193 OA
BRANCH  13  16
ATOM     16  C   UNL d   1      -0.065  -1.417  -0.375  0.00  0.00     0.108 A 
ATOM     17  C   UNL d   1      -1.430  -1.386  -0.075  0.00  0.00     0.059 A 
ATOM     18  C   UNL d   1      -2.212  -2.529  -0.296  0.00  0.00     0.049 A 
ATOM     19 CL   UNL d   1      -2.242  -0.001   0.557  0.00  0.00    -0.083 Cl
ATOM     20  C   UNL d   1      -1.634  -3.683  -0.821  0.00  0.00     0.035 A 
ATOM     21  C   UNL d   1      -0.276  -3.716  -1.125  0.00  0.00     0.025 A 
ATOM     22 CL   UNL d   1      -2.602  -5.077  -1.098  0.00  0.00    -0.084 Cl
ATOM     23  C   UNL d   1       0.511  -2.585  -0.899  0.00  0.00     0.029 A 
ENDBRANCH  13  16
ENDBRANCH   1  13
TORSDOF 4
