REMARK  6 active torsions:
REMARK  status: ('A' for Active; 'I' for Inactive)
REMARK    1  A    between atoms: C_2  and  C_10 
REMARK       I    between atoms: C_10  and  N_18 
REMARK    2  A    between atoms: C_24  and  C_14 
REMARK    3  A    between atoms: N_18  and  C_25 
REMARK    4  A    between atoms: S_23  and  C_24 
REMARK    5  A    between atoms: C_26  and  S_23 
REMARK    6  A    between atoms: C_25  and  C_26 
ROOT
ATOM      1  C   UNL d   1      -6.451  -0.987   0.161  0.00  0.00     0.093 C 
ENDROOT
BRANCH   1   2
ATOM      2  C   UNL d   1      -7.662  -0.052   0.164  0.00  0.00     0.133 C 
BRANCH   2   3
ATOM      3  N   UNL d   1      -8.936  -0.747   0.064  0.00  0.00    -0.356 N 
ATOM      4  C   UNL d   1      -9.674  -1.088   1.175  0.00  0.00     0.253 C 
ATOM      5  O   UNL d   1      -9.233  -0.988   2.315  0.00  0.00    -0.268 OA
ATOM      6  H   UNL d   1      -9.338  -0.865  -0.858  0.00  0.00     0.162 HD
BRANCH   4   7
ATOM      7  C   UNL d   1     -11.095  -1.506   0.965  0.00  0.00     0.053 A 
ATOM      8  C   UNL d   1     -11.613  -2.103  -0.195  0.00  0.00     0.051 A 
ATOM      9  C   UNL d   1     -12.981  -2.399  -0.287  0.00  0.00     0.048 A 
ATOM     10 CL   UNL d   1     -10.647  -2.543  -1.561  0.00  0.00    -0.083 Cl
ATOM     11  C   UNL d   1     -13.834  -2.114   0.776  0.00  0.00     0.035 A 
ATOM     12  C   UNL d   1     -13.337  -1.542   1.941  0.00  0.00     0.025 A 
ATOM     13 CL   UNL d   1     -15.511  -2.473   0.648  0.00  0.00    -0.084 Cl
ATOM     14  C   UNL d   1     -11.974  -1.243   2.035  0.00  0.00     0.020 A 
ENDBRANCH   4   7
ENDBRANCH   2   3
ENDBRANCH   1   2
BRANCH   1  15
ATOM     15  S   UNL d   1      -4.935   0.032   0.189  0.00  0.00    -0.163 SA
BRANCH  15  16
ATOM     16  C   UNL d   1      -3.676  -1.280   0.159  0.00  0.00     0.112 C 
BRANCH  16  17
ATOM     17  C   UNL d   1      -2.285  -0.671   0.193  0.00  0.00    -0.046 A 
ATOM     18  C   UNL d   1      -1.665  -0.300  -1.026  0.00  0.00     0.041 A 
ATOM     19  C   UNL d   1      -0.403   0.310  -0.898  0.00  0.00     0.085 A 
ATOM     20  C   UNL d   1       0.222   0.541   0.396  0.00  0.00     0.085 A 
ATOM     21  N   UNL d   1       0.418   0.769  -1.850  0.00  0.00    -0.240 N 
ATOM     22  N   UNL d   1       1.405   1.133   0.192  0.00  0.00    -0.240 N 
ATOM     23  C   UNL d   1      -0.394   0.172   1.604  0.00  0.00     0.034 A 
ATOM     24  O   UNL d   1       1.521   1.276  -1.182  0.00  0.00    -0.156 OA
ATOM     25  HN  UNL d   1       2.081   1.420   0.900  1.00  0.00     0.197 HD
ATOM     26  C   UNL d   1      -1.659  -0.432   1.458  0.00  0.00     0.010 A 
ATOM     27  HN  UNL d   1       0.263   0.750  -2.858  1.00  0.00     0.197 HD
ENDBRANCH  16  17
ENDBRANCH  15  16
ENDBRANCH   1  15
TORSDOF 6
