REMARK  4 active torsions:
REMARK  status: ('A' for Active; 'I' for Inactive)
REMARK    1  A    between atoms: C_2  and  C_1 
REMARK    2  A    between atoms: C_3  and  C_7 
REMARK    3  A    between atoms: S_10  and  C_6 
REMARK    4  A    between atoms: C_7  and  S_10 
ROOT
ATOM      1  C   UNL d   1       0.977   1.445   1.102  0.00  0.00     0.065 A 
ATOM      2  N   UNL d   1       0.771   2.505   3.265  0.00  0.00    -0.358 N 
ATOM      3  HN  UNL d   1       1.117   3.182   3.945  1.00  0.00     0.166 HD
ATOM      4  C   UNL d   1      -0.324   1.745   3.533  0.00  0.00     0.091 A 
ATOM      5  C   UNL d   1      -0.154   0.673   1.384  0.00  0.00     0.044 A 
ATOM      6  C   UNL d   1      -0.813   0.817   2.610  0.00  0.00     0.068 A 
ATOM      7  C   UNL d   1       1.392   2.340   2.073  0.00  0.00     0.105 A 
ATOM      8 CL   UNL d   1      -2.202  -0.171   2.891  0.00  0.00    -0.081 Cl
ENDROOT
BRANCH   4   9
ATOM      9  S   UNL d   1      -1.055   1.979   5.156  0.00  0.00    -0.106 SA
BRANCH   9  10
ATOM     10  C   UNL d   1      -0.491   3.674   5.512  0.00  0.00     0.123 C 
BRANCH  10  11
ATOM     11  C   UNL d   1      -0.977   4.197   6.847  0.00  0.00    -0.005 A 
ATOM     12  C   UNL d   1      -0.178   4.108   8.005  0.00  0.00     0.042 A 
ATOM     13 CL   UNL d   1       1.367   3.329   8.006  0.00  0.00    -0.084 Cl
ATOM     14  C   UNL d   1      -0.597   4.665   9.222  0.00  0.00     0.024 A 
ATOM     15  C   UNL d   1      -1.827   5.309   9.315  0.00  0.00     0.003 A 
ATOM     16  C   UNL d   1      -2.647   5.378   8.194  0.00  0.00     0.024 A 
ATOM     17  C   UNL d   1      -2.232   4.825   6.975  0.00  0.00     0.042 A 
ATOM     18 CL   UNL d   1      -3.328   4.974   5.643  0.00  0.00    -0.084 Cl
ENDBRANCH  10  11
ENDBRANCH   9  10
ENDBRANCH   4   9
BRANCH   1  19
ATOM     19  C   UNL d   1       1.744   1.335  -0.181  0.00  0.00     0.418 C 
ATOM     20  F   UNL d   1       1.223   0.425  -1.048  0.00  0.00    -0.166 F 
ATOM     21  F   UNL d   1       3.038   0.964   0.019  0.00  0.00    -0.166 F 
ATOM     22  F   UNL d   1       1.793   2.513  -0.858  0.00  0.00    -0.166 F 
ENDBRANCH   1  19
TORSDOF 4
