REMARK  6 active torsions:
REMARK  status: ('A' for Active; 'I' for Inactive)
REMARK    1  A    between atoms: C_5  and  S_1 
REMARK    2  A    between atoms: C_6  and  S_1 
REMARK    3  A    between atoms: C_4  and  C_6 
REMARK    4  A    between atoms: C_22  and  C_7 
REMARK    5  A    between atoms: C_11  and  O_14 
REMARK    6  A    between atoms: O_14  and  C_22 
ROOT
ATOM      1  N   UNL d   1       0.176   2.697  -2.840  0.00  0.00    -0.324 N 
ATOM      2  HN  UNL d   1      -0.777   2.667  -3.202  1.00  0.00     0.169 HD
ATOM      3  C   UNL d   1       0.784   1.838  -2.053  0.00  0.00     0.162 A 
ATOM      4  C   UNL d   1       1.149   3.648  -3.053  0.00  0.00     0.128 A 
ATOM      5  N   UNL d   1       2.301   3.413  -2.412  0.00  0.00    -0.245 N 
ATOM      6  HN  UNL d   1       3.148   3.981  -2.404  1.00  0.00     0.196 HD
ATOM      7  O   UNL d   1       2.065   2.202  -1.756  0.00  0.00    -0.222 OA
ENDROOT
BRANCH   3   8
ATOM      8  C   UNL d   1       0.291   0.520  -1.634  0.00  0.00     0.232 C 
BRANCH   8   9
ATOM      9  S   UNL d   1       0.802   0.102  -0.005  0.00  0.00     0.183 S 
ATOM     10  O   UNL d   1      -0.017  -1.013   0.448  0.00  0.00    -0.222 OA
ATOM     11  O   UNL d   1       2.247  -0.056  -0.012  0.00  0.00    -0.222 OA
BRANCH   9  12
ATOM     12  C   UNL d   1       0.406   1.477   1.073  0.00  0.00     0.066 A 
ATOM     13  C   UNL d   1       1.487   2.124   1.705  0.00  0.00     0.032 A 
ATOM     14  C   UNL d   1       1.279   3.149   2.641  0.00  0.00    -0.039 A 
ATOM     15  C   UNL d   1       2.459   3.804   3.302  0.00  0.00     0.050 C 
ATOM     16  C   UNL d   1      -0.036   3.507   2.952  0.00  0.00     0.040 A 
ATOM     17  C   UNL d   1      -1.111   2.875   2.319  0.00  0.00     0.032 A 
ATOM     18 CL   UNL d   1      -0.392   4.718   4.131  0.00  0.00    -0.084 Cl
ATOM     19  C   UNL d   1      -0.916   1.851   1.371  0.00  0.00    -0.039 A 
ATOM     20  C   UNL d   1      -2.160   1.259   0.774  0.00  0.00     0.050 C 
ENDBRANCH   9  12
ENDBRANCH   8   9
ENDBRANCH   3   8
BRANCH   4  21
ATOM     21  C   UNL d   1       0.951   4.749  -4.042  0.00  0.00     0.254 C 
BRANCH  21  22
ATOM     22  O   UNL d   1       0.953   6.039  -3.441  0.00  0.00    -0.340 OA
BRANCH  22  23
ATOM     23  C   UNL d   1       0.791   7.168  -4.205  0.00  0.00     0.112 A 
ATOM     24  C   UNL d   1       0.224   7.298  -5.488  0.00  0.00     0.069 A 
ATOM     25 CL   UNL d   1      -0.349   6.004  -6.483  0.00  0.00    -0.081 Cl
ATOM     26  C   UNL d   1       0.060   8.568  -6.069  0.00  0.00     0.027 A 
ATOM     27  C   UNL d   1       0.463   9.722  -5.405  0.00  0.00     0.003 A 
ATOM     28  C   UNL d   1       1.048   9.614  -4.152  0.00  0.00     0.027 A 
ATOM     29  C   UNL d   1       1.208   8.355  -3.561  0.00  0.00     0.069 A 
ATOM     30 CL   UNL d   1       1.959   8.316  -1.997  0.00  0.00    -0.081 Cl
ENDBRANCH  22  23
ENDBRANCH  21  22
ENDBRANCH   4  21
TORSDOF 6
