REMARK  4 active torsions:
REMARK  status: ('A' for Active; 'I' for Inactive)
REMARK    1  A    between atoms: N_2  and  S_1 
REMARK    2  A    between atoms: C_4  and  S_1 
REMARK    3  A    between atoms: S_6  and  N_2 
REMARK    4  A    between atoms: C_17  and  S_6 
ROOT
ATOM      1  S   UNL d   1       1.042  -0.005  -0.062  0.00  0.00     0.271 S 
ATOM      2  O   UNL d   1       2.182  -0.833  -0.406  0.00  0.00    -0.200 OA
ATOM      3  O   UNL d   1       1.118   1.426  -0.288  0.00  0.00    -0.200 OA
ENDROOT
BRANCH   1   4
ATOM      4  N   UNL d   1       0.592  -0.278   1.545  0.00  0.00    -0.236 N 
ATOM      5  HN  UNL d   1       0.121   0.464   2.062  1.00  0.00     0.189 HD
BRANCH   4   6
ATOM      6  S   UNL d   1       0.898  -1.721   2.300  0.00  0.00     0.061 S 
ATOM      7  O   UNL d   1       0.399  -2.852   1.553  0.00  0.00    -0.244 OA
ATOM      8  C   UNL d   1       0.105  -1.605   3.876  0.00  0.00     0.143 C 
BRANCH   6   9
ATOM      9  C   UNL d   1       2.623  -1.798   2.570  0.00  0.00     0.038 A 
ATOM     10  C   UNL d   1       3.247  -0.819   3.348  0.00  0.00     0.022 A 
ATOM     11  C   UNL d   1       4.624  -0.892   3.566  0.00  0.00     0.001 A 
ATOM     12  C   UNL d   1       5.365  -1.935   3.009  0.00  0.00     0.000 A 
ATOM     13  C   UNL d   1       4.734  -2.906   2.230  0.00  0.00     0.001 A 
ATOM     14  C   UNL d   1       3.358  -2.841   2.011  0.00  0.00     0.022 A 
ENDBRANCH   6   9
ENDBRANCH   4   6
ENDBRANCH   1   4
BRANCH   1  15
ATOM     15  C   UNL d   1      -0.330  -0.590  -0.989  0.00  0.00     0.109 A 
ATOM     16  C   UNL d   1      -1.622  -0.039  -0.842  0.00  0.00     0.090 A 
ATOM     17  N   UNL d   1      -2.028   0.885   0.044  0.00  0.00    -0.309 N 
ATOM     18  C   UNL d   1      -2.742  -0.493  -1.754  0.00  0.00     0.068 A 
ATOM     19  S   UNL d   1      -3.629   1.188  -0.271  0.00  0.00     0.068 SA
ATOM     20  HN  UNL d   1      -1.460   1.319   0.772  1.00  0.00     0.176 HD
ATOM     21  N   UNL d   1      -3.905   0.132  -1.519  0.00  0.00    -0.310 N 
ATOM     22  HN  UNL d   1      -4.786  -0.015  -2.011  1.00  0.00     0.176 HD
ATOM     23  C   UNL d   1      -2.522  -1.476  -2.750  0.00  0.00     0.032 A 
ATOM     24  C   UNL d   1      -1.221  -2.000  -2.830  0.00  0.00     0.004 A 
ATOM     25  C   UNL d   1      -0.166  -1.576  -1.988  0.00  0.00     0.028 A 
ENDBRANCH   1  15
TORSDOF 4
