REMARK  5 active torsions:
REMARK  status: ('A' for Active; 'I' for Inactive)
REMARK    1  A    between atoms: N_5  and  C_1 
REMARK    2  A    between atoms: C_4  and  C_6 
REMARK    3  A    between atoms: C_7  and  C_15 
REMARK       I    between atoms: N_11  and  C_7 
REMARK    4  A    between atoms: C_29  and  N_11 
REMARK    5  A    between atoms: C_28  and  C_29 
ROOT
ATOM      1  N   UNL d   1       0.470   2.684  -0.187  0.00  0.00    -0.255 NA
ATOM      2  C   UNL d   1       0.011   5.528   0.141  0.00  0.00     0.080 C 
ATOM      3  C   UNL d   1      -0.018   3.164   1.107  0.00  0.00     0.099 C 
ATOM      4  C   UNL d   1       0.069   3.475  -1.352  0.00  0.00     0.099 C 
ATOM      5  C   UNL d   1       0.515   4.927  -1.175  0.00  0.00     0.029 C 
ATOM      6  C   UNL d   1       0.414   4.620   1.311  0.00  0.00     0.029 C 
ENDROOT
BRANCH   2   7
ATOM      7  C   UNL d   1      -1.496   5.793   0.113  0.00  0.00     0.222 C 
ATOM      8  N   UNL d   1      -1.891   6.712  -0.833  0.00  0.00    -0.356 N 
ATOM      9  H   UNL d   1      -1.197   7.180  -1.399  0.00  0.00     0.162 HD
ATOM     10  O   UNL d   1      -2.286   5.248   0.878  0.00  0.00    -0.273 OA
BRANCH   8  11
ATOM     11  C   UNL d   1      -3.280   7.059  -1.043  0.00  0.00     0.161 C 
BRANCH  11  12
ATOM     12  C   UNL d   1      -3.692   6.728  -2.455  0.00  0.00    -0.038 A 
ATOM     13  C   UNL d   1      -3.511   7.662  -3.489  0.00  0.00     0.048 A 
ATOM     14  C   UNL d   1      -3.827   7.277  -4.775  0.00  0.00     0.105 A 
ATOM     15  O   UNL d   1      -3.679   8.041  -5.891  0.00  0.00    -0.323 OA
ATOM     16  C   UNL d   1      -4.320   6.025  -5.059  0.00  0.00     0.105 A 
ATOM     17  C   UNL d   1      -4.053   7.095  -6.915  0.00  0.00     0.352 A 
ATOM     18  O   UNL d   1      -4.541   5.844  -6.389  0.00  0.00    -0.323 OA
ATOM     19  C   UNL d   1      -4.534   5.090  -4.071  0.00  0.00     0.040 A 
ATOM     20  C   UNL d   1      -4.207   5.445  -2.758  0.00  0.00     0.012 A 
ENDBRANCH  11  12
ENDBRANCH   8  11
ENDBRANCH   2   7
BRANCH   1  21
ATOM     21  C   UNL d   1       0.336   1.304  -0.364  0.00  0.00     0.159 A 
ATOM     22  N   UNL d   1       0.210   0.826  -1.609  0.00  0.00    -0.329 N 
ATOM     23  C   UNL d   1       0.129  -0.517  -1.800  0.00  0.00     0.120 A 
ATOM     24  HN  UNL d   1       0.176   1.462  -2.405  1.00  0.00     0.168 HD
ATOM     25  C   UNL d   1       0.182  -1.403  -0.745  0.00  0.00     0.051 A 
ATOM     26  C   UNL d   1       0.314  -0.836   0.497  0.00  0.00     0.093 A 
ATOM     27  N   UNL d   1       0.389   0.491   0.703  0.00  0.00    -0.343 N 
ATOM     28  HN  UNL d   1       0.483   0.870   1.645  1.00  0.00     0.167 HD
BRANCH  23  29
ATOM     29  C   UNL d   1      -0.019  -1.047  -3.213  0.00  0.00     0.432 C 
ATOM     30  F   UNL d   1      -0.084  -0.080  -4.173  0.00  0.00    -0.165 F 
ATOM     31  F   UNL d   1       1.014  -1.861  -3.576  0.00  0.00    -0.165 F 
ATOM     32  F   UNL d   1      -1.148  -1.800  -3.371  0.00  0.00    -0.165 F 
ENDBRANCH  23  29
ENDBRANCH   1  21
TORSDOF 5
