REMARK  3 active torsions:
REMARK  status: ('A' for Active; 'I' for Inactive)
REMARK    1  A    between atoms: C_2  and  C_1 
REMARK    2  A    between atoms: N_3  and  C_6 
REMARK    3  A    between atoms: O_19  and  C_14 
ROOT
ATOM      1  N   UNL d   1       1.770   0.041  -2.373  0.00  0.00    -0.358 N 
ATOM      2  HN  UNL d   1       1.154   0.833  -2.561  1.00  0.00     0.166 HD
ATOM      3  C   UNL d   1       2.995   0.151  -2.781  0.00  0.00     0.020 C 
ATOM      4  C   UNL d   1       3.429   1.495  -3.229  0.00  0.00    -0.007 C 
ATOM      5  C   UNL d   1       4.633   1.989  -2.706  0.00  0.00    -0.043 C 
ATOM      6  C   UNL d   1       2.570   2.298  -3.977  0.00  0.00     0.017 C 
ATOM      7  C   UNL d   1       4.871   3.365  -2.807  0.00  0.00     0.044 C 
ATOM      8  C   UNL d   1       3.954   4.200  -3.454  0.00  0.00     0.068 C 
ATOM      9  C   UNL d   1       2.855   3.651  -4.120  0.00  0.00     0.037 C 
ATOM     10  C   UNL d   1       4.120  -0.852  -2.707  0.00  0.00     0.058 C 
ATOM     11  C   UNL d   1       5.660   1.070  -2.091  0.00  0.00     0.040 C 
ATOM     12  C   UNL d   1       5.124  -0.310  -1.691  0.00  0.00     0.011 C 
ENDROOT
BRANCH   1  13
ATOM     13  C   UNL d   1       1.203  -1.044  -1.706  0.00  0.00     0.047 A 
ATOM     14  C   UNL d   1      -0.137  -1.388  -1.944  0.00  0.00     0.074 A 
ATOM     15  C   UNL d   1      -0.721  -2.457  -1.225  0.00  0.00     0.018 A 
ATOM     16  C   UNL d   1      -0.010  -3.135  -0.238  0.00  0.00     0.001 A 
ATOM     17  C   UNL d   1       1.283  -2.740   0.062  0.00  0.00     0.002 A 
ATOM     18  C   UNL d   1       1.865  -1.690  -0.649  0.00  0.00     0.030 A 
BRANCH  14  19
ATOM     19  C   UNL d   1      -1.017  -0.647  -2.921  0.00  0.00     0.419 C 
ATOM     20  F   UNL d   1      -0.570   0.556  -3.376  0.00  0.00    -0.166 F 
ATOM     21  F   UNL d   1      -2.248  -0.381  -2.382  0.00  0.00    -0.166 F 
ATOM     22  F   UNL d   1      -1.278  -1.391  -4.037  0.00  0.00    -0.166 F 
ENDBRANCH  14  19
ENDBRANCH   1  13
BRANCH   8  23
ATOM     23  O   UNL d   1       4.204   5.545  -3.382  0.00  0.00    -0.356 OA
ATOM     24  C   UNL d   1       3.025   6.354  -3.354  0.00  0.00     0.210 C 
ENDBRANCH   8  23
TORSDOF 3
