REMARK  6 active torsions:
REMARK  status: ('A' for Active; 'I' for Inactive)
REMARK    1  A    between atoms: C_8  and  N_1 
REMARK    2  A    between atoms: C_9  and  C_2 
REMARK    3  A    between atoms: S_10  and  C_5 
REMARK    4  A    between atoms: C_11  and  C_8 
REMARK    5  A    between atoms: O_18  and  C_11 
REMARK    6  A    between atoms: O_19  and  C_11 
ROOT
ATOM      1  N   UNL d   1      -0.148  -1.121  -0.186  0.00  0.00    -0.306 N 
ATOM      2  C   UNL d   1       1.054  -0.464  -0.407  0.00  0.00     0.134 A 
ATOM      3  N   UNL d   1       0.826   0.837  -0.302  0.00  0.00    -0.283 N 
ATOM      4  HN  UNL d   1       1.536   1.567  -0.363  1.00  0.00     0.188 HD
ATOM      5  C   UNL d   1      -1.087  -0.122  -0.051  0.00  0.00     0.162 A 
ATOM      6  N   UNL d   1      -0.507   1.048  -0.097  0.00  0.00    -0.278 N 
ATOM      7  HN  UNL d   1      -0.966   1.954   0.002  1.00  0.00     0.189 HD
ENDROOT
BRANCH   2   8
ATOM      8  C   UNL d   1       2.396  -0.997  -0.707  0.00  0.00     0.010 A 
ATOM      9  C   UNL d   1       2.642  -2.198  -1.379  0.00  0.00     0.017 A 
ATOM     10  C   UNL d   1       3.950  -2.607  -1.677  0.00  0.00     0.025 A 
ATOM     11  C   UNL d   1       5.031  -1.796  -1.335  0.00  0.00     0.034 A 
ATOM     12  C   UNL d   1       4.816  -0.589  -0.688  0.00  0.00     0.025 A 
ATOM     13 CL   UNL d   1       6.628  -2.284  -1.743  0.00  0.00    -0.084 Cl
ATOM     14  C   UNL d   1       3.510  -0.197  -0.373  0.00  0.00     0.017 A 
ENDBRANCH   2   8
BRANCH   1  15
ATOM     15  C   UNL d   1      -0.424  -2.542  -0.183  0.00  0.00     0.193 C 
BRANCH  15  16
ATOM     16  C   UNL d   1       0.269  -3.364   0.917  0.00  0.00     0.276 C 
BRANCH  16  17
ATOM     17  O   UNL d   1      -0.180  -2.875   2.186  0.00  0.00    -0.364 OA
ATOM     18  C   UNL d   1       0.468  -3.521   3.273  0.00  0.00     0.204 C 
ENDBRANCH  16  17
BRANCH  16  19
ATOM     19  O   UNL d   1      -0.087  -4.749   0.809  0.00  0.00    -0.364 OA
ATOM     20  C   UNL d   1       0.401  -5.400  -0.354  0.00  0.00     0.204 C 
ENDBRANCH  16  19
ENDBRANCH  15  16
ENDBRANCH   1  15
BRANCH   5  21
ATOM     21  S   UNL d   1      -2.794  -0.380   0.097  0.00  0.00    -0.097 SA
ATOM     22  C   UNL d   1      -3.403   1.319  -0.006  0.00  0.00     0.099 C 
ENDBRANCH   5  21
TORSDOF 6
