REMARK  4 active torsions:
REMARK  status: ('A' for Active; 'I' for Inactive)
REMARK    1  A    between atoms: C_5  and  N_1 
REMARK    2  A    between atoms: C_2  and  C_7 
REMARK    3  A    between atoms: C_9  and  C_2 
REMARK    4  A    between atoms: C_14  and  C_2 
ROOT
ATOM      1  C   UNL d   1      -2.106   2.140   4.280  0.00  0.00     0.103 C 
ATOM      2  C   UNL d   1      -3.460   2.536   3.765  0.00  0.00     0.079 C 
ATOM      3  N   UNL d   1      -4.508   2.841   3.367  0.00  0.00    -0.196 NA
ENDROOT
BRANCH   1   4
ATOM      4  C   UNL d   1      -1.227   1.617   3.101  0.00  0.00    -0.031 A 
ATOM      5  C   UNL d   1       0.173   1.791   3.081  0.00  0.00     0.012 A 
ATOM      6  C   UNL d   1       0.955   1.346   2.009  0.00  0.00     0.037 A 
ATOM      7  C   UNL d   1       0.344   0.709   0.927  0.00  0.00     0.102 A 
ATOM      8  C   UNL d   1      -1.036   0.495   0.924  0.00  0.00     0.037 A 
ATOM      9  C   UNL d   1      -1.808   0.933   2.010  0.00  0.00     0.012 A 
BRANCH   7  10
ATOM     10  N   UNL d   1       1.158   0.263  -0.211  0.00  0.00    -0.116 N 
ATOM     11  O   UNL d   1       0.577  -0.286  -1.157  0.00  0.00    -0.532 OA
ATOM     12  O   UNL d   1       2.380   0.465  -0.157  0.00  0.00    -0.532 OA
ENDBRANCH   7  10
ENDBRANCH   1   4
BRANCH   1  13
ATOM     13  C   UNL d   1      -2.215   1.061   5.404  0.00  0.00    -0.031 A 
ATOM     14  C   UNL d   1      -1.056   0.561   6.035  0.00  0.00     0.009 A 
ATOM     15  C   UNL d   1      -1.131  -0.348   7.095  0.00  0.00     0.001 A 
ATOM     16  C   UNL d   1      -2.369  -0.784   7.553  0.00  0.00     0.000 A 
ATOM     17  C   UNL d   1      -3.529  -0.320   6.944  0.00  0.00     0.001 A 
ATOM     18  C   UNL d   1      -3.455   0.587   5.881  0.00  0.00     0.009 A 
ENDBRANCH   1  13
BRANCH   1  19
ATOM     19  C   UNL d   1      -1.523   3.440   4.952  0.00  0.00     0.030 C 
ATOM     20  C   UNL d   1      -1.368   4.650   4.027  0.00  0.00     0.007 C 
ENDBRANCH   1  19
TORSDOF 4
