REMARK  4 active torsions:
REMARK  status: ('A' for Active; 'I' for Inactive)
REMARK    1  A    between atoms: S_2  and  N_1 
REMARK    2  A    between atoms: C_8  and  S_2 
REMARK    3  A    between atoms: S_12  and  C_5 
REMARK    4  A    between atoms: C_11  and  C_7 
ROOT
ATOM      1  N   UNL d   1       0.930  -0.688  -0.034  0.00  0.00    -0.170 N 
ATOM      2  N   UNL d   1       0.947   0.677  -0.055  0.00  0.00    -0.283 N 
ATOM      3  HN  UNL d   1       1.765   1.286  -0.094  1.00  0.00     0.188 HD
ATOM      4  C   UNL d   1      -0.351  -1.194   0.016  0.00  0.00     0.107 A 
ATOM      5  C   UNL d   1      -1.183  -0.097   0.031  0.00  0.00     0.071 A 
ATOM      6  C   UNL d   1      -0.340   1.046  -0.013  0.00  0.00     0.062 A 
ENDROOT
BRANCH   1   7
ATOM      7  S   UNL d   1       2.363  -1.647   0.041  0.00  0.00     0.283 S 
ATOM      8  O   UNL d   1       2.351  -2.268   1.355  0.00  0.00    -0.198 OA
ATOM      9  O   UNL d   1       2.406  -2.417  -1.188  0.00  0.00    -0.198 OA
BRANCH   7  10
ATOM     10  C   UNL d   1       3.675  -0.450   0.003  0.00  0.00     0.081 A 
ATOM     11  C   UNL d   1       4.183   0.057   1.203  0.00  0.00     0.026 A 
ATOM     12  C   UNL d   1       5.191   1.022   1.169  0.00  0.00     0.008 A 
ATOM     13  C   UNL d   1       5.700   1.476  -0.055  0.00  0.00    -0.062 A 
ATOM     14  C   UNL d   1       5.188   0.951  -1.250  0.00  0.00     0.008 A 
ATOM     15  C   UNL d   1       6.788   2.511  -0.072  0.00  0.00     0.048 C 
ATOM     16  C   UNL d   1       4.179  -0.013  -1.225  0.00  0.00     0.026 A 
ENDBRANCH   7  10
ENDBRANCH   1   7
BRANCH   4  17
ATOM     17  S   UNL d   1      -0.784  -2.875  -0.035  0.00  0.00    -0.114 SA
ATOM     18  C   UNL d   1      -0.919  -3.281   1.722  0.00  0.00     0.097 C 
ENDBRANCH   4  17
BRANCH   6  19
ATOM     19  C   UNL d   1      -0.726   2.463  -0.016  0.00  0.00    -0.008 A 
ATOM     20  C   UNL d   1       0.252   3.475  -0.095  0.00  0.00     0.017 A 
ATOM     21  C   UNL d   1      -0.114   4.824  -0.110  0.00  0.00     0.043 A 
ATOM     22  C   UNL d   1      -1.459   5.167  -0.047  0.00  0.00     0.116 A 
ATOM     23  C   UNL d   1      -2.440   4.191   0.043  0.00  0.00     0.043 A 
ATOM     24  F   UNL d   1      -1.812   6.459  -0.063  0.00  0.00    -0.206 F 
ATOM     25  C   UNL d   1      -2.074   2.842   0.057  0.00  0.00     0.017 A 
ENDBRANCH   6  19
TORSDOF 4
