REMARK  8 active torsions:
REMARK  status: ('A' for Active; 'I' for Inactive)
REMARK    1  A    between atoms: N_8  and  S_1 
REMARK    2  A    between atoms: C_14  and  S_1 
REMARK    3  A    between atoms: N_2  and  C_15 
REMARK    4  A    between atoms: C_10  and  C_6 
REMARK    5  A    between atoms: N_19  and  C_11 
REMARK    6  A    between atoms: S_26  and  C_11 
REMARK       I    between atoms: C_13  and  N_20 
REMARK       I    between atoms: N_21  and  C_13 
REMARK    7  A    between atoms: N_20  and  N_19 
REMARK    8  A    between atoms: C_34  and  N_21 
ROOT
ATOM      1  S   UNL d   1       0.862   0.027   0.031  0.00  0.00     0.264 S 
ATOM      2  O   UNL d   1       0.105   1.236  -0.241  0.00  0.00    -0.200 OA
ATOM      3  O   UNL d   1       2.307   0.086   0.147  0.00  0.00    -0.200 OA
ENDROOT
BRANCH   1   4
ATOM      4  N   UNL d   1       0.475  -1.101  -1.059  0.00  0.00    -0.263 N 
ATOM      5  C   UNL d   1       0.653  -0.822  -2.309  0.00  0.00     0.146 C 
ATOM      6  HN  UNL d   1       0.102  -2.005  -0.770  1.00  0.00     0.180 HD
BRANCH   5   7
ATOM      7  N   UNL d   1       1.172   0.342  -2.862  0.00  0.00    -0.180 NA
ATOM      8  H   UNL d   1       2.168   0.499  -2.658  0.00  0.00     0.155 HD
BRANCH   7   9
ATOM      9  N   UNL d   1       0.864   0.646  -4.216  0.00  0.00    -0.267 N 
ATOM     10  C   UNL d   1       1.909   1.142  -4.993  0.00  0.00     0.335 C 
ATOM     11  N   UNL d   1       1.458   1.506  -6.249  0.00  0.00    -0.308 N 
ATOM     12  O   UNL d   1       3.054   1.210  -4.561  0.00  0.00    -0.246 OA
ATOM     13  H   UNL d   1       0.506   1.242  -6.461  0.00  0.00     0.170 HD
ATOM     14  H   UNL d   1      -0.032   1.113  -4.312  0.00  0.00     0.186 HD
BRANCH  11  15
ATOM     15  C   UNL d   1       2.179   2.132  -7.286  0.00  0.00     0.036 A 
ATOM     16  C   UNL d   1       3.521   2.503  -7.189  0.00  0.00     0.031 A 
ATOM     17  C   UNL d   1       4.152   3.175  -8.243  0.00  0.00     0.026 A 
ATOM     18  C   UNL d   1       3.442   3.481  -9.400  0.00  0.00     0.034 A 
ATOM     19  C   UNL d   1       2.110   3.098  -9.523  0.00  0.00     0.026 A 
ATOM     20 CL   UNL d   1       4.207   4.346 -10.676  0.00  0.00    -0.084 Cl
ATOM     21  C   UNL d   1       1.483   2.421  -8.472  0.00  0.00     0.031 A 
ENDBRANCH  11  15
ENDBRANCH   7   9
ENDBRANCH   5   7
BRANCH   5  22
ATOM     22  S   UNL d   1       0.200  -2.107  -3.458  0.00  0.00    -0.102 SA
ATOM     23  C   UNL d   1      -1.094  -2.967  -2.547  0.00  0.00     0.098 C 
ENDBRANCH   5  22
ENDBRANCH   1   4
BRANCH   1  24
ATOM     24  C   UNL d   1       0.243  -0.600   1.590  0.00  0.00     0.080 A 
ATOM     25  C   UNL d   1       1.030  -1.452   2.372  0.00  0.00     0.027 A 
ATOM     26  C   UNL d   1       0.610  -1.794   3.665  0.00  0.00     0.033 A 
ATOM     27  C   UNL d   1      -0.605  -1.303   4.170  0.00  0.00     0.057 A 
ATOM     28  C   UNL d   1      -1.379  -0.440   3.380  0.00  0.00     0.033 A 
ATOM     29  C   UNL d   1      -0.961  -0.096   2.092  0.00  0.00     0.027 A 
BRANCH  27  30
ATOM     30  N   UNL d   1      -1.008  -1.628   5.501  0.00  0.00    -0.255 N 
ATOM     31  C   UNL d   1      -2.284  -1.668   6.056  0.00  0.00     0.076 C 
ATOM     32  C   UNL d   1      -2.091  -1.686   7.425  0.00  0.00     0.069 C 
ATOM     33  C   UNL d   1      -3.528  -1.736   5.329  0.00  0.00     0.033 A 
ATOM     34  C   UNL d   1      -0.695  -1.813   7.621  0.00  0.00     0.135 C 
ATOM     35  N   UNL d   1      -0.052  -1.888   6.438  0.00  0.00    -0.289 N 
ATOM     36  HN  UNL d   1       0.934  -2.094   6.279  1.00  0.00     0.187 HD
ATOM     37  S   UNL d   1      -4.961  -0.999   5.924  0.00  0.00    -0.100 SA
ATOM     38  C   UNL d   1      -3.769  -2.381   4.131  0.00  0.00     0.021 A 
ATOM     39  C   UNL d   1      -5.861  -1.475   4.551  0.00  0.00     0.050 A 
ATOM     40  C   UNL d   1      -5.101  -2.198   3.661  0.00  0.00     0.008 A 
BRANCH  34  41
ATOM     41  C   UNL d   1       0.004  -1.889   8.955  0.00  0.00     0.434 C 
ATOM     42  F   UNL d   1       1.356  -1.983   8.863  0.00  0.00    -0.165 F 
ATOM     43  F   UNL d   1      -0.259  -0.792   9.717  0.00  0.00    -0.165 F 
ATOM     44  F   UNL d   1      -0.416  -2.963   9.678  0.00  0.00    -0.165 F 
ENDBRANCH  34  41
ENDBRANCH  27  30
ENDBRANCH   1  24
TORSDOF 8
