REMARK  3 active torsions:
REMARK  status: ('A' for Active; 'I' for Inactive)
REMARK    1  A    between atoms: C_4  and  S_1 
REMARK    2  A    between atoms: C_5  and  S_1 
REMARK    3  A    between atoms: C_6  and  C_4 
ROOT
ATOM      1  C   UNL d   1      -0.994   0.512   1.574  0.00  0.00    -0.044 A 
ATOM      2  C   UNL d   1      -1.675  -0.636   2.002  0.00  0.00     0.008 A 
ATOM      3  C   UNL d   1      -1.738   1.659   1.256  0.00  0.00     0.008 A 
ATOM      4  C   UNL d   1      -3.068  -0.636   2.114  0.00  0.00     0.001 A 
ATOM      5  C   UNL d   1      -3.131   1.657   1.373  0.00  0.00     0.001 A 
ATOM      6  C   UNL d   1      -3.794   0.511   1.802  0.00  0.00     0.000 A 
ENDROOT
BRANCH   1   7
ATOM      7  C   UNL d   1       0.507   0.513   1.452  0.00  0.00     0.178 C 
BRANCH   7   8
ATOM      8  S   UNL d   1       0.989  -0.025  -0.189  0.00  0.00     0.148 S 
ATOM      9  O   UNL d   1       0.431   0.894  -1.166  0.00  0.00    -0.228 OA
ATOM     10  O   UNL d   1       0.778  -1.457  -0.293  0.00  0.00    -0.228 OA
BRANCH   8  11
ATOM     11  C   UNL d   1       2.754   0.244  -0.178  0.00  0.00     0.136 C 
ATOM     12  C   UNL d   1       3.363  -0.022  -1.543  0.00  0.00     0.021 C 
ENDBRANCH   8  11
ENDBRANCH   7   8
ENDBRANCH   1   7
TORSDOF 3
