REMARK  0 active torsions:
REMARK  status: ('A' for Active; 'I' for Inactive)
ROOT
ATOM      1  C   UNL d   1       0.193  -0.765   0.004  0.00  0.00     0.046 A 
ATOM      2  C   UNL d   1       0.443   0.659  -0.017  0.00  0.00    -0.014 A 
ATOM      3  C   UNL d   1       1.361  -1.501   0.071  0.00  0.00     0.101 A 
ATOM      4  C   UNL d   1       1.800   0.935  -0.016  0.00  0.00     0.093 A 
ATOM      5  S   UNL d   1       2.740  -0.489   0.062  0.00  0.00    -0.067 SA
ATOM      6  C   UNL d   1      -1.163  -1.311  -0.030  0.00  0.00     0.163 C 
ATOM      7  C   UNL d   1       1.479  -2.927   0.123  0.00  0.00     0.108 C 
ATOM      8  C   UNL d   1       2.397   2.234  -0.074  0.00  0.00     0.107 C 
ATOM      9  N   UNL d   1       1.625  -4.076   0.158  0.00  0.00    -0.191 NA
ATOM     10  N   UNL d   1       2.870   3.292  -0.129  0.00  0.00    -0.191 NA
ATOM     11  C   UNL d   1      -0.688   1.662  -0.057  0.00  0.00     0.050 C 
ATOM     12  C   UNL d   1      -2.054   1.041   0.357  0.00  0.00    -0.037 C 
ATOM     13  C   UNL d   1      -2.264  -0.316  -0.354  0.00  0.00     0.093 C 
ATOM     14  O   UNL d   1      -1.403  -2.501   0.141  0.00  0.00    -0.292 OA
ATOM     15  C   UNL d   1      -3.196   1.987  -0.058  0.00  0.00     0.015 C 
ATOM     16  C   UNL d   1      -2.125   0.857   1.889  0.00  0.00     0.015 C 
ENDROOT
TORSDOF 0
