REMARK  8 active torsions:
REMARK  status: ('A' for Active; 'I' for Inactive)
REMARK    1  A    between atoms: C_3  and  S_1 
REMARK    2  A    between atoms: N_9  and  S_1 
REMARK       I    between atoms: C_2  and  N_7 
REMARK    3  A    between atoms: C_10  and  C_2 
REMARK    4  A    between atoms: C_6  and  C_10 
REMARK    5  A    between atoms: C_12  and  C_6 
REMARK    6  A    between atoms: N_7  and  C_16 
REMARK    7  A    between atoms: C_8  and  C_12 
REMARK    8  A    between atoms: O_17  and  C_8 
ROOT
ATOM      1  C   UNL d   1      -0.291  -6.156  -0.655  0.00  0.00     0.222 C 
ATOM      2  N   UNL d   1      -1.012  -7.311  -0.394  0.00  0.00    -0.327 N 
ATOM      3  O   UNL d   1      -0.787  -5.117  -1.088  0.00  0.00    -0.273 OA
ATOM      4  H   UNL d   1      -0.488  -8.177  -0.353  0.00  0.00     0.169 HD
ENDROOT
BRANCH   2   5
ATOM      5  C   UNL d   1      -2.392  -7.398  -0.686  0.00  0.00     0.034 C 
ATOM      6  C   UNL d   1      -2.881  -8.585  -1.233  0.00  0.00     0.031 C 
ATOM      7  C   UNL d   1      -4.160  -8.610  -1.795  0.00  0.00     0.027 C 
ATOM      8  C   UNL d   1      -4.955  -7.459  -1.763  0.00  0.00     0.074 C 
ATOM      9  C   UNL d   1      -4.536  -6.322  -1.077  0.00  0.00     0.027 C 
ATOM     10  C   UNL d   1      -3.251  -6.298  -0.539  0.00  0.00     0.031 C 
BRANCH   8  11
ATOM     11  S   UNL d   1      -6.465  -7.421  -2.686  0.00  0.00     0.239 S 
ATOM     12  O   UNL d   1      -7.309  -6.378  -2.155  0.00  0.00    -0.206 OA
ATOM     13  O   UNL d   1      -6.932  -8.778  -2.876  0.00  0.00    -0.206 OA
BRANCH  11  14
ATOM     14  N   UNL d   1      -5.924  -6.845  -4.180  0.00  0.00    -0.225 NA
ATOM     15  H   UNL d   1      -4.967  -6.491  -4.133  0.00  0.00     0.136 HD
ATOM     16  H   UNL d   1      -6.555  -6.106  -4.495  0.00  0.00     0.136 HD
ENDBRANCH  11  14
ENDBRANCH   8  11
ENDBRANCH   2   5
BRANCH   1  17
ATOM     17  C   UNL d   1       1.214  -6.298  -0.455  0.00  0.00     0.113 C 
BRANCH  17  18
ATOM     18  C   UNL d   1       1.958  -4.931  -0.470  0.00  0.00    -0.023 C 
ATOM     19  C   UNL d   1       1.961  -4.336  -1.902  0.00  0.00     0.010 C 
ATOM     20  C   UNL d   1       3.161  -3.397  -1.976  0.00  0.00     0.001 C 
ATOM     21  C   UNL d   1       4.087  -3.810  -0.836  0.00  0.00     0.001 C 
ATOM     22  C   UNL d   1       3.480  -5.088  -0.255  0.00  0.00     0.010 C 
BRANCH  18  23
ATOM     23  C   UNL d   1       1.363  -3.921   0.557  0.00  0.00     0.119 C 
BRANCH  23  24
ATOM     24  C   UNL d   1       1.320  -4.418   1.991  0.00  0.00     0.140 C 
ATOM     25  O   UNL d   1       1.805  -5.460   2.401  0.00  0.00    -0.650 OA
BRANCH  24  26
ATOM     26  O   UNL d   1       0.679  -3.558   2.812  0.00  0.00    -0.776 OA
ATOM     27  H   UNL d   1       0.328  -2.768   2.356  0.00  0.00     0.167 HD
ENDBRANCH  24  26
ENDBRANCH  23  24
ENDBRANCH  18  23
ENDBRANCH  17  18
ENDBRANCH   1  17
TORSDOF 8
