REMARK  4 active torsions:
REMARK  status: ('A' for Active; 'I' for Inactive)
REMARK    1  A    between atoms: C_2  and  S_1 
REMARK    2  A    between atoms: C_10  and  S_1 
REMARK    3  A    between atoms: N_12  and  C_3 
REMARK    4  A    between atoms: C_11  and  N_12 
ROOT
ATOM      1  C   UNL d   1       0.406  -0.874  -1.508  0.00  0.00     0.159 C 
ATOM      2  C   UNL d   1      -0.332  -1.998  -1.433  0.00  0.00     0.124 C 
ATOM      3  C   UNL d   1       0.886  -0.173  -0.366  0.00  0.00     0.113 C 
ATOM      4  N   UNL d   1       1.274   0.344   0.598  0.00  0.00    -0.191 NA
ENDROOT
BRANCH   1   5
ATOM      5  S   UNL d   1       0.790  -0.240  -3.080  0.00  0.00     0.218 S 
ATOM      6  O   UNL d   1       0.853   1.209  -3.026  0.00  0.00    -0.216 OA
ATOM      7  O   UNL d   1      -0.035  -0.873  -4.098  0.00  0.00    -0.216 OA
BRANCH   5   8
ATOM      8  C   UNL d   1       2.452  -0.824  -3.377  0.00  0.00     0.065 A 
ATOM      9  C   UNL d   1       2.655  -2.070  -3.985  0.00  0.00     0.024 A 
ATOM     10  C   UNL d   1       3.950  -2.466  -4.328  0.00  0.00     0.002 A 
ATOM     11  C   UNL d   1       5.029  -1.619  -4.078  0.00  0.00     0.000 A 
ATOM     12  C   UNL d   1       4.821  -0.375  -3.481  0.00  0.00     0.002 A 
ATOM     13  C   UNL d   1       3.532   0.029  -3.131  0.00  0.00     0.024 A 
ENDBRANCH   5   8
ENDBRANCH   1   5
BRANCH   2  14
ATOM     14  N   UNL d   1      -0.802  -2.631  -0.306  0.00  0.00    -0.350 N 
ATOM     15  H   UNL d   1      -0.951  -2.061   0.524  0.00  0.00     0.166 HD
BRANCH  14  16
ATOM     16  C   UNL d   1      -1.544  -3.809  -0.207  0.00  0.00     0.104 A 
ATOM     17  N   UNL d   1      -2.350  -3.895   0.871  0.00  0.00    -0.351 N 
ATOM     18  C   UNL d   1      -3.102  -5.016   1.013  0.00  0.00     0.113 A 
ATOM     19  HN  UNL d   1      -2.392  -3.143   1.558  1.00  0.00     0.166 HD
ATOM     20  C   UNL d   1      -3.070  -6.081   0.131  0.00  0.00     0.049 A 
ATOM     21  C   UNL d   1      -2.215  -6.000  -0.957  0.00  0.00     0.029 A 
ATOM     22 CL   UNL d   1      -4.054  -7.464   0.372  0.00  0.00    -0.083 Cl
ATOM     23  C   UNL d   1      -1.446  -4.847  -1.132  0.00  0.00     0.050 A 
ENDBRANCH  14  16
ENDBRANCH   2  14
TORSDOF 4
