REMARK  4 active torsions:
REMARK  status: ('A' for Active; 'I' for Inactive)
REMARK    1  A    between atoms: C_17  and  N_1 
REMARK    2  A    between atoms: C_9  and  C_5 
REMARK    3  A    between atoms: C_7  and  C_8 
REMARK       I    between atoms: C_8  and  N_16 
REMARK    4  A    between atoms: N_16  and  C_28 
ROOT
ATOM      1  C   UNL d   1       2.004  -1.491   0.035  0.00  0.00     0.057 A 
ATOM      2  C   UNL d   1       2.002  -2.648  -0.752  0.00  0.00     0.034 A 
ATOM      3  C   UNL d   1       3.166  -1.130   0.721  0.00  0.00     0.034 A 
ATOM      4  C   UNL d   1       4.300  -3.119  -0.107  0.00  0.00     0.035 A 
ATOM      5  C   UNL d   1       4.296  -1.956   0.669  0.00  0.00     0.032 A 
ATOM      6  C   UNL d   1       3.143  -3.453  -0.821  0.00  0.00     0.032 A 
ENDROOT
BRANCH   1   7
ATOM      7  N   UNL d   1       0.840  -0.679   0.144  0.00  0.00    -0.255 N 
ATOM      8  C   UNL d   1      -0.494  -1.064   0.084  0.00  0.00     0.076 C 
ATOM      9  C   UNL d   1      -1.212   0.106  -0.056  0.00  0.00     0.069 C 
ATOM     10  C   UNL d   1      -0.993  -2.398   0.284  0.00  0.00     0.033 A 
ATOM     11  C   UNL d   1      -0.281   1.154   0.147  0.00  0.00     0.135 C 
ATOM     12  N   UNL d   1       0.959   0.663   0.338  0.00  0.00    -0.289 N 
ATOM     13  HN  UNL d   1       1.803   1.184   0.577  1.00  0.00     0.187 HD
ATOM     14  S   UNL d   1      -2.328  -3.010  -0.595  0.00  0.00    -0.100 SA
ATOM     15  C   UNL d   1      -0.534  -3.322   1.205  0.00  0.00     0.021 A 
ATOM     16  C   UNL d   1      -2.278  -4.502   0.240  0.00  0.00     0.050 A 
ATOM     17  C   UNL d   1      -1.267  -4.541   1.173  0.00  0.00     0.008 A 
BRANCH  11  18
ATOM     18  C   UNL d   1      -0.620   2.620   0.218  0.00  0.00     0.434 C 
ATOM     19  F   UNL d   1       0.431   3.415   0.546  0.00  0.00    -0.165 F 
ATOM     20  F   UNL d   1      -1.105   3.078  -0.969  0.00  0.00    -0.165 F 
ATOM     21  F   UNL d   1      -1.593   2.858   1.142  0.00  0.00    -0.165 F 
ENDBRANCH  11  18
ENDBRANCH   1   7
BRANCH   4  22
ATOM     22  N   UNL d   1       5.411  -3.982  -0.249  0.00  0.00    -0.323 N 
ATOM     23  C   UNL d   1       6.675  -3.808   0.283  0.00  0.00     0.260 C 
ATOM     24  O   UNL d   1       7.012  -2.880   1.008  0.00  0.00    -0.267 OA
ATOM     25  H   UNL d   1       5.287  -4.750  -0.891  0.00  0.00     0.169 HD
BRANCH  23  26
ATOM     26  C   UNL d   1       7.658  -4.796  -0.132  0.00  0.00     0.087 A 
ATOM     27  C   UNL d   1       7.506  -6.127  -0.472  0.00  0.00     0.090 A 
ATOM     28  O   UNL d   1       8.720  -6.651  -0.788  0.00  0.00    -0.242 OA
ATOM     29  C   UNL d   1       6.382  -7.080  -0.549  0.00  0.00     0.080 C 
ATOM     30  N   UNL d   1       9.697  -5.690  -0.653  0.00  0.00    -0.265 N 
ATOM     31  C   UNL d   1       9.064  -4.584  -0.246  0.00  0.00     0.047 A 
ATOM     32  HN  UNL d   1      10.697  -5.799  -0.827  1.00  0.00     0.194 HD
ATOM     33  C   UNL d   1       9.826  -3.332  -0.019  0.00  0.00     0.071 C 
ENDBRANCH  23  26
ENDBRANCH   4  22
TORSDOF 4
