REMARK  5 active torsions:
REMARK  status: ('A' for Active; 'I' for Inactive)
REMARK    1  A    between atoms: C_12  and  C_1 
REMARK    2  A    between atoms: S_16  and  C_5 
REMARK    3  A    between atoms: C_17  and  C_6 
REMARK    4  A    between atoms: C_15  and  C_19 
REMARK    5  A    between atoms: C_19  and  S_16 
ROOT
ATOM      1  C   UNL d   1       2.233  -2.884  -0.230  0.00  0.00     0.139 C 
ENDROOT
BRANCH   1   2
ATOM      2  C   UNL d   1       2.739  -4.317  -0.282  0.00  0.00     0.025 A 
ATOM      3  N   UNL d   1       4.107  -4.488  -0.207  0.00  0.00    -0.348 N 
ATOM      4  C   UNL d   1       4.580  -5.695  -0.156  0.00  0.00     0.091 A 
ATOM      5  HN  UNL d   1       4.733  -3.682  -0.192  1.00  0.00     0.167 HD
ATOM      6  N   UNL d   1       3.770  -6.800  -0.185  0.00  0.00    -0.312 N 
ATOM      7  C   UNL d   1       2.414  -6.711  -0.280  0.00  0.00     0.248 A 
ATOM      8  H   UNL d   1       4.145  -7.736  -0.157  0.00  0.00     0.170 HD
ATOM      9  C   UNL d   1       1.876  -5.346  -0.309  0.00  0.00     0.100 A 
ATOM     10  O   UNL d   1       1.682  -7.695  -0.330  0.00  0.00    -0.268 OA
BRANCH   4  11
ATOM     11  C   UNL d   1       6.098  -5.961  -0.063  0.00  0.00     0.008 C 
ATOM     12  C   UNL d   1       6.882  -4.636  -0.038  0.00  0.00     0.022 C 
ATOM     13  C   UNL d   1       6.422  -6.744   1.221  0.00  0.00     0.022 C 
ATOM     14  C   UNL d   1       6.553  -6.775  -1.285  0.00  0.00     0.022 C 
ENDBRANCH   4  11
ENDBRANCH   1   2
BRANCH   1  15
ATOM     15  S   UNL d   1       2.148  -2.157  -1.902  0.00  0.00    -0.086 SA
BRANCH  15  16
ATOM     16  C   UNL d   1       1.603  -0.550  -1.540  0.00  0.00     0.162 A 
ATOM     17  N   UNL d   1       1.352   0.413  -2.490  0.00  0.00    -0.312 N 
ATOM     18  C   UNL d   1       0.939   1.531  -1.789  0.00  0.00     0.209 A 
ATOM     19  C   UNL d   1       1.496   0.234  -3.912  0.00  0.00     0.160 C 
ATOM     20  N   UNL d   1       0.953   1.232  -0.498  0.00  0.00    -0.279 N 
ATOM     21  N   UNL d   1       1.363  -0.066  -0.347  0.00  0.00    -0.278 N 
ATOM     22  HN  UNL d   1       0.699   1.866   0.260  1.00  0.00     0.188 HD
ATOM     23  HN  UNL d   1       1.464  -0.566   0.537  1.00  0.00     0.189 HD
BRANCH  18  24
ATOM     24  C   UNL d   1       0.538   2.853  -2.350  0.00  0.00     0.450 C 
ATOM     25  F   UNL d   1       0.550   2.910  -3.707  0.00  0.00    -0.163 F 
ATOM     26  F   UNL d   1      -0.724   3.199  -1.979  0.00  0.00    -0.163 F 
ATOM     27  F   UNL d   1       1.357   3.853  -1.929  0.00  0.00    -0.163 F 
ENDBRANCH  18  24
ENDBRANCH  15  16
ENDBRANCH   1  15
TORSDOF 5
