REMARK  1 active torsions:
REMARK  status: ('A' for Active; 'I' for Inactive)
REMARK    1  A    between atoms: C_11  and  C_7 
ROOT
ATOM      1  C   UNL d   1       1.192   0.119  -0.004  0.00  0.00     0.101 A 
ATOM      2  N   UNL d   1      -0.799  -1.243   0.013  0.00  0.00    -0.275 N 
ATOM      3  N   UNL d   1      -1.026   1.060  -0.006  0.00  0.00    -0.275 N 
ATOM      4  C   UNL d   1       0.566  -1.229   0.012  0.00  0.00     0.265 A 
ATOM      5  C   UNL d   1       0.315   1.320  -0.050  0.00  0.00     0.265 A 
ATOM      6  C   UNL d   1      -1.623  -0.161   0.001  0.00  0.00     0.329 A 
ATOM      7  C   UNL d   1       2.539   0.164   0.029  0.00  0.00     0.034 C 
ATOM      8  O   UNL d   1       1.210  -2.273   0.025  0.00  0.00    -0.267 OA
ATOM      9  O   UNL d   1       0.718   2.474  -0.131  0.00  0.00    -0.267 OA
ATOM     10  O   UNL d   1      -2.843  -0.282  -0.009  0.00  0.00    -0.246 OA
ATOM     11  H   UNL d   1      -1.245  -2.149   0.019  0.00  0.00     0.173 HD
ATOM     12  H   UNL d   1      -1.639   1.863  -0.037  0.00  0.00     0.173 HD
ENDROOT
BRANCH   7  13
ATOM     13  C   UNL d   1       3.357   1.379   0.031  0.00  0.00    -0.033 A 
ATOM     14  C   UNL d   1       3.704   1.989   1.242  0.00  0.00     0.037 A 
ATOM     15  C   UNL d   1       4.428   3.186   1.243  0.00  0.00     0.056 A 
ATOM     16 CL   UNL d   1       4.808   3.892   2.775  0.00  0.00    -0.083 Cl
ATOM     17  C   UNL d   1       4.814   3.772   0.032  0.00  0.00     0.055 A 
ATOM     18  C   UNL d   1       4.485   3.150  -1.176  0.00  0.00     0.026 A 
ATOM     19 CL   UNL d   1       5.689   5.259  -0.042  0.00  0.00    -0.083 Cl
ATOM     20  C   UNL d   1       3.761   1.955  -1.177  0.00  0.00     0.013 A 
ENDBRANCH   7  13
TORSDOF 1
