REMARK  5 active torsions:
REMARK  status: ('A' for Active; 'I' for Inactive)
REMARK    1  A    between atoms: C_2  and  C_1 
REMARK    2  A    between atoms: S_8  and  C_2 
REMARK    3  A    between atoms: C_16  and  C_5 
REMARK    4  A    between atoms: C_6  and  C_10 
REMARK    5  A    between atoms: C_13  and  S_8 
ROOT
ATOM      1  C   UNL d   1       0.237  -2.422  -0.593  0.00  0.00     0.230 C 
ATOM      2  O   UNL d   1      -0.625  -3.054  -1.197  0.00  0.00    -0.279 OA
ENDROOT
BRANCH   1   3
ATOM      3  C   UNL d   1       0.067  -1.045  -0.167  0.00  0.00     0.082 A 
ATOM      4  C   UNL d   1      -1.133  -0.345   0.232  0.00  0.00     0.082 A 
ATOM      5  N   UNL d   1      -0.842   0.943   0.497  0.00  0.00    -0.259 N 
ATOM      6  O   UNL d   1       0.498   1.100   0.313  0.00  0.00    -0.241 OA
ATOM      7  HN  UNL d   1      -1.502   1.665   0.782  1.00  0.00     0.195 HD
ATOM      8  C   UNL d   1       1.051  -0.069  -0.075  0.00  0.00     0.089 A 
ATOM      9  C   UNL d   1       2.509   0.001  -0.299  0.00  0.00     0.080 C 
BRANCH   4  10
ATOM     10  C   UNL d   1      -2.519  -0.782   0.468  0.00  0.00    -0.006 A 
ATOM     11  C   UNL d   1      -3.566   0.150   0.311  0.00  0.00     0.014 A 
ATOM     12  C   UNL d   1      -4.876  -0.152   0.691  0.00  0.00     0.001 A 
ATOM     13  C   UNL d   1      -5.167  -1.400   1.228  0.00  0.00     0.000 A 
ATOM     14  C   UNL d   1      -4.151  -2.349   1.361  0.00  0.00     0.001 A 
ATOM     15  C   UNL d   1      -2.836  -2.045   0.984  0.00  0.00     0.014 A 
ENDBRANCH   4  10
ENDBRANCH   1   3
BRANCH   1  16
ATOM     16  S   UNL d   1       1.665  -3.229   0.043  0.00  0.00    -0.029 SA
BRANCH  16  17
ATOM     17  C   UNL d   1       2.550  -3.740  -1.417  0.00  0.00     0.077 A 
ATOM     18  N   UNL d   1       2.503  -2.980  -2.534  0.00  0.00    -0.359 N 
ATOM     19  C   UNL d   1       3.295  -3.353  -3.581  0.00  0.00     0.105 A 
ATOM     20  HN  UNL d   1       1.899  -2.160  -2.592  1.00  0.00     0.166 HD
ATOM     21  C   UNL d   1       4.159  -4.439  -3.567  0.00  0.00     0.063 A 
ATOM     22  C   UNL d   1       4.202  -5.197  -2.396  0.00  0.00     0.020 A 
ATOM     23  C   UNL d   1       3.391  -4.847  -1.316  0.00  0.00     0.038 A 
BRANCH  21  24
ATOM     24  C   UNL d   1       5.053  -4.743  -4.735  0.00  0.00     0.418 C 
ATOM     25  F   UNL d   1       4.551  -4.316  -5.925  0.00  0.00    -0.166 F 
ATOM     26  F   UNL d   1       6.275  -4.158  -4.612  0.00  0.00    -0.166 F 
ATOM     27  F   UNL d   1       5.293  -6.075  -4.887  0.00  0.00    -0.166 F 
ENDBRANCH  21  24
ENDBRANCH  16  17
ENDBRANCH   1  16
TORSDOF 5
