REMARK  3 active torsions:
REMARK  status: ('A' for Active; 'I' for Inactive)
REMARK    1  A    between atoms: C_6  and  C_1 
REMARK    2  A    between atoms: C_10  and  N_2 
REMARK    3  A    between atoms: O_9  and  C_6 
ROOT
ATOM      1  C   UNL d   1      -0.547  -1.198  -0.002  0.00  0.00     0.126 A 
ATOM      2  N   UNL d   1       0.759  -0.760   0.025  0.00  0.00    -0.286 N 
ATOM      3  N   UNL d   1       0.870   0.585   0.028  0.00  0.00    -0.302 N 
ATOM      4  HN  UNL d   1       1.726   1.140   0.029  1.00  0.00     0.186 HD
ATOM      5  C   UNL d   1      -1.307  -0.042   0.019  0.00  0.00     0.064 A 
ATOM      6  C   UNL d   1      -0.388   1.028   0.029  0.00  0.00     0.024 A 
ATOM      7  C   UNL d   1      -0.671   2.482   0.028  0.00  0.00     0.070 C 
ENDROOT
BRANCH   1   8
ATOM      8  C   UNL d   1      -0.941  -2.581  -0.018  0.00  0.00     0.195 C 
ATOM      9  O   UNL d   1      -0.269  -3.522   0.371  0.00  0.00    -0.645 OA
BRANCH   8  10
ATOM     10  O   UNL d   1      -2.175  -2.759  -0.551  0.00  0.00    -0.772 OA
ATOM     11  H   UNL d   1      -2.549  -1.951  -0.940  0.00  0.00     0.167 HD
ENDBRANCH   8  10
ENDBRANCH   1   8
BRANCH   2  12
ATOM     12  C   UNL d   1       1.978  -1.546  -0.077  0.00  0.00     0.145 C 
ATOM     13  C   UNL d   1       2.610  -1.845   1.270  0.00  0.00     0.028 C 
ENDBRANCH   2  12
TORSDOF 3
