REMARK  5 active torsions:
REMARK  status: ('A' for Active; 'I' for Inactive)
REMARK    1  A    between atoms: C_6  and  C_1 
REMARK    2  A    between atoms: C_4  and  C_2 
REMARK    3  A    between atoms: C_3  and  S_5 
REMARK    4  A    between atoms: O_13  and  C_4 
REMARK    5  A    between atoms: S_5  and  C_8 
ROOT
ATOM      1  S   UNL d   1       0.279  -4.713   2.037  0.00  0.00    -0.089 SA
ENDROOT
BRANCH   1   2
ATOM      2  C   UNL d   1       1.036  -5.012   0.445  0.00  0.00     0.022 A 
ATOM      3  C   UNL d   1       0.343  -5.360  -0.731  0.00  0.00     0.054 A 
ATOM      4  C   UNL d   1       1.071  -5.683  -1.893  0.00  0.00     0.020 A 
ATOM      5  C   UNL d   1       2.466  -5.666  -1.895  0.00  0.00     0.001 A 
ATOM      6  C   UNL d   1       3.152  -5.321  -0.738  0.00  0.00     0.001 A 
ATOM      7  C   UNL d   1       2.443  -5.001   0.423  0.00  0.00     0.020 A 
BRANCH   3   8
ATOM      8  C   UNL d   1      -1.140  -5.409  -0.883  0.00  0.00     0.177 C 
ATOM      9  O   UNL d   1      -1.700  -5.167  -1.938  0.00  0.00    -0.646 OA
BRANCH   8  10
ATOM     10  O   UNL d   1      -1.816  -5.829   0.206  0.00  0.00    -0.773 OA
ATOM     11  H   UNL d   1      -1.259  -5.992   0.994  0.00  0.00     0.167 HD
ENDBRANCH   8  10
ENDBRANCH   3   8
ENDBRANCH   1   2
BRANCH   1  12
ATOM     12  C   UNL d   1       0.032  -2.947   2.055  0.00  0.00     0.006 A 
ATOM     13  C   UNL d   1       1.010  -2.088   2.576  0.00  0.00     0.035 A 
ATOM     14  C   UNL d   1       0.729  -0.726   2.793  0.00  0.00     0.049 A 
ATOM     15  C   UNL d   1      -0.536  -0.229   2.442  0.00  0.00     0.016 A 
ATOM     16  C   UNL d   1      -1.502  -1.076   1.901  0.00  0.00     0.002 A 
ATOM     17  C   UNL d   1      -1.222  -2.431   1.717  0.00  0.00     0.019 A 
BRANCH  14  18
ATOM     18  C   UNL d   1       1.730   0.193   3.453  0.00  0.00     0.417 C 
ATOM     19  F   UNL d   1       2.898  -0.423   3.788  0.00  0.00    -0.166 F 
ATOM     20  F   UNL d   1       1.250   0.732   4.609  0.00  0.00    -0.166 F 
ATOM     21  F   UNL d   1       2.075   1.248   2.665  0.00  0.00    -0.166 F 
ENDBRANCH  14  18
ENDBRANCH   1  12
TORSDOF 5
