REMARK  7 active torsions:
REMARK  status: ('A' for Active; 'I' for Inactive)
REMARK    1  A    between atoms: N_6  and  C_1 
REMARK    2  A    between atoms: C_4  and  C_7 
REMARK    3  A    between atoms: C_5  and  C_12 
REMARK    4  A    between atoms: C_8  and  C_15 
REMARK       I    between atoms: N_9  and  C_8 
REMARK    5  A    between atoms: C_11  and  N_10 
REMARK    6  A    between atoms: C_15  and  C_27 
REMARK    7  A    between atoms: C_27  and  N_16 
ROOT
ATOM      1  C   UNL d   1       2.199   6.563   3.466  0.00  0.00     0.221 C 
ATOM      2  N   UNL d   1       3.440   5.977   3.256  0.00  0.00    -0.350 N 
ATOM      3  N   UNL d   1       6.394   6.302   3.189  0.00  0.00    -0.366 N 
ATOM      4  C   UNL d   1       4.308   5.742   4.422  0.00  0.00     0.145 C 
ATOM      5  C   UNL d   1       5.619   6.541   4.410  0.00  0.00     0.144 C 
ATOM      6  O   UNL d   1       1.852   6.926   4.595  0.00  0.00    -0.273 OA
ATOM      7  C   UNL d   1       4.840   6.640   1.277  0.00  0.00     0.040 C 
ATOM      8  C   UNL d   1       3.983   5.568   1.958  0.00  0.00     0.127 C 
ATOM      9  C   UNL d   1       6.071   7.142   2.042  0.00  0.00     0.126 C 
ENDROOT
BRANCH   1  10
ATOM     10  C   UNL d   1       1.253   6.715   2.280  0.00  0.00     0.133 C 
BRANCH  10  11
ATOM     11  C   UNL d   1       0.235   7.821   2.592  0.00  0.00     0.281 C 
BRANCH  11  12
ATOM     12  N   UNL d   1      -0.820   8.060   1.590  0.00  0.00     0.092 N 
ATOM     13  C   UNL d   1      -1.643   9.232   2.008  0.00  0.00     0.292 C 
ATOM     14  C   UNL d   1      -0.945  10.614   1.869  0.00  0.00     0.171 C 
ATOM     15  N   UNL d   1      -0.414  10.775   0.511  0.00  0.00    -0.214 N 
ATOM     16  C   UNL d   1       0.406   9.664   0.018  0.00  0.00     0.171 C 
ATOM     17  C   UNL d   1      -0.333   8.322   0.219  0.00  0.00     0.292 C 
BRANCH  15  18
ATOM     18  C   UNL d   1       0.032  12.038   0.157  0.00  0.00     0.680 A 
ATOM     19  N   UNL d   1      -0.175  13.072   0.986  0.00  0.00    -0.186 N 
ATOM     20  C   UNL d   1       0.199  14.316   0.585  0.00  0.00     0.133 A 
ATOM     21  HN  UNL d   1      -0.605  12.928   1.900  1.00  0.00     0.184 HD
ATOM     22  C   UNL d   1       0.762  14.543  -0.656  0.00  0.00     0.052 A 
ATOM     23  C   UNL d   1       0.945  13.434  -1.436  0.00  0.00     0.108 A 
ATOM     24  N   UNL d   1       0.606  12.193  -1.046  0.00  0.00    -0.202 N 
ATOM     25  HN  UNL d   1       0.780  11.389  -1.649  1.00  0.00     0.183 HD
BRANCH  20  26
ATOM     26  C   UNL d   1      -0.006  15.498   1.517  0.00  0.00     0.433 C 
ATOM     27  F   UNL d   1      -0.533  15.176   2.731  0.00  0.00    -0.165 F 
ATOM     28  F   UNL d   1       1.163  16.155   1.781  0.00  0.00    -0.165 F 
ATOM     29  F   UNL d   1      -0.837  16.441   0.986  0.00  0.00    -0.165 F 
ENDBRANCH  20  26
ENDBRANCH  15  18
ENDBRANCH  11  12
ENDBRANCH  10  11
ENDBRANCH   1  10
BRANCH   3  30
ATOM     30  C   UNL d   1       7.470   5.442   3.142  0.00  0.00     0.102 A 
ATOM     31  N   UNL d   1       8.428   5.654   2.213  0.00  0.00    -0.352 N 
ATOM     32  C   UNL d   1       9.515   4.842   2.178  0.00  0.00     0.106 A 
ATOM     33  HN  UNL d   1       8.335   6.418   1.544  1.00  0.00     0.166 HD
ATOM     34  C   UNL d   1       9.706   3.765   3.018  0.00  0.00     0.063 A 
ATOM     35  C   UNL d   1       8.703   3.514   3.951  0.00  0.00     0.021 A 
ATOM     36  C   UNL d   1       7.592   4.362   4.016  0.00  0.00     0.049 A 
BRANCH  34  37
ATOM     37  C   UNL d   1      10.926   2.909   2.924  0.00  0.00     0.418 C 
ATOM     38  F   UNL d   1      11.817   3.326   1.982  0.00  0.00    -0.166 F 
ATOM     39  F   UNL d   1      11.621   2.856   4.094  0.00  0.00    -0.166 F 
ATOM     40  F   UNL d   1      10.633   1.614   2.610  0.00  0.00    -0.166 F 
ENDBRANCH  34  37
ENDBRANCH   3  30
TORSDOF 7
