REMARK  2 active torsions:
REMARK  status: ('A' for Active; 'I' for Inactive)
REMARK    1  A    between atoms: C_3  and  C_1 
REMARK       I    between atoms: N_2  and  C_3 
REMARK       I    between atoms: C_4  and  N_2 
REMARK       I    between atoms: N_5  and  C_4 
REMARK    2  A    between atoms: C_10  and  N_5 
ROOT
ATOM      1  N   UNL d   1      -0.435   3.195   0.378  0.00  0.00    -0.273 N 
ATOM      2  C   UNL d   1      -1.088   1.984   0.210  0.00  0.00     0.285 C 
ATOM      3  C   UNL d   1       0.892   3.493   0.164  0.00  0.00     0.327 C 
ATOM      4  N   UNL d   1       1.688   2.418  -0.150  0.00  0.00    -0.307 N 
ATOM      5  O   UNL d   1       1.273   4.650   0.329  0.00  0.00    -0.247 OA
ATOM      6  O   UNL d   1      -0.533   0.985  -0.246  0.00  0.00    -0.265 OA
ATOM      7  H   UNL d   1      -0.975   3.992   0.684  0.00  0.00     0.173 HD
ATOM      8  H   UNL d   1       1.309   1.526   0.149  0.00  0.00     0.170 HD
ENDROOT
BRANCH   4   9
ATOM      9  C   UNL d   1       3.081   2.472  -0.357  0.00  0.00     0.058 A 
ATOM     10  C   UNL d   1       3.729   3.368  -1.222  0.00  0.00     0.060 A 
ATOM     11 CL   UNL d   1       2.879   4.440  -2.281  0.00  0.00    -0.082 Cl
ATOM     12  C   UNL d   1       5.121   3.306  -1.371  0.00  0.00     0.026 A 
ATOM     13  C   UNL d   1       5.870   2.362  -0.665  0.00  0.00     0.002 A 
ATOM     14  C   UNL d   1       5.228   1.459   0.176  0.00  0.00     0.002 A 
ATOM     15  C   UNL d   1       3.840   1.502   0.315  0.00  0.00     0.031 A 
ENDBRANCH   4   9
BRANCH   2  16
ATOM     16  C   UNL d   1      -2.469   1.973   0.617  0.00  0.00     0.168 A 
ATOM     17  O   UNL d   1      -2.899   2.889   1.532  0.00  0.00    -0.233 OA
ATOM     18  N   UNL d   1      -4.223   2.638   1.847  0.00  0.00    -0.272 N 
ATOM     19  C   UNL d   1      -4.573   1.589   1.099  0.00  0.00     0.117 A 
ATOM     20  HN  UNL d   1      -4.808   3.146   2.510  1.00  0.00     0.194 HD
ATOM     21  C   UNL d   1      -3.513   1.137   0.298  0.00  0.00     0.064 A 
ENDBRANCH   2  16
TORSDOF 2
