REMARK  1 active torsions:
REMARK  status: ('A' for Active; 'I' for Inactive)
REMARK    1  A    between atoms: N_8  and  C_2 
ROOT
ATOM      1  C   UNL d   1       1.926   0.709  -0.010  0.00  0.00     0.085 A 
ATOM      2  C   UNL d   1       2.579  -0.511   0.030  0.00  0.00     0.089 A 
ATOM      3  C   UNL d   1       0.495   0.566  -0.000  0.00  0.00    -0.021 A 
ATOM      4  S   UNL d   1       1.464  -1.813   0.075  0.00  0.00    -0.075 SA
ATOM      5  C   UNL d   1       0.131  -0.766   0.029  0.00  0.00    -0.007 A 
ATOM      6  C   UNL d   1       2.618   1.965  -0.062  0.00  0.00     0.103 C 
ATOM      7  N   UNL d   1       3.172   2.983  -0.106  0.00  0.00    -0.191 NA
ATOM      8  C   UNL d   1      -0.532   1.663  -0.054  0.00  0.00     0.041 C 
ATOM      9  C   UNL d   1      -1.274  -1.282   0.054  0.00  0.00     0.047 C 
ATOM     10  C   UNL d   1      -1.940   1.151   0.299  0.00  0.00     0.005 C 
ATOM     11  C   UNL d   1      -2.250  -0.185  -0.390  0.00  0.00     0.005 C 
ENDROOT
BRANCH   2  12
ATOM     12  N   UNL d   1       3.901  -0.778   0.037  0.00  0.00    -0.392 N 
ATOM     13  H   UNL d   1       4.625  -0.068  -0.008  0.00  0.00     0.156 HD
ATOM     14  H   UNL d   1       4.231  -1.738   0.056  0.00  0.00     0.156 HD
ENDBRANCH   2  12
TORSDOF 1
