REMARK  10 active torsions:
REMARK  status: ('A' for Active; 'I' for Inactive)
REMARK    1  A    between atoms: C_4  and  S_1 
REMARK    2  A    between atoms: N_5  and  S_1 
REMARK    3  A    between atoms: C_2  and  N_5 
REMARK    4  A    between atoms: C_10  and  C_3 
REMARK    5  A    between atoms: O_17  and  C_6 
REMARK    6  A    between atoms: O_19  and  C_7 
REMARK    7  A    between atoms: O_21  and  C_9 
REMARK    8  A    between atoms: O_20  and  C_10 
REMARK    9  A    between atoms: O_23  and  C_14 
REMARK   10  A    between atoms: O_24  and  C_18 
ROOT
ATOM      1  C   UNL d   1       0.827  -2.236  -1.137  0.00  0.00     0.095 A 
ATOM      2  C   UNL d   1       2.139  -2.464  -1.595  0.00  0.00     0.072 A 
ATOM      3  C   UNL d   1      -0.251  -2.855  -1.820  0.00  0.00     0.133 A 
ATOM      4  C   UNL d   1       0.012  -3.688  -2.944  0.00  0.00     0.137 A 
ATOM      5  C   UNL d   1       2.386  -3.276  -2.710  0.00  0.00     0.059 A 
ATOM      6  C   UNL d   1       1.339  -3.884  -3.388  0.00  0.00     0.105 A 
ENDROOT
BRANCH   1   7
ATOM      7  N   UNL d   1       0.598  -1.410   0.015  0.00  0.00    -0.277 N 
ATOM      8  H   UNL d   1       1.208  -1.545   0.829  0.00  0.00     0.179 HD
BRANCH   7   9
ATOM      9  S   UNL d   1       0.034   0.173  -0.116  0.00  0.00     0.266 S 
ATOM     10  O   UNL d   1      -1.061   0.204  -1.064  0.00  0.00    -0.200 OA
ATOM     11  O   UNL d   1      -0.181   0.655   1.232  0.00  0.00    -0.200 OA
BRANCH   9  12
ATOM     12  C   UNL d   1       1.355   1.127  -0.819  0.00  0.00     0.115 A 
ATOM     13  C   UNL d   1       1.102   1.808  -2.026  0.00  0.00     0.065 A 
ATOM     14  C   UNL d   1       2.072   2.641  -2.575  0.00  0.00     0.069 A 
ATOM     15  C   UNL d   1       3.304   2.759  -1.937  0.00  0.00     0.039 A 
ATOM     16  C   UNL d   1       3.552   2.099  -0.730  0.00  0.00     0.041 A 
ATOM     17  C   UNL d   1       2.565   1.302  -0.138  0.00  0.00     0.091 A 
BRANCH  14  18
ATOM     18  O   UNL d   1       1.941   3.391  -3.709  0.00  0.00    -0.356 OA
ATOM     19  C   UNL d   1       0.649   3.432  -4.305  0.00  0.00     0.210 C 
ENDBRANCH  14  18
BRANCH  17  20
ATOM     20  O   UNL d   1       2.724   0.675   1.065  0.00  0.00    -0.354 OA
ATOM     21  C   UNL d   1       3.833   1.069   1.867  0.00  0.00     0.210 C 
ENDBRANCH  17  20
ENDBRANCH   9  12
ENDBRANCH   7   9
ENDBRANCH   1   7
BRANCH   2  22
ATOM     22  C   UNL d   1       3.327  -1.958  -0.879  0.00  0.00     0.295 C 
ATOM     23  O   UNL d   1       3.452  -2.008   0.334  0.00  0.00    -0.259 OA
BRANCH  22  24
ATOM     24  O   UNL d   1       4.218  -1.489  -1.786  0.00  0.00    -0.322 OA
ATOM     25  C   UNL d   1       5.479  -1.031  -1.296  0.00  0.00     0.213 C 
ENDBRANCH  22  24
ENDBRANCH   2  22
BRANCH   3  26
ATOM     26  O   UNL d   1      -1.566  -2.624  -1.506  0.00  0.00    -0.351 OA
ATOM     27  C   UNL d   1      -1.984  -2.814  -0.160  0.00  0.00     0.210 C 
ENDBRANCH   3  26
BRANCH   4  28
ATOM     28  O   UNL d   1      -0.908  -4.421  -3.659  0.00  0.00    -0.351 OA
ATOM     29  C   UNL d   1      -2.277  -4.065  -3.609  0.00  0.00     0.210 C 
ENDBRANCH   4  28
BRANCH   6  30
ATOM     30  O   UNL d   1       1.516  -4.697  -4.483  0.00  0.00    -0.353 OA
ATOM     31  C   UNL d   1       2.811  -4.744  -5.079  0.00  0.00     0.210 C 
ENDBRANCH   6  30
TORSDOF 10
