REMARK  1 active torsions:
REMARK  status: ('A' for Active; 'I' for Inactive)
REMARK    1  A    between atoms: C_2  and  N_1 
ROOT
ATOM      1  N   UNL d   1      -1.248  -0.021  -0.347  0.00  0.00    -0.228 N 
ATOM      2  C   UNL d   1      -0.493   1.114  -0.298  0.00  0.00     0.256 A 
ATOM      3  C   UNL d   1      -0.466  -1.125  -0.172  0.00  0.00     0.262 A 
ATOM      4  C   UNL d   1       0.928  -0.650  -0.090  0.00  0.00     0.012 A 
ATOM      5  C   UNL d   1       0.903   0.682  -0.134  0.00  0.00     0.087 A 
ATOM      6  O   UNL d   1      -0.774   2.299  -0.343  0.00  0.00    -0.268 OA
ATOM      7  O   UNL d   1      -0.759  -2.307  -0.119  0.00  0.00    -0.267 OA
ATOM      8  C   UNL d   1       2.100  -1.551  -0.030  0.00  0.00     0.054 C 
ENDROOT
BRANCH   1   9
ATOM      9  C   UNL d   1      -2.603  -0.061  -0.629  0.00  0.00     0.133 A 
ATOM     10  N   UNL d   1      -3.292   0.995  -1.084  0.00  0.00    -0.283 N 
ATOM     11  N   UNL d   1      -4.514   0.523  -1.364  0.00  0.00    -0.306 N 
ATOM     12  HN  UNL d   1      -2.957   1.952  -1.193  1.00  0.00     0.188 HD
ATOM     13  C   UNL d   1      -5.474   1.365  -2.035  0.00  0.00     0.177 C 
ATOM     14  C   UNL d   1      -4.683  -0.782  -1.022  0.00  0.00     0.113 A 
ATOM     15  C   UNL d   1      -3.460  -1.197  -0.550  0.00  0.00     0.069 A 
ENDBRANCH   1   9
TORSDOF 1
