REMARK  6 active torsions:
REMARK  status: ('A' for Active; 'I' for Inactive)
REMARK    1  A    between atoms: C_10  and  N_1 
REMARK    2  A    between atoms: S_8  and  C_2 
REMARK    3  A    between atoms: O_9  and  C_3 
REMARK    4  A    between atoms: C_11  and  C_10 
REMARK    5  A    between atoms: C_13  and  C_11 
REMARK    6  A    between atoms: C_12  and  C_13 
ROOT
ATOM      1  N   UNL d   1      -0.109  -1.219   0.042  0.00  0.00    -0.291 N 
ATOM      2  C   UNL d   1       0.060  -0.305  -0.965  0.00  0.00     0.161 A 
ATOM      3  C   UNL d   1       0.018  -0.494   1.201  0.00  0.00     0.240 A 
ATOM      4  N   UNL d   1       0.266   0.887  -0.451  0.00  0.00    -0.277 N 
ATOM      5  HN  UNL d   1       0.422   1.748  -0.975  1.00  0.00     0.189 HD
ATOM      6  N   UNL d   1       0.233   0.767   0.919  0.00  0.00    -0.263 N 
ATOM      7  HN  UNL d   1       0.354   1.523   1.593  1.00  0.00     0.190 HD
ENDROOT
BRANCH   1   8
ATOM      8  C   UNL d   1      -0.368  -2.639  -0.051  0.00  0.00     0.135 C 
BRANCH   8   9
ATOM      9  C   UNL d   1       0.925  -3.451  -0.035  0.00  0.00     0.020 C 
BRANCH   9  10
ATOM     10  C   UNL d   1       0.660  -4.957  -0.042  0.00  0.00     0.001 C 
BRANCH  10  11
ATOM     11  C   UNL d   1       1.977  -5.736  -0.025  0.00  0.00    -0.004 C 
ATOM     12  C   UNL d   1       1.750  -7.239  -0.025  0.00  0.00     0.005 C 
ENDBRANCH  10  11
ENDBRANCH   9  10
ENDBRANCH   8   9
ENDBRANCH   1   8
BRANCH   2  13
ATOM     13  S   UNL d   1       0.035  -0.636  -2.661  0.00  0.00    -0.105 SA
ATOM     14  H   UNL d   1      -0.118  -1.963  -2.665  0.00  0.00     0.110 HD
ENDBRANCH   2  13
BRANCH   3  15
ATOM     15  O   UNL d   1      -0.045  -0.958   2.443  0.00  0.00    -0.331 OA
ATOM     16  H   UNL d   1      -0.100  -1.923   2.435  0.00  0.00     0.221 HD
ENDBRANCH   3  15
TORSDOF 6
