REMARK  4 active torsions:
REMARK  status: ('A' for Active; 'I' for Inactive)
REMARK    1  A    between atoms: C_10  and  C_7 
REMARK    2  A    between atoms: N_16  and  C_8 
REMARK    3  A    between atoms: C_9  and  N_16 
REMARK    4  A    between atoms: O_23  and  C_10 
ROOT
ATOM      1  S   UNL d   1       0.876  -1.647  -0.100  0.00  0.00     0.270 S 
ATOM      2  C   UNL d   1       2.051  -0.467  -0.548  0.00  0.00     0.146 C 
ATOM      3  N   UNL d   1       1.300  -1.970   1.523  0.00  0.00    -0.275 N 
ATOM      4  C   UNL d   1       1.646  -0.863   2.327  0.00  0.00     0.066 A 
ATOM      5  C   UNL d   1       2.021   0.360   1.796  0.00  0.00     0.084 A 
ATOM      6  C   UNL d   1       2.195   0.672   0.384  0.00  0.00     0.215 C 
ATOM      7  C   UNL d   1       2.947  -0.744  -1.508  0.00  0.00     0.118 C 
ATOM      8  S   UNL d   1       2.346   1.518   3.004  0.00  0.00    -0.096 SA
ATOM      9  O   UNL d   1      -0.436  -1.036  -0.084  0.00  0.00    -0.200 OA
ATOM     10  O   UNL d   1       1.092  -2.868  -0.852  0.00  0.00    -0.200 OA
ATOM     11  C   UNL d   1       1.685  -0.847   3.752  0.00  0.00     0.039 A 
ATOM     12  C   UNL d   1       2.043   0.387   4.250  0.00  0.00     0.053 A 
ATOM     13  O   UNL d   1       2.500   1.782  -0.056  0.00  0.00    -0.285 OA
ATOM     14  C   UNL d   1       1.088  -3.324   2.046  0.00  0.00     0.170 C 
ENDROOT
BRANCH   7  15
ATOM     15  N   UNL d   1       4.103  -0.068  -1.852  0.00  0.00    -0.363 N 
ATOM     16  H   UNL d   1       3.922   0.875  -2.215  0.00  0.00     0.165 HD
BRANCH  15  17
ATOM     17  C   UNL d   1       5.337  -0.284  -1.302  0.00  0.00     0.055 A 
ATOM     18  C   UNL d   1       6.460   0.482  -1.581  0.00  0.00     0.106 A 
ATOM     19  S   UNL d   1       7.836  -0.101  -0.721  0.00  0.00    -0.094 SA
ATOM     20  C   UNL d   1       6.939  -1.333   0.038  0.00  0.00     0.053 A 
ATOM     21  C   UNL d   1       5.621  -1.323  -0.357  0.00  0.00     0.038 A 
BRANCH  18  22
ATOM     22  C   UNL d   1       6.654   1.631  -2.449  0.00  0.00     0.302 C 
ATOM     23  O   UNL d   1       7.718   2.198  -2.673  0.00  0.00    -0.259 OA
BRANCH  22  24
ATOM     24  O   UNL d   1       5.463   2.026  -2.999  0.00  0.00    -0.322 OA
ATOM     25  C   UNL d   1       5.579   3.166  -3.852  0.00  0.00     0.213 C 
ENDBRANCH  22  24
ENDBRANCH  18  22
ENDBRANCH  15  17
ENDBRANCH   7  15
TORSDOF 4
