REMARK  2 active torsions:
REMARK  status: ('A' for Active; 'I' for Inactive)
REMARK    1  A    between atoms: C_5  and  C_1 
REMARK       I    between atoms: N_9  and  C_5 
REMARK    2  A    between atoms: N_10  and  N_9 
ROOT
ATOM      1  C   UNL d   1      -1.388  -0.779   0.050  0.00  0.00     0.126 A 
ATOM      2  N   UNL d   1      -1.385   0.566   0.058  0.00  0.00    -0.256 N 
ATOM      3  HN  UNL d   1      -2.197   1.182   0.076  1.00  0.00     0.195 HD
ATOM      4  C   UNL d   1      -0.062  -1.284   0.029  0.00  0.00     0.071 A 
ATOM      5  O   UNL d   1      -0.054   0.943   0.035  0.00  0.00    -0.242 OA
ATOM      6  C   UNL d   1       0.733  -0.165   0.019  0.00  0.00     0.075 A 
ATOM      7  C   UNL d   1       2.187   0.065  -0.006  0.00  0.00     0.079 C 
ENDROOT
BRANCH   1   8
ATOM      8  C   UNL d   1      -2.632  -1.549   0.053  0.00  0.00     0.284 C 
ATOM      9  O   UNL d   1      -2.660  -2.777   0.009  0.00  0.00    -0.265 OA
ATOM     10  N   UNL d   1      -3.783  -0.766   0.099  0.00  0.00    -0.288 N 
ATOM     11  H   UNL d   1      -3.675   0.242   0.217  0.00  0.00     0.183 HD
BRANCH  10  12
ATOM     12  N   UNL d   1      -5.064  -1.361   0.153  0.00  0.00    -0.247 NA
ATOM     13  H   UNL d   1      -4.925  -2.371   0.294  0.00  0.00     0.143 HD
ATOM     14  H   UNL d   1      -5.482  -1.292  -0.779  0.00  0.00     0.143 HD
ENDBRANCH  10  12
ENDBRANCH   1   8
TORSDOF 2
