REMARK  1 active torsions:
REMARK  status: ('A' for Active; 'I' for Inactive)
REMARK    1  A    between atoms: C_10  and  N_2 
ROOT
ATOM      1  C   UNL d   1      -0.401   0.415  -0.048  0.00  0.00     0.122 A 
ATOM      2  N   UNL d   1       1.940   0.975   0.003  0.00  0.00    -0.215 N 
ATOM      3  C   UNL d   1       0.612   1.474  -0.044  0.00  0.00     0.295 A 
ATOM      4  C   UNL d   1      -0.013  -0.900  -0.030  0.00  0.00     0.062 A 
ATOM      5  N   UNL d   1       2.295  -0.381   0.059  0.00  0.00    -0.294 N 
ATOM      6  HN  UNL d   1       3.274  -0.655   0.139  1.00  0.00     0.187 HD
ATOM      7  N   UNL d   1      -1.781   0.605  -0.038  0.00  0.00    -0.349 N 
ATOM      8  HN  UNL d   1      -2.250   1.511  -0.041  1.00  0.00     0.166 HD
ATOM      9  C   UNL d   1       1.362  -1.286   0.010  0.00  0.00     0.042 A 
ATOM     10  S   UNL d   1      -1.350  -1.939  -0.028  0.00  0.00    -0.073 SA
ATOM     11  C   UNL d   1      -2.389  -0.565  -0.024  0.00  0.00     0.048 A 
ATOM     12  O   UNL d   1       0.306   2.663  -0.010  0.00  0.00    -0.264 OA
ATOM     13  C   UNL d   1       1.759  -2.737  -0.010  0.00  0.00     0.071 C 
ATOM     14  C   UNL d   1      -3.864  -0.763  -0.004  0.00  0.00     0.076 C 
ENDROOT
BRANCH   2  15
ATOM     15  C   UNL d   1       3.076   1.835  -0.032  0.00  0.00     0.099 A 
ATOM     16  C   UNL d   1       3.160   2.918  -0.917  0.00  0.00     0.148 A 
ATOM     17  C   UNL d   1       4.300   3.718  -0.971  0.00  0.00     0.087 A 
ATOM     18  F   UNL d   1       2.195   3.141  -1.821  0.00  0.00    -0.203 F 
ATOM     19  C   UNL d   1       5.359   3.447  -0.116  0.00  0.00     0.119 A 
ATOM     20  C   UNL d   1       5.305   2.382   0.776  0.00  0.00     0.045 A 
ATOM     21  F   UNL d   1       6.458   4.210  -0.162  0.00  0.00    -0.206 F 
ATOM     22  C   UNL d   1       4.174   1.564   0.804  0.00  0.00     0.038 A 
ENDBRANCH   2  15
TORSDOF 1
