REMARK  5 active torsions:
REMARK  status: ('A' for Active; 'I' for Inactive)
REMARK    1  A    between atoms: C_13  and  C_3 
REMARK    2  A    between atoms: C_7  and  N_11 
REMARK    3  A    between atoms: S_12  and  C_7 
REMARK    4  A    between atoms: N_11  and  C_14 
REMARK    5  A    between atoms: C_14  and  C_13 
ROOT
ATOM      1  N   UNL d   1      -0.888   1.593  -5.995  0.00  0.00    -0.274 N 
ATOM      2  HN  UNL d   1      -0.939   1.394  -6.994  1.00  0.00     0.180 HD
ATOM      3  C   UNL d   1       0.253   1.379  -5.339  0.00  0.00     0.183 C 
ATOM      4  C   UNL d   1      -1.932   2.049  -5.381  0.00  0.00     0.148 C 
ATOM      5  N   UNL d   1       1.250   1.177  -4.784  0.00  0.00    -0.172 NA
ENDROOT
BRANCH   4   6
ATOM      6  N   UNL d   1      -3.094   2.361  -6.045  0.00  0.00    -0.370 N 
ATOM      7  H   UNL d   1      -3.697   2.996  -5.534  0.00  0.00     0.161 HD
BRANCH   6   8
ATOM      8  C   UNL d   1      -3.097   2.490  -7.493  0.00  0.00     0.122 C 
BRANCH   8   9
ATOM      9  C   UNL d   1      -4.441   2.993  -8.022  0.00  0.00     0.027 C 
BRANCH   9  10
ATOM     10  C   UNL d   1      -4.439   3.019  -9.527  0.00  0.00     0.029 A 
ATOM     11  C   UNL d   1      -5.661   3.387 -10.337  0.00  0.00     0.117 A 
ATOM     12  C   UNL d   1      -5.184   1.960 -10.299  0.00  0.00     0.050 A 
ATOM     13 CL   UNL d   1      -7.168   3.777  -9.532  0.00  0.00    -0.101 Cl
ATOM     14 CL   UNL d   1      -5.398   4.295 -11.823  0.00  0.00    -0.101 Cl
ENDBRANCH   9  10
ENDBRANCH   8   9
ENDBRANCH   6   8
ENDBRANCH   4   6
BRANCH   4  15
ATOM     15  S   UNL d   1      -2.051   2.405  -3.664  0.00  0.00    -0.098 SA
ATOM     16  C   UNL d   1      -1.977   0.726  -2.995  0.00  0.00     0.099 C 
ENDBRANCH   4  15
TORSDOF 5
