REMARK  5 active torsions:
REMARK  status: ('A' for Active; 'I' for Inactive)
REMARK    1  A    between atoms: C_6  and  C_1 
REMARK    2  A    between atoms: C_2  and  C_5 
REMARK    3  A    between atoms: N_8  and  C_3 
REMARK    4  A    between atoms: N_9  and  C_4 
REMARK       I    between atoms: C_5  and  N_7 
REMARK    5  A    between atoms: N_7  and  C_6 
ROOT
ATOM      1  C   UNL d   1       1.509  -0.350   0.009  0.00  0.00     0.007 A 
ATOM      2  C   UNL d   1       0.575  -1.444  -0.106  0.00  0.00     0.039 A 
ATOM      3  C   UNL d   1       1.036   1.027  -0.103  0.00  0.00     0.020 A 
ATOM      4  C   UNL d   1      -0.343   1.264  -0.257  0.00  0.00     0.024 A 
ATOM      5  C   UNL d   1      -0.795  -1.080  -0.199  0.00  0.00     0.030 A 
ATOM      6  C   UNL d   1      -1.253   0.227  -0.271  0.00  0.00     0.004 A 
ENDROOT
BRANCH   1   7
ATOM      7  C   UNL d   1       2.955  -0.540   0.455  0.00  0.00     0.165 C 
BRANCH   7   8
ATOM      8  N   UNL d   1       4.019  -0.160  -0.454  0.00  0.00    -0.352 N 
ATOM      9  C   UNL d   1       4.450  -0.929  -1.510  0.00  0.00     0.255 C 
ATOM     10  O   UNL d   1       3.947  -1.993  -1.835  0.00  0.00    -0.268 OA
ATOM     11  H   UNL d   1       4.530   0.672  -0.198  0.00  0.00     0.163 HD
BRANCH   9  12
ATOM     12  C   UNL d   1       5.609  -0.411  -2.287  0.00  0.00     0.070 A 
ATOM     13  C   UNL d   1       6.474   0.576  -1.816  0.00  0.00     0.132 A 
ATOM     14  F   UNL d   1       6.300   1.127  -0.603  0.00  0.00    -0.205 F 
ATOM     15  C   UNL d   1       7.551   1.018  -2.583  0.00  0.00     0.043 A 
ATOM     16  C   UNL d   1       7.771   0.476  -3.849  0.00  0.00     0.003 A 
ATOM     17  C   UNL d   1       6.916  -0.511  -4.339  0.00  0.00     0.001 A 
ATOM     18  C   UNL d   1       5.844  -0.957  -3.561  0.00  0.00     0.020 A 
ENDBRANCH   9  12
ENDBRANCH   7   8
ENDBRANCH   1   7
BRANCH   2  19
ATOM     19  N   UNL d   1       0.811  -2.825  -0.055  0.00  0.00    -0.389 N 
ATOM     20  C   UNL d   1       2.002  -3.482   0.458  0.00  0.00     0.149 C 
ATOM     21  C   UNL d   1       0.048  -3.711  -0.956  0.00  0.00     0.149 C 
ENDBRANCH   2  19
BRANCH   3  22
ATOM     22  N   UNL d   1       1.919   2.140   0.019  0.00  0.00    -0.291 NA
ATOM     23  C   UNL d   1       1.346   3.394   0.544  0.00  0.00     0.116 C 
ATOM     24  C   UNL d   1       2.727   2.381  -1.183  0.00  0.00     0.116 C 
ENDBRANCH   3  22
TORSDOF 5
