REMARK  9 active torsions:
REMARK  status: ('A' for Active; 'I' for Inactive)
REMARK    1  A    between atoms: S_10  and  C_3 
REMARK    2  A    between atoms: C_8  and  C_4 
REMARK    3  A    between atoms: O_19  and  C_8 
REMARK    4  A    between atoms: C_14  and  C_9 
REMARK    5  A    between atoms: C_18  and  S_10 
REMARK    6  A    between atoms: O_21  and  N_12 
REMARK    7  A    between atoms: C_24  and  C_18 
REMARK    8  A    between atoms: C_26  and  O_19 
REMARK    9  A    between atoms: O_25  and  C_20 
ROOT
ATOM      1  C   UNL d   1       0.033  -0.766  -0.046  0.00  0.00     0.020 A 
ATOM      2  C   UNL d   1       0.447   0.623  -0.181  0.00  0.00    -0.020 A 
ATOM      3  C   UNL d   1       1.120  -1.623  -0.067  0.00  0.00     0.055 A 
ATOM      4  C   UNL d   1       1.819   0.762  -0.327  0.00  0.00     0.088 A 
ATOM      5  S   UNL d   1       2.591  -0.761  -0.263  0.00  0.00    -0.076 SA
ATOM      6  C   UNL d   1      -1.387  -1.085   0.132  0.00  0.00     0.045 C 
ATOM      7  C   UNL d   1      -0.558   1.759  -0.136  0.00  0.00     0.051 C 
ATOM      8  C   UNL d   1      -1.920   1.329   0.466  0.00  0.00     0.028 C 
ATOM      9  C   UNL d   1      -2.365   0.029  -0.237  0.00  0.00     0.069 C 
ATOM     10  N   UNL d   1      -1.731  -2.244   0.606  0.00  0.00    -0.273 N 
ATOM     11  HN  UNL d   1      -1.063  -2.968   0.870  1.00  0.00     0.194 HD
ENDROOT
BRANCH   3  12
ATOM     12  S   UNL d   1       1.205  -3.374   0.119  0.00  0.00    -0.117 SA
BRANCH  12  13
ATOM     13  C   UNL d   1       0.181  -3.961  -1.263  0.00  0.00     0.118 C 
BRANCH  13  14
ATOM     14  C   UNL d   1       0.160  -5.469  -1.346  0.00  0.00    -0.049 A 
ATOM     15  C   UNL d   1      -0.531  -6.229  -0.388  0.00  0.00     0.008 A 
ATOM     16  C   UNL d   1      -0.564  -7.622  -0.474  0.00  0.00     0.001 A 
ATOM     17  C   UNL d   1       0.089  -8.270  -1.520  0.00  0.00     0.000 A 
ATOM     18  C   UNL d   1       0.778  -7.527  -2.477  0.00  0.00     0.001 A 
ATOM     19  C   UNL d   1       0.816  -6.135  -2.390  0.00  0.00     0.008 A 
ENDBRANCH  13  14
ENDBRANCH  12  13
ENDBRANCH   3  12
BRANCH   4  20
ATOM     20  C   UNL d   1       2.566   1.998  -0.529  0.00  0.00     0.300 C 
ATOM     21  O   UNL d   1       2.054   3.099  -0.703  0.00  0.00    -0.259 OA
BRANCH  20  22
ATOM     22  O   UNL d   1       3.913   1.780  -0.541  0.00  0.00    -0.317 OA
BRANCH  22  23
ATOM     23  C   UNL d   1       4.722   2.895  -0.939  0.00  0.00     0.174 C 
ATOM     24  C   UNL d   1       4.831   2.910  -2.452  0.00  0.00     0.034 C 
ENDBRANCH  22  23
ENDBRANCH  20  22
ENDBRANCH   4  20
BRANCH  10  25
ATOM     25  O   UNL d   1      -3.116  -2.389   0.714  0.00  0.00    -0.290 OA
ATOM     26  H   UNL d   1      -3.199  -3.230   1.201  0.00  0.00     0.244 HD
ENDBRANCH  10  25
BRANCH   8  27
ATOM     27  C   UNL d   1      -1.972   1.165   1.988  0.00  0.00    -0.053 A 
ATOM     28  C   UNL d   1      -0.845   1.273   2.814  0.00  0.00     0.010 A 
ATOM     29  C   UNL d   1      -0.921   1.002   4.186  0.00  0.00     0.037 A 
ATOM     30  C   UNL d   1      -2.130   0.628   4.763  0.00  0.00     0.068 A 
ATOM     31  C   UNL d   1      -3.271   0.570   3.966  0.00  0.00     0.037 A 
ATOM     32  C   UNL d   1      -3.195   0.835   2.595  0.00  0.00     0.010 A 
BRANCH  30  33
ATOM     33  O   UNL d   1      -2.322   0.325   6.082  0.00  0.00    -0.356 OA
ATOM     34  C   UNL d   1      -1.160  -0.074   6.802  0.00  0.00     0.210 C 
ENDBRANCH  30  33
ENDBRANCH   8  27
TORSDOF 9
