REMARK  3 active torsions:
REMARK  status: ('A' for Active; 'I' for Inactive)
REMARK    1  A    between atoms: S_15  and  C_1 
REMARK    2  A    between atoms: C_10  and  N_5 
REMARK    3  A    between atoms: C_12  and  C_13 
ROOT
ATOM      1  C   UNL d   1      -0.256  -1.060   0.028  0.00  0.00     0.090 A 
ATOM      2  C   UNL d   1       0.517   0.106   0.046  0.00  0.00     0.078 A 
ATOM      3  N   UNL d   1      -1.612  -1.028  -0.011  0.00  0.00    -0.348 N 
ATOM      4  HN  UNL d   1      -2.162  -1.887  -0.019  1.00  0.00     0.166 HD
ATOM      5  C   UNL d   1       1.948   0.087   0.076  0.00  0.00     0.102 C 
ATOM      6  N   UNL d   1       3.109   0.130   0.097  0.00  0.00    -0.191 NA
ATOM      7  C   UNL d   1      -2.209   0.188  -0.038  0.00  0.00     0.048 A 
ATOM      8  C   UNL d   1      -0.136   1.344   0.023  0.00  0.00     0.028 A 
ATOM      9  C   UNL d   1      -1.524   1.391  -0.022  0.00  0.00     0.032 A 
ENDROOT
BRANCH   1  10
ATOM     10  S   UNL d   1       0.498  -2.687   0.049  0.00  0.00    -0.115 SA
ATOM     11  C   UNL d   1      -0.965  -3.757   0.013  0.00  0.00     0.097 C 
ENDBRANCH   1  10
BRANCH   7  12
ATOM     12  C   UNL d   1      -3.682   0.153  -0.122  0.00  0.00     0.117 C 
ATOM     13  N   UNL d   1      -4.384   1.228  -0.284  0.00  0.00    -0.362 N 
ATOM     14  HN  UNL d   1      -3.928   2.140  -0.327  1.00  0.00     0.165 HD
BRANCH  13  15
ATOM     15  C   UNL d   1      -5.786   1.129  -0.399  0.00  0.00     0.054 A 
ATOM     16  C   UNL d   1      -6.626   2.094   0.192  0.00  0.00     0.062 A 
ATOM     17  C   UNL d   1      -8.014   2.042   0.029  0.00  0.00     0.050 A 
ATOM     18 CL   UNL d   1      -5.973   3.393   1.132  0.00  0.00    -0.082 Cl
ATOM     19  C   UNL d   1      -8.578   1.023  -0.732  0.00  0.00     0.035 A 
ATOM     20  C   UNL d   1      -7.770   0.063  -1.335  0.00  0.00     0.026 A 
ATOM     21 CL   UNL d   1     -10.283   0.954  -0.947  0.00  0.00    -0.084 Cl
ATOM     22  C   UNL d   1      -6.384   0.125  -1.178  0.00  0.00     0.033 A 
ENDBRANCH  13  15
ENDBRANCH   7  12
TORSDOF 3
