REMARK  8 active torsions:
REMARK  status: ('A' for Active; 'I' for Inactive)
REMARK    1  A    between atoms: C_5  and  C_1 
REMARK    2  A    between atoms: N_2  and  C_4 
REMARK       I    between atoms: C_3  and  N_2 
REMARK    3  A    between atoms: C_17  and  N_2 
REMARK    4  A    between atoms: C_7  and  C_3 
REMARK       I    between atoms: N_6  and  C_5 
REMARK    5  A    between atoms: C_14  and  N_6 
REMARK    6  A    between atoms: C_8  and  C_14 
REMARK    7  A    between atoms: O_20  and  C_8 
REMARK    8  A    between atoms: C_15  and  C_17 
ROOT
ATOM      1  C   UNL d   1       0.385  -0.390  -1.083  0.00  0.00     0.059 A 
ATOM      2  C   UNL d   1       0.630  -1.350  -0.078  0.00  0.00     0.053 A 
ATOM      3  C   UNL d   1      -0.026   0.899  -0.691  0.00  0.00     0.019 A 
ATOM      4  C   UNL d   1       0.514  -0.985   1.277  0.00  0.00     0.031 A 
ATOM      5  C   UNL d   1      -0.166   1.240   0.655  0.00  0.00     0.001 A 
ATOM      6  C   UNL d   1       0.121   0.303   1.639  0.00  0.00     0.002 A 
ENDROOT
BRANCH   2   7
ATOM      7  N   UNL d   1       0.937  -2.709  -0.373  0.00  0.00    -0.309 N 
ATOM      8  C   UNL d   1       0.091  -3.786  -0.031  0.00  0.00     0.258 C 
ATOM      9  O   UNL d   1       0.496  -4.950  -0.035  0.00  0.00    -0.267 OA
BRANCH   8  10
ATOM     10  C   UNL d   1      -1.355  -3.581   0.326  0.00  0.00     0.032 A 
ATOM     11  C   UNL d   1      -2.155  -2.543  -0.170  0.00  0.00     0.018 A 
ATOM     12  C   UNL d   1      -3.480  -2.389   0.257  0.00  0.00     0.025 A 
ATOM     13  C   UNL d   1      -4.040  -3.316   1.129  0.00  0.00     0.034 A 
ATOM     14  C   UNL d   1      -3.289  -4.402   1.569  0.00  0.00     0.025 A 
ATOM     15 CL   UNL d   1      -5.666  -3.124   1.650  0.00  0.00    -0.084 Cl
ATOM     16  C   UNL d   1      -1.952  -4.530   1.172  0.00  0.00     0.018 A 
ENDBRANCH   8  10
BRANCH   7  17
ATOM     17  C   UNL d   1       2.369  -3.002  -0.591  0.00  0.00     0.159 C 
BRANCH  17  18
ATOM     18  C   UNL d   1       3.091  -3.124   0.727  0.00  0.00    -0.017 C 
ATOM     19  C   UNL d   1       4.113  -2.351   1.118  0.00  0.00     0.008 C 
ENDBRANCH  17  18
ENDBRANCH   7  17
ENDBRANCH   2   7
BRANCH   1  20
ATOM     20  C   UNL d   1       0.383  -0.634  -2.563  0.00  0.00     0.254 C 
ATOM     21  N   UNL d   1       0.332  -1.928  -3.019  0.00  0.00    -0.347 N 
ATOM     22  H   UNL d   1       0.503  -2.693  -2.376  0.00  0.00     0.163 HD
ATOM     23  O   UNL d   1       0.356   0.320  -3.338  0.00  0.00    -0.268 OA
BRANCH  21  24
ATOM     24  C   UNL d   1       0.289  -2.251  -4.436  0.00  0.00     0.232 C 
BRANCH  24  25
ATOM     25  C   UNL d   1       1.500  -3.063  -4.874  0.00  0.00     0.158 C 
ATOM     26  O   UNL d   1       2.314  -3.564  -4.106  0.00  0.00    -0.649 OA
BRANCH  25  27
ATOM     27  O   UNL d   1       1.562  -3.241  -6.214  0.00  0.00    -0.775 OA
ATOM     28  H   UNL d   1       0.853  -2.795  -6.717  0.00  0.00     0.167 HD
ENDBRANCH  25  27
ENDBRANCH  24  25
ENDBRANCH  21  24
ENDBRANCH   1  20
TORSDOF 8
