REMARK  3 active torsions:
REMARK  status: ('A' for Active; 'I' for Inactive)
REMARK    1  A    between atoms: C_2  and  C_1 
REMARK       I    between atoms: N_4  and  C_1 
REMARK    2  A    between atoms: C_17  and  N_4 
REMARK    3  A    between atoms: C_16  and  C_17 
ROOT
ATOM      1  C   UNL d   1      -1.222  -0.929  -0.879  0.00  0.00     0.161 C 
ENDROOT
BRANCH   1   2
ATOM      2  C   UNL d   1      -1.675  -1.861  -1.971  0.00  0.00    -0.038 A 
ATOM      3  C   UNL d   1      -1.798  -1.393  -3.290  0.00  0.00     0.048 A 
ATOM      4  C   UNL d   1      -2.207  -2.284  -4.260  0.00  0.00     0.105 A 
ATOM      5  O   UNL d   1      -2.383  -1.997  -5.577  0.00  0.00    -0.323 OA
ATOM      6  C   UNL d   1      -2.485  -3.598  -3.968  0.00  0.00     0.105 A 
ATOM      7  C   UNL d   1      -2.797  -3.283  -6.082  0.00  0.00     0.352 A 
ATOM      8  O   UNL d   1      -2.873  -4.303  -5.064  0.00  0.00    -0.323 OA
ATOM      9  C   UNL d   1      -2.366  -4.098  -2.689  0.00  0.00     0.040 A 
ATOM     10  C   UNL d   1      -1.951  -3.218  -1.684  0.00  0.00     0.012 A 
ENDBRANCH   1   2
BRANCH   1  11
ATOM     11  N   UNL d   1       0.212  -0.906  -0.768  0.00  0.00    -0.351 N 
ATOM     12  C   UNL d   1       0.841  -0.148   0.194  0.00  0.00     0.275 C 
ATOM     13  O   UNL d   1       0.214   0.569   0.972  0.00  0.00    -0.265 OA
ATOM     14  H   UNL d   1       0.788  -1.456  -1.395  0.00  0.00     0.163 HD
BRANCH  12  15
ATOM     15  C   UNL d   1       2.282  -0.275   0.213  0.00  0.00     0.142 A 
ATOM     16  O   UNL d   1       2.901  -1.150  -0.645  0.00  0.00    -0.317 OA
ATOM     17  C   UNL d   1       4.234  -1.085  -0.388  0.00  0.00     0.143 A 
ATOM     18  C   UNL d   1       4.490  -0.177   0.612  0.00  0.00     0.027 A 
ATOM     19  C   UNL d   1       3.234   0.348   0.998  0.00  0.00     0.045 A 
ENDBRANCH  12  15
ENDBRANCH   1  11
TORSDOF 3
