REMARK  2 active torsions:
REMARK  status: ('A' for Active; 'I' for Inactive)
REMARK    1  A    between atoms: C_11  and  C_4 
REMARK    2  A    between atoms: C_8  and  C_5 
ROOT
ATOM      1  C   UNL d   1       0.059  -0.960   0.015  0.00  0.00     0.071 A 
ATOM      2  N   UNL d   1      -1.681   0.515   0.059  0.00  0.00    -0.256 N 
ATOM      3  HN  UNL d   1      -2.620   0.914   0.057  1.00  0.00     0.195 HD
ATOM      4  C   UNL d   1      -1.385  -0.751   0.073  0.00  0.00     0.081 A 
ATOM      5  C   UNL d   1       0.725  -2.116  -0.118  0.00  0.00     0.033 C 
ATOM      6  C   UNL d   1       0.631   0.395   0.053  0.00  0.00     0.317 A 
ATOM      7  O   UNL d   1      -0.446   1.251   0.046  0.00  0.00    -0.194 OA
ATOM      8  O   UNL d   1       1.807   0.714   0.041  0.00  0.00    -0.257 OA
ENDROOT
BRANCH   4   9
ATOM      9  C   UNL d   1      -2.395  -1.820   0.129  0.00  0.00    -0.006 A 
ATOM     10  C   UNL d   1      -3.605  -1.632  -0.549  0.00  0.00     0.014 A 
ATOM     11  C   UNL d   1      -4.565  -2.646  -0.559  0.00  0.00     0.001 A 
ATOM     12  C   UNL d   1      -4.323  -3.845   0.110  0.00  0.00     0.000 A 
ATOM     13  C   UNL d   1      -3.139  -4.018   0.825  0.00  0.00     0.001 A 
ATOM     14  C   UNL d   1      -2.188  -2.999   0.857  0.00  0.00     0.014 A 
ENDBRANCH   4   9
BRANCH   5  15
ATOM     15  C   UNL d   1       2.183  -2.271  -0.083  0.00  0.00    -0.013 A 
ATOM     16  C   UNL d   1       2.894  -2.397   1.125  0.00  0.00     0.045 A 
ATOM     17  C   UNL d   1       4.276  -2.598   1.118  0.00  0.00     0.048 A 
ATOM     18 CL   UNL d   1       2.089  -2.352   2.657  0.00  0.00    -0.083 Cl
ATOM     19  C   UNL d   1       4.950  -2.676  -0.097  0.00  0.00     0.035 A 
ATOM     20  C   UNL d   1       4.260  -2.550  -1.302  0.00  0.00     0.024 A 
ATOM     21 CL   UNL d   1       6.649  -2.948  -0.113  0.00  0.00    -0.084 Cl
ATOM     22  C   UNL d   1       2.878  -2.346  -1.297  0.00  0.00     0.015 A 
ENDBRANCH   5  15
TORSDOF 2
