REMARK  4 active torsions:
REMARK  status: ('A' for Active; 'I' for Inactive)
REMARK       I    between atoms: C_2  and  N_1 
REMARK       I    between atoms: C_3  and  N_1 
REMARK       I    between atoms: N_7  and  C_2 
REMARK    1  A    between atoms: C_4  and  C_3 
REMARK    2  A    between atoms: C_5  and  C_8 
REMARK    3  A    between atoms: O_17  and  C_5 
REMARK    4  A    between atoms: C_14  and  N_7 
ROOT
ATOM      1  N   UNL d   1      -1.136   0.614  -1.435  0.00  0.00    -0.274 N 
ATOM      2  C   UNL d   1       0.216   0.411  -1.471  0.00  0.00     0.327 C 
ATOM      3  C   UNL d   1      -1.874   1.770  -1.598  0.00  0.00     0.266 C 
ATOM      4  N   UNL d   1       0.983   1.463  -1.901  0.00  0.00    -0.309 N 
ATOM      5  O   UNL d   1       0.618  -0.685  -1.086  0.00  0.00    -0.247 OA
ATOM      6  O   UNL d   1      -1.365   2.817  -1.999  0.00  0.00    -0.267 OA
ATOM      7  H   UNL d   1      -1.626  -0.196  -1.081  0.00  0.00     0.173 HD
ATOM      8  H   UNL d   1       0.494   2.347  -2.025  0.00  0.00     0.170 HD
ENDROOT
BRANCH   4   9
ATOM      9  C   UNL d   1       2.389   1.472  -2.017  0.00  0.00     0.037 A 
ATOM     10  C   UNL d   1       3.154   0.304  -1.978  0.00  0.00     0.047 A 
ATOM     11  C   UNL d   1       4.553   0.353  -2.009  0.00  0.00     0.041 A 
ATOM     12  C   UNL d   1       5.194   1.591  -2.121  0.00  0.00     0.018 A 
ATOM     13  C   UNL d   1       4.437   2.761  -2.208  0.00  0.00     0.003 A 
ATOM     14  C   UNL d   1       3.039   2.701  -2.161  0.00  0.00     0.029 A 
BRANCH  11  15
ATOM     15  C   UNL d   1       5.374  -0.883  -1.884  0.00  0.00     0.293 C 
ATOM     16  O   UNL d   1       6.595  -0.895  -1.911  0.00  0.00    -0.259 OA
BRANCH  15  17
ATOM     17  O   UNL d   1       4.570  -1.959  -1.700  0.00  0.00    -0.323 OA
ATOM     18  C   UNL d   1       5.245  -3.189  -1.448  0.00  0.00     0.213 C 
ENDBRANCH  15  17
ENDBRANCH  11  15
ENDBRANCH   4   9
BRANCH   3  19
ATOM     19  C   UNL d   1      -3.294   1.634  -1.290  0.00  0.00     0.072 A 
ATOM     20  S   UNL d   1      -3.928   0.220  -0.547  0.00  0.00    -0.097 SA
ATOM     21  C   UNL d   1      -5.515   0.846  -0.538  0.00  0.00     0.050 A 
ATOM     22  C   UNL d   1      -5.573   2.105  -1.091  0.00  0.00     0.009 A 
ATOM     23  C   UNL d   1      -4.293   2.562  -1.518  0.00  0.00     0.025 A 
ENDBRANCH   3  19
TORSDOF 4
