REMARK  1 active torsions:
REMARK  status: ('A' for Active; 'I' for Inactive)
REMARK    1  A    between atoms: O_12  and  C_5 
ROOT
ATOM      1  C   UNL d   1       0.243  -0.737  -0.001  0.00  0.00     0.055 A 
ATOM      2  C   UNL d   1       0.106   0.644  -0.000  0.00  0.00     0.089 A 
ATOM      3  S   UNL d   1       1.599   1.460   0.001  0.00  0.00    -0.083 SA
ATOM      4  C   UNL d   1       1.642  -1.123  -0.001  0.00  0.00    -0.038 A 
ATOM      5  C   UNL d   1      -0.968  -1.447  -0.002  0.00  0.00     0.156 A 
ATOM      6  C   UNL d   1       2.465  -0.010   0.001  0.00  0.00     0.059 A 
ATOM      7  N   UNL d   1      -1.044   1.340  -0.000  0.00  0.00    -0.346 N 
ATOM      8  HN  UNL d   1      -1.089   2.359   0.001  1.00  0.00     0.167 HD
ATOM      9  N   UNL d   1      -2.148  -0.792  -0.003  0.00  0.00    -0.332 N 
ATOM     10  HN  UNL d   1      -3.033  -1.300  -0.004  1.00  0.00     0.168 HD
ATOM     11  C   UNL d   1      -2.120   0.548  -0.002  0.00  0.00     0.183 A 
ATOM     12  C   UNL d   1       2.174  -2.519  -0.002  0.00  0.00     0.050 C 
ENDROOT
BRANCH   5  13
ATOM     13  O   UNL d   1      -0.953  -2.827  -0.003  0.00  0.00    -0.340 OA
ATOM     14  C   UNL d   1      -2.246  -3.418  -0.004  0.00  0.00     0.211 C 
ENDBRANCH   5  13
TORSDOF 1
