REMARK  2 active torsions:
REMARK  status: ('A' for Active; 'I' for Inactive)
REMARK    1  A    between atoms: N_5  and  C_1 
REMARK       I    between atoms: C_2  and  N_5 
REMARK    2  A    between atoms: C_3  and  C_2 
ROOT
ATOM      1  C   UNL d   1       2.980  -0.278  -3.094  0.00  0.00     0.253 C 
ATOM      2  N   UNL d   1       2.971  -1.199  -2.081  0.00  0.00    -0.351 N 
ATOM      3  O   UNL d   1       3.529   0.815  -2.976  0.00  0.00    -0.268 OA
ATOM      4  H   UNL d   1       2.528  -2.094  -2.262  0.00  0.00     0.163 HD
ENDROOT
BRANCH   2   5
ATOM      5  C   UNL d   1       3.746  -1.087  -0.842  0.00  0.00     0.101 C 
ATOM      6  C   UNL d   1       5.038  -1.985  -0.880  0.00  0.00    -0.022 C 
ATOM      7  C   UNL d   1       5.269  -2.348   0.595  0.00  0.00     0.016 C 
ATOM      8  C   UNL d   1       4.702  -3.391  -1.423  0.00  0.00     0.011 C 
ATOM      9  C   UNL d   1       6.235  -1.331  -1.540  0.00  0.00     0.017 C 
ATOM     10  C   UNL d   1       3.841  -2.876   0.786  0.00  0.00    -0.004 C 
ATOM     11  C   UNL d   1       2.984  -1.624   0.421  0.00  0.00    -0.023 C 
ATOM     12  C   UNL d   1       3.795  -3.961  -0.318  0.00  0.00     0.006 C 
ATOM     13  C   UNL d   1       3.037  -0.592   1.579  0.00  0.00     0.017 C 
ATOM     14  C   UNL d   1       1.490  -1.919   0.209  0.00  0.00     0.017 C 
ENDBRANCH   2   5
BRANCH   1  15
ATOM     15  C   UNL d   1       2.333  -0.644  -4.409  0.00  0.00     0.053 A 
ATOM     16  C   UNL d   1       1.614  -1.816  -4.703  0.00  0.00     0.051 A 
ATOM     17  C   UNL d   1       1.155  -2.066  -6.009  0.00  0.00     0.048 A 
ATOM     18 CL   UNL d   1       1.210  -3.037  -3.547  0.00  0.00    -0.083 Cl
ATOM     19  C   UNL d   1       1.392  -1.149  -7.026  0.00  0.00     0.035 A 
ATOM     20  C   UNL d   1       2.061   0.037  -6.752  0.00  0.00     0.025 A 
ATOM     21 CL   UNL d   1       0.866  -1.487  -8.627  0.00  0.00    -0.084 Cl
ATOM     22  C   UNL d   1       2.524   0.285  -5.455  0.00  0.00     0.020 A 
ENDBRANCH   1  15
TORSDOF 2
