REMARK  6 active torsions:
REMARK  status: ('A' for Active; 'I' for Inactive)
REMARK    1  A    between atoms: N_3  and  S_1 
REMARK    2  A    between atoms: C_9  and  S_1 
REMARK    3  A    between atoms: C_2  and  N_3 
REMARK    4  A    between atoms: C_20  and  N_7 
REMARK    5  A    between atoms: C_17  and  C_8 
REMARK    6  A    between atoms: C_22  and  C_20 
ROOT
ATOM      1  N   UNL d   1      -0.824  -6.299  -1.941  0.00  0.00    -0.197 NA
ATOM      2  C   UNL d   1      -1.309  -5.315  -2.325  0.00  0.00     0.060 C 
ATOM      3  C   UNL d   1      -1.888  -4.043  -2.765  0.00  0.00     0.146 C 
ENDROOT
BRANCH   3   4
ATOM      4  C   UNL d   1      -1.266  -2.873  -1.998  0.00  0.00     0.165 C 
BRANCH   4   5
ATOM      5  N   UNL d   1       0.162  -2.699  -2.218  0.00  0.00    -0.275 N 
ATOM      6  N   UNL d   1       0.688  -3.123  -3.379  0.00  0.00    -0.296 N 
ATOM      7  C   UNL d   1       1.968  -2.723  -3.362  0.00  0.00     0.062 A 
ATOM      8  HN  UNL d   1       0.213  -3.640  -4.118  1.00  0.00     0.187 HD
ATOM      9  C   UNL d   1       2.222  -1.940  -2.205  0.00  0.00     0.082 A 
ATOM     10  C   UNL d   1       1.066  -1.997  -1.464  0.00  0.00     0.134 A 
BRANCH   7  11
ATOM     11  C   UNL d   1       2.906  -3.116  -4.413  0.00  0.00    -0.008 A 
ATOM     12  C   UNL d   1       2.655  -4.260  -5.187  0.00  0.00     0.014 A 
ATOM     13  C   UNL d   1       3.558  -4.669  -6.169  0.00  0.00     0.001 A 
ATOM     14  C   UNL d   1       4.723  -3.938  -6.389  0.00  0.00     0.000 A 
ATOM     15  C   UNL d   1       4.984  -2.799  -5.630  0.00  0.00     0.001 A 
ATOM     16  C   UNL d   1       4.081  -2.389  -4.646  0.00  0.00     0.014 A 
ENDBRANCH   7  11
BRANCH  10  17
ATOM     17  N   UNL d   1       0.944  -1.448  -0.204  0.00  0.00    -0.264 N 
ATOM     18  H   UNL d   1       1.315  -0.522  -0.043  0.00  0.00     0.180 HD
BRANCH  17  19
ATOM     19  S   UNL d   1       0.944  -2.370   1.149  0.00  0.00     0.264 S 
ATOM     20  O   UNL d   1       0.006  -3.465   1.038  0.00  0.00    -0.200 OA
ATOM     21  O   UNL d   1       0.915  -1.491   2.300  0.00  0.00    -0.200 OA
BRANCH  19  22
ATOM     22  C   UNL d   1       2.595  -3.082   1.116  0.00  0.00     0.081 A 
ATOM     23  C   UNL d   1       3.663  -2.380   1.690  0.00  0.00     0.050 A 
ATOM     24  C   UNL d   1       4.950  -2.931   1.655  0.00  0.00     0.057 A 
ATOM     25 CL   UNL d   1       6.230  -2.011   2.363  0.00  0.00    -0.083 Cl
ATOM     26  C   UNL d   1       5.166  -4.178   1.055  0.00  0.00     0.055 A 
ATOM     27  C   UNL d   1       4.090  -4.874   0.493  0.00  0.00     0.027 A 
ATOM     28 CL   UNL d   1       6.728  -4.908   0.973  0.00  0.00    -0.083 Cl
ATOM     29  C   UNL d   1       2.800  -4.334   0.527  0.00  0.00     0.027 A 
ENDBRANCH  19  22
ENDBRANCH  17  19
ENDBRANCH  10  17
ENDBRANCH   4   5
ENDBRANCH   3   4
TORSDOF 6
