REMARK  4 active torsions:
REMARK  status: ('A' for Active; 'I' for Inactive)
REMARK    1  A    between atoms: C_15  and  C_4 
REMARK    2  A    between atoms: O_17  and  C_9 
REMARK    3  A    between atoms: C_11  and  C_16 
REMARK    4  A    between atoms: C_14  and  O_17 
ROOT
ATOM      1  N   UNL d   1       0.718  -0.075   0.804  0.00  0.00    -0.317 N 
ATOM      2  HN  UNL d   1       1.355  -0.039   1.599  1.00  0.00     0.169 HD
ATOM      3  C   UNL d   1       0.494  -1.078  -0.021  0.00  0.00     0.206 A 
ATOM      4  C   UNL d   1      -0.118   0.912   0.334  0.00  0.00     0.138 A 
ATOM      5  N   UNL d   1      -0.834   0.549  -0.741  0.00  0.00    -0.242 N 
ATOM      6  HN  UNL d   1      -1.516   1.103  -1.260  1.00  0.00     0.196 HD
ATOM      7  C   UNL d   1       1.144  -2.347   0.095  0.00  0.00     0.131 A 
ATOM      8  O   UNL d   1      -0.427  -0.765  -0.982  0.00  0.00    -0.215 OA
ATOM      9  C   UNL d   1       1.786  -4.401  -0.392  0.00  0.00     0.191 A 
ATOM     10  O   UNL d   1       0.993  -3.374  -0.804  0.00  0.00    -0.283 OA
ATOM     11  C   UNL d   1       2.015  -2.755   1.093  0.00  0.00     0.047 A 
ATOM     12  C   UNL d   1       2.397  -4.082   0.800  0.00  0.00     0.067 A 
ENDROOT
BRANCH   4  13
ATOM     13  C   UNL d   1      -0.194   2.220   0.977  0.00  0.00     0.010 A 
ATOM     14  C   UNL d   1       0.658   2.529   2.048  0.00  0.00     0.016 A 
ATOM     15  C   UNL d   1       0.600   3.779   2.673  0.00  0.00     0.017 A 
ATOM     16  C   UNL d   1      -0.315   4.749   2.239  0.00  0.00     0.048 A 
ATOM     17  C   UNL d   1      -1.170   4.442   1.171  0.00  0.00     0.017 A 
ATOM     18  C   UNL d   1      -1.109   3.190   0.546  0.00  0.00     0.016 A 
BRANCH  16  19
ATOM     19  C   UNL d   1      -0.362   6.098   2.918  0.00  0.00     0.417 C 
ATOM     20  F   UNL d   1      -1.295   6.941   2.394  0.00  0.00    -0.166 F 
ATOM     21  F   UNL d   1      -0.649   6.002   4.246  0.00  0.00    -0.166 F 
ATOM     22  F   UNL d   1       0.826   6.760   2.840  0.00  0.00    -0.166 F 
ENDBRANCH  16  19
ENDBRANCH   4  13
BRANCH   9  23
ATOM     23  O   UNL d   1       1.803  -5.445  -1.219  0.00  0.00    -0.288 OA
BRANCH  23  24
ATOM     24  C   UNL d   1       2.916  -6.253  -1.295  0.00  0.00     0.081 A 
ATOM     25  C   UNL d   1       2.706  -7.614  -1.522  0.00  0.00     0.061 A 
ATOM     26  C   UNL d   1       3.804  -8.469  -1.637  0.00  0.00     0.038 A 
ATOM     27 CL   UNL d   1       3.551 -10.148  -1.919  0.00  0.00    -0.084 Cl
ATOM     28  C   UNL d   1       5.103  -7.979  -1.529  0.00  0.00     0.048 A 
ATOM     29  C   UNL d   1       5.303  -6.619  -1.324  0.00  0.00     0.038 A 
ATOM     30  C   UNL d   1       4.220  -5.751  -1.226  0.00  0.00     0.061 A 
ATOM     31 CL   UNL d   1       6.901  -5.997  -1.187  0.00  0.00    -0.084 Cl
ENDBRANCH  23  24
ENDBRANCH   9  23
TORSDOF 4
