REMARK  5 active torsions:
REMARK  status: ('A' for Active; 'I' for Inactive)
REMARK    1  A    between atoms: C_3  and  S_1 
REMARK    2  A    between atoms: C_8  and  S_1 
REMARK    3  A    between atoms: C_2  and  C_4 
REMARK    4  A    between atoms: C_5  and  C_3 
REMARK    5  A    between atoms: C_11  and  C_8 
ROOT
ATOM      1  C   UNL d   1       4.573   1.898  -2.978  0.00  0.00     0.048 A 
ATOM      2  C   UNL d   1       4.089   0.877  -2.141  0.00  0.00     0.024 A 
ATOM      3  C   UNL d   1       3.292   1.166  -1.020  0.00  0.00    -0.043 A 
ATOM      4  C   UNL d   1       4.252   3.228  -2.678  0.00  0.00     0.016 A 
ATOM      5  C   UNL d   1       3.502   3.532  -1.545  0.00  0.00     0.001 A 
ATOM      6  C   UNL d   1       3.043   2.510  -0.713  0.00  0.00     0.008 A 
ENDROOT
BRANCH   3   7
ATOM      7  C   UNL d   1       2.803   0.044  -0.139  0.00  0.00     0.179 C 
BRANCH   7   8
ATOM      8  S   UNL d   1       1.012  -0.004  -0.003  0.00  0.00     0.154 S 
ATOM      9  O   UNL d   1       0.663  -1.249   0.669  0.00  0.00    -0.227 OA
ATOM     10  O   UNL d   1       0.549   1.245   0.578  0.00  0.00    -0.227 OA
BRANCH   8  11
ATOM     11  C   UNL d   1       0.360  -0.096  -1.656  0.00  0.00     0.209 C 
BRANCH  11  12
ATOM     12  C   UNL d   1       0.754  -1.361  -2.367  0.00  0.00     0.085 C 
ATOM     13  S   UNL d   1       1.611  -1.358  -3.798  0.00  0.00    -0.065 SA
ATOM     14  N   UNL d   1       0.300  -2.545  -1.869  0.00  0.00    -0.393 N 
ATOM     15  H   UNL d   1      -0.109  -2.624  -0.938  0.00  0.00     0.156 HD
ATOM     16  H   UNL d   1       0.547  -3.413  -2.333  0.00  0.00     0.156 HD
ENDBRANCH  11  12
ENDBRANCH   8  11
ENDBRANCH   7   8
ENDBRANCH   3   7
BRANCH   1  17
ATOM     17  C   UNL d   1       5.435   1.585  -4.178  0.00  0.00     0.417 C 
ATOM     18  F   UNL d   1       5.741   0.263  -4.300  0.00  0.00    -0.166 F 
ATOM     19  F   UNL d   1       4.849   1.945  -5.352  0.00  0.00    -0.166 F 
ATOM     20  F   UNL d   1       6.630   2.238  -4.140  0.00  0.00    -0.166 F 
ENDBRANCH   1  17
TORSDOF 5
