REMARK  2 active torsions:
REMARK  status: ('A' for Active; 'I' for Inactive)
REMARK    1  A    between atoms: C_7  and  N_1 
REMARK    2  A    between atoms: S_12  and  C_2 
ROOT
ATOM      1  N   UNL d   1       2.418  -0.687   0.010  0.00  0.00    -0.258 N 
ATOM      2  C   UNL d   1       2.352   0.703  -0.013  0.00  0.00     0.154 A 
ATOM      3  C   UNL d   1       1.258  -1.462   0.023  0.00  0.00     0.266 A 
ATOM      4  N   UNL d   1       1.241   1.368  -0.034  0.00  0.00    -0.335 N 
ATOM      5  HN  UNL d   1       1.247   2.388  -0.051  1.00  0.00     0.168 HD
ATOM      6  C   UNL d   1      -0.017  -0.728   0.002  0.00  0.00     0.059 A 
ATOM      7  C   UNL d   1       0.034   0.662  -0.031  0.00  0.00     0.049 A 
ATOM      8  O   UNL d   1       1.229  -2.692   0.051  0.00  0.00    -0.267 OA
ATOM      9  C   UNL d   1      -1.239  -1.411   0.009  0.00  0.00     0.019 A 
ATOM     10  C   UNL d   1      -1.167   1.375  -0.057  0.00  0.00     0.030 A 
ATOM     11  C   UNL d   1      -2.430  -0.690  -0.019  0.00  0.00     0.001 A 
ATOM     12  C   UNL d   1      -2.394   0.704  -0.053  0.00  0.00     0.002 A 
ENDROOT
BRANCH   1  13
ATOM     13  C   UNL d   1       3.641  -1.410  -0.004  0.00  0.00     0.046 A 
ATOM     14  C   UNL d   1       4.168  -1.852  -1.224  0.00  0.00     0.057 A 
ATOM     15  C   UNL d   1       5.279  -2.696  -1.227  0.00  0.00     0.074 A 
ATOM     16 CL   UNL d   1       5.906  -3.261  -2.728  0.00  0.00    -0.081 Cl
ATOM     17  C   UNL d   1       5.855  -3.095  -0.021  0.00  0.00     0.138 A 
ATOM     18  C   UNL d   1       5.338  -2.651   1.194  0.00  0.00     0.046 A 
ATOM     19  F   UNL d   1       6.907  -3.926  -0.006  0.00  0.00    -0.204 F 
ATOM     20  C   UNL d   1       4.226  -1.808   1.206  0.00  0.00     0.033 A 
ENDBRANCH   1  13
BRANCH   2  21
ATOM     21  S   UNL d   1       3.863   1.608  -0.002  0.00  0.00    -0.098 SA
ATOM     22  C   UNL d   1       3.255   3.308  -0.091  0.00  0.00     0.099 C 
ENDBRANCH   2  21
TORSDOF 2
