REMARK  4 active torsions:
REMARK  status: ('A' for Active; 'I' for Inactive)
REMARK    1  A    between atoms: N_7  and  C_1 
REMARK    2  A    between atoms: C_8  and  C_2 
REMARK    3  A    between atoms: O_14  and  C_8 
REMARK    4  A    between atoms: C_16  and  O_14 
ROOT
ATOM      1  C   UNL d   1       0.627   1.147   0.008  0.00  0.00     0.155 A 
ATOM      2  C   UNL d   1      -0.166  -1.127  -0.025  0.00  0.00     0.105 A 
ATOM      3  S   UNL d   1       1.373  -0.368  -0.152  0.00  0.00    -0.045 SA
ATOM      4  N   UNL d   1      -0.680   1.150   0.138  0.00  0.00    -0.339 N 
ATOM      5  HN  UNL d   1      -1.257   1.982   0.262  1.00  0.00     0.168 HD
ATOM      6  C   UNL d   1      -1.153  -0.153   0.082  0.00  0.00     0.030 A 
ATOM      7  C   UNL d   1      -2.630  -0.344   0.104  0.00  0.00     0.070 C 
ENDROOT
BRANCH   1   8
ATOM      8  N   UNL d   1       1.392   2.322  -0.010  0.00  0.00    -0.313 N 
ATOM      9  C   UNL d   1       2.754   2.474  -0.222  0.00  0.00     0.098 A 
ATOM     10  C   UNL d   1       3.077   3.813  -0.175  0.00  0.00     0.019 A 
ATOM     11  C   UNL d   1       1.888   4.523   0.090  0.00  0.00     0.019 A 
ATOM     12  C   UNL d   1       0.876   3.595   0.182  0.00  0.00     0.098 A 
ENDBRANCH   1   8
BRANCH   2  13
ATOM     13  C   UNL d   1      -0.251  -2.566  -0.113  0.00  0.00     0.302 C 
ATOM     14  O   UNL d   1       0.670  -3.331  -0.385  0.00  0.00    -0.259 OA
BRANCH  13  15
ATOM     15  O   UNL d   1      -1.540  -2.964   0.073  0.00  0.00    -0.317 OA
BRANCH  15  16
ATOM     16  C   UNL d   1      -1.874  -4.254  -0.451  0.00  0.00     0.174 C 
ATOM     17  C   UNL d   1      -2.230  -4.076  -1.917  0.00  0.00     0.034 C 
ENDBRANCH  15  16
ENDBRANCH  13  15
ENDBRANCH   2  13
TORSDOF 4
