REMARK  6 active torsions:
REMARK  status: ('A' for Active; 'I' for Inactive)
REMARK    1  A    between atoms: C_4  and  S_1 
REMARK    2  A    between atoms: N_7  and  S_1 
REMARK    3  A    between atoms: C_2  and  C_5 
REMARK    4  A    between atoms: C_3  and  C_6 
REMARK    5  A    between atoms: C_25  and  N_7 
REMARK    6  A    between atoms: C_16  and  C_25 
ROOT
ATOM      1  C   UNL d   1       0.643  -5.449  -2.571  0.00  0.00     0.049 A 
ATOM      2  C   UNL d   1      -1.021  -4.257  -3.908  0.00  0.00     0.049 A 
ATOM      3  C   UNL d   1      -0.444  -5.457  -3.459  0.00  0.00     0.032 A 
ATOM      4  C   UNL d   1      -0.505  -3.038  -3.440  0.00  0.00     0.025 A 
ATOM      5  C   UNL d   1       1.146  -4.215  -2.123  0.00  0.00     0.025 A 
ATOM      6  C   UNL d   1       0.585  -3.003  -2.559  0.00  0.00    -0.038 A 
ENDROOT
BRANCH   6   7
ATOM      7  C   UNL d   1       1.121  -1.678  -2.068  0.00  0.00     0.170 C 
BRANCH   7   8
ATOM      8  N   UNL d   1       0.371  -1.208  -0.916  0.00  0.00    -0.311 N 
ATOM      9  H   UNL d   1      -0.111  -1.879  -0.319  0.00  0.00     0.172 HD
BRANCH   8  10
ATOM     10  S   UNL d   1       0.855   0.204  -0.161  0.00  0.00     0.259 S 
ATOM     11  O   UNL d   1       0.408   0.117   1.204  0.00  0.00    -0.201 OA
ATOM     12  O   UNL d   1       2.225   0.484  -0.509  0.00  0.00    -0.201 OA
BRANCH  10  13
ATOM     13  C   UNL d   1      -0.189   1.374  -0.997  0.00  0.00     0.081 A 
ATOM     14  C   UNL d   1      -1.453   1.654  -0.471  0.00  0.00     0.050 A 
ATOM     15  C   UNL d   1      -2.306   2.521  -1.156  0.00  0.00     0.057 A 
ATOM     16 CL   UNL d   1      -3.871   2.803  -0.480  0.00  0.00    -0.083 Cl
ATOM     17  C   UNL d   1      -1.886   3.113  -2.354  0.00  0.00     0.055 A 
ATOM     18  C   UNL d   1      -0.604   2.851  -2.853  0.00  0.00     0.027 A 
ATOM     19 CL   UNL d   1      -2.903   4.164  -3.271  0.00  0.00    -0.083 Cl
ATOM     20  C   UNL d   1       0.253   1.985  -2.172  0.00  0.00     0.027 A 
ENDBRANCH  10  13
ENDBRANCH   8  10
ENDBRANCH   7   8
ENDBRANCH   6   7
BRANCH   2  21
ATOM     21  C   UNL d   1      -2.159  -4.260  -4.900  0.00  0.00     0.417 C 
ATOM     22  F   UNL d   1      -2.548  -5.508  -5.279  0.00  0.00    -0.166 F 
ATOM     23  F   UNL d   1      -3.274  -3.647  -4.416  0.00  0.00    -0.166 F 
ATOM     24  F   UNL d   1      -1.838  -3.603  -6.048  0.00  0.00    -0.166 F 
ENDBRANCH   2  21
BRANCH   1  25
ATOM     25  C   UNL d   1       1.286  -6.745  -2.127  0.00  0.00     0.417 C 
ATOM     26  F   UNL d   1       0.680  -7.852  -2.635  0.00  0.00    -0.166 F 
ATOM     27  F   UNL d   1       2.593  -6.828  -2.501  0.00  0.00    -0.166 F 
ATOM     28  F   UNL d   1       1.271  -6.896  -0.773  0.00  0.00    -0.166 F 
ENDBRANCH   1  25
TORSDOF 6
