REMARK  3 active torsions:
REMARK  status: ('A' for Active; 'I' for Inactive)
REMARK    1  A    between atoms: C_7  and  N_3 
REMARK    2  A    between atoms: C_11  and  C_6 
REMARK    3  A    between atoms: O_14  and  C_6 
ROOT
ATOM      1  C   UNL d   1      -0.719  -0.903  -0.277  0.00  0.00     0.092 C 
ATOM      2  C   UNL d   1       0.772  -0.961  -0.100  0.00  0.00     0.128 C 
ATOM      3  N   UNL d   1       1.179   0.353   0.151  0.00  0.00    -0.265 N 
ATOM      4  C   UNL d   1       0.138   1.260   0.228  0.00  0.00     0.304 C 
ATOM      5  C   UNL d   1      -1.153   0.477   0.037  0.00  0.00     0.256 C 
ATOM      6  C   UNL d   1      -1.540  -1.895  -0.672  0.00  0.00     0.093 C 
ATOM      7  S   UNL d   1       1.728  -2.342  -0.090  0.00  0.00    -0.059 SA
ATOM      8  O   UNL d   1       0.162   2.468   0.355  0.00  0.00    -0.263 OA
ATOM      9  O   UNL d   1      -2.264   0.930   0.181  0.00  0.00    -0.281 OA
ENDROOT
BRANCH   6  10
ATOM     10  C   UNL d   1      -2.978  -1.716  -0.914  0.00  0.00    -0.002 A 
ATOM     11  C   UNL d   1      -3.427  -1.320  -2.181  0.00  0.00     0.014 A 
ATOM     12  C   UNL d   1      -4.793  -1.174  -2.431  0.00  0.00     0.001 A 
ATOM     13  C   UNL d   1      -5.716  -1.426  -1.418  0.00  0.00     0.000 A 
ATOM     14  C   UNL d   1      -5.277  -1.825  -0.156  0.00  0.00     0.001 A 
ATOM     15  C   UNL d   1      -3.911  -1.973   0.097  0.00  0.00     0.014 A 
ENDBRANCH   6  10
BRANCH   6  16
ATOM     16  O   UNL d   1      -1.140  -3.185  -0.961  0.00  0.00    -0.359 OA
ATOM     17  H   UNL d   1      -0.196  -3.308  -0.751  0.00  0.00     0.217 HD
ENDBRANCH   6  16
BRANCH   3  18
ATOM     18  C   UNL d   1       2.520   0.790   0.317  0.00  0.00     0.044 A 
ATOM     19  C   UNL d   1       2.870   1.551   1.441  0.00  0.00     0.032 A 
ATOM     20  C   UNL d   1       4.193   1.960   1.636  0.00  0.00     0.026 A 
ATOM     21  C   UNL d   1       5.162   1.646   0.686  0.00  0.00     0.034 A 
ATOM     22  C   UNL d   1       4.819   0.926  -0.456  0.00  0.00     0.026 A 
ATOM     23 CL   UNL d   1       6.787   2.155   0.922  0.00  0.00    -0.084 Cl
ATOM     24  C   UNL d   1       3.503   0.489  -0.636  0.00  0.00     0.032 A 
ENDBRANCH   3  18
TORSDOF 3
