REMARK  5 active torsions:
REMARK  status: ('A' for Active; 'I' for Inactive)
REMARK    1  A    between atoms: C_15  and  N_1 
REMARK    2  A    between atoms: S_13  and  C_2 
REMARK    3  A    between atoms: O_17  and  C_3 
REMARK    4  A    between atoms: C_10  and  C_16 
REMARK    5  A    between atoms: C_16  and  S_13 
ROOT
ATOM      1  N   UNL d   1      -0.188  -1.356   0.085  0.00  0.00    -0.255 N 
ATOM      2  C   UNL d   1       1.061  -0.767   0.212  0.00  0.00     0.169 A 
ATOM      3  C   UNL d   1      -1.044  -0.261   0.019  0.00  0.00     0.245 A 
ATOM      4  N   UNL d   1       0.956   0.541   0.254  0.00  0.00    -0.276 N 
ATOM      5  HN  UNL d   1       1.724   1.202   0.369  1.00  0.00     0.189 HD
ATOM      6  N   UNL d   1      -0.369   0.860   0.114  0.00  0.00    -0.263 N 
ATOM      7  HN  UNL d   1      -0.761   1.801   0.089  1.00  0.00     0.190 HD
ENDROOT
BRANCH   2   8
ATOM      8  S   UNL d   1       2.583  -1.596   0.115  0.00  0.00    -0.086 SA
BRANCH   8   9
ATOM      9  C   UNL d   1       3.428  -0.896   1.563  0.00  0.00     0.140 C 
BRANCH   9  10
ATOM     10  C   UNL d   1       2.807  -1.341   2.850  0.00  0.00     0.026 A 
ATOM     11  N   UNL d   1       3.156  -2.577   3.385  0.00  0.00    -0.356 N 
ATOM     12  C   UNL d   1       2.541  -2.769   4.532  0.00  0.00     0.047 A 
ATOM     13  HN  UNL d   1       3.798  -3.240   2.949  1.00  0.00     0.166 HD
ATOM     14  C   UNL d   1       2.718  -3.967   5.397  0.00  0.00     0.076 C 
ATOM     15  S   UNL d   1       1.476  -1.511   5.016  0.00  0.00    -0.087 SA
ATOM     16  C   UNL d   1       1.895  -0.629   3.610  0.00  0.00     0.077 A 
ENDBRANCH   9  10
ENDBRANCH   8   9
ENDBRANCH   2   8
BRANCH   1  17
ATOM     17  C   UNL d   1      -0.550  -2.733   0.051  0.00  0.00     0.045 A 
ATOM     18  C   UNL d   1       0.154  -3.674   0.813  0.00  0.00     0.030 A 
ATOM     19  C   UNL d   1      -0.202  -5.023   0.772  0.00  0.00     0.002 A 
ATOM     20  C   UNL d   1      -1.270  -5.440  -0.018  0.00  0.00     0.000 A 
ATOM     21  C   UNL d   1      -1.984  -4.510  -0.769  0.00  0.00     0.002 A 
ATOM     22  C   UNL d   1      -1.628  -3.158  -0.740  0.00  0.00     0.030 A 
ENDBRANCH   1  17
BRANCH   3  23
ATOM     23  O   UNL d   1      -2.371  -0.285  -0.011  0.00  0.00    -0.331 OA
ATOM     24  H   UNL d   1      -2.672  -1.134   0.349  0.00  0.00     0.221 HD
ENDBRANCH   3  23
TORSDOF 5
