REMARK  5 active torsions:
REMARK  status: ('A' for Active; 'I' for Inactive)
REMARK    1  A    between atoms: C_12  and  N_1 
REMARK    2  A    between atoms: C_8  and  C_5 
REMARK    3  A    between atoms: S_6  and  N_10 
REMARK    4  A    between atoms: C_11  and  S_6 
REMARK    5  A    between atoms: N_10  and  C_24 
ROOT
ATOM      1  C   UNL d   1       2.219  -1.242  -0.181  0.00  0.00     0.057 A 
ATOM      2  C   UNL d   1       4.522  -2.813  -0.302  0.00  0.00     0.042 A 
ATOM      3  C   UNL d   1       2.479  -2.022  -1.317  0.00  0.00     0.034 A 
ATOM      4  C   UNL d   1       3.166  -1.177   0.850  0.00  0.00     0.034 A 
ATOM      5  C   UNL d   1       3.637  -2.803  -1.378  0.00  0.00     0.032 A 
ATOM      6  C   UNL d   1       4.300  -1.990   0.801  0.00  0.00     0.032 A 
ENDROOT
BRANCH   1   7
ATOM      7  N   UNL d   1       0.987  -0.546  -0.038  0.00  0.00    -0.255 N 
ATOM      8  C   UNL d   1      -0.277  -0.902  -0.496  0.00  0.00     0.076 C 
ATOM      9  C   UNL d   1      -1.061   0.221  -0.322  0.00  0.00     0.069 C 
ATOM     10  C   UNL d   1      -0.693  -2.217  -0.913  0.00  0.00     0.033 A 
ATOM     11  C   UNL d   1      -0.277   1.126   0.436  0.00  0.00     0.135 C 
ATOM     12  N   UNL d   1       0.946   0.614   0.671  0.00  0.00    -0.289 N 
ATOM     13  HN  UNL d   1       1.682   1.010   1.256  1.00  0.00     0.187 HD
ATOM     14  S   UNL d   1      -1.853  -2.449  -2.154  0.00  0.00    -0.100 SA
ATOM     15  C   UNL d   1      -0.309  -3.428  -0.363  0.00  0.00     0.021 A 
ATOM     16  C   UNL d   1      -1.830  -4.147  -1.958  0.00  0.00     0.050 A 
ATOM     17  C   UNL d   1      -0.954  -4.542  -0.972  0.00  0.00     0.008 A 
BRANCH  11  18
ATOM     18  C   UNL d   1      -0.742   2.452   0.978  0.00  0.00     0.434 C 
ATOM     19  F   UNL d   1       0.173   3.074   1.765  0.00  0.00    -0.165 F 
ATOM     20  F   UNL d   1      -1.053   3.319  -0.024  0.00  0.00    -0.165 F 
ATOM     21  F   UNL d   1      -1.871   2.314   1.726  0.00  0.00    -0.165 F 
ENDBRANCH  11  18
ENDBRANCH   1   7
BRANCH   2  22
ATOM     22  N   UNL d   1       5.554  -3.777  -0.243  0.00  0.00    -0.281 N 
ATOM     23  H   UNL d   1       5.386  -4.676   0.197  0.00  0.00     0.179 HD
BRANCH  22  24
ATOM     24  S   UNL d   1       7.046  -3.550  -0.950  0.00  0.00     0.263 S 
ATOM     25  O   UNL d   1       7.804  -4.755  -0.690  0.00  0.00    -0.200 OA
ATOM     26  O   UNL d   1       6.864  -3.056  -2.300  0.00  0.00    -0.200 OA
BRANCH  24  27
ATOM     27  C   UNL d   1       7.747  -2.247   0.031  0.00  0.00     0.080 A 
ATOM     28  C   UNL d   1       8.443  -2.559   1.200  0.00  0.00     0.027 A 
ATOM     29  C   UNL d   1       8.991  -1.534   1.972  0.00  0.00     0.025 A 
ATOM     30  C   UNL d   1       8.847  -0.207   1.563  0.00  0.00     0.034 A 
ATOM     31  C   UNL d   1       8.172   0.104   0.382  0.00  0.00     0.025 A 
ATOM     32 CL   UNL d   1       9.512   1.059   2.522  0.00  0.00    -0.084 Cl
ATOM     33  C   UNL d   1       7.622  -0.918  -0.394  0.00  0.00     0.027 A 
ENDBRANCH  24  27
ENDBRANCH  22  24
ENDBRANCH   2  22
TORSDOF 5
