REMARK  8 active torsions:
REMARK  status: ('A' for Active; 'I' for Inactive)
REMARK    1  A    between atoms: C_5  and  S_1 
REMARK    2  A    between atoms: O_8  and  S_1 
REMARK    3  A    between atoms: S_2  and  O_7 
REMARK    4  A    between atoms: C_6  and  S_2 
REMARK    5  A    between atoms: C_3  and  O_8 
REMARK    6  A    between atoms: O_7  and  C_4 
REMARK    7  A    between atoms: C_21  and  C_9 
REMARK    8  A    between atoms: C_22  and  C_10 
ROOT
ATOM      1  C   UNL d   1       0.797   0.489  -2.450  0.00  0.00     0.097 C 
ATOM      2  C   UNL d   1       1.790   1.870  -4.681  0.00  0.00     0.097 C 
ATOM      3  C   UNL d   1       0.422   1.574  -4.653  0.00  0.00    -0.013 C 
ATOM      4  C   UNL d   1       2.188   0.542  -2.628  0.00  0.00    -0.013 C 
ATOM      5  C   UNL d   1       2.639   1.264  -3.748  0.00  0.00     0.049 C 
ATOM      6  C   UNL d   1      -0.056   0.934  -3.483  0.00  0.00     0.049 C 
ENDROOT
BRANCH   1   7
ATOM      7  O   UNL d   1       0.301  -0.048  -1.282  0.00  0.00    -0.229 OA
BRANCH   7   8
ATOM      8  S   UNL d   1      -1.157   0.385  -0.680  0.00  0.00     0.303 S 
ATOM      9  O   UNL d   1      -1.329   1.822  -0.826  0.00  0.00    -0.193 OA
ATOM     10  O   UNL d   1      -2.155  -0.542  -1.173  0.00  0.00    -0.193 OA
BRANCH   8  11
ATOM     11  C   UNL d   1      -1.051   0.102   1.073  0.00  0.00     0.090 A 
ATOM     12  C   UNL d   1      -0.015  -0.664   1.609  0.00  0.00     0.049 A 
ATOM     13  C   UNL d   1       0.114  -0.752   2.994  0.00  0.00     0.037 A 
ATOM     14 CL   UNL d   1       1.426  -1.640   3.665  0.00  0.00    -0.084 Cl
ATOM     15  C   UNL d   1      -0.791  -0.111   3.840  0.00  0.00     0.047 A 
ATOM     16  C   UNL d   1      -1.841   0.621   3.289  0.00  0.00     0.037 A 
ATOM     17  C   UNL d   1      -1.978   0.737   1.908  0.00  0.00     0.049 A 
ATOM     18 CL   UNL d   1      -2.966   1.407   4.327  0.00  0.00    -0.084 Cl
ENDBRANCH   8  11
ENDBRANCH   7   8
ENDBRANCH   1   7
BRANCH   4  19
ATOM     19  C   UNL d   1       3.219  -0.133  -1.691  0.00  0.00    -0.021 C 
ATOM     20  C   UNL d   1       2.920  -1.642  -1.554  0.00  0.00     0.019 C 
ATOM     21  C   UNL d   1       4.685  -0.046  -2.207  0.00  0.00     0.019 C 
ATOM     22  C   UNL d   1       3.212   0.540  -0.306  0.00  0.00     0.019 C 
ENDBRANCH   4  19
BRANCH   3  23
ATOM     23  C   UNL d   1      -0.566   1.806  -5.825  0.00  0.00    -0.021 C 
ATOM     24  C   UNL d   1       0.061   2.325  -7.140  0.00  0.00     0.019 C 
ATOM     25  C   UNL d   1      -1.233   0.453  -6.196  0.00  0.00     0.019 C 
ATOM     26  C   UNL d   1      -1.666   2.808  -5.419  0.00  0.00     0.019 C 
ENDBRANCH   3  23
BRANCH   2  27
ATOM     27  O   UNL d   1       2.293   2.671  -5.671  0.00  0.00    -0.229 OA
BRANCH  27  28
ATOM     28  S   UNL d   1       3.527   3.731  -5.506  0.00  0.00     0.303 S 
ATOM     29  O   UNL d   1       4.487   3.314  -4.504  0.00  0.00    -0.193 OA
ATOM     30  O   UNL d   1       3.994   4.040  -6.847  0.00  0.00    -0.193 OA
BRANCH  28  31
ATOM     31  C   UNL d   1       2.815   5.239  -4.869  0.00  0.00     0.090 A 
ATOM     32  C   UNL d   1       2.275   5.259  -3.580  0.00  0.00     0.049 A 
ATOM     33  C   UNL d   1       1.866   6.476  -3.036  0.00  0.00     0.037 A 
ATOM     34 CL   UNL d   1       1.222   6.523  -1.441  0.00  0.00    -0.084 Cl
ATOM     35  C   UNL d   1       1.998   7.664  -3.756  0.00  0.00     0.047 A 
ATOM     36  C   UNL d   1       2.540   7.629  -5.039  0.00  0.00     0.037 A 
ATOM     37  C   UNL d   1       2.949   6.423  -5.604  0.00  0.00     0.049 A 
ATOM     38 CL   UNL d   1       2.740   9.093  -5.920  0.00  0.00    -0.084 Cl
ENDBRANCH  28  31
ENDBRANCH  27  28
ENDBRANCH   2  27
TORSDOF 8
