REMARK  0 active torsions:
REMARK  status: ('A' for Active; 'I' for Inactive)
ROOT
ATOM      1  S   UNL d   1       0.816   1.460  -0.371  0.00  0.00     0.148 S 
ATOM      2  C   UNL d   1       1.564  -0.039   0.213  0.00  0.00     0.171 C 
ATOM      3  C   UNL d   1      -0.844   1.270   0.218  0.00  0.00     0.166 C 
ATOM      4  O   UNL d   1       1.422   2.569   0.338  0.00  0.00    -0.228 OA
ATOM      5  O   UNL d   1       0.797   1.431  -1.822  0.00  0.00    -0.228 OA
ATOM      6  O   UNL d   1      -0.598  -1.137   0.322  0.00  0.00    -0.384 OA
ATOM      7  C   UNL d   1       0.723  -1.224  -0.232  0.00  0.00     0.131 C 
ATOM      8  C   UNL d   1      -1.373  -0.071  -0.238  0.00  0.00     0.183 C 
ATOM      9  C   UNL d   1       1.339  -2.522   0.276  0.00  0.00     0.040 C 
ENDROOT
TORSDOF 0
