REMARK  4 active torsions:
REMARK  status: ('A' for Active; 'I' for Inactive)
REMARK    1  A    between atoms: C_6  and  C_1 
REMARK    2  A    between atoms: C_12  and  C_4 
REMARK       I    between atoms: N_8  and  C_6 
REMARK    3  A    between atoms: N_9  and  N_8 
REMARK    4  A    between atoms: C_10  and  N_9 
ROOT
ATOM      1  C   UNL d   1       0.309  -2.715  -0.098  0.00  0.00     0.275 C 
ATOM      2  N   UNL d   1      -0.674  -3.656   0.176  0.00  0.00    -0.265 N 
ATOM      3  O   UNL d   1       1.474  -3.007  -0.352  0.00  0.00    -0.266 OA
ATOM      4  H   UNL d   1      -1.478  -3.342   0.713  0.00  0.00     0.190 HD
ENDROOT
BRANCH   1   5
ATOM      5  C   UNL d   1      -0.142  -1.345   0.012  0.00  0.00     0.094 A 
ATOM      6  C   UNL d   1      -1.302  -0.678  -0.498  0.00  0.00     0.083 A 
ATOM      7  N   UNL d   1      -1.311   0.602  -0.083  0.00  0.00    -0.259 N 
ATOM      8  O   UNL d   1      -0.171   0.789   0.660  0.00  0.00    -0.241 OA
ATOM      9  HN  UNL d   1      -2.027   1.300  -0.282  1.00  0.00     0.195 HD
ATOM     10  C   UNL d   1       0.530  -0.367   0.717  0.00  0.00     0.090 A 
ATOM     11  C   UNL d   1       1.764  -0.341   1.525  0.00  0.00     0.080 C 
BRANCH   6  12
ATOM     12  C   UNL d   1      -2.393  -1.170  -1.351  0.00  0.00    -0.006 A 
ATOM     13  C   UNL d   1      -2.217  -2.232  -2.248  0.00  0.00     0.014 A 
ATOM     14  C   UNL d   1      -3.276  -2.672  -3.050  0.00  0.00     0.001 A 
ATOM     15  C   UNL d   1      -4.516  -2.043  -2.984  0.00  0.00     0.000 A 
ATOM     16  C   UNL d   1      -4.703  -0.973  -2.114  0.00  0.00     0.001 A 
ATOM     17  C   UNL d   1      -3.651  -0.543  -1.302  0.00  0.00     0.014 A 
ENDBRANCH   6  12
ENDBRANCH   1   5
BRANCH   2  18
ATOM     18  N   UNL d   1      -0.219  -4.945   0.492  0.00  0.00    -0.297 N 
ATOM     19  H   UNL d   1       0.551  -5.265  -0.104  0.00  0.00     0.187 HD
BRANCH  18  20
ATOM     20  C   UNL d   1      -1.192  -5.940   0.737  0.00  0.00     0.054 A 
ATOM     21  C   UNL d   1      -0.793  -7.149   1.355  0.00  0.00    -0.032 A 
ATOM     22  C   UNL d   1      -1.761  -8.117   1.686  0.00  0.00     0.033 A 
ATOM     23  C   UNL d   1       0.647  -7.468   1.658  0.00  0.00     0.050 C 
ATOM     24  C   UNL d   1      -3.108  -7.892   1.417  0.00  0.00     0.034 A 
ATOM     25  C   UNL d   1      -3.508  -6.719   0.789  0.00  0.00     0.026 A 
ATOM     26 CL   UNL d   1      -4.280  -9.068   1.864  0.00  0.00    -0.084 Cl
ATOM     27  C   UNL d   1      -2.556  -5.753   0.451  0.00  0.00     0.033 A 
ENDBRANCH  18  20
ENDBRANCH   2  18
TORSDOF 4
