REMARK  6 active torsions:
REMARK  status: ('A' for Active; 'I' for Inactive)
REMARK    1  A    between atoms: C_1  and  N_7 
REMARK    2  A    between atoms: C_2  and  O_10 
REMARK    3  A    between atoms: C_3  and  O_12 
REMARK    4  A    between atoms: C_5  and  O_11 
REMARK    5  A    between atoms: C_6  and  C_13 
REMARK       I    between atoms: C_8  and  N_7 
REMARK    6  A    between atoms: O_14  and  C_13 
ROOT
ATOM      1  C   UNL d   1       0.691   1.278  -0.287  0.00  0.00     0.170 C 
ATOM      2  C   UNL d   1       1.451   0.011   0.171  0.00  0.00     0.177 C 
ATOM      3  C   UNL d   1      -0.773   1.203   0.202  0.00  0.00     0.282 C 
ATOM      4  O   UNL d   1      -1.410  -0.001  -0.224  0.00  0.00    -0.349 OA
ATOM      5  C   UNL d   1       0.677  -1.272  -0.187  0.00  0.00     0.180 C 
ATOM      6  C   UNL d   1      -0.788  -1.204   0.282  0.00  0.00     0.179 C 
ENDROOT
BRANCH   1   7
ATOM      7  N   UNL d   1       0.736   1.488  -1.744  0.00  0.00    -0.349 N 
ATOM      8  C   UNL d   1       1.855   2.031  -2.349  0.00  0.00     0.214 C 
ATOM      9  O   UNL d   1       2.794   2.482  -1.716  0.00  0.00    -0.274 OA
ATOM     10  C   UNL d   1       1.800   2.042  -3.850  0.00  0.00     0.117 C 
ATOM     11  H   UNL d   1       0.144   0.901  -2.314  0.00  0.00     0.163 HD
ENDBRANCH   1   7
BRANCH   2  12
ATOM     12  O   UNL d   1       1.653   0.013   1.591  0.00  0.00    -0.391 OA
ATOM     13  H   UNL d   1       1.740   0.929   1.908  0.00  0.00     0.210 HD
ENDBRANCH   2  12
BRANCH   3  14
ATOM     14  O   UNL d   1      -1.522   2.301  -0.299  0.00  0.00    -0.369 OA
ATOM     15  H   UNL d   1      -1.131   2.528  -1.161  0.00  0.00     0.212 HD
ENDBRANCH   3  14
BRANCH   5  16
ATOM     16  O   UNL d   1       0.715  -1.455  -1.614  0.00  0.00    -0.390 OA
ATOM     17  H   UNL d   1      -0.175  -1.269  -1.963  0.00  0.00     0.210 HD
ENDBRANCH   5  16
BRANCH   6  18
ATOM     18  C   UNL d   1      -0.990  -1.365   1.798  0.00  0.00     0.198 C 
BRANCH  18  19
ATOM     19  O   UNL d   1      -2.386  -1.393   2.097  0.00  0.00    -0.398 OA
ATOM     20  H   UNL d   1      -2.792  -0.639   1.629  0.00  0.00     0.209 HD
ENDBRANCH  18  19
ENDBRANCH   6  18
TORSDOF 6
