REMARK  4 active torsions:
REMARK  status: ('A' for Active; 'I' for Inactive)
REMARK    1  A    between atoms: C_9  and  C_3 
REMARK    2  A    between atoms: C_10  and  C_8 
REMARK    3  A    between atoms: O_15  and  C_9 
REMARK    4  A    between atoms: C_17  and  O_15 
ROOT
ATOM      1  C   UNL d   1      -0.023  -0.656   0.076  0.00  0.00     0.058 A 
ATOM      2  C   UNL d   1       0.016   0.683   0.058  0.00  0.00     0.003 A 
ATOM      3  C   UNL d   1       2.257   0.157  -0.048  0.00  0.00     0.088 A 
ATOM      4  C   UNL d   1       1.331   1.221  -0.043  0.00  0.00    -0.026 A 
ATOM      5  C   UNL d   1      -1.268   1.292   0.132  0.00  0.00    -0.029 A 
ATOM      6  S   UNL d   1       1.467  -1.387   0.049  0.00  0.00    -0.075 SA
ATOM      7  S   UNL d   1      -1.553  -1.300   0.109  0.00  0.00    -0.078 SA
ATOM      8  C   UNL d   1      -2.254   0.283   0.134  0.00  0.00     0.058 A 
ATOM      9  C   UNL d   1       1.733   2.658  -0.157  0.00  0.00     0.050 C 
ATOM     10  C   UNL d   1      -1.585   2.752   0.199  0.00  0.00     0.050 C 
ENDROOT
BRANCH   3  11
ATOM     11  C   UNL d   1       3.711   0.227  -0.168  0.00  0.00     0.300 C 
ATOM     12  O   UNL d   1       4.364   1.254  -0.301  0.00  0.00    -0.259 OA
BRANCH  11  13
ATOM     13  O   UNL d   1       4.262  -1.024  -0.179  0.00  0.00    -0.317 OA
BRANCH  13  14
ATOM     14  C   UNL d   1       5.616  -1.122  -0.629  0.00  0.00     0.174 C 
ATOM     15  C   UNL d   1       5.606  -1.290  -2.139  0.00  0.00     0.034 C 
ENDBRANCH  13  14
ENDBRANCH  11  13
ENDBRANCH   3  11
BRANCH   8  16
ATOM     16  C   UNL d   1      -3.710   0.448   0.132  0.00  0.00     0.163 C 
ATOM     17  O   UNL d   1      -4.250   1.530  -0.122  0.00  0.00    -0.292 OA
ATOM     18  C   UNL d   1      -4.607  -0.738   0.411  0.00  0.00     0.097 C 
ENDBRANCH   8  16
TORSDOF 4
