REMARK  4 active torsions:
REMARK  status: ('A' for Active; 'I' for Inactive)
REMARK    1  A    between atoms: C_4  and  C_1 
REMARK    2  A    between atoms: C_5  and  C_2 
REMARK    3  A    between atoms: C_10  and  C_3 
REMARK    4  A    between atoms: C_6  and  C_7 
REMARK       I    between atoms: N_21  and  C_10 
ROOT
ATOM      1  C   UNL d   1       1.392  -0.309   0.223  0.00  0.00     0.065 A 
ATOM      2  C   UNL d   1      -0.885  -1.192   0.039  0.00  0.00     0.065 A 
ATOM      3  C   UNL d   1       0.510  -1.411   0.093  0.00  0.00     0.061 A 
ATOM      4  C   UNL d   1      -0.517   1.237   0.207  0.00  0.00     0.049 A 
ATOM      5  C   UNL d   1      -1.371   0.135   0.111  0.00  0.00     0.033 A 
ATOM      6  C   UNL d   1       0.859   1.000   0.253  0.00  0.00     0.033 A 
ENDROOT
BRANCH   3   7
ATOM      7  C   UNL d   1       1.102  -2.752  -0.094  0.00  0.00     0.251 C 
ATOM      8  O   UNL d   1       1.936  -2.920  -0.980  0.00  0.00    -0.268 OA
ATOM      9  N   UNL d   1       0.717  -3.761   0.731  0.00  0.00    -0.366 N 
ATOM     10  H   UNL d   1      -0.181  -3.783   1.193  0.00  0.00     0.159 HD
ATOM     11  H   UNL d   1       1.093  -4.676   0.488  0.00  0.00     0.159 HD
ENDBRANCH   3   7
BRANCH   2  12
ATOM     12  C   UNL d   1      -1.944  -2.266  -0.079  0.00  0.00     0.418 C 
ATOM     13  F   UNL d   1      -1.510  -3.517  -0.362  0.00  0.00    -0.166 F 
ATOM     14  F   UNL d   1      -2.646  -2.381   1.085  0.00  0.00    -0.166 F 
ATOM     15  F   UNL d   1      -2.867  -1.974  -1.037  0.00  0.00    -0.166 F 
ENDBRANCH   2  12
BRANCH   1  16
ATOM     16  C   UNL d   1       2.902  -0.420   0.346  0.00  0.00     0.418 C 
ATOM     17  F   UNL d   1       3.404  -1.636   0.670  0.00  0.00    -0.166 F 
ATOM     18  F   UNL d   1       3.545  -0.003  -0.779  0.00  0.00    -0.166 F 
ATOM     19  F   UNL d   1       3.356   0.409   1.338  0.00  0.00    -0.166 F 
ENDBRANCH   1  16
BRANCH   4  20
ATOM     20  C   UNL d   1      -1.052   2.651   0.267  0.00  0.00     0.417 C 
ATOM     21  F   UNL d   1      -2.411   2.710   0.282  0.00  0.00    -0.166 F 
ATOM     22  F   UNL d   1      -0.634   3.311   1.381  0.00  0.00    -0.166 F 
ATOM     23  F   UNL d   1      -0.652   3.402  -0.793  0.00  0.00    -0.166 F 
ENDBRANCH   4  20
TORSDOF 4
