REMARK  9 active torsions:
REMARK  status: ('A' for Active; 'I' for Inactive)
REMARK    1  A    between atoms: C_3  and  S_1 
REMARK    2  A    between atoms: C_6  and  S_1 
REMARK    3  A    between atoms: C_2  and  N_4 
REMARK    4  A    between atoms: N_5  and  C_2 
REMARK    5  A    between atoms: C_13  and  C_3 
REMARK    6  A    between atoms: N_4  and  C_13 
REMARK    7  A    between atoms: C_12  and  N_4 
REMARK    8  A    between atoms: C_14  and  N_5 
REMARK    9  A    between atoms: C_7  and  C_12 
ROOT
ATOM      1  N   UNL d   1       0.415   2.578   3.053  0.00  0.00    -0.352 N 
ENDROOT
BRANCH   1   2
ATOM      2  C   UNL d   1      -0.292   3.639   2.529  0.00  0.00     0.174 C 
ATOM      3  S   UNL d   1      -1.379   3.482   1.239  0.00  0.00    -0.041 SA
BRANCH   2   4
ATOM      4  N   UNL d   1      -0.288   4.901   3.025  0.00  0.00    -0.333 N 
ATOM      5  H   UNL d   1      -1.055   5.398   2.579  0.00  0.00     0.168 HD
BRANCH   4   6
ATOM      6  C   UNL d   1       0.474   5.758   3.850  0.00  0.00     0.037 A 
ATOM      7  C   UNL d   1       1.740   5.518   4.376  0.00  0.00     0.071 A 
ATOM      8  C   UNL d   1       2.303   6.429   5.279  0.00  0.00     0.118 A 
ATOM      9  F   UNL d   1       3.480   6.142   5.852  0.00  0.00    -0.206 F 
ATOM     10  C   UNL d   1       1.667   7.621   5.608  0.00  0.00     0.042 A 
ATOM     11  C   UNL d   1       0.455   7.924   5.007  0.00  0.00     0.005 A 
ATOM     12  C   UNL d   1      -0.131   6.999   4.138  0.00  0.00     0.029 A 
ENDBRANCH   4   6
ENDBRANCH   2   4
ENDBRANCH   1   2
BRANCH   1  13
ATOM     13  C   UNL d   1       0.807   1.417   2.169  0.00  0.00     0.141 C 
BRANCH  13  14
ATOM     14  C   UNL d   1       1.176   0.121   2.874  0.00  0.00     0.165 C 
BRANCH  14  15
ATOM     15  S   UNL d   1       1.845  -1.113   1.791  0.00  0.00     0.177 S 
ATOM     16  O   UNL d   1       3.130  -0.640   1.290  0.00  0.00    -0.223 OA
ATOM     17  O   UNL d   1       0.815  -1.579   0.889  0.00  0.00    -0.223 OA
BRANCH  15  18
ATOM     18  C   UNL d   1       2.187  -2.434   2.948  0.00  0.00     0.059 A 
ATOM     19  C   UNL d   1       1.162  -3.325   3.288  0.00  0.00     0.025 A 
ATOM     20  C   UNL d   1       1.403  -4.316   4.247  0.00  0.00     0.025 A 
ATOM     21  C   UNL d   1       2.659  -4.413   4.846  0.00  0.00     0.034 A 
ATOM     22  C   UNL d   1       3.684  -3.533   4.492  0.00  0.00     0.025 A 
ATOM     23 CL   UNL d   1       2.947  -5.626   6.032  0.00  0.00    -0.084 Cl
ATOM     24  C   UNL d   1       3.451  -2.541   3.535  0.00  0.00     0.025 A 
ENDBRANCH  15  18
ENDBRANCH  14  15
ENDBRANCH  13  14
ENDBRANCH   1  13
BRANCH   1  25
ATOM     25  C   UNL d   1       0.808   2.523   4.465  0.00  0.00     0.171 C 
BRANCH  25  26
ATOM     26  C   UNL d   1      -0.058   1.626   5.300  0.00  0.00     0.000 A 
ATOM     27  S   UNL d   1       0.678   0.592   6.458  0.00  0.00    -0.105 SA
ATOM     28  C   UNL d   1      -0.829   0.177   7.141  0.00  0.00     0.050 A 
ATOM     29  C   UNL d   1      -1.878   0.775   6.481  0.00  0.00     0.008 A 
ATOM     30  C   UNL d   1      -1.436   1.592   5.399  0.00  0.00     0.017 A 
ENDBRANCH  25  26
ENDBRANCH   1  25
TORSDOF 9
