REMARK  3 active torsions:
REMARK  status: ('A' for Active; 'I' for Inactive)
REMARK    1  A    between atoms: C_2  and  C_1 
REMARK    2  A    between atoms: C_14  and  C_8 
REMARK    3  A    between atoms: C_13  and  C_15 
ROOT
ATOM      1  C   UNL d   1      -0.367  -2.818   0.080  0.00  0.00     0.201 A 
ATOM      2  N   UNL d   1       0.028  -3.588   1.081  0.00  0.00    -0.317 N 
ATOM      3  HN  UNL d   1       0.532  -3.307   1.922  1.00  0.00     0.169 HD
ATOM      4  C   UNL d   1      -0.392  -4.849   0.735  0.00  0.00     0.138 A 
ATOM      5  N   UNL d   1      -1.051  -4.890  -0.430  0.00  0.00    -0.242 N 
ATOM      6  HN  UNL d   1      -1.459  -5.701  -0.894  1.00  0.00     0.196 HD
ATOM      7  O   UNL d   1      -1.047  -3.569  -0.858  0.00  0.00    -0.215 OA
ENDROOT
BRANCH   4   8
ATOM      8  C   UNL d   1      -0.133  -6.009   1.582  0.00  0.00     0.010 A 
ATOM      9  C   UNL d   1       0.451  -5.839   2.847  0.00  0.00     0.016 A 
ATOM     10  C   UNL d   1       0.693  -6.936   3.680  0.00  0.00     0.017 A 
ATOM     11  C   UNL d   1       0.358  -8.232   3.264  0.00  0.00     0.048 A 
ATOM     12  C   UNL d   1      -0.214  -8.406   1.995  0.00  0.00     0.017 A 
ATOM     13  C   UNL d   1      -0.458  -7.307   1.163  0.00  0.00     0.016 A 
BRANCH  11  14
ATOM     14  C   UNL d   1       0.596  -9.426   4.158  0.00  0.00     0.417 C 
ATOM     15  F   UNL d   1       1.151  -9.105   5.360  0.00  0.00    -0.166 F 
ATOM     16  F   UNL d   1      -0.554 -10.095   4.447  0.00  0.00    -0.166 F 
ATOM     17  F   UNL d   1       1.431 -10.342   3.594  0.00  0.00    -0.166 F 
ENDBRANCH  11  14
ENDBRANCH   4   8
BRANCH   1  18
ATOM     18  C   UNL d   1      -0.155  -1.411  -0.060  0.00  0.00     0.122 A 
ATOM     19  C   UNL d   1       0.884  -0.788   0.516  0.00  0.00     0.048 A 
ATOM     20  C   UNL d   1       0.710   0.647   0.195  0.00  0.00     0.313 A 
ATOM     21  C   UNL d   1       2.047  -1.238   1.316  0.00  0.00     0.057 C 
ATOM     22  O   UNL d   1       1.433   1.552   0.569  0.00  0.00    -0.258 OA
ATOM     23  O   UNL d   1      -0.424   0.778  -0.574  0.00  0.00    -0.192 OA
ATOM     24  N   UNL d   1      -0.901  -0.518  -0.807  0.00  0.00    -0.248 N 
ATOM     25  C   UNL d   1      -2.314  -0.561  -1.106  0.00  0.00     0.186 C 
ENDBRANCH   1  18
TORSDOF 3
