REMARK  4 active torsions:
REMARK  status: ('A' for Active; 'I' for Inactive)
REMARK    1  A    between atoms: N_2  and  C_1 
REMARK       I    between atoms: C_3  and  N_2 
REMARK    2  A    between atoms: C_10  and  C_3 
REMARK    3  A    between atoms: C_5  and  S_6 
REMARK    4  A    between atoms: S_6  and  C_10 
ROOT
ATOM      1  N   UNL d   1       2.471  -1.775   0.093  0.00  0.00    -0.319 N 
ATOM      2  C   UNL d   1       2.575  -3.186   0.012  0.00  0.00     0.233 C 
ATOM      3  O   UNL d   1       1.608  -3.943  -0.129  0.00  0.00    -0.272 OA
ATOM      4  C   UNL d   1       3.670  -0.939  -0.008  0.00  0.00     0.159 C 
ENDROOT
BRANCH   2   5
ATOM      5  C   UNL d   1       3.975  -3.812  -0.092  0.00  0.00     0.182 C 
BRANCH   5   6
ATOM      6  S   UNL d   1       4.914  -3.727   1.465  0.00  0.00    -0.119 SA
BRANCH   6   7
ATOM      7  C   UNL d   1       6.429  -4.679   1.227  0.00  0.00     0.024 A 
ATOM      8  C   UNL d   1       7.027  -5.034   2.458  0.00  0.00     0.044 A 
ATOM      9  C   UNL d   1       8.225  -5.749   2.515  0.00  0.00     0.035 A 
ATOM     10 CL   UNL d   1       8.921  -6.137   4.040  0.00  0.00    -0.084 Cl
ATOM     11  C   UNL d   1       8.865  -6.140   1.350  0.00  0.00     0.025 A 
ATOM     12  C   UNL d   1       8.307  -5.789   0.123  0.00  0.00     0.027 A 
ATOM     13  C   UNL d   1       7.107  -5.055   0.053  0.00  0.00     0.051 A 
ATOM     14 CL   UNL d   1       6.617  -4.638  -1.548  0.00  0.00    -0.083 Cl
ENDBRANCH   6   7
ENDBRANCH   5   6
ENDBRANCH   2   5
BRANCH   1  15
ATOM     15  C   UNL d   1       1.178  -1.109   0.101  0.00  0.00     0.075 A 
ATOM     16  C   UNL d   1       0.012  -1.684   0.648  0.00  0.00     0.146 A 
ATOM     17  C   UNL d   1      -1.225  -1.032   0.621  0.00  0.00     0.086 A 
ATOM     18  F   UNL d   1       0.047  -2.841   1.325  0.00  0.00    -0.204 F 
ATOM     19  C   UNL d   1      -1.312   0.241   0.079  0.00  0.00     0.119 A 
ATOM     20  C   UNL d   1      -0.187   0.865  -0.433  0.00  0.00     0.044 A 
ATOM     21  F   UNL d   1      -2.487   0.883   0.070  0.00  0.00    -0.206 F 
ATOM     22  C   UNL d   1       1.040   0.188  -0.437  0.00  0.00     0.036 A 
ENDBRANCH   1  15
TORSDOF 4
