REMARK  7 active torsions:
REMARK  status: ('A' for Active; 'I' for Inactive)
REMARK    1  A    between atoms: C_5  and  O_8 
REMARK    2  A    between atoms: C_12  and  C_5 
REMARK    3  A    between atoms: O_8  and  C_15 
REMARK    4  A    between atoms: C_25  and  C_22 
REMARK    5  A    between atoms: C_26  and  C_25 
REMARK    6  A    between atoms: C_28  and  C_26 
REMARK    7  A    between atoms: C_27  and  C_28 
ROOT
ATOM      1  N   UNL d   1      12.040   0.922  -2.116  0.00  0.00    -0.191 NA
ATOM      2  C   UNL d   1      11.013   0.679  -1.641  0.00  0.00     0.099 C 
ATOM      3  C   UNL d   1       7.181  -0.269  -0.066  0.00  0.00     0.040 A 
ATOM      4  C   UNL d   1       8.242  -1.189   0.017  0.00  0.00     0.019 A 
ATOM      5  C   UNL d   1       7.418   0.993  -0.622  0.00  0.00     0.019 A 
ATOM      6  C   UNL d   1       9.730   0.373  -1.073  0.00  0.00     0.044 A 
ATOM      7  C   UNL d   1       8.689   1.309  -1.126  0.00  0.00     0.024 A 
ATOM      8  C   UNL d   1       9.507  -0.874  -0.487  0.00  0.00     0.024 A 
ENDROOT
BRANCH   3   9
ATOM      9  C   UNL d   1       5.841  -0.730   0.394  0.00  0.00     0.298 C 
ATOM     10  O   UNL d   1       5.692  -1.847   0.867  0.00  0.00    -0.259 OA
BRANCH   9  11
ATOM     11  O   UNL d   1       4.852   0.225   0.158  0.00  0.00    -0.275 OA
BRANCH  11  12
ATOM     12  C   UNL d   1       3.451  -0.035   0.238  0.00  0.00     0.080 A 
ATOM     13  C   UNL d   1       2.603   1.067   0.036  0.00  0.00     0.045 A 
ATOM     14  C   UNL d   1       1.229   0.839   0.017  0.00  0.00    -0.040 A 
ATOM     15  C   UNL d   1       0.709  -0.467   0.144  0.00  0.00    -0.019 A 
ATOM     16  C   UNL d   1       0.081   1.831  -0.104  0.00  0.00     0.078 A 
ATOM     17  C   UNL d   1      -0.731  -0.421   0.047  0.00  0.00    -0.019 A 
ATOM     18  C   UNL d   1       1.543  -1.542   0.379  0.00  0.00     0.015 A 
ATOM     19  C   UNL d   1      -1.657  -1.449   0.042  0.00  0.00     0.013 A 
ATOM     20  C   UNL d   1      -1.139   0.922  -0.048  0.00  0.00    -0.042 A 
ATOM     21  C   UNL d   1      -3.013  -1.123   0.001  0.00  0.00     0.008 A 
ATOM     22  C   UNL d   1      -3.440   0.222  -0.029  0.00  0.00    -0.058 A 
ATOM     23  C   UNL d   1      -2.485   1.257  -0.064  0.00  0.00     0.015 A 
ATOM     24  C   UNL d   1       2.920  -1.320   0.438  0.00  0.00     0.038 A 
BRANCH  22  25
ATOM     25  C   UNL d   1      -4.921   0.527   0.009  0.00  0.00     0.038 C 
BRANCH  25  26
ATOM     26  C   UNL d   1      -5.393   1.292  -1.227  0.00  0.00     0.005 C 
BRANCH  26  27
ATOM     27  C   UNL d   1      -6.900   1.551  -1.194  0.00  0.00    -0.000 C 
BRANCH  27  28
ATOM     28  C   UNL d   1      -7.329   2.344  -2.429  0.00  0.00    -0.005 C 
ATOM     29  C   UNL d   1      -8.820   2.632  -2.428  0.00  0.00     0.005 C 
ENDBRANCH  27  28
ENDBRANCH  26  27
ENDBRANCH  25  26
ENDBRANCH  22  25
ENDBRANCH  11  12
ENDBRANCH   9  11
ENDBRANCH   3   9
TORSDOF 7
