REMARK  6 active torsions:
REMARK  status: ('A' for Active; 'I' for Inactive)
REMARK    1  A    between atoms: S_8  and  C_1 
REMARK    2  A    between atoms: C_16  and  N_4 
REMARK    3  A    between atoms: C_7  and  C_9 
REMARK    4  A    between atoms: C_14  and  S_8 
REMARK    5  A    between atoms: C_12  and  C_14 
REMARK    6  A    between atoms: C_13  and  C_12 
ROOT
ATOM      1  C   UNL d   1       2.341   0.109   0.242  0.00  0.00     0.148 A 
ATOM      2  N   UNL d   1       1.647  -1.004   0.263  0.00  0.00    -0.335 N 
ATOM      3  HN  UNL d   1       2.004  -1.955   0.353  1.00  0.00     0.168 HD
ATOM      4  N   UNL d   1       1.539   1.218   0.042  0.00  0.00    -0.321 N 
ATOM      5  C   UNL d   1       0.340  -0.617   0.137  0.00  0.00     0.062 A 
ATOM      6  C   UNL d   1       0.228   0.769   0.042  0.00  0.00     0.063 A 
ATOM      7  C   UNL d   1      -2.079  -0.796   0.016  0.00  0.00     0.050 A 
ATOM      8  C   UNL d   1      -0.817  -1.411   0.106  0.00  0.00     0.048 A 
ATOM      9  C   UNL d   1      -1.017   1.410  -0.043  0.00  0.00     0.033 A 
ATOM     10  C   UNL d   1      -2.162   0.602  -0.048  0.00  0.00     0.018 A 
ENDROOT
BRANCH   1  11
ATOM     11  S   UNL d   1       4.061   0.188   0.460  0.00  0.00    -0.086 SA
BRANCH  11  12
ATOM     12  C   UNL d   1       4.494  -1.566   0.733  0.00  0.00     0.166 C 
BRANCH  12  13
ATOM     13  C   UNL d   1       5.981  -1.730   1.047  0.00  0.00     0.169 C 
ATOM     14  O   UNL d   1       6.789  -0.800   1.026  0.00  0.00    -0.291 OA
BRANCH  13  15
ATOM     15  C   UNL d   1       6.498  -3.090   1.414  0.00  0.00     0.011 A 
ATOM     16  C   UNL d   1       5.706  -4.246   1.378  0.00  0.00     0.017 A 
ATOM     17  C   UNL d   1       6.239  -5.480   1.772  0.00  0.00     0.025 A 
ATOM     18  C   UNL d   1       7.565  -5.571   2.198  0.00  0.00     0.034 A 
ATOM     19  C   UNL d   1       8.371  -4.438   2.213  0.00  0.00     0.025 A 
ATOM     20 CL   UNL d   1       8.199  -7.082   2.716  0.00  0.00    -0.084 Cl
ATOM     21  C   UNL d   1       7.843  -3.205   1.820  0.00  0.00     0.017 A 
ENDBRANCH  13  15
ENDBRANCH  12  13
ENDBRANCH  11  12
ENDBRANCH   1  11
BRANCH   4  22
ATOM     22  C   UNL d   1       1.977   2.592  -0.206  0.00  0.00     0.084 C 
ATOM     23  C   UNL d   1       1.507   3.116  -1.569  0.00  0.00     0.032 C 
ATOM     24  C   UNL d   1       1.589   3.555   0.918  0.00  0.00     0.032 C 
ENDBRANCH   4  22
BRANCH   7  25
ATOM     25  C   UNL d   1      -3.341  -1.623   0.003  0.00  0.00     0.417 C 
ATOM     26  F   UNL d   1      -3.118  -2.966   0.039  0.00  0.00    -0.166 F 
ATOM     27  F   UNL d   1      -4.151  -1.350   1.065  0.00  0.00    -0.166 F 
ATOM     28  F   UNL d   1      -4.097  -1.400  -1.108  0.00  0.00    -0.166 F 
ENDBRANCH   7  25
TORSDOF 6
