REMARK  1 active torsions:
REMARK  status: ('A' for Active; 'I' for Inactive)
REMARK       I    between atoms: C_7  and  N_1 
REMARK    1  A    between atoms: C_13  and  C_7 
ROOT
ATOM      1  N   UNL d   1      -3.099  -0.979  -0.063  0.00  0.00    -0.229 N 
ATOM      2  N   UNL d   1      -1.809  -1.401  -0.189  0.00  0.00    -0.289 N 
ATOM      3  HN  UNL d   1      -1.482  -2.348  -0.382  1.00  0.00     0.188 HD
ATOM      4  C   UNL d   1      -1.064  -0.301  -0.004  0.00  0.00     0.077 A 
ATOM      5  C   UNL d   1      -1.878   0.825   0.211  0.00  0.00     0.047 A 
ATOM      6  C   UNL d   1      -3.168   0.372   0.205  0.00  0.00     0.141 A 
ATOM      7  C   UNL d   1      -4.177  -1.882  -0.186  0.00  0.00     0.276 C 
ATOM      8  S   UNL d   1      -1.308   2.432   0.488  0.00  0.00    -0.121 SA
ATOM      9  C   UNL d   1       0.394  -0.297  -0.009  0.00  0.00     0.000 A 
ATOM     10  C   UNL d   1       1.095   0.924   0.033  0.00  0.00    -0.036 A 
ATOM     11  C   UNL d   1       0.431   2.286  -0.003  0.00  0.00     0.119 C 
ATOM     12  O   UNL d   1      -5.285  -1.485   0.169  0.00  0.00    -0.265 OA
ATOM     13  C   UNL d   1       1.105  -1.509  -0.027  0.00  0.00     0.014 A 
ATOM     14  C   UNL d   1       2.504   0.892   0.024  0.00  0.00     0.009 A 
ATOM     15  C   UNL d   1       2.500  -1.518  -0.018  0.00  0.00     0.001 A 
ATOM     16  C   UNL d   1       3.199  -0.317   0.004  0.00  0.00     0.001 A 
ENDROOT
BRANCH   7  17
ATOM     17  C   UNL d   1      -4.056  -3.260  -0.737  0.00  0.00     0.034 A 
ATOM     18  C   UNL d   1      -4.896  -4.269  -0.248  0.00  0.00     0.017 A 
ATOM     19  C   UNL d   1      -4.832  -5.555  -0.791  0.00  0.00     0.001 A 
ATOM     20  C   UNL d   1      -3.943  -5.831  -1.831  0.00  0.00     0.000 A 
ATOM     21  C   UNL d   1      -3.119  -4.826  -2.332  0.00  0.00     0.001 A 
ATOM     22  C   UNL d   1      -3.179  -3.540  -1.791  0.00  0.00     0.017 A 
ENDBRANCH   7  17
TORSDOF 1
