REMARK  3 active torsions:
REMARK  status: ('A' for Active; 'I' for Inactive)
REMARK    1  A    between atoms: N_7  and  C_1 
REMARK    2  A    between atoms: C_11  and  N_7 
REMARK    3  A    between atoms: C_14  and  C_11 
ROOT
ATOM      1  C   UNL d   1      -1.075  -1.535  -0.074  0.00  0.00     0.086 A 
ATOM      2  C   UNL d   1      -1.554  -0.280  -0.023  0.00  0.00     0.110 A 
ATOM      3  C   UNL d   1       0.418  -1.740  -0.084  0.00  0.00     0.206 A 
ATOM      4  C   UNL d   1      -0.692   0.931  -0.010  0.00  0.00     0.206 A 
ATOM      5  C   UNL d   1       1.297  -0.558  -0.040  0.00  0.00     0.030 A 
ATOM      6  C   UNL d   1       0.765   0.726  -0.015  0.00  0.00     0.030 A 
ATOM      7  O   UNL d   1      -1.149   2.066   0.007  0.00  0.00    -0.286 OA
ATOM      8  O   UNL d   1       0.920  -2.863  -0.119  0.00  0.00    -0.285 OA
ATOM      9 CL   UNL d   1      -3.268   0.009  -0.010  0.00  0.00    -0.078 Cl
ATOM     10  C   UNL d   1       1.620   1.840   0.009  0.00  0.00     0.016 A 
ATOM     11  C   UNL d   1       2.689  -0.733  -0.023  0.00  0.00     0.016 A 
ATOM     12  C   UNL d   1       3.538   0.374   0.003  0.00  0.00     0.001 A 
ATOM     13  C   UNL d   1       3.005   1.660   0.016  0.00  0.00     0.001 A 
ENDROOT
BRANCH   1  14
ATOM     14  N   UNL d   1      -1.863  -2.700  -0.066  0.00  0.00    -0.288 NA
ATOM     15  H   UNL d   1      -2.675  -2.558   0.535  0.00  0.00     0.127 HD
BRANCH  14  16
ATOM     16  C   UNL d   1      -2.333  -3.278  -1.333  0.00  0.00     0.096 C 
BRANCH  16  17
ATOM     17  C   UNL d   1      -1.938  -4.756  -1.449  0.00  0.00    -0.010 C 
ATOM     18  C   UNL d   1      -2.492  -5.593  -0.294  0.00  0.00     0.011 C 
ATOM     19  C   UNL d   1      -2.432  -5.326  -2.781  0.00  0.00     0.011 C 
ENDBRANCH  16  17
ENDBRANCH  14  16
ENDBRANCH   1  14
TORSDOF 3
