REMARK  2 active torsions:
REMARK  status: ('A' for Active; 'I' for Inactive)
REMARK    1  A    between atoms: C_7  and  C_4 
REMARK    2  A    between atoms: S_8  and  C_5 
ROOT
ATOM      1  C   UNL d   1       1.090   0.801  -0.050  0.00  0.00     0.070 A 
ATOM      2  N   UNL d   1      -1.049   0.035   0.103  0.00  0.00    -0.299 N 
ATOM      3  HN  UNL d   1      -2.065  -0.022   0.179  1.00  0.00     0.187 HD
ATOM      4  C   UNL d   1      -0.291   1.142   0.015  0.00  0.00     0.061 A 
ATOM      5  C   UNL d   1       1.131  -0.567  -0.009  0.00  0.00     0.086 A 
ATOM      6  N   UNL d   1      -0.164  -0.979   0.070  0.00  0.00    -0.294 N 
ATOM      7  H   UNL d   1      -0.507  -1.931   0.111  0.00  0.00     0.187 HD
ENDROOT
BRANCH   4   8
ATOM      8  C   UNL d   1      -0.866   2.487   0.015  0.00  0.00    -0.008 A 
ATOM      9  C   UNL d   1      -2.076   2.747   0.676  0.00  0.00     0.015 A 
ATOM     10  C   UNL d   1      -2.597   4.044   0.721  0.00  0.00     0.024 A 
ATOM     11  C   UNL d   1      -1.914   5.086   0.096  0.00  0.00     0.034 A 
ATOM     12  C   UNL d   1      -0.723   4.842  -0.582  0.00  0.00     0.024 A 
ATOM     13 CL   UNL d   1      -2.542   6.686   0.166  0.00  0.00    -0.084 Cl
ATOM     14  C   UNL d   1      -0.201   3.546  -0.623  0.00  0.00     0.015 A 
ENDBRANCH   4   8
BRANCH   5  15
ATOM     15  S   UNL d   1       2.400  -1.736  -0.031  0.00  0.00    -0.115 SA
ATOM     16  C   UNL d   1       3.873  -0.688  -0.107  0.00  0.00     0.097 C 
ENDBRANCH   5  15
TORSDOF 2
