REMARK  7 active torsions:
REMARK  status: ('A' for Active; 'I' for Inactive)
REMARK    1  A    between atoms: N_2  and  S_1 
REMARK    2  A    between atoms: C_7  and  S_1 
REMARK       I    between atoms: C_4  and  N_2 
REMARK    3  A    between atoms: C_5  and  C_4 
REMARK    4  A    between atoms: N_8  and  O_16 
REMARK    5  A    between atoms: C_11  and  C_10 
REMARK    6  A    between atoms: O_16  and  C_25 
REMARK    7  A    between atoms: C_25  and  C_19 
ROOT
ATOM      1  C   UNL d   1      10.194   2.255   3.366  0.00  0.00     0.033 A 
ATOM      2  C   UNL d   1       8.976   1.843   2.796  0.00  0.00     0.026 A 
ATOM      3  C   UNL d   1       8.084   2.779   2.239  0.00  0.00    -0.031 A 
ATOM      4  C   UNL d   1      10.505   3.620   3.417  0.00  0.00     0.017 A 
ATOM      5  C   UNL d   1       9.635   4.555   2.856  0.00  0.00     0.002 A 
ATOM      6  C   UNL d   1       8.445   4.135   2.257  0.00  0.00     0.009 A 
ENDROOT
BRANCH   1   7
ATOM      7  C   UNL d   1      11.208   1.251   3.845  0.00  0.00     0.262 C 
ATOM      8  N   UNL d   1      11.061  -0.097   3.506  0.00  0.00    -0.279 N 
ATOM      9  HN  UNL d   1      10.123  -0.404   3.248  1.00  0.00     0.179 HD
ATOM     10  O   UNL d   1      12.138   1.663   4.527  0.00  0.00    -0.267 OA
BRANCH   8  11
ATOM     11  S   UNL d   1      12.165  -1.165   3.482  0.00  0.00     0.055 S 
ATOM     12  O   UNL d   1      12.087  -2.324   2.606  0.00  0.00    -0.245 OA
ATOM     13  C   UNL d   1      13.772  -0.480   3.164  0.00  0.00     0.142 C 
BRANCH  11  14
ATOM     14  C   UNL d   1      12.295  -1.822   5.137  0.00  0.00     0.038 A 
ATOM     15  C   UNL d   1      11.881  -3.135   5.369  0.00  0.00     0.022 A 
ATOM     16  C   UNL d   1      12.069  -3.704   6.630  0.00  0.00     0.001 A 
ATOM     17  C   UNL d   1      12.657  -2.963   7.651  0.00  0.00     0.000 A 
ATOM     18  C   UNL d   1      13.050  -1.642   7.422  0.00  0.00     0.001 A 
ATOM     19  C   UNL d   1      12.865  -1.066   6.165  0.00  0.00     0.022 A 
ENDBRANCH  11  14
ENDBRANCH   8  11
ENDBRANCH   1   7
BRANCH   3  20
ATOM     20  C   UNL d   1       6.817   2.308   1.550  0.00  0.00     0.239 C 
BRANCH  20  21
ATOM     21  O   UNL d   1       5.826   3.341   1.550  0.00  0.00    -0.276 OA
BRANCH  21  22
ATOM     22  N   UNL d   1       4.724   2.952   0.765  0.00  0.00    -0.270 N 
ATOM     23  C   UNL d   1       3.817   3.888   0.732  0.00  0.00     0.038 C 
ATOM     24  C   UNL d   1       3.969   5.226   1.434  0.00  0.00     0.071 C 
ATOM     25  HN  UNL d   1       4.645   2.055   0.286  1.00  0.00     0.194 HD
BRANCH  23  26
ATOM     26  C   UNL d   1       2.540   3.654  -0.012  0.00  0.00    -0.012 A 
ATOM     27  C   UNL d   1       1.356   4.294   0.382  0.00  0.00     0.015 A 
ATOM     28  C   UNL d   1       0.169   4.089  -0.329  0.00  0.00     0.024 A 
ATOM     29  C   UNL d   1       0.163   3.240  -1.434  0.00  0.00     0.034 A 
ATOM     30  C   UNL d   1       1.331   2.587  -1.827  0.00  0.00     0.024 A 
ATOM     31 CL   UNL d   1      -1.295   3.000  -2.314  0.00  0.00    -0.084 Cl
ATOM     32  C   UNL d   1       2.519   2.790  -1.113  0.00  0.00     0.015 A 
ENDBRANCH  23  26
ENDBRANCH  21  22
ENDBRANCH  20  21
ENDBRANCH   3  20
TORSDOF 7
