REMARK  3 active torsions:
REMARK  status: ('A' for Active; 'I' for Inactive)
REMARK    1  A    between atoms: N_15  and  C_10 
REMARK       I    between atoms: C_11  and  N_14 
REMARK       I    between atoms: N_12  and  C_11 
REMARK    2  A    between atoms: C_17  and  N_12 
REMARK    3  A    between atoms: N_14  and  N_15 
ROOT
ATOM      1  N   UNL d   1      -3.369  -1.287  -0.494  0.00  0.00    -0.186 NA
ATOM      2  H   UNL d   1      -3.917  -0.795  -1.212  0.00  0.00     0.154 HD
ENDROOT
BRANCH   1   3
ATOM      3  N   UNL d   1      -3.204  -2.642  -0.899  0.00  0.00    -0.267 N 
ATOM      4  C   UNL d   1      -4.059  -3.060  -1.907  0.00  0.00     0.335 C 
ATOM      5  N   UNL d   1      -4.006  -4.424  -2.117  0.00  0.00    -0.308 N 
ATOM      6  O   UNL d   1      -4.766  -2.247  -2.506  0.00  0.00    -0.246 OA
ATOM      7  H   UNL d   1      -3.434  -4.950  -1.476  0.00  0.00     0.170 HD
ATOM      8  H   UNL d   1      -2.949  -3.259  -0.138  0.00  0.00     0.186 HD
BRANCH   5   9
ATOM      9  C   UNL d   1      -4.834  -5.157  -2.995  0.00  0.00     0.038 A 
ATOM     10  C   UNL d   1      -5.592  -4.565  -4.011  0.00  0.00     0.053 A 
ATOM     11  C   UNL d   1      -6.485  -5.330  -4.759  0.00  0.00     0.036 A 
ATOM     12 CL   UNL d   1      -7.438  -4.580  -5.980  0.00  0.00    -0.084 Cl
ATOM     13  C   UNL d   1      -6.625  -6.694  -4.516  0.00  0.00     0.024 A 
ATOM     14  C   UNL d   1      -5.829  -7.305  -3.549  0.00  0.00     0.004 A 
ATOM     15  C   UNL d   1      -4.926  -6.542  -2.802  0.00  0.00     0.029 A 
ENDBRANCH   5   9
ENDBRANCH   1   3
BRANCH   1  16
ATOM     16  C   UNL d   1      -2.124  -0.612  -0.333  0.00  0.00     0.100 A 
ATOM     17  N   UNL d   1      -0.976  -1.310  -0.246  0.00  0.00    -0.330 N 
ATOM     18  C   UNL d   1       0.128  -0.546  -0.119  0.00  0.00     0.136 A 
ATOM     19  HN  UNL d   1      -0.944  -2.329  -0.275  1.00  0.00     0.168 HD
ATOM     20  C   UNL d   1       0.208   0.844  -0.041  0.00  0.00     0.039 A 
ATOM     21  N   UNL d   1       1.412  -1.005  -0.043  0.00  0.00    -0.280 N 
ATOM     22  C   UNL d   1       1.615   1.102   0.021  0.00  0.00     0.036 A 
ATOM     23  C   UNL d   1      -1.009   1.560  -0.054  0.00  0.00    -0.043 A 
ATOM     24  C   UNL d   1       2.366   2.382   0.045  0.00  0.00     0.070 C 
ATOM     25  N   UNL d   1       2.335  -0.030   0.033  0.00  0.00    -0.301 N 
ATOM     26  HN  UNL d   1       3.349  -0.129   0.088  1.00  0.00     0.187 HD
ATOM     27  C   UNL d   1      -1.185   3.046   0.069  0.00  0.00     0.049 C 
ATOM     28  C   UNL d   1      -2.178   0.780  -0.198  0.00  0.00     0.051 A 
ATOM     29  C   UNL d   1       1.842  -2.379  -0.052  0.00  0.00     0.179 C 
ENDBRANCH   1  16
TORSDOF 3
