REMARK  5 active torsions:
REMARK  status: ('A' for Active; 'I' for Inactive)
REMARK    1  A    between atoms: C_3  and  C_1 
REMARK    2  A    between atoms: N_18  and  C_3 
REMARK    3  A    between atoms: O_15  and  N_4 
REMARK    4  A    between atoms: C_6  and  O_15 
REMARK       I    between atoms: N_7  and  C_6 
REMARK    5  A    between atoms: C_9  and  N_7 
ROOT
ATOM      1  C   UNL d   1       2.316   0.801  -1.843  0.00  0.00     0.127 C 
ATOM      2  N   UNL d   1       1.489   1.391  -2.670  0.00  0.00    -0.242 N 
ATOM      3  HN  UNL d   1       1.597   1.407  -3.685  1.00  0.00     0.196 HD
ENDROOT
BRANCH   2   4
ATOM      4  O   UNL d   1       0.431   2.002  -1.971  0.00  0.00    -0.179 OA
BRANCH   4   5
ATOM      5  C   UNL d   1      -0.132   3.043  -2.680  0.00  0.00     0.387 C 
ATOM      6  N   UNL d   1      -0.079   2.912  -4.054  0.00  0.00    -0.299 N 
ATOM      7  H   UNL d   1       0.058   1.964  -4.376  0.00  0.00     0.171 HD
ATOM      8  O   UNL d   1      -0.698   3.954  -2.085  0.00  0.00    -0.236 OA
BRANCH   6   9
ATOM      9  C   UNL d   1      -0.477   3.924  -4.955  0.00  0.00     0.058 A 
ATOM     10  C   UNL d   1      -1.103   3.610  -6.172  0.00  0.00     0.062 A 
ATOM     11  C   UNL d   1      -1.478   4.624  -7.062  0.00  0.00     0.050 A 
ATOM     12 CL   UNL d   1      -1.510   1.979  -6.575  0.00  0.00    -0.082 Cl
ATOM     13  C   UNL d   1      -1.182   5.951  -6.759  0.00  0.00     0.035 A 
ATOM     14  C   UNL d   1      -0.537   6.277  -5.571  0.00  0.00     0.026 A 
ATOM     15 CL   UNL d   1      -1.605   7.201  -7.863  0.00  0.00    -0.084 Cl
ATOM     16  C   UNL d   1      -0.200   5.266  -4.666  0.00  0.00     0.033 A 
ENDBRANCH   6   9
ENDBRANCH   4   5
ENDBRANCH   2   4
BRANCH   1  17
ATOM     17  C   UNL d   1       2.116   0.740  -0.297  0.00  0.00     0.222 C 
ATOM     18  O   UNL d   1       2.622  -0.475   0.267  0.00  0.00    -0.333 OA
ATOM     19  C   UNL d   1       3.919  -0.390   0.695  0.00  0.00     0.103 A 
ATOM     20  C   UNL d   1       4.543  -1.597   1.013  0.00  0.00     0.040 A 
ATOM     21  C   UNL d   1       4.634   0.806   0.762  0.00  0.00     0.102 A 
ATOM     22  C   UNL d   1       5.894  -1.612   1.361  0.00  0.00     0.003 A 
ATOM     23  C   UNL d   1       6.615  -0.419   1.406  0.00  0.00     0.003 A 
ATOM     24  C   UNL d   1       5.983   0.791   1.111  0.00  0.00     0.039 A 
ATOM     25  O   UNL d   1       4.090   2.022   0.450  0.00  0.00    -0.345 OA
ATOM     26  C   UNL d   1       2.659   1.977   0.416  0.00  0.00     0.216 C 
ENDBRANCH   1  17
BRANCH   1  27
ATOM     27  N   UNL d   1       3.427   0.202  -2.385  0.00  0.00    -0.385 N 
ATOM     28  H   UNL d   1       3.864  -0.538  -1.846  0.00  0.00     0.157 HD
ATOM     29  H   UNL d   1       3.392   0.040  -3.383  0.00  0.00     0.157 HD
ENDBRANCH   1  27
TORSDOF 5
