REMARK  3 active torsions:
REMARK  status: ('A' for Active; 'I' for Inactive)
REMARK    1  A    between atoms: S_4  and  C_1 
REMARK    2  A    between atoms: C_6  and  C_2 
REMARK       I    between atoms: N_8  and  C_6 
REMARK    3  A    between atoms: C_14  and  N_8 
ROOT
ATOM      1  C   UNL d   1      -0.133  -1.293   0.370  0.00  0.00     0.088 A 
ATOM      2  C   UNL d   1       0.220   1.023   0.280  0.00  0.00     0.095 A 
ATOM      3  C   UNL d   1      -0.720   0.012   0.450  0.00  0.00     0.078 A 
ATOM      4  S   UNL d   1       1.798   0.365   0.068  0.00  0.00    -0.093 SA
ATOM      5  C   UNL d   1       1.229  -1.235   0.160  0.00  0.00     0.075 A 
ATOM      6 CL   UNL d   1      -2.398   0.276   0.708  0.00  0.00    -0.081 Cl
ENDROOT
BRANCH   2   7
ATOM      7  C   UNL d   1       0.010   2.474   0.255  0.00  0.00     0.260 C 
ATOM      8  N   UNL d   1       1.143   3.239   0.048  0.00  0.00    -0.353 N 
ATOM      9  H   UNL d   1       2.018   2.747  -0.078  0.00  0.00     0.163 HD
ATOM     10  O   UNL d   1      -1.091   2.996   0.402  0.00  0.00    -0.267 OA
BRANCH   8  11
ATOM     11  C   UNL d   1       1.165   4.692  -0.072  0.00  0.00     0.076 C 
ATOM     12  C   UNL d   1       0.381   5.188  -1.285  0.00  0.00     0.032 C 
ATOM     13  C   UNL d   1       0.718   5.392   1.209  0.00  0.00     0.032 C 
ENDBRANCH   8  11
ENDBRANCH   2   7
BRANCH   1  14
ATOM     14  S   UNL d   1      -0.987  -2.801   0.461  0.00  0.00     0.174 S 
ATOM     15  O   UNL d   1      -2.026  -2.697  -0.540  0.00  0.00    -0.223 OA
ATOM     16  O   UNL d   1       0.054  -3.808   0.377  0.00  0.00    -0.223 OA
ATOM     17  C   UNL d   1      -1.699  -2.878   2.080  0.00  0.00     0.167 C 
ENDBRANCH   1  14
TORSDOF 3
