REMARK  4 active torsions:
REMARK  status: ('A' for Active; 'I' for Inactive)
REMARK    1  A    between atoms: S_8  and  C_1 
REMARK    2  A    between atoms: C_14  and  N_4 
REMARK    3  A    between atoms: C_7  and  C_9 
REMARK    4  A    between atoms: C_9  and  S_8 
ROOT
ATOM      1  C   UNL d   1       2.322   0.053   0.108  0.00  0.00     0.148 A 
ATOM      2  N   UNL d   1       1.629  -1.060   0.156  0.00  0.00    -0.335 N 
ATOM      3  HN  UNL d   1       1.993  -2.011   0.224  1.00  0.00     0.168 HD
ATOM      4  N   UNL d   1       1.511   1.160  -0.027  0.00  0.00    -0.321 N 
ATOM      5  C   UNL d   1       0.317  -0.679   0.094  0.00  0.00     0.062 A 
ATOM      6  C   UNL d   1       0.201   0.708   0.009  0.00  0.00     0.063 A 
ATOM      7  C   UNL d   1      -0.832  -1.483   0.108  0.00  0.00     0.055 A 
ATOM      8  C   UNL d   1      -1.050   1.343  -0.034  0.00  0.00     0.034 A 
ATOM      9  C   UNL d   1      -2.078  -0.859   0.050  0.00  0.00     0.036 A 
ATOM     10  C   UNL d   1      -2.189   0.529  -0.014  0.00  0.00     0.026 A 
ATOM     11 CL   UNL d   1      -3.507  -1.823   0.055  0.00  0.00    -0.084 Cl
ENDROOT
BRANCH   1  12
ATOM     12  S   UNL d   1       4.058   0.107   0.218  0.00  0.00    -0.089 SA
BRANCH  12  13
ATOM     13  C   UNL d   1       4.426  -1.674   0.306  0.00  0.00     0.126 C 
BRANCH  13  14
ATOM     14  C   UNL d   1       5.891  -1.972   0.506  0.00  0.00     0.012 A 
ATOM     15  C   UNL d   1       6.495  -2.055   1.769  0.00  0.00     0.044 A 
ATOM     16 CL   UNL d   1       5.617  -1.749   3.226  0.00  0.00    -0.084 Cl
ATOM     17  C   UNL d   1       7.846  -2.409   1.898  0.00  0.00     0.024 A 
ATOM     18  C   UNL d   1       8.620  -2.671   0.767  0.00  0.00     0.005 A 
ATOM     19  C   UNL d   1       8.043  -2.566  -0.494  0.00  0.00     0.043 A 
ATOM     20  C   UNL d   1       6.697  -2.217  -0.613  0.00  0.00     0.125 A 
ATOM     21  F   UNL d   1       6.171  -2.142  -1.844  0.00  0.00    -0.205 F 
ENDBRANCH  13  14
ENDBRANCH  12  13
ENDBRANCH   1  12
BRANCH   4  22
ATOM     22  C   UNL d   1       1.937   2.544  -0.240  0.00  0.00     0.084 C 
ATOM     23  C   UNL d   1       1.421   3.116  -1.564  0.00  0.00     0.032 C 
ATOM     24  C   UNL d   1       1.590   3.452   0.941  0.00  0.00     0.032 C 
ENDBRANCH   4  22
TORSDOF 4
