REMARK  2 active torsions:
REMARK  status: ('A' for Active; 'I' for Inactive)
REMARK    1  A    between atoms: S_2  and  C_1 
REMARK    2  A    between atoms: N_7  and  S_2 
ROOT
ATOM      1  S   UNL d   1      -0.521  -2.893  -0.272  0.00  0.00     0.247 S 
ATOM      2  O   UNL d   1       0.181  -1.655  -0.042  0.00  0.00    -0.206 OA
ATOM      3  O   UNL d   1      -1.520  -2.968  -1.316  0.00  0.00    -0.206 OA
ENDROOT
BRANCH   1   4
ATOM      4  C   UNL d   1       0.682  -4.060  -0.717  0.00  0.00     0.122 A 
ATOM      5  C   UNL d   1       0.434  -5.296  -1.409  0.00  0.00     0.064 A 
ATOM      6  C   UNL d   1       1.587  -6.020  -1.601  0.00  0.00     0.095 A 
ATOM      7 BR   UNL d   1      -1.264  -5.921  -1.985  0.00  0.00    -0.047 Br
ATOM      8 CL   UNL d   1       1.784  -7.545  -2.376  0.00  0.00    -0.075 Cl
ATOM      9  S   UNL d   1       2.954  -5.274  -0.947  0.00  0.00    -0.063 SA
ATOM     10  C   UNL d   1       2.022  -3.959  -0.402  0.00  0.00     0.100 A 
ATOM     11 CL   UNL d   1       2.883  -2.747   0.473  0.00  0.00    -0.074 Cl
ENDBRANCH   1   4
BRANCH   1  12
ATOM     12  N   UNL d   1      -1.220  -3.408   1.191  0.00  0.00    -0.202 NA
ATOM     13  C   UNL d   1      -0.397  -3.223   2.431  0.00  0.00     0.134 C 
ATOM     14  C   UNL d   1      -0.511  -1.794   2.983  0.00  0.00     0.183 C 
ATOM     15  O   UNL d   1      -1.881  -1.435   3.213  0.00  0.00    -0.389 OA
ATOM     16  C   UNL d   1      -2.637  -1.513   1.995  0.00  0.00     0.183 C 
ATOM     17  C   UNL d   1      -2.620  -2.940   1.439  0.00  0.00     0.134 C 
ENDBRANCH   1  12
TORSDOF 2
