REMARK  6 active torsions:
REMARK  status: ('A' for Active; 'I' for Inactive)
REMARK    1  A    between atoms: C_8  and  N_3 
REMARK    2  A    between atoms: C_9  and  C_6 
REMARK    3  A    between atoms: C_10  and  C_8 
REMARK    4  A    between atoms: O_18  and  C_10 
REMARK    5  A    between atoms: C_11  and  C_12 
REMARK    6  A    between atoms: C_22  and  O_18 
ROOT
ATOM      1  N   UNL d   1      -0.463   0.497  -0.934  0.00  0.00    -0.268 N 
ATOM      2  HN  UNL d   1      -0.745   0.988  -1.782  1.00  0.00     0.190 HD
ATOM      3  N   UNL d   1       0.771   0.246  -0.448  0.00  0.00    -0.207 N 
ATOM      4  N   UNL d   1      -0.454  -0.724   0.971  0.00  0.00    -0.266 N 
ATOM      5  HN  UNL d   1      -0.801  -1.249   1.773  1.00  0.00     0.186 HD
ATOM      6  C   UNL d   1      -1.216  -0.083   0.019  0.00  0.00     0.144 A 
ATOM      7  N   UNL d   1       0.818  -0.527   0.647  0.00  0.00    -0.002 NA
ENDROOT
BRANCH   6   8
ATOM      8  C   UNL d   1      -2.675  -0.070   0.052  0.00  0.00     0.010 A 
ATOM      9  C   UNL d   1      -3.373  -0.723   1.073  0.00  0.00     0.016 A 
ATOM     10  C   UNL d   1      -4.775  -0.719   1.101  0.00  0.00     0.009 A 
ATOM     11  C   UNL d   1      -5.531  -0.069   0.106  0.00  0.00    -0.051 A 
ATOM     12  C   UNL d   1      -4.816   0.592  -0.906  0.00  0.00     0.009 A 
ATOM     13  C   UNL d   1      -3.414   0.590  -0.934  0.00  0.00     0.016 A 
BRANCH  11  14
ATOM     14  C   UNL d   1      -7.070  -0.115   0.143  0.00  0.00    -0.024 C 
ATOM     15  C   UNL d   1      -7.737   0.632  -1.034  0.00  0.00     0.019 C 
ATOM     16  C   UNL d   1      -7.548  -1.583   0.079  0.00  0.00     0.019 C 
ATOM     17  C   UNL d   1      -7.597   0.524   1.446  0.00  0.00     0.019 C 
ENDBRANCH  11  14
ENDBRANCH   6   8
BRANCH   3  18
ATOM     18  C   UNL d   1       1.966   0.614  -1.160  0.00  0.00     0.278 C 
BRANCH  18  19
ATOM     19  C   UNL d   1       2.403   1.998  -0.794  0.00  0.00     0.280 C 
ATOM     20  O   UNL d   1       1.867   2.746   0.009  0.00  0.00    -0.263 OA
BRANCH  19  21
ATOM     21  O   UNL d   1       3.485   2.335  -1.564  0.00  0.00    -0.320 OA
BRANCH  21  22
ATOM     22  C   UNL d   1       3.803   3.736  -1.602  0.00  0.00     0.174 C 
ATOM     23  C   UNL d   1       3.018   4.358  -2.746  0.00  0.00     0.034 C 
ENDBRANCH  21  22
ENDBRANCH  19  21
ENDBRANCH  18  19
ENDBRANCH   3  18
TORSDOF 6
