REMARK  2 active torsions:
REMARK  status: ('A' for Active; 'I' for Inactive)
REMARK    1  A    between atoms: N_10  and  C_7 
REMARK    2  A    between atoms: C_14  and  N_10 
ROOT
ATOM      1  C   UNL d   1      -1.238   0.097  -0.141  0.00  0.00     0.130 C 
ATOM      2  C   UNL d   1      -0.520   1.353   0.081  0.00  0.00     0.303 C 
ATOM      3  C   UNL d   1      -0.625  -1.188   0.211  0.00  0.00     0.303 C 
ATOM      4  O   UNL d   1       0.812   1.222   0.248  0.00  0.00    -0.279 OA
ATOM      5  O   UNL d   1       0.717  -1.157   0.342  0.00  0.00    -0.279 OA
ATOM      6  C   UNL d   1       1.418  -0.011  -0.142  0.00  0.00     0.175 C 
ATOM      7  C   UNL d   1      -2.442   0.082  -0.740  0.00  0.00     0.112 C 
ATOM      8  O   UNL d   1      -1.072   2.446   0.105  0.00  0.00    -0.259 OA
ATOM      9  O   UNL d   1      -1.266  -2.218   0.368  0.00  0.00    -0.259 OA
ATOM     10  C   UNL d   1       1.574  -0.077  -1.667  0.00  0.00     0.080 C 
ATOM     11  C   UNL d   1       2.803  -0.043   0.503  0.00  0.00     0.080 C 
ENDROOT
BRANCH   7  12
ATOM     12  N   UNL d   1      -3.180   1.142  -1.215  0.00  0.00    -0.365 N 
ATOM     13  H   UNL d   1      -2.799   2.069  -0.998  0.00  0.00     0.165 HD
BRANCH  12  14
ATOM     14  C   UNL d   1      -4.412   1.129  -1.891  0.00  0.00     0.033 A 
ATOM     15  C   UNL d   1      -4.933   2.345  -2.366  0.00  0.00     0.056 A 
ATOM     16  C   UNL d   1      -6.141   2.382  -3.068  0.00  0.00     0.074 A 
ATOM     17 CL   UNL d   1      -6.745   3.892  -3.635  0.00  0.00    -0.081 Cl
ATOM     18  C   UNL d   1      -6.840   1.205  -3.308  0.00  0.00     0.138 A 
ATOM     19  C   UNL d   1      -6.342  -0.009  -2.857  0.00  0.00     0.046 A 
ATOM     20  F   UNL d   1      -8.001   1.217  -3.980  0.00  0.00    -0.204 F 
ATOM     21  C   UNL d   1      -5.133  -0.045  -2.157  0.00  0.00     0.032 A 
ENDBRANCH  12  14
ENDBRANCH   7  12
TORSDOF 2
