REMARK  7 active torsions:
REMARK  status: ('A' for Active; 'I' for Inactive)
REMARK    1  A    between atoms: N_6  and  C_1 
REMARK    2  A    between atoms: C_10  and  N_2 
REMARK       I    between atoms: C_8  and  N_6 
REMARK    3  A    between atoms: C_12  and  C_7 
REMARK       I    between atoms: N_9  and  C_8 
REMARK    4  A    between atoms: C_13  and  N_9 
REMARK    5  A    between atoms: O_14  and  C_15 
REMARK    6  A    between atoms: C_16  and  O_14 
REMARK    7  A    between atoms: C_21  and  C_16 
ROOT
ATOM      1  N   UNL d   1      -1.124  -2.569  -0.227  0.00  0.00    -0.293 N 
ATOM      2  C   UNL d   1      -2.526  -2.527  -0.278  0.00  0.00     0.326 C 
ATOM      3  N   UNL d   1      -3.017  -3.752  -0.694  0.00  0.00    -0.309 N 
ATOM      4  O   UNL d   1      -3.200  -1.558   0.042  0.00  0.00    -0.247 OA
ATOM      5  H   UNL d   1      -0.780  -3.471   0.076  0.00  0.00     0.172 HD
ATOM      6  H   UNL d   1      -2.355  -4.349  -1.171  0.00  0.00     0.170 HD
ENDROOT
BRANCH   1   7
ATOM      7  C   UNL d   1      -0.454  -1.477   0.328  0.00  0.00     0.133 C 
ATOM      8  N   UNL d   1      -0.621  -0.120   0.036  0.00  0.00    -0.239 N 
ATOM      9  N   UNL d   1      -0.124   0.640   1.049  0.00  0.00    -0.291 N 
ATOM     10  C   UNL d   1       0.500  -0.206   1.873  0.00  0.00     0.062 C 
ATOM     11  HN  UNL d   1      -0.211   1.651   1.157  1.00  0.00     0.187 HD
ATOM     12  C   UNL d   1       0.453  -1.528   1.367  0.00  0.00     0.082 C 
BRANCH   8  13
ATOM     13  C   UNL d   1      -1.098   0.534  -1.141  0.00  0.00     0.058 A 
ATOM     14  C   UNL d   1      -1.343  -0.159  -2.332  0.00  0.00     0.031 A 
ATOM     15  C   UNL d   1      -1.765   0.534  -3.472  0.00  0.00     0.002 A 
ATOM     16  C   UNL d   1      -1.933   1.919  -3.437  0.00  0.00     0.000 A 
ATOM     17  C   UNL d   1      -1.678   2.618  -2.261  0.00  0.00     0.002 A 
ATOM     18  C   UNL d   1      -1.261   1.932  -1.120  0.00  0.00     0.031 A 
ENDBRANCH   8  13
BRANCH  10  19
ATOM     19  C   UNL d   1       1.000   0.246   3.170  0.00  0.00    -0.008 A 
ATOM     20  C   UNL d   1       2.092  -0.361   3.801  0.00  0.00     0.014 A 
ATOM     21  C   UNL d   1       2.464   0.032   5.092  0.00  0.00     0.001 A 
ATOM     22  C   UNL d   1       1.748   1.027   5.759  0.00  0.00     0.000 A 
ATOM     23  C   UNL d   1       0.673   1.650   5.133  0.00  0.00     0.001 A 
ATOM     24  C   UNL d   1       0.307   1.266   3.844  0.00  0.00     0.014 A 
ENDBRANCH  10  19
ENDBRANCH   1   7
BRANCH   3  25
ATOM     25  C   UNL d   1      -4.351  -4.210  -0.650  0.00  0.00     0.036 A 
ATOM     26  C   UNL d   1      -5.406  -3.522  -0.041  0.00  0.00     0.032 A 
ATOM     27  C   UNL d   1      -6.698  -4.077   0.003  0.00  0.00     0.039 A 
ATOM     28  C   UNL d   1      -6.948  -5.324  -0.560  0.00  0.00     0.069 A 
ATOM     29  C   UNL d   1      -5.902  -6.004  -1.188  0.00  0.00     0.039 A 
ATOM     30  C   UNL d   1      -4.615  -5.458  -1.226  0.00  0.00     0.032 A 
BRANCH  28  31
ATOM     31  O   UNL d   1      -8.148  -5.975  -0.601  0.00  0.00    -0.347 OA
BRANCH  31  32
ATOM     32  C   UNL d   1      -9.137  -5.602   0.362  0.00  0.00     0.214 C 
BRANCH  32  33
ATOM     33  C   UNL d   1     -10.326  -6.546   0.307  0.00  0.00    -0.034 A 
ATOM     34  C   UNL d   1     -10.488  -7.494  -0.716  0.00  0.00     0.009 A 
ATOM     35  C   UNL d   1     -11.601  -8.338  -0.743  0.00  0.00     0.001 A 
ATOM     36  C   UNL d   1     -12.574  -8.244   0.248  0.00  0.00     0.000 A 
ATOM     37  C   UNL d   1     -12.435  -7.303   1.266  0.00  0.00     0.001 A 
ATOM     38  C   UNL d   1     -11.321  -6.459   1.296  0.00  0.00     0.009 A 
ENDBRANCH  32  33
ENDBRANCH  31  32
ENDBRANCH  28  31
ENDBRANCH   3  25
TORSDOF 7
