REMARK  4 active torsions:
REMARK  status: ('A' for Active; 'I' for Inactive)
REMARK    1  A    between atoms: C_2  and  C_1 
REMARK    2  A    between atoms: O_3  and  C_1 
REMARK    3  A    between atoms: C_5  and  O_3 
REMARK    4  A    between atoms: C_6  and  C_4 
ROOT
ATOM      1  C   UNL d   1       1.023   1.769   0.062  0.00  0.00     0.298 C 
ATOM      2  O   UNL d   1       1.014   2.802   0.703  0.00  0.00    -0.259 OA
ENDROOT
BRANCH   1   3
ATOM      3  C   UNL d   1       1.828   1.558  -1.174  0.00  0.00     0.043 A 
ATOM      4  C   UNL d   1       2.640   2.607  -1.621  0.00  0.00     0.041 A 
ATOM      5  C   UNL d   1       3.335   2.478  -2.826  0.00  0.00     0.036 A 
ATOM      6 CL   UNL d   1       4.312   3.777  -3.390  0.00  0.00    -0.084 Cl
ATOM      7  C   UNL d   1       3.233   1.315  -3.587  0.00  0.00     0.047 A 
ATOM      8  C   UNL d   1       2.432   0.272  -3.134  0.00  0.00     0.036 A 
ATOM      9  C   UNL d   1       1.730   0.384  -1.937  0.00  0.00     0.041 A 
ATOM     10 CL   UNL d   1       2.283  -1.163  -4.071  0.00  0.00    -0.084 Cl
ENDBRANCH   1   3
BRANCH   1  11
ATOM     11  O   UNL d   1       0.270   0.628   0.294  0.00  0.00    -0.274 OA
BRANCH  11  12
ATOM     12  C   UNL d   1      -1.061   0.613   0.782  0.00  0.00     0.093 A 
ATOM     13  C   UNL d   1      -1.734  -0.617   0.726  0.00  0.00     0.043 A 
ATOM     14  C   UNL d   1      -3.121  -0.652   0.915  0.00  0.00     0.018 A 
ATOM     15  C   UNL d   1      -3.817   0.517   1.218  0.00  0.00     0.001 A 
ATOM     16  C   UNL d   1      -3.129   1.724   1.346  0.00  0.00     0.003 A 
ATOM     17  C   UNL d   1      -1.752   1.778   1.121  0.00  0.00     0.038 A 
BRANCH  13  18
ATOM     18  C   UNL d   1      -1.055  -1.903   0.417  0.00  0.00     0.158 C 
ATOM     19  O   UNL d   1      -1.630  -2.736  -0.281  0.00  0.00    -0.293 OA
ATOM     20  C   UNL d   1       0.305  -2.184   1.005  0.00  0.00     0.097 C 
ENDBRANCH  13  18
ENDBRANCH  11  12
ENDBRANCH   1  11
TORSDOF 4
