REMARK  3 active torsions:
REMARK  status: ('A' for Active; 'I' for Inactive)
REMARK    1  A    between atoms: N_3  and  C_1 
REMARK    2  A    between atoms: S_4  and  C_2 
REMARK    3  A    between atoms: C_5  and  S_4 
ROOT
ATOM      1  C   UNL d   1       1.491   0.712   0.072  0.00  0.00     0.127 A 
ATOM      2  C   UNL d   1       0.264   1.353  -0.032  0.00  0.00     0.079 A 
ATOM      3  S   UNL d   1      -1.022   0.214  -0.203  0.00  0.00    -0.092 SA
ATOM      4  C   UNL d   1       1.345  -0.722   0.002  0.00  0.00     0.045 A 
ATOM      5  C   UNL d   1       0.037  -1.118  -0.145  0.00  0.00     0.053 A 
ENDROOT
BRANCH   2   6
ATOM      6  S   UNL d   1      -0.142   3.069   0.093  0.00  0.00    -0.073 SA
BRANCH   6   7
ATOM      7  C   UNL d   1      -0.133   3.457  -1.623  0.00  0.00     0.046 A 
ATOM      8  S   UNL d   1      -1.533   3.323  -2.599  0.00  0.00    -0.095 SA
ATOM      9  C   UNL d   1      -0.729   3.985  -3.958  0.00  0.00     0.051 A 
ATOM     10  C   UNL d   1       0.584   4.294  -3.678  0.00  0.00     0.009 A 
ATOM     11  C   UNL d   1       0.929   3.986  -2.327  0.00  0.00     0.027 A 
ENDBRANCH   6   7
ENDBRANCH   2   6
BRANCH   1  12
ATOM     12  N   UNL d   1       2.782   1.349   0.248  0.00  0.00    -0.114 N 
ATOM     13  O   UNL d   1       2.831   2.580   0.339  0.00  0.00    -0.532 OA
ATOM     14  O   UNL d   1       3.763   0.596   0.292  0.00  0.00    -0.532 OA
ENDBRANCH   1  12
TORSDOF 3
