REMARK  2 active torsions:
REMARK  status: ('A' for Active; 'I' for Inactive)
REMARK    1  A    between atoms: C_2  and  N_1 
REMARK    2  A    between atoms: N_4  and  C_3 
ROOT
ATOM      1  N   UNL d   1      -1.193  -1.389  -0.702  0.00  0.00    -0.365 N 
ATOM      2  N   UNL d   1      -3.072  -2.446  -4.723  0.00  0.00    -0.197 NA
ATOM      3  C   UNL d   1      -2.455  -1.650  -4.140  0.00  0.00     0.064 C 
ATOM      4  C   UNL d   1      -2.571  -1.045  -1.038  0.00  0.00     0.126 C 
ATOM      5  C   UNL d   1      -0.506  -2.175  -1.722  0.00  0.00     0.126 C 
ATOM      6  C   UNL d   1      -1.662  -0.649  -3.392  0.00  0.00     0.096 C 
ATOM      7  C   UNL d   1      -2.494  -0.082  -2.228  0.00  0.00     0.039 C 
ATOM      8  C   UNL d   1      -0.331  -1.267  -2.940  0.00  0.00     0.039 C 
ENDROOT
BRANCH   1   9
ATOM      9  C   UNL d   1      -0.816  -1.431   0.625  0.00  0.00     0.136 A 
ATOM     10  C   UNL d   1       0.481  -1.171   1.079  0.00  0.00     0.146 A 
ATOM     11  C   UNL d   1       0.811  -1.204   2.438  0.00  0.00     0.041 A 
ATOM     12  C   UNL d   1      -0.191  -1.480   3.353  0.00  0.00     0.020 A 
ATOM     13  C   UNL d   1      -1.463  -1.704   2.860  0.00  0.00     0.090 A 
ATOM     14  N   UNL d   1      -1.784  -1.684   1.541  0.00  0.00    -0.350 N 
ATOM     15  HN  UNL d   1      -2.743  -1.859   1.242  1.00  0.00     0.166 HD
BRANCH  10  16
ATOM     16  N   UNL d   1       1.505  -0.724   0.171  0.00  0.00    -0.112 N 
ATOM     17  O   UNL d   1       1.365   0.389  -0.354  0.00  0.00    -0.532 OA
ATOM     18  O   UNL d   1       2.483  -1.471   0.019  0.00  0.00    -0.532 OA
ENDBRANCH  10  16
ENDBRANCH   1   9
TORSDOF 2
