REMARK  4 active torsions:
REMARK  status: ('A' for Active; 'I' for Inactive)
REMARK    1  A    between atoms: C_5  and  N_1 
REMARK    2  A    between atoms: C_7  and  C_2 
REMARK    3  A    between atoms: S_6  and  C_3 
REMARK    4  A    between atoms: C_13  and  S_6 
ROOT
ATOM      1  C   UNL d   1       0.286  -1.766   3.303  0.00  0.00     0.029 A 
ATOM      2  C   UNL d   1      -0.890  -2.484   3.005  0.00  0.00     0.019 A 
ATOM      3  C   UNL d   1       0.866  -0.942   2.311  0.00  0.00     0.052 A 
ATOM      4  C   UNL d   1       0.304  -0.861   1.034  0.00  0.00     0.103 A 
ATOM      5  C   UNL d   1      -1.421  -2.405   1.700  0.00  0.00     0.022 A 
ATOM      6  C   UNL d   1      -0.833  -1.604   0.718  0.00  0.00     0.037 A 
ENDROOT
BRANCH   2   7
ATOM      7  S   UNL d   1      -1.748  -3.590   4.109  0.00  0.00    -0.090 SA
BRANCH   7   8
ATOM      8  C   UNL d   1      -3.090  -2.618   4.789  0.00  0.00     0.005 A 
ATOM      9  C   UNL d   1      -3.299  -1.254   4.537  0.00  0.00     0.020 A 
ATOM     10  C   UNL d   1      -4.353  -0.568   5.152  0.00  0.00     0.025 A 
ATOM     11  C   UNL d   1      -5.208  -1.237   6.023  0.00  0.00     0.034 A 
ATOM     12  C   UNL d   1      -5.024  -2.591   6.277  0.00  0.00     0.025 A 
ATOM     13 CL   UNL d   1      -6.490  -0.386   6.790  0.00  0.00    -0.084 Cl
ATOM     14  C   UNL d   1      -3.970  -3.276   5.662  0.00  0.00     0.020 A 
ENDBRANCH   7   8
ENDBRANCH   2   7
BRANCH   1  15
ATOM     15  C   UNL d   1       1.068  -1.854   4.574  0.00  0.00     0.157 C 
ATOM     16  O   UNL d   1       2.295  -1.774   4.506  0.00  0.00    -0.293 OA
ATOM     17  C   UNL d   1       0.391  -2.003   5.908  0.00  0.00     0.097 C 
ENDBRANCH   1  15
BRANCH   4  18
ATOM     18  N   UNL d   1       0.922  -0.004   0.014  0.00  0.00    -0.116 N 
ATOM     19  O   UNL d   1       1.858   0.726   0.364  0.00  0.00    -0.532 OA
ATOM     20  O   UNL d   1       0.455  -0.051  -1.135  0.00  0.00    -0.532 OA
ENDBRANCH   4  18
TORSDOF 4
