REMARK  8 active torsions:
REMARK  status: ('A' for Active; 'I' for Inactive)
REMARK    1  A    between atoms: C_2  and  C_16 
REMARK    2  A    between atoms: N_10  and  C_18 
REMARK    3  A    between atoms: C_16  and  N_10 
REMARK    4  A    between atoms: O_12  and  C_11 
REMARK    5  A    between atoms: C_14  and  O_12 
REMARK    6  A    between atoms: C_13  and  C_14 
REMARK    7  A    between atoms: O_17  and  C_13 
REMARK    8  A    between atoms: C_18  and  C_13 
ROOT
ATOM      1  C   UNL d   1      -4.496   3.281   0.195  0.00  0.00     0.170 C 
ENDROOT
BRANCH   1   2
ATOM      2  C   UNL d   1      -3.055   2.740   0.152  0.00  0.00     0.209 C 
BRANCH   2   3
ATOM      3  O   UNL d   1      -3.053   1.312   0.067  0.00  0.00    -0.349 OA
BRANCH   3   4
ATOM      4  C   UNL d   1      -1.815   0.728  -0.013  0.00  0.00     0.069 A 
ATOM      5  C   UNL d   1      -0.590   1.399  -0.004  0.00  0.00     0.044 A 
ATOM      6  C   UNL d   1       0.639   0.708  -0.071  0.00  0.00    -0.053 A 
ATOM      7  C   UNL d   1       0.628  -0.695  -0.142  0.00  0.00    -0.056 A 
ATOM      8  C   UNL d   1       1.882   1.558  -0.051  0.00  0.00     0.049 C 
ATOM      9  C   UNL d   1      -0.612  -1.362  -0.166  0.00  0.00     0.010 A 
ATOM     10  C   UNL d   1       1.860  -1.558  -0.192  0.00  0.00     0.049 C 
ATOM     11  C   UNL d   1      -1.817  -0.658  -0.104  0.00  0.00     0.037 A 
ENDBRANCH   3   4
ENDBRANCH   2   3
ENDBRANCH   1   2
BRANCH   1  12
ATOM     12  O   UNL d   1      -5.202   2.818   1.354  0.00  0.00    -0.392 OA
ATOM     13  H   UNL d   1      -4.573   2.771   2.093  0.00  0.00     0.210 HD
ENDBRANCH   1  12
BRANCH   1  14
ATOM     14  C   UNL d   1      -4.493   4.824   0.212  0.00  0.00     0.303 C 
BRANCH  14  15
ATOM     15  N   UNL d   1      -3.814   5.364  -0.961  0.00  0.00     0.092 N 
ATOM     16  H   UNL d   1      -4.316   5.087  -1.808  0.00  0.00     0.316 HD
BRANCH  15  17
ATOM     17  C   UNL d   1      -3.742   6.823  -0.948  0.00  0.00     0.334 C 
BRANCH  17  18
ATOM     18  C   UNL d   1      -3.041   7.276  -2.179  0.00  0.00     0.080 A 
ATOM     19  O   UNL d   1      -3.820   7.492  -3.280  0.00  0.00    -0.325 OA
ATOM     20  C   UNL d   1      -2.986   7.854  -4.288  0.00  0.00     0.142 A 
ATOM     21  C   UNL d   1      -1.682   7.873  -3.854  0.00  0.00     0.027 A 
ATOM     22  C   UNL d   1      -1.715   7.494  -2.491  0.00  0.00     0.036 A 
ENDBRANCH  17  18
ENDBRANCH  15  17
ENDBRANCH  14  15
ENDBRANCH   1  14
TORSDOF 8
