REMARK  3 active torsions:
REMARK  status: ('A' for Active; 'I' for Inactive)
REMARK       I    between atoms: N_2  and  C_1 
REMARK       I    between atoms: N_6  and  C_1 
REMARK    1  A    between atoms: C_4  and  N_2 
REMARK    2  A    between atoms: C_5  and  N_2 
REMARK    3  A    between atoms: C_7  and  N_6 
ROOT
ATOM      1  C   UNL d   1       1.113   0.045  -0.145  0.00  0.00     0.327 C 
ATOM      2  N   UNL d   1       0.410   0.646  -1.205  0.00  0.00    -0.265 N 
ATOM      3  O   UNL d   1       0.619  -0.764   0.637  0.00  0.00    -0.246 OA
ATOM      4  N   UNL d   1       2.424   0.454   0.002  0.00  0.00    -0.343 N 
ATOM      5  H   UNL d   1       2.640   1.368  -0.373  0.00  0.00     0.164 HD
ENDROOT
BRANCH   2   6
ATOM      6  C   UNL d   1      -1.021   0.634  -1.149  0.00  0.00     0.044 A 
ATOM      7  C   UNL d   1      -1.679   1.144  -0.021  0.00  0.00     0.030 A 
ATOM      8  C   UNL d   1      -3.073   1.231   0.004  0.00  0.00     0.002 A 
ATOM      9  C   UNL d   1      -3.821   0.770  -1.079  0.00  0.00     0.000 A 
ATOM     10  C   UNL d   1      -3.179   0.220  -2.187  0.00  0.00     0.002 A 
ATOM     11  C   UNL d   1      -1.784   0.160  -2.227  0.00  0.00     0.030 A 
ENDBRANCH   2   6
BRANCH   2  12
ATOM     12  C   UNL d   1       1.001   1.282  -2.356  0.00  0.00     0.044 A 
ATOM     13  C   UNL d   1       2.249   0.886  -2.859  0.00  0.00     0.030 A 
ATOM     14  C   UNL d   1       2.843   1.559  -3.933  0.00  0.00     0.002 A 
ATOM     15  C   UNL d   1       2.188   2.625  -4.542  0.00  0.00     0.000 A 
ATOM     16  C   UNL d   1       0.935   3.016  -4.083  0.00  0.00     0.002 A 
ATOM     17  C   UNL d   1       0.350   2.352  -3.002  0.00  0.00     0.030 A 
ENDBRANCH   2  12
BRANCH   4  18
ATOM     18  C   UNL d   1       3.280  -0.067   1.044  0.00  0.00     0.120 C 
ATOM     19  C   UNL d   1       3.984  -1.339   0.603  0.00  0.00     0.026 C 
ENDBRANCH   4  18
TORSDOF 3
