REMARK  3 active torsions:
REMARK  status: ('A' for Active; 'I' for Inactive)
REMARK    1  A    between atoms: C_8  and  C_1 
REMARK    2  A    between atoms: C_7  and  C_4 
REMARK    3  A    between atoms: O_9  and  C_8 
ROOT
ATOM      1  C   UNL d   1       0.009  -1.275   0.006  0.00  0.00     0.026 A 
ATOM      2  N   UNL d   1      -1.340   0.564  -0.084  0.00  0.00    -0.260 N 
ATOM      3  HN  UNL d   1      -2.158   1.172  -0.119  1.00  0.00     0.195 HD
ATOM      4  C   UNL d   1      -1.341  -0.779  -0.030  0.00  0.00     0.076 A 
ATOM      5  O   UNL d   1      -0.026   0.959  -0.081  0.00  0.00    -0.242 OA
ATOM      6  C   UNL d   1       0.780  -0.128  -0.024  0.00  0.00     0.083 A 
ATOM      7  C   UNL d   1       2.229   0.148   0.004  0.00  0.00     0.079 C 
ENDROOT
BRANCH   4   8
ATOM      8  C   UNL d   1      -2.611  -1.514   0.013  0.00  0.00    -0.007 A 
ATOM      9  C   UNL d   1      -2.751  -2.784  -0.563  0.00  0.00     0.014 A 
ATOM     10  C   UNL d   1      -3.953  -3.490  -0.458  0.00  0.00     0.001 A 
ATOM     11  C   UNL d   1      -5.042  -2.924   0.197  0.00  0.00     0.000 A 
ATOM     12  C   UNL d   1      -4.934  -1.646   0.743  0.00  0.00     0.001 A 
ATOM     13  C   UNL d   1      -3.727  -0.948   0.652  0.00  0.00     0.014 A 
ENDBRANCH   4   8
BRANCH   1  14
ATOM     14  C   UNL d   1       0.460  -2.688   0.073  0.00  0.00     0.207 C 
BRANCH  14  15
ATOM     15  O   UNL d   1       1.733  -2.850   0.689  0.00  0.00    -0.396 OA
ATOM     16  H   UNL d   1       2.400  -2.596   0.029  0.00  0.00     0.209 HD
ENDBRANCH  14  15
ENDBRANCH   1  14
TORSDOF 3
