REMARK  4 active torsions:
REMARK  status: ('A' for Active; 'I' for Inactive)
REMARK    1  A    between atoms: C_8  and  C_1 
REMARK    2  A    between atoms: C_7  and  C_2 
REMARK    3  A    between atoms: N_10  and  C_4 
REMARK    4  A    between atoms: C_5  and  C_8 
ROOT
ATOM      1  C   UNL d   1       2.764   2.345   0.878  0.00  0.00     0.017 C 
ATOM      2  C   UNL d   1       3.372   1.192   0.567  0.00  0.00     0.056 C 
ENDROOT
BRANCH   1   3
ATOM      3  C   UNL d   1       3.550   3.541   1.202  0.00  0.00    -0.014 A 
ATOM      4  C   UNL d   1       3.925   3.884   2.513  0.00  0.00     0.045 A 
ATOM      5  C   UNL d   1       4.702   5.021   2.756  0.00  0.00     0.048 A 
ATOM      6 CL   UNL d   1       3.462   2.920   3.872  0.00  0.00    -0.083 Cl
ATOM      7  C   UNL d   1       5.109   5.819   1.690  0.00  0.00     0.035 A 
ATOM      8  C   UNL d   1       4.749   5.493   0.385  0.00  0.00     0.024 A 
ATOM      9 CL   UNL d   1       6.069   7.216   1.985  0.00  0.00    -0.084 Cl
ATOM     10  C   UNL d   1       3.972   4.358   0.142  0.00  0.00     0.015 A 
ENDBRANCH   1   3
BRANCH   2  11
ATOM     11  C   UNL d   1       2.585  -0.015   0.195  0.00  0.00     0.173 C 
ATOM     12  O   UNL d   1       1.363  -0.016   0.120  0.00  0.00    -0.288 OA
BRANCH  11  13
ATOM     13  C   UNL d   1       3.427  -1.208  -0.090  0.00  0.00     0.071 C 
ATOM     14  C   UNL d   1       2.895  -2.368  -0.495  0.00  0.00     0.088 C 
BRANCH  14  15
ATOM     15  N   UNL d   1       3.536  -3.563  -0.806  0.00  0.00    -0.398 N 
ATOM     16  C   UNL d   1       4.981  -3.774  -0.748  0.00  0.00     0.148 C 
ATOM     17  C   UNL d   1       2.788  -4.739  -1.258  0.00  0.00     0.148 C 
ENDBRANCH  14  15
ENDBRANCH  11  13
ENDBRANCH   2  11
TORSDOF 4
