REMARK  8 active torsions:
REMARK  status: ('A' for Active; 'I' for Inactive)
REMARK    1  A    between atoms: O_5  and  C_1 
REMARK    2  A    between atoms: C_6  and  C_1 
REMARK    3  A    between atoms: C_15  and  C_2 
REMARK    4  A    between atoms: N_16  and  C_2 
REMARK    5  A    between atoms: N_3  and  O_5 
REMARK    6  A    between atoms: C_7  and  C_8 
REMARK    7  A    between atoms: S_10  and  C_15 
REMARK    8  A    between atoms: C_17  and  S_10 
ROOT
ATOM      1  C   UNL d   1      -3.965  -1.383  -0.309  0.00  0.00     0.105 C 
ATOM      2  N   UNL d   1      -3.302  -0.296  -0.569  0.00  0.00    -0.245 N 
ATOM      3  HN  UNL d   1      -3.741   0.616  -0.696  1.00  0.00     0.196 HD
ENDROOT
BRANCH   2   4
ATOM      4  O   UNL d   1      -1.906  -0.513  -0.655  0.00  0.00    -0.193 OA
BRANCH   4   5
ATOM      5  C   UNL d   1      -1.293   0.669  -0.984  0.00  0.00     0.315 C 
ATOM      6  O   UNL d   1      -1.842   1.732  -1.252  0.00  0.00    -0.257 OA
BRANCH   5   7
ATOM      7  C   UNL d   1       0.194   0.535  -0.995  0.00  0.00     0.041 A 
ATOM      8  C   UNL d   1       0.948   1.672  -1.310  0.00  0.00     0.018 A 
ATOM      9  C   UNL d   1       2.347   1.620  -1.344  0.00  0.00     0.009 A 
ATOM     10  C   UNL d   1       3.045   0.429  -1.071  0.00  0.00    -0.051 A 
ATOM     11  C   UNL d   1       2.274  -0.702  -0.746  0.00  0.00     0.009 A 
ATOM     12  C   UNL d   1       0.868  -0.654  -0.708  0.00  0.00     0.018 A 
BRANCH  10  13
ATOM     13  C   UNL d   1       4.585   0.403  -1.150  0.00  0.00    -0.024 C 
ATOM     14  C   UNL d   1       5.198  -0.981  -0.839  0.00  0.00     0.019 C 
ATOM     15  C   UNL d   1       5.040   0.791  -2.575  0.00  0.00     0.019 C 
ATOM     16  C   UNL d   1       5.193   1.406  -0.145  0.00  0.00     0.019 C 
ENDBRANCH  10  13
ENDBRANCH   5   7
ENDBRANCH   4   5
ENDBRANCH   2   4
BRANCH   1  17
ATOM     17  C   UNL d   1      -5.489  -1.230  -0.205  0.00  0.00     0.157 C 
BRANCH  17  18
ATOM     18  S   UNL d   1      -6.205  -2.405   0.995  0.00  0.00    -0.122 SA
BRANCH  18  19
ATOM     19  C   UNL d   1      -7.935  -1.980   0.871  0.00  0.00     0.001 A 
ATOM     20  C   UNL d   1      -8.861  -2.981   0.553  0.00  0.00     0.020 A 
ATOM     21  C   UNL d   1     -10.226  -2.686   0.473  0.00  0.00     0.025 A 
ATOM     22  C   UNL d   1     -10.670  -1.390   0.725  0.00  0.00     0.034 A 
ATOM     23  C   UNL d   1      -9.761  -0.390   1.062  0.00  0.00     0.025 A 
ATOM     24 CL   UNL d   1     -12.349  -1.027   0.630  0.00  0.00    -0.084 Cl
ATOM     25  C   UNL d   1      -8.396  -0.686   1.138  0.00  0.00     0.020 A 
ENDBRANCH  18  19
ENDBRANCH  17  18
ENDBRANCH   1  17
BRANCH   1  26
ATOM     26  N   UNL d   1      -3.399  -2.630  -0.200  0.00  0.00    -0.387 N 
ATOM     27  H   UNL d   1      -2.482  -2.736  -0.612  0.00  0.00     0.157 HD
ATOM     28  H   UNL d   1      -4.016  -3.432  -0.271  0.00  0.00     0.157 HD
ENDBRANCH   1  26
TORSDOF 8
