REMARK  4 active torsions:
REMARK  status: ('A' for Active; 'I' for Inactive)
REMARK    1  A    between atoms: C_3  and  N_1 
REMARK    2  A    between atoms: C_10  and  N_4 
REMARK    3  A    between atoms: O_11  and  C_6 
REMARK    4  A    between atoms: O_13  and  C_9 
ROOT
ATOM      1  C   UNL d   1       0.371   0.728   0.938  0.00  0.00     0.081 A 
ATOM      2  C   UNL d   1       0.710   1.984   1.477  0.00  0.00     0.096 A 
ATOM      3  C   UNL d   1      -0.045   2.569   2.492  0.00  0.00     0.075 A 
ATOM      4  C   UNL d   1      -0.763   0.081   1.450  0.00  0.00     0.036 A 
ATOM      5  C   UNL d   1      -1.163   1.903   2.976  0.00  0.00     0.068 A 
ATOM      6  C   UNL d   1      -1.530   0.661   2.468  0.00  0.00     0.039 A 
ENDROOT
BRANCH   1   7
ATOM      7  N   UNL d   1       1.044   0.113  -0.144  0.00  0.00    -0.298 N 
ATOM      8  N   UNL d   1       2.276   0.305  -0.128  0.00  0.00    -0.300 N 
ATOM      9  HN  UNL d   1       2.755   0.820   0.612  1.00  0.00     0.187 HD
ATOM     10  HN  UNL d   1       0.569  -0.432  -0.864  1.00  0.00     0.187 HD
BRANCH   8  11
ATOM     11  C   UNL d   1       2.942  -0.262  -1.237  0.00  0.00     0.048 A 
ATOM     12  C   UNL d   1       2.322  -0.582  -2.456  0.00  0.00     0.031 A 
ATOM     13  C   UNL d   1       3.058  -1.118  -3.517  0.00  0.00     0.002 A 
ATOM     14  C   UNL d   1       4.428  -1.329  -3.378  0.00  0.00     0.000 A 
ATOM     15  C   UNL d   1       5.063  -1.000  -2.183  0.00  0.00     0.002 A 
ATOM     16  C   UNL d   1       4.323  -0.468  -1.124  0.00  0.00     0.031 A 
ENDBRANCH   8  11
ENDBRANCH   1   7
BRANCH   2  17
ATOM     17  O   UNL d   1       1.786   2.701   1.022  0.00  0.00    -0.358 OA
ATOM     18  H   UNL d   1       2.231   2.127   0.368  0.00  0.00     0.217 HD
ENDBRANCH   2  17
BRANCH   5  19
ATOM     19  O   UNL d   1      -1.890   2.512   3.955  0.00  0.00    -0.361 OA
ATOM     20  H   UNL d   1      -2.659   1.959   4.169  0.00  0.00     0.217 HD
ENDBRANCH   5  19
TORSDOF 4
