REMARK  3 active torsions:
REMARK  status: ('A' for Active; 'I' for Inactive)
REMARK    1  A    between atoms: C_5  and  C_1 
REMARK    2  A    between atoms: N_7  and  C_2 
REMARK    3  A    between atoms: C_10  and  C_4 
ROOT
ATOM      1  C   UNL d   1       0.475   1.280   0.052  0.00  0.00     0.057 C 
ATOM      2  C   UNL d   1       1.784   0.854  -0.139  0.00  0.00     0.167 C 
ATOM      3  C   UNL d   1      -0.320   0.097   0.138  0.00  0.00     0.095 C 
ATOM      4  C   UNL d   1       0.524  -0.989  -0.047  0.00  0.00     0.116 C 
ATOM      5  O   UNL d   1       1.783  -0.506  -0.308  0.00  0.00    -0.289 OA
ATOM      6  C   UNL d   1      -1.740   0.001   0.280  0.00  0.00     0.103 C 
ATOM      7  N   UNL d   1      -2.888  -0.098   0.395  0.00  0.00    -0.191 NA
ENDROOT
BRANCH   1   8
ATOM      8  C   UNL d   1      -0.017   2.702   0.071  0.00  0.00     0.022 A 
ATOM      9  C   UNL d   1       0.537   3.733  -0.666  0.00  0.00     0.039 A 
ATOM     10  C   UNL d   1      -0.115   4.966  -0.420  0.00  0.00     0.018 A 
ATOM     11 BR   UNL d   1       0.439   6.565  -1.251  0.00  0.00    -0.051 Br
ATOM     12  C   UNL d   1      -1.161   4.859   0.458  0.00  0.00     0.069 A 
ATOM     13  S   UNL d   1      -1.368   3.241   0.975  0.00  0.00    -0.100 SA
ENDBRANCH   1   8
BRANCH   4  14
ATOM     14  C   UNL d   1       0.239  -2.403   0.005  0.00  0.00     0.040 A 
ATOM     15  S   UNL d   1       1.159  -3.528  -0.906  0.00  0.00    -0.099 SA
ATOM     16  C   UNL d   1       0.266  -4.857  -0.305  0.00  0.00     0.050 A 
ATOM     17  C   UNL d   1      -0.709  -4.463   0.582  0.00  0.00     0.008 A 
ATOM     18  C   UNL d   1      -0.724  -3.048   0.761  0.00  0.00     0.022 A 
ENDBRANCH   4  14
BRANCH   2  19
ATOM     19  N   UNL d   1       2.961   1.615  -0.124  0.00  0.00    -0.312 N 
ATOM     20  C   UNL d   1       4.119   1.312  -0.812  0.00  0.00     0.098 A 
ATOM     21  C   UNL d   1       5.030   2.331  -0.630  0.00  0.00     0.019 A 
ATOM     22  C   UNL d   1       4.463   3.240   0.288  0.00  0.00     0.019 A 
ATOM     23  C   UNL d   1       3.215   2.759   0.611  0.00  0.00     0.098 A 
ENDBRANCH   2  19
TORSDOF 3
