REMARK  2 active torsions:
REMARK  status: ('A' for Active; 'I' for Inactive)
REMARK    1  A    between atoms: C_4  and  N_1 
REMARK    2  A    between atoms: N_2  and  C_3 
ROOT
ATOM      1  C   UNL d   1      -8.462  -3.306   9.554  0.00  0.00     0.105 A 
ATOM      2  C   UNL d   1       0.206   0.020   1.150  0.00  0.00     0.105 A 
ATOM      3  C   UNL d   1      -0.892  -0.827   1.345  0.00  0.00     0.075 A 
ATOM      4  C   UNL d   1      -7.368  -2.455   9.362  0.00  0.00     0.075 A 
ATOM      5  C   UNL d   1      -6.702  -2.472   8.134  0.00  0.00     0.104 A 
ATOM      6  C   UNL d   1      -1.556  -0.802   2.574  0.00  0.00     0.104 A 
ATOM      7  C   UNL d   1      -7.088  -3.369   7.130  0.00  0.00     0.102 A 
ATOM      8  C   UNL d   1      -1.168   0.100   3.572  0.00  0.00     0.102 A 
ATOM      9  O   UNL d   1      -5.607  -1.673   7.929  0.00  0.00    -0.346 OA
ATOM     10  O   UNL d   1      -2.651  -1.597   2.789  0.00  0.00    -0.346 OA
ATOM     11  O   UNL d   1      -1.843   0.084   4.763  0.00  0.00    -0.346 OA
ATOM     12  O   UNL d   1      -6.410  -3.342   5.941  0.00  0.00    -0.346 OA
ATOM     13  C   UNL d   1       0.631   0.891   2.162  0.00  0.00     0.039 A 
ATOM     14  C   UNL d   1      -8.885  -4.174   8.536  0.00  0.00     0.039 A 
ATOM     15  C   UNL d   1      -0.056   0.924   3.377  0.00  0.00     0.042 A 
ATOM     16  C   UNL d   1      -8.197  -4.196   7.320  0.00  0.00     0.042 A 
ATOM     17  O   UNL d   1      -4.187   0.608   6.524  0.00  0.00    -0.387 OA
ATOM     18  O   UNL d   1      -4.089  -3.880   4.146  0.00  0.00    -0.387 OA
ATOM     19  C   UNL d   1      -5.937  -0.274   7.946  0.00  0.00     0.201 C 
ATOM     20  C   UNL d   1      -2.343  -3.000   2.721  0.00  0.00     0.201 C 
ATOM     21  C   UNL d   1      -2.332   1.373   5.170  0.00  0.00     0.201 C 
ATOM     22  C   UNL d   1      -5.945  -4.630   5.507  0.00  0.00     0.201 C 
ATOM     23  C   UNL d   1      -3.849   1.305   5.321  0.00  0.00     0.194 C 
ATOM     24  C   UNL d   1      -4.427  -4.584   5.345  0.00  0.00     0.194 C 
ATOM     25  C   UNL d   1      -5.594   0.353   6.596  0.00  0.00     0.194 C 
ATOM     26  C   UNL d   1      -2.677  -3.664   4.054  0.00  0.00     0.194 C 
ENDROOT
BRANCH   1  27
ATOM     27  N   UNL d   1      -9.182  -3.285  10.833  0.00  0.00    -0.116 N 
ATOM     28  O   UNL d   1      -8.800  -2.482  11.697  0.00  0.00    -0.532 OA
ATOM     29  O   UNL d   1     -10.133  -4.066  10.971  0.00  0.00    -0.532 OA
ENDBRANCH   1  27
BRANCH   2  30
ATOM     30  N   UNL d   1       0.925  -0.013  -0.129  0.00  0.00    -0.116 N 
ATOM     31  O   UNL d   1       0.535  -0.811  -0.991  0.00  0.00    -0.532 OA
ATOM     32  O   UNL d   1       1.883   0.761  -0.272  0.00  0.00    -0.532 OA
ENDBRANCH   2  30
TORSDOF 2
