REMARK  6 active torsions:
REMARK  status: ('A' for Active; 'I' for Inactive)
REMARK    1  A    between atoms: C_2  and  S_1 
REMARK    2  A    between atoms: N_5  and  S_1 
REMARK    3  A    between atoms: C_10  and  C_4 
REMARK    4  A    between atoms: N_9  and  N_5 
REMARK    5  A    between atoms: C_6  and  N_9 
REMARK    6  A    between atoms: O_21  and  C_10 
ROOT
ATOM      1  S   UNL d   1       1.000  -0.152  -0.172  0.00  0.00     0.291 S 
ATOM      2  O   UNL d   1       2.433  -0.062  -0.344  0.00  0.00    -0.197 OA
ATOM      3  O   UNL d   1       0.394  -0.412   1.113  0.00  0.00    -0.197 OA
ENDROOT
BRANCH   1   4
ATOM      4  C   UNL d   1       0.502  -1.518  -1.200  0.00  0.00     0.153 A 
ATOM      5  N   UNL d   1       0.875  -2.833  -0.956  0.00  0.00    -0.336 N 
ATOM      6  C   UNL d   1       0.295  -3.683  -1.895  0.00  0.00     0.111 A 
ATOM      7  C   UNL d   1       1.732  -3.288   0.125  0.00  0.00     0.157 C 
ATOM      8  C   UNL d   1      -0.411  -2.873  -2.769  0.00  0.00     0.039 A 
ATOM      9  C   UNL d   1      -0.285  -1.539  -2.341  0.00  0.00     0.046 A 
BRANCH   6  10
ATOM     10  C   UNL d   1       0.422  -5.126  -1.925  0.00  0.00     0.309 C 
ATOM     11  O   UNL d   1       1.039  -5.814  -1.125  0.00  0.00    -0.258 OA
BRANCH  10  12
ATOM     12  O   UNL d   1      -0.269  -5.619  -2.997  0.00  0.00    -0.321 OA
ATOM     13  C   UNL d   1      -0.223  -7.039  -3.134  0.00  0.00     0.213 C 
ENDBRANCH  10  12
ENDBRANCH   6  10
ENDBRANCH   1   4
BRANCH   1  14
ATOM     14  N   UNL d   1       0.296   1.239  -0.828  0.00  0.00    -0.221 N 
ATOM     15  H   UNL d   1      -0.111   1.169  -1.761  0.00  0.00     0.200 HD
BRANCH  14  16
ATOM     16  N   UNL d   1       0.479   2.534  -0.202  0.00  0.00    -0.288 N 
ATOM     17  H   UNL d   1       0.897   2.530   0.733  0.00  0.00     0.188 HD
BRANCH  16  18
ATOM     18  C   UNL d   1       0.002   3.775  -0.674  0.00  0.00     0.095 A 
ATOM     19  C   UNL d   1      -0.210   4.813   0.256  0.00  0.00     0.079 A 
ATOM     20 CL   UNL d   1       0.141   4.604   1.935  0.00  0.00    -0.080 Cl
ATOM     21  C   UNL d   1      -0.734   6.027  -0.172  0.00  0.00     0.114 A 
ATOM     22  N   UNL d   1      -1.056   6.295  -1.456  0.00  0.00    -0.372 N 
ATOM     23  C   UNL d   1      -0.852   5.294  -2.342  0.00  0.00     0.114 A 
ATOM     24  HN  UNL d   1      -1.430   7.200  -1.741  1.00  0.00     0.164 HD
ATOM     25  C   UNL d   1      -0.350   4.037  -2.009  0.00  0.00     0.079 A 
ATOM     26 CL   UNL d   1      -0.156   2.897  -3.295  0.00  0.00    -0.080 Cl
ENDBRANCH  16  18
ENDBRANCH  14  16
ENDBRANCH   1  14
TORSDOF 6
