REMARK  3 active torsions:
REMARK  status: ('A' for Active; 'I' for Inactive)
REMARK    1  A    between atoms: C_5  and  C_1 
REMARK    2  A    between atoms: N_8  and  C_2 
REMARK    3  A    between atoms: C_14  and  N_8 
ROOT
ATOM      1  C   UNL d   1      -0.772  -2.870   1.850  0.00  0.00     0.157 A 
ATOM      2  N   UNL d   1      -0.093  -1.720   1.776  0.00  0.00    -0.329 N 
ATOM      3  HN  UNL d   1      -0.266  -0.964   2.439  1.00  0.00     0.168 HD
ATOM      4  C   UNL d   1       0.834  -1.589   0.789  0.00  0.00     0.120 A 
ATOM      5  N   UNL d   1      -0.575  -3.901   1.020  0.00  0.00    -0.343 N 
ATOM      6  HN  UNL d   1      -1.101  -4.769   1.119  1.00  0.00     0.167 HD
ATOM      7  C   UNL d   1       1.081  -2.605  -0.115  0.00  0.00     0.051 A 
ATOM      8  C   UNL d   1       0.343  -3.748   0.051  0.00  0.00     0.093 A 
ENDROOT
BRANCH   1   9
ATOM      9  N   UNL d   1      -1.737  -2.933   2.835  0.00  0.00    -0.260 NA
ATOM     10  H   UNL d   1      -1.581  -2.169   3.482  0.00  0.00     0.131 HD
BRANCH   9  11
ATOM     11  C   UNL d   1      -2.041  -4.231   3.418  0.00  0.00     0.055 C 
ATOM     12  C   UNL d   1      -1.054  -4.558   4.537  0.00  0.00     0.026 C 
ATOM     13  C   UNL d   1      -3.466  -4.184   3.969  0.00  0.00     0.026 C 
ENDBRANCH   9  11
ENDBRANCH   1   9
BRANCH   4  14
ATOM     14  C   UNL d   1       1.624  -0.299   0.667  0.00  0.00     0.432 C 
ATOM     15  F   UNL d   1       1.312   0.648   1.595  0.00  0.00    -0.165 F 
ATOM     16  F   UNL d   1       1.456   0.301  -0.548  0.00  0.00    -0.165 F 
ATOM     17  F   UNL d   1       2.970  -0.504   0.784  0.00  0.00    -0.165 F 
ENDBRANCH   4  14
TORSDOF 3
