REMARK  1 active torsions:
REMARK  status: ('A' for Active; 'I' for Inactive)
REMARK    1  A    between atoms: C_12  and  C_8 
ROOT
ATOM      1  N   UNL d   1      -3.318   2.752  -0.028  0.00  0.00    -0.220 N 
ATOM      2  C   UNL d   1      -3.141   1.394   0.072  0.00  0.00     0.176 A 
ATOM      3  N   UNL d   1      -2.175   3.526  -0.054  0.00  0.00    -0.287 N 
ATOM      4  HN  UNL d   1      -2.141   4.542  -0.133  1.00  0.00     0.188 HD
ATOM      5  S   UNL d   1      -1.434   1.018   0.146  0.00  0.00    -0.037 SA
ATOM      6  N   UNL d   1      -4.047   0.482   0.111  0.00  0.00    -0.305 N 
ATOM      7  HN  UNL d   1      -3.803  -0.505   0.193  1.00  0.00     0.171 HD
ATOM      8  C   UNL d   1      -1.153   2.734   0.040  0.00  0.00     0.074 A 
ATOM      9  C   UNL d   1      -4.565   3.322  -0.082  0.00  0.00     0.108 A 
ATOM     10  C   UNL d   1      -5.365   0.894   0.037  0.00  0.00     0.230 A 
ATOM     11  C   UNL d   1      -5.723   2.370  -0.033  0.00  0.00     0.181 A 
ATOM     12  N   UNL d   1      -4.785   4.599  -0.165  0.00  0.00    -0.387 N 
ATOM     13  HN  UNL d   1      -5.693   5.063  -0.206  1.00  0.00     0.157 HD
ATOM     14  O   UNL d   1      -6.278   0.070   0.035  0.00  0.00    -0.273 OA
ATOM     15  H   UNL d   1      -3.857   5.051  -0.181  0.00  0.00     0.157 HD
ENDROOT
BRANCH   8  16
ATOM     16  C   UNL d   1       0.206   3.290   0.034  0.00  0.00     0.044 A 
ATOM     17  C   UNL d   1       1.184   3.091   1.165  0.00  0.00     0.012 A 
ATOM     18  C   UNL d   1       0.510   4.418   1.000  0.00  0.00     0.012 A 
ENDBRANCH   8  16
TORSDOF 1
