REMARK  4 active torsions:
REMARK  status: ('A' for Active; 'I' for Inactive)
REMARK    1  A    between atoms: C_6  and  N_2 
REMARK    2  A    between atoms: C_11  and  C_6 
REMARK    3  A    between atoms: O_16  and  C_11 
REMARK    4  A    between atoms: C_20  and  O_16 
ROOT
ATOM      1  C   UNL d   1       1.033  -0.261   0.029  0.00  0.00     0.280 A 
ATOM      2  N   UNL d   1      -0.620  -1.988  -0.126  0.00  0.00    -0.303 N 
ATOM      3  C   UNL d   1      -0.367   0.287   0.027  0.00  0.00     0.042 A 
ATOM      4  C   UNL d   1       0.766  -1.812  -0.021  0.00  0.00     0.293 A 
ATOM      5  C   UNL d   1      -1.292  -0.757  -0.084  0.00  0.00     0.050 A 
ATOM      6  O   UNL d   1       1.723   0.178  -1.147  0.00  0.00    -0.342 OA
ATOM      7  O   UNL d   1       1.741   0.151   1.194  0.00  0.00    -0.342 OA
ATOM      8  C   UNL d   1      -0.776   1.611   0.098  0.00  0.00     0.034 A 
ATOM      9  C   UNL d   1      -2.651  -0.505  -0.139  0.00  0.00     0.032 A 
ATOM     10  O   UNL d   1       1.605  -2.706   0.012  0.00  0.00    -0.266 OA
ATOM     11  C   UNL d   1      -2.144   1.873   0.049  0.00  0.00     0.011 A 
ATOM     12  C   UNL d   1      -3.076   0.830  -0.073  0.00  0.00     0.021 A 
ATOM     13 BR   UNL d   1      -2.749   3.662   0.151  0.00  0.00    -0.051 Br
ATOM     14  C   UNL d   1       3.072   0.350   0.722  0.00  0.00     0.198 C 
ATOM     15  C   UNL d   1       2.855   0.898  -0.662  0.00  0.00     0.198 C 
ENDROOT
BRANCH   2  16
ATOM     16  C   UNL d   1      -1.236  -3.292  -0.227  0.00  0.00     0.243 C 
BRANCH  16  17
ATOM     17  C   UNL d   1      -1.709  -3.933   1.073  0.00  0.00     0.277 C 
ATOM     18  O   UNL d   1      -2.220  -5.049   1.107  0.00  0.00    -0.263 OA
BRANCH  17  19
ATOM     19  O   UNL d   1      -1.605  -3.098   2.141  0.00  0.00    -0.321 OA
BRANCH  19  20
ATOM     20  C   UNL d   1      -2.350  -3.488   3.305  0.00  0.00     0.174 C 
ATOM     21  C   UNL d   1      -3.746  -2.902   3.187  0.00  0.00     0.034 C 
ENDBRANCH  19  20
ENDBRANCH  17  19
ENDBRANCH  16  17
ENDBRANCH   2  16
TORSDOF 4
