REMARK  7 active torsions:
REMARK  status: ('A' for Active; 'I' for Inactive)
REMARK       I    between atoms: N_3  and  C_1 
REMARK    1  A    between atoms: C_6  and  C_1 
REMARK    2  A    between atoms: C_2  and  N_4 
REMARK    3  A    between atoms: N_5  and  C_2 
REMARK    4  A    between atoms: N_4  and  N_3 
REMARK    5  A    between atoms: C_12  and  N_5 
REMARK    6  A    between atoms: O_8  and  C_6 
REMARK    7  A    between atoms: C_10  and  O_8 
ROOT
ATOM      1  C   UNL d   1       1.218  -0.204  -0.734  0.00  0.00     0.265 C 
ATOM      2  N   UNL d   1       0.582   0.971  -0.328  0.00  0.00    -0.266 N 
ATOM      3  O   UNL d   1       2.129  -0.243  -1.555  0.00  0.00    -0.269 OA
ATOM      4  H   UNL d   1      -0.335   0.938   0.104  0.00  0.00     0.190 HD
ENDROOT
BRANCH   2   5
ATOM      5  N   UNL d   1       0.991   2.188  -0.883  0.00  0.00    -0.273 N 
ATOM      6  H   UNL d   1       0.310   2.721  -1.410  0.00  0.00     0.189 HD
BRANCH   5   7
ATOM      7  C   UNL d   1       2.202   2.756  -0.595  0.00  0.00     0.191 C 
ATOM      8  S   UNL d   1       3.092   2.459   0.798  0.00  0.00    -0.039 SA
BRANCH   7   9
ATOM      9  N   UNL d   1       2.715   3.650  -1.491  0.00  0.00    -0.332 N 
ATOM     10  H   UNL d   1       3.552   4.101  -1.137  0.00  0.00     0.168 HD
BRANCH   9  11
ATOM     11  C   UNL d   1       2.452   3.878  -2.864  0.00  0.00     0.034 A 
ATOM     12  C   UNL d   1       1.534   3.164  -3.641  0.00  0.00     0.029 A 
ATOM     13  C   UNL d   1       1.380   3.444  -5.003  0.00  0.00     0.002 A 
ATOM     14  C   UNL d   1       2.165   4.412  -5.616  0.00  0.00     0.000 A 
ATOM     15  C   UNL d   1       3.103   5.112  -4.863  0.00  0.00     0.002 A 
ATOM     16  C   UNL d   1       3.238   4.851  -3.495  0.00  0.00     0.029 A 
ENDBRANCH   9  11
ENDBRANCH   7   9
ENDBRANCH   5   7
ENDBRANCH   2   5
BRANCH   1  17
ATOM     17  C   UNL d   1       0.686  -1.445   0.003  0.00  0.00     0.218 C 
ATOM     18  C   UNL d   1       1.587  -2.652  -0.243  0.00  0.00     0.050 C 
BRANCH  17  19
ATOM     19  O   UNL d   1      -0.611  -1.786  -0.493  0.00  0.00    -0.337 OA
BRANCH  19  20
ATOM     20  C   UNL d   1      -1.719  -1.321   0.152  0.00  0.00     0.070 A 
ATOM     21  C   UNL d   1      -2.850  -1.188  -0.658  0.00  0.00     0.038 A 
ATOM     22  C   UNL d   1      -4.055  -0.721  -0.127  0.00  0.00     0.026 A 
ATOM     23  C   UNL d   1      -4.130  -0.396   1.224  0.00  0.00     0.034 A 
ATOM     24  C   UNL d   1      -3.011  -0.546   2.043  0.00  0.00     0.026 A 
ATOM     25 CL   UNL d   1      -5.604   0.184   1.887  0.00  0.00    -0.084 Cl
ATOM     26  C   UNL d   1      -1.808  -1.018   1.509  0.00  0.00     0.038 A 
ENDBRANCH  19  20
ENDBRANCH  17  19
ENDBRANCH   1  17
TORSDOF 7
