REMARK  4 active torsions:
REMARK  status: ('A' for Active; 'I' for Inactive)
REMARK    1  A    between atoms: C_8  and  N_2 
REMARK    2  A    between atoms: N_7  and  C_6 
REMARK    3  A    between atoms: C_12  and  C_6 
REMARK    4  A    between atoms: C_15  and  N_7 
ROOT
ATOM      1  C   UNL d   1      -0.688  -0.979   0.028  0.00  0.00     0.116 C 
ATOM      2  N   UNL d   1       0.061   0.782   1.357  0.00  0.00    -0.241 N 
ATOM      3  C   UNL d   1      -1.084   0.259   0.766  0.00  0.00     0.272 C 
ATOM      4  C   UNL d   1       1.148  -0.046   1.215  0.00  0.00     0.306 C 
ATOM      5  C   UNL d   1       0.756  -1.151   0.239  0.00  0.00     0.258 C 
ATOM      6  C   UNL d   1      -1.523  -1.819  -0.619  0.00  0.00     0.063 C 
ATOM      7  O   UNL d   1      -2.233   0.661   0.865  0.00  0.00    -0.266 OA
ATOM      8  O   UNL d   1       2.221  -0.062   1.787  0.00  0.00    -0.263 OA
ATOM      9  O   UNL d   1       1.531  -1.926  -0.269  0.00  0.00    -0.281 OA
ENDROOT
BRANCH   6  10
ATOM     10  N   UNL d   1      -2.877  -1.636  -0.838  0.00  0.00    -0.355 N 
ATOM     11  H   UNL d   1      -3.496  -2.350  -0.471  0.00  0.00     0.166 HD
BRANCH  10  12
ATOM     12  C   UNL d   1      -3.496  -0.611  -1.578  0.00  0.00     0.032 A 
ATOM     13  C   UNL d   1      -2.842   0.082  -2.606  0.00  0.00     0.029 A 
ATOM     14  C   UNL d   1      -3.425   1.209  -3.196  0.00  0.00     0.002 A 
ATOM     15  C   UNL d   1      -4.665   1.664  -2.756  0.00  0.00     0.000 A 
ATOM     16  C   UNL d   1      -5.346   0.962  -1.766  0.00  0.00     0.002 A 
ATOM     17  C   UNL d   1      -4.770  -0.173  -1.191  0.00  0.00     0.029 A 
ENDBRANCH  10  12
ENDBRANCH   6  10
BRANCH   6  18
ATOM     18  C   UNL d   1      -1.042  -3.151  -1.054  0.00  0.00    -0.008 A 
ATOM     19  C   UNL d   1      -1.138  -4.252  -0.190  0.00  0.00     0.014 A 
ATOM     20  C   UNL d   1      -0.701  -5.513  -0.603  0.00  0.00     0.001 A 
ATOM     21  C   UNL d   1      -0.171  -5.684  -1.880  0.00  0.00     0.000 A 
ATOM     22  C   UNL d   1      -0.076  -4.596  -2.747  0.00  0.00     0.001 A 
ATOM     23  C   UNL d   1      -0.511  -3.334  -2.337  0.00  0.00     0.014 A 
ENDBRANCH   6  18
BRANCH   2  24
ATOM     24  C   UNL d   1       0.089   1.965   2.171  0.00  0.00     0.046 A 
ATOM     25  C   UNL d   1      -1.083   2.522   2.707  0.00  0.00     0.032 A 
ATOM     26  C   UNL d   1      -1.050   3.656   3.529  0.00  0.00     0.026 A 
ATOM     27  C   UNL d   1       0.161   4.271   3.815  0.00  0.00     0.034 A 
ATOM     28  C   UNL d   1       1.337   3.765   3.275  0.00  0.00     0.026 A 
ATOM     29 CL   UNL d   1       0.202   5.649   4.841  0.00  0.00    -0.084 Cl
ATOM     30  C   UNL d   1       1.300   2.619   2.464  0.00  0.00     0.032 A 
ENDBRANCH   2  24
TORSDOF 4
