REMARK  4 active torsions:
REMARK  status: ('A' for Active; 'I' for Inactive)
REMARK    1  A    between atoms: C_3  and  N_1 
REMARK    2  A    between atoms: S_9  and  C_7 
REMARK    3  A    between atoms: C_13  and  S_9 
REMARK    4  A    between atoms: C_14  and  C_13 
ROOT
ATOM      1  C   UNL d   1       0.183  -2.860  -2.176  0.00  0.00     0.063 A 
ATOM      2  C   UNL d   1       0.226  -1.039  -0.562  0.00  0.00     0.104 A 
ATOM      3  N   UNL d   1       1.653  -4.546  -3.484  0.00  0.00    -0.191 NA
ATOM      4  C   UNL d   1       0.973  -3.793  -2.918  0.00  0.00     0.101 C 
ATOM      5  C   UNL d   1       0.888  -2.045  -1.269  0.00  0.00     0.060 A 
ATOM      6  C   UNL d   1      -1.204  -2.698  -2.354  0.00  0.00     0.021 A 
ATOM      7  C   UNL d   1      -1.143  -0.842  -0.742  0.00  0.00     0.037 A 
ATOM      8  C   UNL d   1      -1.845  -1.671  -1.629  0.00  0.00     0.022 A 
ENDROOT
BRANCH   6   9
ATOM      9  S   UNL d   1      -2.264  -3.562  -3.526  0.00  0.00    -0.124 SA
BRANCH   9  10
ATOM     10  C   UNL d   1      -1.770  -5.317  -3.392  0.00  0.00     0.117 C 
BRANCH  10  11
ATOM     11  C   UNL d   1      -2.640  -6.221  -4.236  0.00  0.00    -0.049 A 
ATOM     12  C   UNL d   1      -2.384  -6.362  -5.610  0.00  0.00     0.008 A 
ATOM     13  C   UNL d   1      -3.140  -7.238  -6.390  0.00  0.00     0.001 A 
ATOM     14  C   UNL d   1      -4.165  -7.979  -5.808  0.00  0.00     0.000 A 
ATOM     15  C   UNL d   1      -4.442  -7.836  -4.449  0.00  0.00     0.001 A 
ATOM     16  C   UNL d   1      -3.687  -6.958  -3.666  0.00  0.00     0.008 A 
ENDBRANCH  10  11
ENDBRANCH   9  10
ENDBRANCH   6   9
BRANCH   2  17
ATOM     17  N   UNL d   1       0.985  -0.173   0.351  0.00  0.00    -0.116 N 
ATOM     18  O   UNL d   1       2.194  -0.403   0.486  0.00  0.00    -0.532 OA
ATOM     19  O   UNL d   1       0.369   0.734   0.928  0.00  0.00    -0.532 OA
ENDBRANCH   2  17
TORSDOF 4
