REMARK  6 active torsions:
REMARK  status: ('A' for Active; 'I' for Inactive)
REMARK    1  A    between atoms: S_10  and  C_5 
REMARK    2  A    between atoms: C_9  and  O_14 
REMARK    3  A    between atoms: C_19  and  S_10 
REMARK    4  A    between atoms: C_11  and  C_19 
REMARK       I    between atoms: N_13  and  C_11 
REMARK    5  A    between atoms: C_24  and  N_13 
REMARK    6  A    between atoms: O_14  and  C_25 
ROOT
ATOM      1  C   UNL d   1       2.874  -4.186  -0.012  0.00  0.00     0.231 C 
ATOM      2  N   UNL d   1       2.085  -5.172   0.554  0.00  0.00    -0.327 N 
ATOM      3  O   UNL d   1       3.927  -4.387  -0.619  0.00  0.00    -0.272 OA
ATOM      4  H   UNL d   1       1.194  -4.872   0.930  0.00  0.00     0.169 HD
ENDROOT
BRANCH   1   5
ATOM      5  C   UNL d   1       2.334  -2.766   0.052  0.00  0.00     0.185 C 
BRANCH   5   6
ATOM      6  S   UNL d   1       1.011  -2.478   1.261  0.00  0.00    -0.083 SA
BRANCH   6   7
ATOM      7  C   UNL d   1       0.622  -0.834   0.868  0.00  0.00     0.163 A 
ATOM      8  N   UNL d   1      -0.290  -0.066   1.544  0.00  0.00    -0.314 N 
ATOM      9  C   UNL d   1      -0.323   1.135   0.875  0.00  0.00     0.158 A 
ATOM     10  C   UNL d   1      -1.067  -0.461   2.689  0.00  0.00     0.160 C 
ATOM     11  N   UNL d   1       0.528   1.086  -0.133  0.00  0.00    -0.281 N 
ATOM     12  C   UNL d   1      -1.153   2.267   1.154  0.00  0.00     0.120 A 
ATOM     13  N   UNL d   1       1.128  -0.148  -0.129  0.00  0.00    -0.278 N 
ATOM     14  HN  UNL d   1       0.709   1.837  -0.800  1.00  0.00     0.188 HD
ATOM     15  HN  UNL d   1       1.840  -0.473  -0.784  1.00  0.00     0.189 HD
ATOM     16  O   UNL d   1      -1.788   2.481   2.352  0.00  0.00    -0.319 OA
ATOM     17  C   UNL d   1      -1.468   3.315   0.303  0.00  0.00     0.043 A 
ATOM     18  C   UNL d   1      -2.501   3.631   2.247  0.00  0.00     0.142 A 
ATOM     19  C   UNL d   1      -2.347   4.179   0.998  0.00  0.00     0.027 A 
ENDBRANCH   6   7
ENDBRANCH   5   6
ENDBRANCH   1   5
BRANCH   2  20
ATOM     20  C   UNL d   1       2.336  -6.563   0.540  0.00  0.00     0.034 A 
ATOM     21  C   UNL d   1       3.555  -7.126   0.144  0.00  0.00     0.032 A 
ATOM     22  C   UNL d   1       3.715  -8.514   0.061  0.00  0.00     0.039 A 
ATOM     23  C   UNL d   1       2.650  -9.358   0.351  0.00  0.00     0.078 A 
ATOM     24  C   UNL d   1       1.463  -8.810   0.838  0.00  0.00     0.039 A 
ATOM     25  C   UNL d   1       1.306  -7.421   0.936  0.00  0.00     0.032 A 
BRANCH  23  26
ATOM     26  O   UNL d   1       2.677 -10.715   0.250  0.00  0.00    -0.255 OA
BRANCH  26  27
ATOM     27  C   UNL d   1       3.362 -11.283  -0.865  0.00  0.00     0.530 C 
ATOM     28  F   UNL d   1       3.765 -10.386  -1.788  0.00  0.00    -0.144 F 
ATOM     29  F   UNL d   1       4.438 -11.969  -0.425  0.00  0.00    -0.144 F 
ATOM     30  F   UNL d   1       2.529 -12.156  -1.477  0.00  0.00    -0.144 F 
ENDBRANCH  26  27
ENDBRANCH  23  26
ENDBRANCH   2  20
TORSDOF 6
