REMARK  4 active torsions:
REMARK  status: ('A' for Active; 'I' for Inactive)
REMARK    1  A    between atoms: C_9  and  C_3 
REMARK    2  A    between atoms: S_16  and  C_12 
REMARK    3  A    between atoms: C_23  and  S_16 
REMARK    4  A    between atoms: C_17  and  C_23 
ROOT
ATOM      1  C   UNL d   1      -3.736   0.568  -0.010  0.00  0.00     0.053 A 
ATOM      2  N   UNL d   1      -4.416   0.019   1.013  0.00  0.00    -0.336 N 
ATOM      3  HN  UNL d   1      -3.933  -0.476   1.763  1.00  0.00     0.168 HD
ATOM      4  C   UNL d   1      -5.750   0.143   1.011  0.00  0.00     0.144 A 
ATOM      5  N   UNL d   1      -6.452   0.786   0.064  0.00  0.00    -0.347 N 
ATOM      6  HN  UNL d   1      -7.470   0.853   0.100  1.00  0.00     0.167 HD
ATOM      7  C   UNL d   1      -4.368   1.256  -1.026  0.00  0.00     0.048 A 
ATOM      8  C   UNL d   1      -5.738   1.335  -0.933  0.00  0.00     0.092 A 
ENDROOT
BRANCH   1   9
ATOM      9  C   UNL d   1      -2.278   0.326   0.022  0.00  0.00     0.039 A 
ATOM     10  S   UNL d   1      -1.207   1.534  -0.616  0.00  0.00    -0.079 SA
ATOM     11  C   UNL d   1       0.113   0.583  -0.274  0.00  0.00     0.059 A 
ATOM     12  C   UNL d   1      -0.172  -0.588   0.321  0.00  0.00     0.003 A 
ATOM     13  S   UNL d   1       1.737   0.851  -0.549  0.00  0.00    -0.074 SA
ATOM     14  C   UNL d   1      -1.570  -0.787   0.530  0.00  0.00    -0.030 A 
ATOM     15  C   UNL d   1       0.987  -1.377   0.607  0.00  0.00    -0.025 A 
ATOM     16  C   UNL d   1      -2.284  -1.949   1.147  0.00  0.00     0.050 C 
ATOM     17  C   UNL d   1       1.107  -2.715   1.257  0.00  0.00     0.051 C 
ATOM     18  C   UNL d   1       2.097  -0.663   0.154  0.00  0.00     0.059 A 
ATOM     19 BR   UNL d   1       3.881  -1.260   0.276  0.00  0.00    -0.042 Br
ENDBRANCH   1   9
BRANCH   4  20
ATOM     20  S   UNL d   1      -6.601  -0.587   2.386  0.00  0.00    -0.090 SA
BRANCH  20  21
ATOM     21  C   UNL d   1      -8.180  -1.004   1.595  0.00  0.00     0.108 C 
BRANCH  21  22
ATOM     22  C   UNL d   1      -9.063  -1.682   2.604  0.00  0.00    -0.026 C 
ATOM     23  C   UNL d   1      -9.563  -2.920   2.478  0.00  0.00     0.007 C 
ENDBRANCH  21  22
ENDBRANCH  20  21
ENDBRANCH   4  20
TORSDOF 4
