REMARK  3 active torsions:
REMARK  status: ('A' for Active; 'I' for Inactive)
REMARK    1  A    between atoms: C_9  and  C_2 
REMARK    2  A    between atoms: S_11  and  C_5 
REMARK    3  A    between atoms: C_8  and  C_10 
ROOT
ATOM      1  N   UNL d   1      -1.010  -0.055   0.473  0.00  0.00    -0.320 N 
ATOM      2  C   UNL d   1      -0.356   1.036  -0.044  0.00  0.00     0.132 A 
ATOM      3  N   UNL d   1       0.751   0.607  -0.627  0.00  0.00    -0.283 N 
ATOM      4  HN  UNL d   1       1.428   1.190  -1.120  1.00  0.00     0.188 HD
ATOM      5  C   UNL d   1      -0.226  -1.133   0.201  0.00  0.00     0.160 A 
ATOM      6  N   UNL d   1       0.839  -0.757  -0.460  0.00  0.00    -0.278 N 
ATOM      7  HN  UNL d   1       1.592  -1.361  -0.789  1.00  0.00     0.189 HD
ATOM      8  H   UNL d   1      -1.900  -0.072   0.942  0.00  0.00     0.169 HD
ENDROOT
BRANCH   2   9
ATOM      9  C   UNL d   1      -0.821   2.420   0.028  0.00  0.00     0.009 A 
ATOM     10  C   UNL d   1      -1.648   2.879   1.063  0.00  0.00     0.016 A 
ATOM     11  C   UNL d   1      -2.039   4.223   1.122  0.00  0.00     0.017 A 
ATOM     12  C   UNL d   1      -1.617   5.137   0.146  0.00  0.00     0.048 A 
ATOM     13  C   UNL d   1      -0.796   4.678  -0.893  0.00  0.00     0.017 A 
ATOM     14  C   UNL d   1      -0.401   3.337  -0.946  0.00  0.00     0.016 A 
BRANCH  12  15
ATOM     15  C   UNL d   1      -2.018   6.593   0.204  0.00  0.00     0.417 C 
ATOM     16  F   UNL d   1      -2.807   6.895   1.273  0.00  0.00    -0.166 F 
ATOM     17  F   UNL d   1      -0.945   7.427   0.286  0.00  0.00    -0.166 F 
ATOM     18  F   UNL d   1      -2.716   6.986  -0.897  0.00  0.00    -0.166 F 
ENDBRANCH  12  15
ENDBRANCH   2   9
BRANCH   5  19
ATOM     19  S   UNL d   1      -0.680  -2.711   0.709  0.00  0.00    -0.097 SA
ATOM     20  C   UNL d   1       0.733  -3.673   0.113  0.00  0.00     0.099 C 
ENDBRANCH   5  19
TORSDOF 3
