REMARK  3 active torsions:
REMARK  status: ('A' for Active; 'I' for Inactive)
REMARK    1  A    between atoms: N_2  and  S_1 
REMARK    2  A    between atoms: C_7  and  S_1 
REMARK    3  A    between atoms: C_4  and  C_3 
ROOT
ATOM      1  N   UNL d   1       0.684  -0.657  -1.196  0.00  0.00    -0.297 N 
ATOM      2  C   UNL d   1       0.865  -2.128  -1.197  0.00  0.00     0.136 C 
ATOM      3  C   UNL d   1       0.945  -0.193  -2.580  0.00  0.00     0.136 C 
ATOM      4  C   UNL d   1       2.021  -2.334  -2.175  0.00  0.00     0.033 C 
ATOM      5  C   UNL d   1       1.818  -1.260  -3.231  0.00  0.00     0.023 C 
ENDROOT
BRANCH   1   6
ATOM      6  S   UNL d   1       1.085   0.373   0.075  0.00  0.00     0.261 S 
ATOM      7  O   UNL d   1       0.346  -0.030   1.251  0.00  0.00    -0.200 OA
ATOM      8  O   UNL d   1       0.975   1.736  -0.406  0.00  0.00    -0.200 OA
BRANCH   6   9
ATOM      9  C   UNL d   1       2.816   0.095   0.390  0.00  0.00     0.079 A 
ATOM     10  C   UNL d   1       3.764   0.340  -0.609  0.00  0.00     0.025 A 
ATOM     11  C   UNL d   1       5.111   0.074  -0.362  0.00  0.00     0.002 A 
ATOM     12  C   UNL d   1       5.513  -0.390   0.890  0.00  0.00     0.000 A 
ATOM     13  C   UNL d   1       4.572  -0.582   1.902  0.00  0.00     0.002 A 
ATOM     14  C   UNL d   1       3.221  -0.342   1.654  0.00  0.00     0.025 A 
ENDBRANCH   6   9
ENDBRANCH   1   6
BRANCH   2  15
ATOM     15  C   UNL d   1       0.955  -2.837   0.126  0.00  0.00     0.006 A 
ATOM     16  S   UNL d   1       2.339  -3.739   0.604  0.00  0.00    -0.104 SA
ATOM     17  C   UNL d   1       1.602  -4.265   2.049  0.00  0.00     0.050 A 
ATOM     18  C   UNL d   1       0.319  -3.788   2.175  0.00  0.00     0.008 A 
ATOM     19  C   UNL d   1      -0.056  -2.977   1.065  0.00  0.00     0.017 A 
ENDBRANCH   2  15
TORSDOF 3
