REMARK  5 active torsions:
REMARK  status: ('A' for Active; 'I' for Inactive)
REMARK    1  A    between atoms: C_2  and  C_1 
REMARK    2  A    between atoms: C_13  and  C_8 
REMARK    3  A    between atoms: C_19  and  C_10 
REMARK    4  A    between atoms: O_20  and  C_19 
REMARK    5  A    between atoms: C_21  and  O_20 
ROOT
ATOM      1  C   UNL d   1      -1.543   2.228  -0.046  0.00  0.00     0.075 A 
ATOM      2  N   UNL d   1      -0.889   3.436   0.097  0.00  0.00    -0.349 N 
ATOM      3  HN  UNL d   1       0.121   3.546   0.187  1.00  0.00     0.166 HD
ATOM      4  C   UNL d   1      -1.760   4.425   0.100  0.00  0.00     0.075 A 
ATOM      5  C   UNL d   1      -2.909   2.320  -0.214  0.00  0.00     0.084 A 
ATOM      6  S   UNL d   1      -3.399   3.961  -0.147  0.00  0.00    -0.084 SA
ENDROOT
BRANCH   1   7
ATOM      7  C   UNL d   1      -0.793   0.943  -0.043  0.00  0.00     0.128 A 
ATOM      8  C   UNL d   1      -1.319  -0.322   0.067  0.00  0.00     0.074 A 
ATOM      9  C   UNL d   1      -0.206  -1.199  -0.028  0.00  0.00     0.068 A 
ATOM     10  N   UNL d   1       0.925  -0.499  -0.178  0.00  0.00    -0.260 N 
ATOM     11  O   UNL d   1       0.561   0.837  -0.150  0.00  0.00    -0.235 OA
ATOM     12  HN  UNL d   1       1.867  -0.874  -0.291  1.00  0.00     0.195 HD
BRANCH   9  13
ATOM     13  C   UNL d   1      -0.227  -2.659   0.003  0.00  0.00    -0.007 A 
ATOM     14  C   UNL d   1       0.707  -3.394  -0.742  0.00  0.00     0.021 A 
ATOM     15  C   UNL d   1       0.676  -4.800  -0.763  0.00  0.00    -0.055 A 
ATOM     16  C   UNL d   1       1.688  -5.540  -1.594  0.00  0.00     0.049 C 
ATOM     17  C   UNL d   1      -0.301  -5.481  -0.011  0.00  0.00    -0.056 A 
ATOM     18  C   UNL d   1      -1.224  -4.741   0.744  0.00  0.00     0.008 A 
ATOM     19  C   UNL d   1      -0.374  -6.983   0.002  0.00  0.00     0.049 C 
ATOM     20  C   UNL d   1      -1.188  -3.346   0.747  0.00  0.00     0.014 A 
ENDBRANCH   9  13
ENDBRANCH   1   7
BRANCH   4  21
ATOM     21  C   UNL d   1      -1.390   5.870   0.232  0.00  0.00     0.240 C 
BRANCH  21  22
ATOM     22  O   UNL d   1      -1.680   6.280   1.572  0.00  0.00    -0.345 OA
BRANCH  22  23
ATOM     23  C   UNL d   1      -1.444   7.603   1.838  0.00  0.00     0.069 A 
ATOM     24  C   UNL d   1      -2.179   8.143   2.897  0.00  0.00     0.038 A 
ATOM     25  C   UNL d   1      -2.031   9.489   3.247  0.00  0.00     0.026 A 
ATOM     26  C   UNL d   1      -1.131  10.289   2.547  0.00  0.00     0.034 A 
ATOM     27  C   UNL d   1      -0.373   9.753   1.510  0.00  0.00     0.026 A 
ATOM     28 CL   UNL d   1      -0.949  11.947   2.966  0.00  0.00    -0.084 Cl
ATOM     29  C   UNL d   1      -0.527   8.408   1.158  0.00  0.00     0.038 A 
ENDBRANCH  22  23
ENDBRANCH  21  22
ENDBRANCH   4  21
TORSDOF 5
