REMARK  4 active torsions:
REMARK  status: ('A' for Active; 'I' for Inactive)
REMARK    1  A    between atoms: C_9  and  C_1 
REMARK    2  A    between atoms: C_12  and  C_2 
REMARK    3  A    between atoms: C_5  and  C_8 
REMARK       I    between atoms: C_8  and  N_15 
REMARK       I    between atoms: N_16  and  C_12 
REMARK    4  A    between atoms: N_15  and  N_16 
ROOT
ATOM      1  C   UNL d   1       0.260  -2.693   0.041  0.00  0.00     0.275 C 
ATOM      2  N   UNL d   1       1.515  -3.057   0.498  0.00  0.00    -0.263 N 
ATOM      3  O   UNL d   1      -0.554  -3.537  -0.331  0.00  0.00    -0.266 OA
ATOM      4  H   UNL d   1       2.182  -2.406   0.899  0.00  0.00     0.190 HD
ENDROOT
BRANCH   1   5
ATOM      5  C   UNL d   1      -0.044  -1.275   0.094  0.00  0.00     0.094 A 
ATOM      6  C   UNL d   1      -1.333  -0.641   0.224  0.00  0.00     0.085 A 
ATOM      7  N   UNL d   1      -1.180   0.692   0.288  0.00  0.00    -0.259 N 
ATOM      8  O   UNL d   1       0.150   0.951   0.123  0.00  0.00    -0.241 OA
ATOM      9  HN  UNL d   1      -1.918   1.380   0.432  1.00  0.00     0.195 HD
ATOM     10  C   UNL d   1       0.837  -0.210   0.004  0.00  0.00     0.090 A 
ATOM     11  C   UNL d   1       2.289  -0.020  -0.196  0.00  0.00     0.080 C 
BRANCH   6  12
ATOM     12  C   UNL d   1      -2.677  -1.214   0.399  0.00  0.00     0.015 A 
ATOM     13  C   UNL d   1      -3.822  -0.675  -0.224  0.00  0.00     0.046 A 
ATOM     14 CL   UNL d   1      -3.760   0.584  -1.413  0.00  0.00    -0.083 Cl
ATOM     15  C   UNL d   1      -5.099  -1.171   0.079  0.00  0.00     0.025 A 
ATOM     16  C   UNL d   1      -5.254  -2.223   0.978  0.00  0.00     0.002 A 
ATOM     17  C   UNL d   1      -4.132  -2.790   1.572  0.00  0.00     0.001 A 
ATOM     18  C   UNL d   1      -2.858  -2.284   1.294  0.00  0.00     0.015 A 
ENDBRANCH   6  12
ENDBRANCH   1   5
BRANCH   2  19
ATOM     19  N   UNL d   1       1.866  -4.414   0.553  0.00  0.00    -0.262 N 
ATOM     20  C   UNL d   1       3.203  -4.773   0.548  0.00  0.00     0.288 C 
ATOM     21  O   UNL d   1       4.109  -3.939   0.555  0.00  0.00    -0.264 OA
ATOM     22  H   UNL d   1       1.131  -5.113   0.432  0.00  0.00     0.190 HD
BRANCH  20  23
ATOM     23  C   UNL d   1       3.444  -6.215   0.544  0.00  0.00     0.126 A 
ATOM     24  N   UNL d   1       2.441  -7.101   0.676  0.00  0.00    -0.256 N 
ATOM     25  O   UNL d   1       3.030  -8.351   0.651  0.00  0.00    -0.242 OA
ATOM     26  HN  UNL d   1       1.447  -6.893   0.774  1.00  0.00     0.195 HD
ATOM     27  C   UNL d   1       4.373  -8.218   0.494  0.00  0.00     0.075 A 
ATOM     28  C   UNL d   1       4.692  -6.887   0.428  0.00  0.00     0.071 A 
ATOM     29  C   UNL d   1       5.149  -9.470   0.433  0.00  0.00     0.079 C 
ENDBRANCH  20  23
ENDBRANCH   2  19
TORSDOF 4
