REMARK  4 active torsions:
REMARK  status: ('A' for Active; 'I' for Inactive)
REMARK    1  A    between atoms: C_2  and  S_1 
REMARK    2  A    between atoms: N_4  and  S_1 
REMARK    3  A    between atoms: C_8  and  N_4 
REMARK    4  A    between atoms: C_13  and  C_8 
ROOT
ATOM      1  N   UNL d   1       0.355   1.341  -0.842  0.00  0.00    -0.265 N 
ATOM      2  H   UNL d   1      -0.431   1.047  -1.411  0.00  0.00     0.180 HD
ENDROOT
BRANCH   1   3
ATOM      3  S   UNL d   1       0.847   0.099   0.139  0.00  0.00     0.266 S 
ATOM      4  O   UNL d   1       0.099  -1.067  -0.273  0.00  0.00    -0.200 OA
ATOM      5  O   UNL d   1       2.290   0.107   0.215  0.00  0.00    -0.200 OA
BRANCH   3   6
ATOM      6  C   UNL d   1       0.368   0.308   1.780  0.00  0.00     0.110 A 
ATOM      7  C   UNL d   1      -0.426   1.293   2.312  0.00  0.00     0.099 A 
ATOM      8  S   UNL d   1      -0.641   1.131   3.996  0.00  0.00    -0.064 SA
ATOM      9 CL   UNL d   1      -1.222   2.613   1.552  0.00  0.00    -0.075 Cl
ATOM     10  C   UNL d   1       0.302  -0.271   4.024  0.00  0.00     0.077 A 
ATOM     11  C   UNL d   1       0.787  -0.623   2.792  0.00  0.00     0.059 A 
ATOM     12 CL   UNL d   1       0.562  -1.099   5.504  0.00  0.00    -0.076 Cl
ENDBRANCH   3   6
ENDBRANCH   1   3
BRANCH   1  13
ATOM     13  C   UNL d   1       0.976   2.578  -1.052  0.00  0.00     0.118 C 
ATOM     14  N   UNL d   1       2.126   2.857  -0.548  0.00  0.00    -0.384 N 
ATOM     15  H   UNL d   1       2.527   2.041  -0.066  0.00  0.00     0.157 HD
ATOM     16  HN  UNL d   1       2.580   3.768  -0.617  1.00  0.00     0.157 HD
BRANCH  13  17
ATOM     17  C   UNL d   1       0.243   3.581  -1.881  0.00  0.00     0.011 A 
ATOM     18  C   UNL d   1      -1.027   3.360  -2.421  0.00  0.00     0.032 A 
ATOM     19  C   UNL d   1      -1.608   4.374  -3.167  0.00  0.00     0.088 A 
ATOM     20  N   UNL d   1      -1.023   5.566  -3.402  0.00  0.00    -0.375 N 
ATOM     21  C   UNL d   1       0.200   5.762  -2.868  0.00  0.00     0.088 A 
ATOM     22  HN  UNL d   1      -1.484   6.286  -3.958  1.00  0.00     0.164 HD
ATOM     23  C   UNL d   1       0.864   4.813  -2.114  0.00  0.00     0.032 A 
ENDBRANCH  13  17
ENDBRANCH   1  13
TORSDOF 4
