REMARK  3 active torsions:
REMARK  status: ('A' for Active; 'I' for Inactive)
REMARK    1  A    between atoms: S_8  and  C_3 
REMARK    2  A    between atoms: C_11  and  S_8 
REMARK    3  A    between atoms: C_13  and  C_11 
ROOT
ATOM      1  C   UNL d   1      -0.515   1.005  -1.087  0.00  0.00     0.121 A 
ATOM      2  C   UNL d   1      -1.322  -0.246  -0.902  0.00  0.00     0.284 A 
ATOM      3  C   UNL d   1       0.473   1.315  -0.239  0.00  0.00     0.045 A 
ATOM      4  N   UNL d   1      -0.940  -1.067   0.158  0.00  0.00    -0.261 N 
ATOM      5  N   UNL d   1       0.062  -0.762   1.044  0.00  0.00    -0.306 N 
ATOM      6  HN  UNL d   1       0.290  -1.380   1.823  1.00  0.00     0.186 HD
ATOM      7  C   UNL d   1       0.705   0.343   0.850  0.00  0.00     0.127 A 
ATOM      8  O   UNL d   1      -2.248  -0.518  -1.664  0.00  0.00    -0.265 OA
ATOM      9 CL   UNL d   1      -0.909   1.955  -2.481  0.00  0.00    -0.077 Cl
ATOM     10  C   UNL d   1      -1.598  -2.346   0.375  0.00  0.00     0.181 C 
ENDROOT
BRANCH   3  11
ATOM     11  S   UNL d   1       1.609   2.617  -0.345  0.00  0.00    -0.122 SA
BRANCH  11  12
ATOM     12  C   UNL d   1       0.580   4.092  -0.075  0.00  0.00     0.118 C 
BRANCH  12  13
ATOM     13  C   UNL d   1       1.427   5.339   0.049  0.00  0.00    -0.049 A 
ATOM     14  C   UNL d   1       1.764   6.094  -1.086  0.00  0.00     0.008 A 
ATOM     15  C   UNL d   1       2.550   7.245  -0.970  0.00  0.00     0.001 A 
ATOM     16  C   UNL d   1       3.014   7.651   0.279  0.00  0.00     0.000 A 
ATOM     17  C   UNL d   1       2.696   6.906   1.413  0.00  0.00     0.001 A 
ATOM     18  C   UNL d   1       1.910   5.756   1.299  0.00  0.00     0.008 A 
ENDBRANCH  12  13
ENDBRANCH  11  12
ENDBRANCH   3  11
TORSDOF 3
