REMARK  6 active torsions:
REMARK  status: ('A' for Active; 'I' for Inactive)
REMARK    1  A    between atoms: S_8  and  C_1 
REMARK    2  A    between atoms: C_6  and  C_3 
REMARK    3  A    between atoms: C_10  and  C_5 
REMARK    4  A    between atoms: O_14  and  C_6 
REMARK    5  A    between atoms: C_19  and  S_8 
REMARK    6  A    between atoms: C_20  and  C_19 
ROOT
ATOM      1  C   UNL d   1       0.180   0.947  -0.138  0.00  0.00     0.064 C 
ATOM      2  C   UNL d   1      -0.678  -0.104  -0.413  0.00  0.00     0.081 C 
ATOM      3  C   UNL d   1       1.334  -1.252  -0.063  0.00  0.00     0.092 C 
ATOM      4  S   UNL d   1       1.765   0.393   0.155  0.00  0.00    -0.074 SA
ATOM      5  C   UNL d   1      -0.042  -1.406  -0.255  0.00  0.00     0.021 C 
ATOM      6  C   UNL d   1      -2.046   0.115  -0.795  0.00  0.00     0.102 C 
ATOM      7  N   UNL d   1      -3.143   0.291  -1.127  0.00  0.00    -0.191 NA
ENDROOT
BRANCH   1   8
ATOM      8  S   UNL d   1      -0.111   2.684  -0.128  0.00  0.00    -0.117 SA
BRANCH   8   9
ATOM      9  C   UNL d   1      -1.438   2.907   1.117  0.00  0.00     0.048 C 
ATOM     10  C   UNL d   1      -1.777   4.400   1.165  0.00  0.00     0.021 C 
BRANCH   9  11
ATOM     11  C   UNL d   1      -1.116   2.350   2.516  0.00  0.00     0.010 C 
ATOM     12  C   UNL d   1       0.078   2.968   3.232  0.00  0.00     0.006 C 
ENDBRANCH   9  11
ENDBRANCH   8   9
ENDBRANCH   1   8
BRANCH   5  13
ATOM     13  C   UNL d   1      -0.695  -2.735  -0.275  0.00  0.00    -0.023 A 
ATOM     14  C   UNL d   1      -1.772  -3.025  -1.128  0.00  0.00     0.014 A 
ATOM     15  C   UNL d   1      -2.412  -4.270  -1.089  0.00  0.00     0.024 A 
ATOM     16  C   UNL d   1      -1.960  -5.264  -0.227  0.00  0.00     0.034 A 
ATOM     17  C   UNL d   1      -0.891  -5.008   0.622  0.00  0.00     0.024 A 
ATOM     18 CL   UNL d   1      -2.723  -6.804  -0.206  0.00  0.00    -0.084 Cl
ATOM     19  C   UNL d   1      -0.287  -3.747   0.619  0.00  0.00     0.014 A 
ENDBRANCH   5  13
BRANCH   3  20
ATOM     20  C   UNL d   1       2.398  -2.245  -0.052  0.00  0.00     0.184 C 
ATOM     21  O   UNL d   1       2.388  -3.322  -0.634  0.00  0.00    -0.646 OA
BRANCH  20  22
ATOM     22  O   UNL d   1       3.454  -1.883   0.729  0.00  0.00    -0.772 OA
ATOM     23  H   UNL d   1       3.338  -0.996   1.119  0.00  0.00     0.167 HD
ENDBRANCH  20  22
ENDBRANCH   3  20
TORSDOF 6
