REMARK  3 active torsions:
REMARK  status: ('A' for Active; 'I' for Inactive)
REMARK    1  A    between atoms: C_3  and  C_1 
REMARK    2  A    between atoms: C_8  and  C_2 
REMARK       I    between atoms: N_15  and  C_8 
REMARK    3  A    between atoms: N_16  and  N_15 
ROOT
ATOM      1  C   UNL d   1      -0.055  -1.320  -0.003  0.00  0.00     0.057 A 
ATOM      2  C   UNL d   1      -1.393  -0.832   0.025  0.00  0.00     0.138 A 
ATOM      3  N   UNL d   1      -1.395   0.515   0.104  0.00  0.00    -0.255 N 
ATOM      4  HN  UNL d   1      -2.212   1.123   0.160  1.00  0.00     0.195 HD
ATOM      5  O   UNL d   1      -0.074   0.907   0.093  0.00  0.00    -0.241 OA
ATOM      6  C   UNL d   1       0.726  -0.187   0.021  0.00  0.00     0.087 A 
ATOM      7  C   UNL d   1       2.180   0.066   0.004  0.00  0.00     0.080 C 
ENDROOT
BRANCH   1   8
ATOM      8  C   UNL d   1       0.428  -2.697  -0.060  0.00  0.00     0.054 A 
ATOM      9  N   UNL d   1       1.626  -2.923  -0.721  0.00  0.00    -0.353 N 
ATOM     10  C   UNL d   1       1.935  -4.201  -0.672  0.00  0.00     0.047 A 
ATOM     11  HN  UNL d   1       2.186  -2.203  -1.177  1.00  0.00     0.166 HD
ATOM     12  C   UNL d   1       3.148  -4.801  -1.291  0.00  0.00     0.076 C 
ATOM     13  S   UNL d   1       0.833  -5.196   0.191  0.00  0.00    -0.087 SA
ATOM     14  C   UNL d   1      -0.129  -3.815   0.523  0.00  0.00     0.082 A 
ENDBRANCH   1   8
BRANCH   2  15
ATOM     15  C   UNL d   1      -2.670  -1.548  -0.044  0.00  0.00     0.285 C 
ATOM     16  O   UNL d   1      -2.777  -2.766  -0.185  0.00  0.00    -0.265 OA
ATOM     17  N   UNL d   1      -3.791  -0.722   0.061  0.00  0.00    -0.288 N 
ATOM     18  H   UNL d   1      -3.638   0.270   0.250  0.00  0.00     0.183 HD
BRANCH  17  19
ATOM     19  N   UNL d   1      -5.092  -1.272   0.120  0.00  0.00    -0.247 NA
ATOM     20  H   UNL d   1      -4.991  -2.296   0.060  0.00  0.00     0.143 HD
ATOM     21  H   UNL d   1      -5.586  -1.013  -0.737  0.00  0.00     0.143 HD
ENDBRANCH  17  19
ENDBRANCH   2  15
TORSDOF 3
