REMARK  2 active torsions:
REMARK  status: ('A' for Active; 'I' for Inactive)
REMARK    1  A    between atoms: C_6  and  C_1 
REMARK    2  A    between atoms: N_3  and  C_2 
REMARK       I    between atoms: N_4  and  C_6 
REMARK       I    between atoms: C_5  and  N_4 
REMARK       I    between atoms: N_10  and  C_5 
ROOT
ATOM      1  N   UNL d   1       2.283  -2.617  -0.194  0.00  0.00    -0.275 N 
ATOM      2  C   UNL d   1       1.207  -3.405   0.137  0.00  0.00     0.325 C 
ATOM      3  C   UNL d   1       3.586  -2.823   0.217  0.00  0.00     0.260 C 
ATOM      4  N   UNL d   1      -0.025  -2.905  -0.267  0.00  0.00    -0.330 N 
ATOM      5  O   UNL d   1       1.302  -4.475   0.730  0.00  0.00    -0.247 OA
ATOM      6  O   UNL d   1       3.971  -3.700   0.978  0.00  0.00    -0.267 OA
ATOM      7  O   UNL d   1      -2.625  -1.746  -0.015  0.00  0.00    -0.388 OA
ATOM      8  C   UNL d   1      -0.321  -1.586  -0.844  0.00  0.00     0.153 C 
ATOM      9  C   UNL d   1      -1.220  -3.741  -0.085  0.00  0.00     0.153 C 
ATOM     10  C   UNL d   1      -1.471  -0.900  -0.095  0.00  0.00     0.187 C 
ATOM     11  C   UNL d   1      -2.308  -2.970   0.669  0.00  0.00     0.187 C 
ATOM     12  H   UNL d   1       2.146  -2.017  -0.983  0.00  0.00     0.173 HD
ENDROOT
BRANCH   3  13
ATOM     13  C   UNL d   1       4.557  -1.865  -0.346  0.00  0.00     0.042 A 
ATOM     14  C   UNL d   1       5.987  -2.065  -0.321  0.00  0.00     0.061 A 
ATOM     15  C   UNL d   1       6.676  -1.040  -0.931  0.00  0.00     0.144 A 
ATOM     16  S   UNL d   1       5.652   0.196  -1.479  0.00  0.00    -0.077 SA
ATOM     17  C   UNL d   1       4.261  -0.642  -0.929  0.00  0.00     0.069 A 
BRANCH  15  18
ATOM     18  N   UNL d   1       8.101  -0.955  -1.129  0.00  0.00    -0.108 N 
ATOM     19  O   UNL d   1       8.767  -1.925  -0.746  0.00  0.00    -0.531 OA
ATOM     20  O   UNL d   1       8.557   0.061  -1.669  0.00  0.00    -0.531 OA
ENDBRANCH  15  18
ENDBRANCH   3  13
TORSDOF 2
