REMARK  20 active torsions:
REMARK  status: ('A' for Active; 'I' for Inactive)
REMARK    1  A    between atoms: O_3  and  C_1 
REMARK    2  A    between atoms: O_4  and  C_2 
REMARK    3  A    between atoms: C_7  and  O_3 
REMARK    4  A    between atoms: C_8  and  O_4 
REMARK    5  A    between atoms: C_9  and  C_7 
REMARK    6  A    between atoms: C_10  and  C_8 
REMARK    7  A    between atoms: C_21  and  C_9 
REMARK    8  A    between atoms: C_22  and  C_10 
REMARK    9  A    between atoms: C_11  and  C_13 
REMARK   10  A    between atoms: C_12  and  C_14 
REMARK   11  A    between atoms: C_13  and  C_19 
REMARK   12  A    between atoms: C_14  and  C_20 
REMARK   13  A    between atoms: C_15  and  C_23 
REMARK   14  A    between atoms: C_17  and  C_15 
REMARK   15  A    between atoms: C_16  and  C_24 
REMARK   16  A    between atoms: C_18  and  C_16 
REMARK   17  A    between atoms: C_19  and  C_17 
REMARK   18  A    between atoms: C_20  and  C_18 
REMARK   19  A    between atoms: C_23  and  C_21 
REMARK   20  A    between atoms: C_24  and  C_22 
ROOT
ATOM      1  C   UNL d   1       1.397  -0.251   0.016  0.00  0.00     0.102 A 
ATOM      2  C   UNL d   1       0.444  -1.283  -0.086  0.00  0.00     0.102 A 
ATOM      3  C   UNL d   1      -0.919  -0.938   0.002  0.00  0.00     0.039 A 
ATOM      4  C   UNL d   1       0.935   1.082   0.077  0.00  0.00     0.039 A 
ATOM      5  C   UNL d   1      -1.352   0.391   0.052  0.00  0.00     0.003 A 
ATOM      6  C   UNL d   1      -0.423   1.415   0.062  0.00  0.00     0.003 A 
ENDROOT
BRANCH   1   7
ATOM      7  O   UNL d   1       2.751  -0.308   0.171  0.00  0.00    -0.348 OA
BRANCH   7   8
ATOM      8  C   UNL d   1       3.518  -1.312  -0.479  0.00  0.00     0.176 C 
BRANCH   8   9
ATOM      9  C   UNL d   1       5.022  -1.004  -0.259  0.00  0.00     0.027 C 
BRANCH   9  10
ATOM     10  C   UNL d   1       5.404  -0.929   1.229  0.00  0.00     0.002 C 
BRANCH  10  11
ATOM     11  C   UNL d   1       6.916  -0.773   1.489  0.00  0.00     0.000 C 
BRANCH  11  12
ATOM     12  C   UNL d   1       7.192  -0.719   3.001  0.00  0.00     0.000 C 
BRANCH  12  13
ATOM     13  C   UNL d   1       8.680  -0.582   3.340  0.00  0.00     0.000 C 
BRANCH  13  14
ATOM     14  C   UNL d   1       8.907  -0.534   4.859  0.00  0.00     0.000 C 
BRANCH  14  15
ATOM     15  C   UNL d   1      10.393  -0.395   5.200  0.00  0.00    -0.000 C 
BRANCH  15  16
ATOM     16  C   UNL d   1      10.631  -0.341   6.711  0.00  0.00    -0.005 C 
ATOM     17  C   UNL d   1      12.113  -0.205   7.033  0.00  0.00     0.005 C 
ENDBRANCH  15  16
ENDBRANCH  14  15
ENDBRANCH  13  14
ENDBRANCH  12  13
ENDBRANCH  11  12
ENDBRANCH  10  11
ENDBRANCH   9  10
ENDBRANCH   8   9
ENDBRANCH   7   8
ENDBRANCH   1   7
BRANCH   2  18
ATOM     18  O   UNL d   1       0.822  -2.601  -0.259  0.00  0.00    -0.348 OA
BRANCH  18  19
ATOM     19  C   UNL d   1      -0.255  -3.438  -0.731  0.00  0.00     0.176 C 
BRANCH  19  20
ATOM     20  C   UNL d   1       0.200  -4.795  -1.239  0.00  0.00     0.027 C 
BRANCH  20  21
ATOM     21  C   UNL d   1       0.657  -5.722  -0.117  0.00  0.00     0.002 C 
BRANCH  21  22
ATOM     22  C   UNL d   1       1.007  -7.125  -0.620  0.00  0.00     0.000 C 
BRANCH  22  23
ATOM     23  C   UNL d   1       2.117  -7.110  -1.667  0.00  0.00     0.000 C 
BRANCH  23  24
ATOM     24  C   UNL d   1       2.523  -8.521  -2.073  0.00  0.00     0.000 C 
BRANCH  24  25
ATOM     25  C   UNL d   1       3.624  -8.480  -3.131  0.00  0.00     0.000 C 
BRANCH  25  26
ATOM     26  C   UNL d   1       4.025  -9.891  -3.541  0.00  0.00    -0.000 C 
BRANCH  26  27
ATOM     27  C   UNL d   1       5.124  -9.872  -4.604  0.00  0.00    -0.005 C 
ATOM     28  C   UNL d   1       5.526 -11.284  -5.000  0.00  0.00     0.005 C 
ENDBRANCH  26  27
ENDBRANCH  25  26
ENDBRANCH  24  25
ENDBRANCH  23  24
ENDBRANCH  22  23
ENDBRANCH  21  22
ENDBRANCH  20  21
ENDBRANCH  19  20
ENDBRANCH  18  19
ENDBRANCH   2  18
TORSDOF 20
