REMARK  5 active torsions:
REMARK  status: ('A' for Active; 'I' for Inactive)
REMARK    1  A    between atoms: C_2  and  C_1 
REMARK       I    between atoms: N_8  and  C_2 
REMARK    2  A    between atoms: C_5  and  C_3 
REMARK    3  A    between atoms: C_4  and  C_10 
REMARK    4  A    between atoms: O_14  and  C_5 
REMARK    5  A    between atoms: C_10  and  N_8 
ROOT
ATOM      1  C   UNL d   1       2.728  -0.253   0.465  0.00  0.00     0.253 C 
ATOM      2  N   UNL d   1       3.514   0.872   0.524  0.00  0.00    -0.352 N 
ATOM      3  O   UNL d   1       3.147  -1.346   0.845  0.00  0.00    -0.268 OA
ATOM      4  H   UNL d   1       3.257   1.698  -0.003  0.00  0.00     0.163 HD
ENDROOT
BRANCH   1   5
ATOM      5  C   UNL d   1       1.311  -0.165  -0.034  0.00  0.00     0.048 A 
ATOM      6  C   UNL d   1       0.731   0.814  -0.861  0.00  0.00     0.053 A 
ATOM      7  C   UNL d   1      -0.608   0.661  -1.298  0.00  0.00     0.019 A 
ATOM      8  C   UNL d   1      -1.388  -0.413  -0.874  0.00  0.00     0.001 A 
ATOM      9  C   UNL d   1      -0.841  -1.360  -0.024  0.00  0.00     0.001 A 
ATOM     10  C   UNL d   1       0.491  -1.242   0.381  0.00  0.00     0.018 A 
BRANCH   6  11
ATOM     11  C   UNL d   1       1.460   1.989  -1.384  0.00  0.00     0.177 C 
ATOM     12  O   UNL d   1       2.634   1.967  -1.706  0.00  0.00    -0.646 OA
BRANCH  11  13
ATOM     13  O   UNL d   1       0.726   3.122  -1.424  0.00  0.00    -0.773 OA
ATOM     14  H   UNL d   1      -0.156   3.081  -1.009  0.00  0.00     0.167 HD
ENDBRANCH  11  13
ENDBRANCH   6  11
ENDBRANCH   1   5
BRANCH   2  15
ATOM     15  C   UNL d   1       4.927   0.794   0.838  0.00  0.00     0.169 C 
BRANCH  15  16
ATOM     16  C   UNL d   1       5.237   1.777   1.928  0.00  0.00     0.006 A 
ATOM     17  C   UNL d   1       5.337   1.567   3.299  0.00  0.00    -0.047 A 
ATOM     18  C   UNL d   1       5.660   2.786   3.984  0.00  0.00     0.015 A 
ATOM     19  C   UNL d   1       5.137   0.268   4.011  0.00  0.00     0.049 C 
ATOM     20  C   UNL d   1       5.804   3.856   3.132  0.00  0.00     0.051 A 
ATOM     21  S   UNL d   1       5.547   3.414   1.507  0.00  0.00    -0.104 SA
ENDBRANCH  15  16
ENDBRANCH   2  15
TORSDOF 5
