REMARK  4 active torsions:
REMARK  status: ('A' for Active; 'I' for Inactive)
REMARK    1  A    between atoms: C_8  and  C_1 
REMARK       I    between atoms: N_15  and  C_8 
REMARK    2  A    between atoms: C_11  and  C_18 
REMARK    3  A    between atoms: C_16  and  N_15 
REMARK    4  A    between atoms: C_18  and  C_16 
ROOT
ATOM      1  C   UNL d   1      -1.535  -2.441  -1.160  0.00  0.00     0.262 C 
ATOM      2  O   UNL d   1      -1.685  -2.926  -2.278  0.00  0.00    -0.267 OA
ATOM      3  N   UNL d   1      -1.599  -3.232  -0.024  0.00  0.00    -0.356 N 
ATOM      4  H   UNL d   1      -1.512  -2.791   0.881  0.00  0.00     0.162 HD
ENDROOT
BRANCH   3   5
ATOM      5  C   UNL d   1      -1.865  -4.661  -0.055  0.00  0.00     0.127 C 
BRANCH   5   6
ATOM      6  C   UNL d   1      -3.363  -4.971  -0.012  0.00  0.00     0.060 C 
BRANCH   6   7
ATOM      7  C   UNL d   1      -3.642  -6.442  -0.002  0.00  0.00    -0.029 A 
ATOM      8  C   UNL d   1      -3.804  -7.246   1.111  0.00  0.00     0.096 A 
ATOM      9  N   UNL d   1      -4.047  -8.526   0.684  0.00  0.00    -0.365 N 
ATOM     10  C   UNL d   1      -4.045  -8.579  -0.690  0.00  0.00     0.042 A 
ATOM     11  H   UNL d   1      -4.208  -9.321   1.287  0.00  0.00     0.165 HD
ATOM     12  C   UNL d   1      -3.793  -7.286  -1.149  0.00  0.00    -0.002 A 
ATOM     13  C   UNL d   1      -4.246  -9.663  -1.552  0.00  0.00     0.030 A 
ATOM     14  C   UNL d   1      -3.740  -7.064  -2.540  0.00  0.00     0.014 A 
ATOM     15  C   UNL d   1      -3.940  -8.137  -3.416  0.00  0.00     0.001 A 
ATOM     16  C   UNL d   1      -4.188  -9.416  -2.928  0.00  0.00     0.002 A 
ENDBRANCH   6   7
ENDBRANCH   5   6
ENDBRANCH   3   5
BRANCH   1  17
ATOM     17  C   UNL d   1      -1.289  -1.030  -0.929  0.00  0.00     0.114 A 
ATOM     18  C   UNL d   1      -1.120   0.032  -1.814  0.00  0.00     0.046 A 
ATOM     19  N   UNL d   1      -0.906   1.268  -1.203  0.00  0.00    -0.298 N 
ATOM     20  C   UNL d   1      -1.133   0.035  -3.299  0.00  0.00     0.071 C 
ATOM     21  N   UNL d   1      -0.906   1.181   0.113  0.00  0.00    -0.269 N 
ATOM     22  HN  UNL d   1      -0.766   2.139  -1.715  1.00  0.00     0.187 HD
ATOM     23  S   UNL d   1      -1.158  -0.369   0.654  0.00  0.00     0.009 SA
ATOM     24  HN  UNL d   1      -0.766   1.980   0.732  1.00  0.00     0.195 HD
ENDBRANCH   1  17
TORSDOF 4
