REMARK  7 active torsions:
REMARK  status: ('A' for Active; 'I' for Inactive)
REMARK    1  A    between atoms: C_4  and  C_1 
REMARK    2  A    between atoms: C_2  and  C_15 
REMARK       I    between atoms: C_3  and  N_5 
REMARK       I    between atoms: N_14  and  C_3 
REMARK    3  A    between atoms: N_5  and  C_10 
REMARK    4  A    between atoms: C_25  and  N_14 
REMARK    5  A    between atoms: C_15  and  S_18 
REMARK    6  A    between atoms: S_18  and  C_26 
REMARK    7  A    between atoms: C_26  and  C_25 
ROOT
ATOM      1  C   UNL d   1       1.387  -4.614  -2.020  0.00  0.00     0.320 C 
ATOM      2  N   UNL d   1       0.832  -3.746  -2.935  0.00  0.00    -0.309 N 
ATOM      3  O   UNL d   1       1.922  -4.313  -0.961  0.00  0.00    -0.247 OA
ATOM      4  N   UNL d   1       1.292  -5.930  -2.421  0.00  0.00    -0.342 N 
ATOM      5  H   UNL d   1       0.588  -4.142  -3.830  0.00  0.00     0.170 HD
ATOM      6  H   UNL d   1       0.531  -6.176  -3.035  0.00  0.00     0.164 HD
ENDROOT
BRANCH   2   7
ATOM      7  C   UNL d   1       0.729  -2.343  -2.799  0.00  0.00     0.037 A 
ATOM      8  C   UNL d   1       1.102  -1.657  -1.639  0.00  0.00     0.045 A 
ATOM      9  C   UNL d   1       1.000  -0.260  -1.547  0.00  0.00     0.050 A 
ATOM     10  C   UNL d   1       0.497   0.456  -2.639  0.00  0.00     0.016 A 
ATOM     11  C   UNL d   1       0.109  -0.217  -3.799  0.00  0.00     0.003 A 
ATOM     12  C   UNL d   1       0.226  -1.609  -3.878  0.00  0.00     0.029 A 
BRANCH   9  13
ATOM     13  C   UNL d   1       1.431   0.456  -0.290  0.00  0.00     0.417 C 
ATOM     14  F   UNL d   1       1.918  -0.367   0.680  0.00  0.00    -0.166 F 
ATOM     15  F   UNL d   1       0.408   1.145   0.290  0.00  0.00    -0.166 F 
ATOM     16  F   UNL d   1       2.411   1.373  -0.523  0.00  0.00    -0.166 F 
ENDBRANCH   9  13
ENDBRANCH   2   7
BRANCH   4  17
ATOM     17  C   UNL d   1       1.799  -6.945  -1.511  0.00  0.00     0.134 C 
BRANCH  17  18
ATOM     18  C   UNL d   1       1.792  -8.368  -2.060  0.00  0.00     0.094 C 
BRANCH  18  19
ATOM     19  S   UNL d   1       2.806  -8.526  -3.563  0.00  0.00    -0.163 SA
BRANCH  19  20
ATOM     20  C   UNL d   1       2.739 -10.337  -3.743  0.00  0.00     0.117 C 
BRANCH  20  21
ATOM     21  C   UNL d   1       3.557 -10.790  -4.920  0.00  0.00     0.011 A 
ATOM     22  C   UNL d   1       3.070 -10.801  -6.235  0.00  0.00     0.044 A 
ATOM     23 CL   UNL d   1       1.442 -10.360  -6.611  0.00  0.00    -0.084 Cl
ATOM     24  C   UNL d   1       3.898 -11.178  -7.300  0.00  0.00     0.024 A 
ATOM     25  C   UNL d   1       5.223 -11.549  -7.068  0.00  0.00     0.005 A 
ATOM     26  C   UNL d   1       5.718 -11.550  -5.768  0.00  0.00     0.043 A 
ATOM     27  C   UNL d   1       4.889 -11.172  -4.714  0.00  0.00     0.125 A 
ATOM     28  F   UNL d   1       5.395 -11.183  -3.472  0.00  0.00    -0.205 F 
ENDBRANCH  20  21
ENDBRANCH  19  20
ENDBRANCH  18  19
ENDBRANCH  17  18
ENDBRANCH   4  17
TORSDOF 7
