REMARK  3 active torsions:
REMARK  status: ('A' for Active; 'I' for Inactive)
REMARK    1  A    between atoms: C_6  and  C_3 
REMARK    2  A    between atoms: C_8  and  C_6 
REMARK    3  A    between atoms: O_10  and  C_8 
ROOT
ATOM      1  N   UNL d   1      -0.233  -1.385   0.080  0.00  0.00    -0.357 N 
ATOM      2  HN  UNL d   1      -0.748  -2.261   0.173  1.00  0.00     0.166 HD
ATOM      3  C   UNL d   1       1.147  -1.284  -0.016  0.00  0.00     0.026 A 
ATOM      4  C   UNL d   1      -0.784  -0.190   0.033  0.00  0.00     0.047 A 
ATOM      5  S   UNL d   1       0.319   1.125  -0.039  0.00  0.00    -0.087 SA
ATOM      6  C   UNL d   1       1.621   0.014  -0.080  0.00  0.00     0.077 A 
ATOM      7  C   UNL d   1      -2.250   0.067   0.031  0.00  0.00     0.076 C 
ENDROOT
BRANCH   3   8
ATOM      8  C   UNL d   1       1.940  -2.549  -0.067  0.00  0.00     0.167 C 
BRANCH   8   9
ATOM      9  C   UNL d   1       3.234  -2.465   0.702  0.00  0.00     0.145 C 
ATOM     10  O   UNL d   1       4.338  -2.626   0.199  0.00  0.00    -0.650 OA
BRANCH   9  11
ATOM     11  O   UNL d   1       3.079  -2.211   2.023  0.00  0.00    -0.776 OA
ATOM     12  H   UNL d   1       2.145  -2.101   2.294  0.00  0.00     0.167 HD
ENDBRANCH   9  11
ENDBRANCH   8   9
ENDBRANCH   3   8
TORSDOF 3
