REMARK  7 active torsions:
REMARK  status: ('A' for Active; 'I' for Inactive)
REMARK    1  A    between atoms: C_4  and  C_1 
REMARK    2  A    between atoms: C_6  and  C_3 
REMARK    3  A    between atoms: C_9  and  C_4 
REMARK    4  A    between atoms: C_8  and  C_6 
REMARK    5  A    between atoms: O_14  and  C_8 
REMARK    6  A    between atoms: S_10  and  C_9 
REMARK    7  A    between atoms: C_13  and  S_10 
ROOT
ATOM      1  C   UNL d   1      -0.271   2.479   0.107  0.00  0.00     0.175 C 
ATOM      2  O   UNL d   1       0.412   2.874   1.059  0.00  0.00    -0.291 OA
ENDROOT
BRANCH   1   3
ATOM      3  C   UNL d   1       0.314   1.595  -0.905  0.00  0.00     0.052 A 
ATOM      4  S   UNL d   1      -0.544   0.924  -2.223  0.00  0.00    -0.091 SA
ATOM      5  C   UNL d   1       0.806   0.011  -2.755  0.00  0.00    -0.007 A 
ATOM      6  C   UNL d   1       1.922   0.281  -1.992  0.00  0.00     0.016 A 
ATOM      7  C   UNL d   1       1.638   1.188  -0.934  0.00  0.00     0.024 A 
BRANCH   5   8
ATOM      8  C   UNL d   1       0.687  -0.960  -3.894  0.00  0.00     0.156 C 
BRANCH   8   9
ATOM      9  C   UNL d   1       1.045  -0.320  -5.212  0.00  0.00     0.144 C 
ATOM     10  O   UNL d   1       1.913  -0.746  -5.963  0.00  0.00    -0.650 OA
BRANCH   9  11
ATOM     11  O   UNL d   1       0.273   0.744  -5.548  0.00  0.00    -0.776 OA
ATOM     12  H   UNL d   1      -0.376   0.981  -4.856  0.00  0.00     0.167 HD
ENDBRANCH   9  11
ENDBRANCH   8   9
ENDBRANCH   5   8
ENDBRANCH   1   3
BRANCH   1  13
ATOM     13  C   UNL d   1      -1.678   3.034  -0.022  0.00  0.00     0.164 C 
BRANCH  13  14
ATOM     14  S   UNL d   1      -3.026   1.822   0.087  0.00  0.00    -0.122 SA
BRANCH  14  15
ATOM     15  C   UNL d   1      -2.694   0.910   1.584  0.00  0.00     0.001 A 
ATOM     16  C   UNL d   1      -2.158   1.455   2.752  0.00  0.00     0.019 A 
ATOM     17  C   UNL d   1      -1.966   0.651   3.885  0.00  0.00     0.008 A 
ATOM     18  C   UNL d   1      -2.314  -0.705   3.870  0.00  0.00    -0.062 A 
ATOM     19  C   UNL d   1      -2.875  -1.243   2.710  0.00  0.00     0.008 A 
ATOM     20  C   UNL d   1      -2.092  -1.564   5.080  0.00  0.00     0.048 C 
ATOM     21  C   UNL d   1      -3.065  -0.441   1.583  0.00  0.00     0.019 A 
ENDBRANCH  14  15
ENDBRANCH  13  14
ENDBRANCH   1  13
TORSDOF 7
