REMARK  5 active torsions:
REMARK  status: ('A' for Active; 'I' for Inactive)
REMARK    1  A    between atoms: C_2  and  S_1 
REMARK    2  A    between atoms: C_13  and  S_1 
REMARK    3  A    between atoms: N_15  and  N_3 
REMARK    4  A    between atoms: C_8  and  C_14 
REMARK    5  A    between atoms: C_19  and  N_15 
ROOT
ATOM      1  C   UNL d   1      -0.097  -0.219   0.856  0.00  0.00     0.229 C 
ATOM      2  N   UNL d   1      -0.825  -1.298   0.865  0.00  0.00    -0.281 N 
ATOM      3  HN  UNL d   1      -1.572  -1.397   1.552  1.00  0.00     0.188 HD
ATOM      4  C   UNL d   1       0.975  -0.072  -0.086  0.00  0.00     0.132 C 
ATOM      5  N   UNL d   1       1.841  -0.021  -0.860  0.00  0.00    -0.189 NA
ENDROOT
BRANCH   1   6
ATOM      6  S   UNL d   1      -0.373   1.092   1.972  0.00  0.00     0.233 S 
ATOM      7  O   UNL d   1      -0.632   2.273   1.168  0.00  0.00    -0.215 OA
ATOM      8  O   UNL d   1       0.726   1.062   2.922  0.00  0.00    -0.215 OA
BRANCH   6   9
ATOM      9  C   UNL d   1      -1.865   0.709   2.860  0.00  0.00     0.066 A 
ATOM     10  C   UNL d   1      -1.792  -0.025   4.049  0.00  0.00     0.024 A 
ATOM     11  C   UNL d   1      -2.953  -0.247   4.793  0.00  0.00     0.002 A 
ATOM     12  C   UNL d   1      -4.174   0.268   4.355  0.00  0.00     0.000 A 
ATOM     13  C   UNL d   1      -4.242   1.003   3.171  0.00  0.00     0.002 A 
ATOM     14  C   UNL d   1      -3.087   1.230   2.421  0.00  0.00     0.024 A 
ENDBRANCH   6   9
ENDBRANCH   1   6
BRANCH   2  15
ATOM     15  N   UNL d   1      -0.598  -2.300  -0.037  0.00  0.00    -0.299 N 
ATOM     16  H   UNL d   1       0.333  -2.491  -0.412  0.00  0.00     0.187 HD
BRANCH  15  17
ATOM     17  C   UNL d   1      -1.411  -3.454   0.059  0.00  0.00     0.049 A 
ATOM     18  C   UNL d   1      -1.212  -4.521  -0.838  0.00  0.00     0.044 A 
ATOM     19  C   UNL d   1      -2.053  -5.656  -0.850  0.00  0.00    -0.007 A 
ATOM     20  C   UNL d   1      -3.099  -5.695   0.089  0.00  0.00     0.014 A 
ATOM     21  C   UNL d   1      -3.327  -4.638   0.968  0.00  0.00     0.003 A 
ATOM     22  C   UNL d   1      -2.501  -3.519   0.935  0.00  0.00     0.031 A 
BRANCH  19  23
ATOM     23  C   UNL d   1      -1.883  -6.763  -1.818  0.00  0.00     0.045 A 
ATOM     24  N   UNL d   1      -2.264  -7.988  -1.387  0.00  0.00    -0.345 N 
ATOM     25  C   UNL d   1      -2.163  -9.015  -2.252  0.00  0.00     0.077 A 
ATOM     26  HN  UNL d   1      -2.617  -8.129  -0.440  1.00  0.00     0.167 HD
ATOM     27  C   UNL d   1      -2.597 -10.370  -1.789  0.00  0.00     0.089 C 
ATOM     28  N   UNL d   1      -1.716  -8.908  -3.515  0.00  0.00    -0.356 N 
ATOM     29  C   UNL d   1      -1.352  -7.679  -3.912  0.00  0.00     0.091 A 
ATOM     30  HN  UNL d   1      -1.657  -9.716  -4.136  1.00  0.00     0.166 HD
ATOM     31  C   UNL d   1      -1.413  -6.567  -3.104  0.00  0.00     0.047 A 
ENDBRANCH  19  23
ENDBRANCH  15  17
ENDBRANCH   2  15
TORSDOF 5
