REMARK  5 active torsions:
REMARK  status: ('A' for Active; 'I' for Inactive)
REMARK       I    between atoms: C_2  and  N_1 
REMARK       I    between atoms: C_3  and  N_1 
REMARK       I    between atoms: N_16  and  C_2 
REMARK    1  A    between atoms: C_9  and  C_3 
REMARK    2  A    between atoms: C_4  and  C_11 
REMARK    3  A    between atoms: C_5  and  C_10 
REMARK    4  A    between atoms: N_19  and  C_6 
REMARK    5  A    between atoms: C_15  and  N_16 
ROOT
ATOM      1  N   UNL d   1       1.069  -0.069   0.067  0.00  0.00    -0.275 N 
ATOM      2  C   UNL d   1       0.305  -0.270  -1.055  0.00  0.00     0.327 C 
ATOM      3  C   UNL d   1       2.272   0.598   0.179  0.00  0.00     0.259 C 
ATOM      4  N   UNL d   1       0.685   0.418  -2.180  0.00  0.00    -0.309 N 
ATOM      5  O   UNL d   1      -0.629  -1.063  -0.957  0.00  0.00    -0.247 OA
ATOM      6  O   UNL d   1       2.786   1.203  -0.765  0.00  0.00    -0.267 OA
ATOM      7  H   UNL d   1       0.700  -0.595   0.844  0.00  0.00     0.173 HD
ATOM      8  H   UNL d   1       1.591   0.881  -2.116  0.00  0.00     0.170 HD
ENDROOT
BRANCH   4   9
ATOM      9  C   UNL d   1       0.084   0.324  -3.451  0.00  0.00     0.037 A 
ATOM     10  C   UNL d   1      -1.187  -0.221  -3.638  0.00  0.00     0.045 A 
ATOM     11  C   UNL d   1      -1.699  -0.460  -4.921  0.00  0.00     0.050 A 
ATOM     12  C   UNL d   1      -0.936  -0.082  -6.035  0.00  0.00     0.032 A 
ATOM     13  C   UNL d   1       0.326   0.513  -5.872  0.00  0.00     0.050 A 
ATOM     14  C   UNL d   1       0.817   0.735  -4.570  0.00  0.00     0.045 A 
BRANCH  11  15
ATOM     15  C   UNL d   1      -3.022  -1.171  -5.058  0.00  0.00     0.417 C 
ATOM     16  F   UNL d   1      -3.329  -1.489  -6.346  0.00  0.00    -0.166 F 
ATOM     17  F   UNL d   1      -3.053  -2.345  -4.369  0.00  0.00    -0.166 F 
ATOM     18  F   UNL d   1      -4.066  -0.432  -4.594  0.00  0.00    -0.166 F 
ENDBRANCH  11  15
BRANCH  13  19
ATOM     19  C   UNL d   1       1.183   0.847  -7.071  0.00  0.00     0.417 C 
ATOM     20  F   UNL d   1       0.647   0.427  -8.252  0.00  0.00    -0.166 F 
ATOM     21  F   UNL d   1       1.397   2.183  -7.211  0.00  0.00    -0.166 F 
ATOM     22  F   UNL d   1       2.416   0.272  -7.000  0.00  0.00    -0.166 F 
ENDBRANCH  13  19
ENDBRANCH   4   9
BRANCH   3  23
ATOM     23  C   UNL d   1       2.942   0.604   1.513  0.00  0.00     0.038 A 
ATOM     24  C   UNL d   1       2.561  -0.196   2.590  0.00  0.00     0.062 A 
ATOM     25  C   UNL d   1       3.232  -0.091   3.821  0.00  0.00     0.146 A 
ATOM     26  F   UNL d   1       2.763  -0.875   4.806  0.00  0.00    -0.204 F 
ATOM     27  C   UNL d   1       4.312   0.787   4.045  0.00  0.00     0.107 A 
ATOM     28  C   UNL d   1       4.691   1.533   2.908  0.00  0.00     0.146 A 
ATOM     29  C   UNL d   1       4.019   1.463   1.683  0.00  0.00     0.062 A 
ATOM     30  F   UNL d   1       5.773   2.328   2.936  0.00  0.00    -0.204 F 
BRANCH  27  31
ATOM     31  N   UNL d   1       5.009   0.883   5.253  0.00  0.00    -0.385 N 
ATOM     32  C   UNL d   1       5.523   2.184   5.695  0.00  0.00     0.149 C 
ATOM     33  C   UNL d   1       4.784  -0.057   6.351  0.00  0.00     0.149 C 
ENDBRANCH  27  31
ENDBRANCH   3  23
TORSDOF 5
