REMARK  3 active torsions:
REMARK  status: ('A' for Active; 'I' for Inactive)
REMARK    1  A    between atoms: C_11  and  N_3 
REMARK    2  A    between atoms: C_13  and  C_7 
REMARK    3  A    between atoms: C_17  and  C_13 
ROOT
ATOM      1  C   UNL d   1       0.224  -0.638  -0.100  0.00  0.00     0.186 A 
ATOM      2  C   UNL d   1       0.222   0.737  -0.035  0.00  0.00     0.047 A 
ATOM      3  N   UNL d   1       1.536  -1.047   0.015  0.00  0.00    -0.233 N 
ATOM      4  N   UNL d   1       2.361   0.021   0.203  0.00  0.00    -0.295 N 
ATOM      5  HN  UNL d   1       3.362   0.000   0.397  1.00  0.00     0.187 HD
ATOM      6  C   UNL d   1       1.579   1.105   0.079  0.00  0.00     0.037 A 
ATOM      7  C   UNL d   1      -1.056   1.364  -0.080  0.00  0.00    -0.036 A 
ATOM      8  O   UNL d   1      -0.811  -1.461  -0.177  0.00  0.00    -0.255 OA
ATOM      9  C   UNL d   1      -2.048  -0.899  -0.188  0.00  0.00     0.290 A 
ATOM     10  C   UNL d   1      -2.151   0.583  -0.137  0.00  0.00     0.090 A 
ATOM     11  O   UNL d   1      -3.071  -1.572  -0.243  0.00  0.00    -0.260 OA
ATOM     12  C   UNL d   1       2.247   2.430   0.094  0.00  0.00     0.070 C 
ENDROOT
BRANCH   3  13
ATOM     13  C   UNL d   1       2.057  -2.367  -0.030  0.00  0.00     0.059 A 
ATOM     14  C   UNL d   1       1.398  -3.378  -0.742  0.00  0.00     0.031 A 
ATOM     15  C   UNL d   1       1.927  -4.670  -0.771  0.00  0.00     0.002 A 
ATOM     16  C   UNL d   1       3.095  -4.964  -0.070  0.00  0.00     0.000 A 
ATOM     17  C   UNL d   1       3.754  -3.961   0.641  0.00  0.00     0.002 A 
ATOM     18  C   UNL d   1       3.252  -2.658   0.644  0.00  0.00     0.031 A 
ENDBRANCH   3  13
BRANCH   7  19
ATOM     19  C   UNL d   1      -1.165   2.859   0.013  0.00  0.00     0.039 C 
BRANCH  19  20
ATOM     20  C   UNL d   1      -1.056   3.531  -1.358  0.00  0.00     0.000 C 
ATOM     21  C   UNL d   1      -1.132   5.045  -1.241  0.00  0.00     0.005 C 
ENDBRANCH  19  20
ENDBRANCH   7  19
TORSDOF 3
