REMARK  4 active torsions:
REMARK  status: ('A' for Active; 'I' for Inactive)
REMARK    1  A    between atoms: N_8  and  C_3 
REMARK    2  A    between atoms: C_9  and  N_4 
REMARK    3  A    between atoms: N_10  and  N_8 
REMARK       I    between atoms: C_11  and  N_10 
REMARK    4  A    between atoms: C_15  and  C_11 
ROOT
ATOM      1  C   UNL d   1      -0.892   1.424  -0.276  0.00  0.00     0.133 C 
ATOM      2  C   UNL d   1      -1.791   0.240  -0.145  0.00  0.00     0.291 C 
ATOM      3  C   UNL d   1       0.348   1.453   0.234  0.00  0.00     0.094 C 
ATOM      4  N   UNL d   1      -1.216  -0.898   0.435  0.00  0.00    -0.220 N 
ATOM      5  N   UNL d   1      -0.015  -0.855   1.105  0.00  0.00    -0.300 N 
ATOM      6  HN  UNL d   1       0.312  -1.647   1.658  1.00  0.00     0.186 HD
ATOM      7  C   UNL d   1       0.683   0.228   1.006  0.00  0.00     0.141 C 
ATOM      8  O   UNL d   1      -2.956   0.321  -0.540  0.00  0.00    -0.264 OA
ATOM      9 CL   UNL d   1      -1.555   2.790  -1.127  0.00  0.00    -0.076 Cl
ENDROOT
BRANCH   3  10
ATOM     10  N   UNL d   1       1.318   2.454   0.087  0.00  0.00    -0.291 N 
ATOM     11  C   UNL d   1       2.373   2.733   1.058  0.00  0.00     0.178 C 
BRANCH  10  12
ATOM     12  N   UNL d   1       1.619   2.974  -1.202  0.00  0.00    -0.264 N 
ATOM     13  C   UNL d   1       1.830   2.119  -2.282  0.00  0.00     0.270 C 
ATOM     14  O   UNL d   1       1.804   0.894  -2.238  0.00  0.00    -0.266 OA
ATOM     15  H   UNL d   1       1.433   3.962  -1.335  0.00  0.00     0.190 HD
BRANCH  13  16
ATOM     16  C   UNL d   1       2.084   2.801  -3.580  0.00  0.00     0.033 A 
ATOM     17  C   UNL d   1       2.925   3.921  -3.648  0.00  0.00     0.019 A 
ATOM     18  C   UNL d   1       3.176   4.529  -4.882  0.00  0.00     0.025 A 
ATOM     19  C   UNL d   1       2.590   4.021  -6.041  0.00  0.00     0.034 A 
ATOM     20  C   UNL d   1       1.760   2.900  -5.981  0.00  0.00     0.025 A 
ATOM     21 CL   UNL d   1       2.905   4.773  -7.556  0.00  0.00    -0.084 Cl
ATOM     22  C   UNL d   1       1.513   2.286  -4.753  0.00  0.00     0.019 A 
ENDBRANCH  13  16
ENDBRANCH  10  12
ENDBRANCH   3  10
BRANCH   4  23
ATOM     23  C   UNL d   1      -1.817  -2.203   0.380  0.00  0.00     0.061 A 
ATOM     24  C   UNL d   1      -2.815  -2.519  -0.558  0.00  0.00     0.058 A 
ATOM     25  C   UNL d   1      -3.358  -3.806  -0.630  0.00  0.00     0.074 A 
ATOM     26 CL   UNL d   1      -4.556  -4.152  -1.819  0.00  0.00    -0.081 Cl
ATOM     27  C   UNL d   1      -2.914  -4.797   0.236  0.00  0.00     0.138 A 
ATOM     28  C   UNL d   1      -1.923  -4.520   1.168  0.00  0.00     0.046 A 
ATOM     29  F   UNL d   1      -3.423  -6.037   0.181  0.00  0.00    -0.204 F 
ATOM     30  C   UNL d   1      -1.373  -3.234   1.232  0.00  0.00     0.035 A 
ENDBRANCH   4  23
TORSDOF 4
