REMARK  6 active torsions:
REMARK  status: ('A' for Active; 'I' for Inactive)
REMARK    1  A    between atoms: C_2  and  S_1 
REMARK    2  A    between atoms: N_13  and  S_1 
REMARK    3  A    between atoms: C_6  and  C_3 
REMARK    4  A    between atoms: C_11  and  C_4 
REMARK       I    between atoms: N_10  and  C_6 
REMARK    5  A    between atoms: C_7  and  N_10 
REMARK    6  A    between atoms: O_20  and  C_11 
ROOT
ATOM      1  C   UNL d   1      -1.948  -4.406   0.806  0.00  0.00     0.258 C 
ATOM      2  N   UNL d   1      -3.161  -3.746   0.828  0.00  0.00    -0.321 N 
ATOM      3  O   UNL d   1      -1.802  -5.617   0.917  0.00  0.00    -0.267 OA
ATOM      4  H   UNL d   1      -3.237  -2.871   0.322  0.00  0.00     0.169 HD
ENDROOT
BRANCH   1   5
ATOM      5  C   UNL d   1      -0.804  -3.520   0.552  0.00  0.00     0.065 A 
ATOM      6  C   UNL d   1      -0.718  -2.100   0.648  0.00  0.00     0.071 A 
ATOM      7  C   UNL d   1       0.564  -1.712   0.289  0.00  0.00     0.191 A 
ATOM      8  O   UNL d   1       1.288  -2.851   0.028  0.00  0.00    -0.301 OA
ATOM      9  C   UNL d   1       0.471  -3.928   0.200  0.00  0.00     0.066 A 
ATOM     10  C   UNL d   1       1.092  -5.255  -0.032  0.00  0.00     0.078 C 
BRANCH   7  11
ATOM     11  S   UNL d   1       1.263  -0.065   0.135  0.00  0.00     0.282 S 
ATOM     12  O   UNL d   1       1.336   0.423   1.494  0.00  0.00    -0.198 OA
ATOM     13  O   UNL d   1       0.411   0.576  -0.851  0.00  0.00    -0.198 OA
BRANCH  11  14
ATOM     14  N   UNL d   1       2.835  -0.171  -0.503  0.00  0.00    -0.314 N 
ATOM     15  C   UNL d   1       3.867  -0.727   0.387  0.00  0.00     0.162 C 
ATOM     16  C   UNL d   1       2.934  -0.656  -1.891  0.00  0.00     0.162 C 
ENDBRANCH  11  14
ENDBRANCH   7  11
ENDBRANCH   1   5
BRANCH   2  17
ATOM     17  C   UNL d   1      -4.357  -4.354   1.204  0.00  0.00     0.058 A 
ATOM     18  C   UNL d   1      -5.589  -4.035   0.647  0.00  0.00     0.106 A 
ATOM     19  S   UNL d   1      -6.860  -4.928   1.392  0.00  0.00    -0.094 SA
ATOM     20  C   UNL d   1      -5.787  -5.713   2.457  0.00  0.00     0.053 A 
ATOM     21  C   UNL d   1      -4.482  -5.347   2.228  0.00  0.00     0.038 A 
BRANCH  18  22
ATOM     22  C   UNL d   1      -5.948  -3.156  -0.453  0.00  0.00     0.302 C 
ATOM     23  O   UNL d   1      -7.055  -3.051  -0.969  0.00  0.00    -0.259 OA
BRANCH  22  24
ATOM     24  O   UNL d   1      -4.853  -2.443  -0.871  0.00  0.00    -0.322 OA
ATOM     25  C   UNL d   1      -5.126  -1.577  -1.977  0.00  0.00     0.213 C 
ENDBRANCH  22  24
ENDBRANCH  18  22
ENDBRANCH   2  17
TORSDOF 6
