REMARK  2 active torsions:
REMARK  status: ('A' for Active; 'I' for Inactive)
REMARK       I    between atoms: C_3  and  N_4 
REMARK    1  A    between atoms: N_4  and  C_5 
REMARK    2  A    between atoms: O_11  and  C_6 
ROOT
ATOM      1  C   UNL d   1      -0.548   0.073   0.007  0.00  0.00     0.069 A 
ATOM      2  C   UNL d   1       0.135   1.303   0.010  0.00  0.00     0.056 A 
ATOM      3  C   UNL d   1       1.528   1.372   0.003  0.00  0.00     0.036 A 
ATOM      4  C   UNL d   1       0.172  -1.126  -0.007  0.00  0.00     0.090 A 
ATOM      5  C   UNL d   1       1.576  -1.050  -0.010  0.00  0.00     0.041 A 
ATOM      6 CL   UNL d   1      -2.273   0.216   0.024  0.00  0.00    -0.081 Cl
ATOM      7  C   UNL d   1       2.249   0.178  -0.005  0.00  0.00     0.032 A 
ENDROOT
BRANCH   3   8
ATOM      8  N   UNL d   1       2.248   2.588   0.004  0.00  0.00    -0.327 N 
ATOM      9  C   UNL d   1       1.716   3.867   0.005  0.00  0.00     0.218 C 
ATOM     10  O   UNL d   1       0.524   4.166   0.006  0.00  0.00    -0.274 OA
ATOM     11  C   UNL d   1       2.753   4.958   0.003  0.00  0.00     0.117 C 
ATOM     12  H   UNL d   1       3.257   2.508   0.001  0.00  0.00     0.169 HD
ENDBRANCH   3   8
BRANCH   4  13
ATOM     13  O   UNL d   1      -0.259  -2.424  -0.016  0.00  0.00    -0.354 OA
ATOM     14  C   UNL d   1      -1.646  -2.715  -0.032  0.00  0.00     0.210 C 
ENDBRANCH   4  13
TORSDOF 2
