REMARK  3 active torsions:
REMARK  status: ('A' for Active; 'I' for Inactive)
REMARK    1  A    between atoms: C_8  and  N_3 
REMARK    2  A    between atoms: C_10  and  C_6 
REMARK    3  A    between atoms: O_14  and  C_6 
ROOT
ATOM      1  C   UNL d   1      -0.859  -0.913  -0.045  0.00  0.00     0.092 A 
ATOM      2  C   UNL d   1      -1.211   0.449   0.489  0.00  0.00     0.128 A 
ATOM      3  N   UNL d   1      -0.101   0.845   1.253  0.00  0.00    -0.265 N 
ATOM      4  C   UNL d   1       0.964  -0.034   1.213  0.00  0.00     0.304 A 
ATOM      5  C   UNL d   1       0.539  -1.189   0.324  0.00  0.00     0.256 A 
ATOM      6  C   UNL d   1      -1.561  -1.855  -0.706  0.00  0.00     0.093 C 
ATOM      7  S   UNL d   1      -2.551   1.392   0.139  0.00  0.00    -0.059 SA
ATOM      8  O   UNL d   1       2.034  -0.013   1.792  0.00  0.00    -0.263 OA
ATOM      9  O   UNL d   1       1.208  -2.152   0.004  0.00  0.00    -0.281 OA
ENDROOT
BRANCH   6  10
ATOM     10  C   UNL d   1      -2.985  -1.741  -1.033  0.00  0.00    -0.002 A 
ATOM     11  C   UNL d   1      -3.398  -1.179  -2.246  0.00  0.00     0.015 A 
ATOM     12  C   UNL d   1      -4.758  -0.994  -2.507  0.00  0.00     0.007 A 
ATOM     13  C   UNL d   1      -5.722  -1.387  -1.571  0.00  0.00    -0.062 A 
ATOM     14  C   UNL d   1      -5.308  -1.998  -0.381  0.00  0.00     0.007 A 
ATOM     15  C   UNL d   1      -7.173  -1.110  -1.830  0.00  0.00     0.048 C 
ATOM     16  C   UNL d   1      -3.949  -2.178  -0.116  0.00  0.00     0.015 A 
ENDBRANCH   6  10
BRANCH   6  17
ATOM     17  O   UNL d   1      -1.036  -3.074  -1.103  0.00  0.00    -0.359 OA
ATOM     18  H   UNL d   1      -0.083  -3.128  -0.876  0.00  0.00     0.217 HD
ENDBRANCH   6  17
BRANCH   3  19
ATOM     19  C   UNL d   1      -0.031   2.011   2.057  0.00  0.00     0.043 A 
ATOM     20  C   UNL d   1       1.034   2.908   1.904  0.00  0.00     0.030 A 
ATOM     21  C   UNL d   1       1.107   4.055   2.697  0.00  0.00     0.002 A 
ATOM     22  C   UNL d   1       0.143   4.290   3.675  0.00  0.00     0.000 A 
ATOM     23  C   UNL d   1      -0.905   3.389   3.853  0.00  0.00     0.002 A 
ATOM     24  C   UNL d   1      -1.000   2.259   3.039  0.00  0.00     0.030 A 
ENDBRANCH   3  19
TORSDOF 3
