REMARK  3 active torsions:
REMARK  status: ('A' for Active; 'I' for Inactive)
REMARK    1  A    between atoms: C_4  and  N_1 
REMARK    2  A    between atoms: C_5  and  C_2 
REMARK    3  A    between atoms: S_16  and  C_11 
ROOT
ATOM      1  C   UNL d   1       0.039  -2.501   2.677  0.00  0.00     0.011 A 
ATOM      2  C   UNL d   1       0.688  -1.465   1.966  0.00  0.00     0.051 A 
ATOM      3  C   UNL d   1       0.279  -1.112   0.676  0.00  0.00     0.103 A 
ATOM      4  C   UNL d   1      -1.037  -3.183   2.063  0.00  0.00     0.012 A 
ATOM      5  C   UNL d   1      -0.773  -1.789   0.064  0.00  0.00     0.037 A 
ATOM      6  C   UNL d   1      -1.425  -2.812   0.758  0.00  0.00     0.022 A 
ENDROOT
BRANCH   1   7
ATOM      7  C   UNL d   1       0.555  -2.795   4.025  0.00  0.00     0.061 A 
ATOM      8  N   UNL d   1       1.875  -2.712   4.273  0.00  0.00    -0.300 N 
ATOM      9  N   UNL d   1       2.007  -3.048   5.563  0.00  0.00    -0.311 N 
ATOM     10  HN  UNL d   1       2.615  -2.451   3.620  1.00  0.00     0.187 HD
ATOM     11  C   UNL d   1       0.830  -3.367   6.163  0.00  0.00     0.109 A 
ATOM     12  H   UNL d   1       2.938  -3.039   5.968  0.00  0.00     0.186 HD
ATOM     13  C   UNL d   1      -0.137  -3.178   5.206  0.00  0.00     0.050 A 
ENDBRANCH   1   7
BRANCH   4  14
ATOM     14  S   UNL d   1      -2.063  -4.454   2.811  0.00  0.00    -0.134 SA
ATOM     15  C   UNL d   1      -0.877  -5.811   3.001  0.00  0.00     0.095 C 
ENDBRANCH   4  14
BRANCH   3  16
ATOM     16  N   UNL d   1       0.948  -0.011  -0.029  0.00  0.00    -0.116 N 
ATOM     17  O   UNL d   1       1.841   0.605   0.570  0.00  0.00    -0.532 OA
ATOM     18  O   UNL d   1       0.574   0.243  -1.183  0.00  0.00    -0.532 OA
ENDBRANCH   3  16
TORSDOF 3
