REMARK  2 active torsions:
REMARK  status: ('A' for Active; 'I' for Inactive)
REMARK    1  A    between atoms: C_7  and  C_4 
REMARK    2  A    between atoms: S_8  and  C_5 
ROOT
ATOM      1  C   UNL d   1      -0.841  -0.085   0.546  0.00  0.00     0.065 A 
ATOM      2  N   UNL d   1       0.910   0.851  -0.572  0.00  0.00    -0.303 N 
ATOM      3  HN  UNL d   1       1.526   1.508  -1.051  1.00  0.00     0.186 HD
ATOM      4  C   UNL d   1      -0.272   1.103   0.011  0.00  0.00     0.036 A 
ATOM      5  C   UNL d   1       0.076  -1.070   0.286  0.00  0.00     0.086 A 
ATOM      6  N   UNL d   1       1.098  -0.467  -0.380  0.00  0.00    -0.294 N 
ATOM      7  H   UNL d   1       1.946  -0.898  -0.730  0.00  0.00     0.187 HD
ENDROOT
BRANCH   4   8
ATOM      8  C   UNL d   1      -0.864   2.504   0.011  0.00  0.00    -0.007 C 
ATOM      9  C   UNL d   1      -1.737   2.695  -1.244  0.00  0.00     0.021 C 
ATOM     10  C   UNL d   1      -1.742   2.733   1.260  0.00  0.00     0.021 C 
ATOM     11  C   UNL d   1       0.238   3.585   0.016  0.00  0.00     0.021 C 
ENDBRANCH   4   8
BRANCH   5  12
ATOM     12  S   UNL d   1       0.156  -2.762   0.616  0.00  0.00    -0.115 SA
ATOM     13  C   UNL d   1      -1.396  -3.045   1.497  0.00  0.00     0.097 C 
ENDBRANCH   5  12
TORSDOF 2
