REMARK  3 active torsions:
REMARK  status: ('A' for Active; 'I' for Inactive)
REMARK    1  A    between atoms: C_3  and  C_1 
REMARK    2  A    between atoms: C_8  and  C_2 
REMARK    3  A    between atoms: C_17  and  C_9 
ROOT
ATOM      1  C   UNL d   1       0.014  -1.286  -0.035  0.00  0.00     0.052 A 
ATOM      2  C   UNL d   1      -1.330  -0.802   0.080  0.00  0.00     0.081 A 
ATOM      3  N   UNL d   1      -1.311   0.534   0.237  0.00  0.00    -0.259 N 
ATOM      4  HN  UNL d   1      -2.121   1.140   0.375  1.00  0.00     0.195 HD
ATOM      5  O   UNL d   1       0.003   0.928   0.177  0.00  0.00    -0.241 OA
ATOM      6  C   UNL d   1       0.801  -0.157   0.026  0.00  0.00     0.087 A 
ATOM      7  C   UNL d   1       2.249   0.116  -0.033  0.00  0.00     0.080 C 
ENDROOT
BRANCH   1   8
ATOM      8  C   UNL d   1       0.462  -2.673  -0.160  0.00  0.00     0.054 A 
ATOM      9  N   UNL d   1      -0.343  -3.588  -0.809  0.00  0.00    -0.349 N 
ATOM     10  C   UNL d   1       0.217  -4.785  -0.808  0.00  0.00     0.084 A 
ATOM     11  HN  UNL d   1      -1.246  -3.371  -1.231  1.00  0.00     0.166 HD
ATOM     12  S   UNL d   1       1.736  -4.862   0.005  0.00  0.00    -0.081 SA
ATOM     13  C   UNL d   1       1.634  -3.190   0.351  0.00  0.00     0.082 A 
BRANCH  10  14
ATOM     14  C   UNL d   1      -0.403  -5.997  -1.371  0.00  0.00    -0.002 A 
ATOM     15  C   UNL d   1       0.352  -7.065  -1.886  0.00  0.00     0.016 A 
ATOM     16  C   UNL d   1      -0.274  -8.208  -2.394  0.00  0.00     0.024 A 
ATOM     17  C   UNL d   1      -1.665  -8.295  -2.396  0.00  0.00     0.034 A 
ATOM     18  C   UNL d   1      -2.433  -7.245  -1.903  0.00  0.00     0.024 A 
ATOM     19 CL   UNL d   1      -2.432  -9.705  -3.011  0.00  0.00    -0.084 Cl
ATOM     20  C   UNL d   1      -1.804  -6.100  -1.401  0.00  0.00     0.016 A 
ENDBRANCH  10  14
ENDBRANCH   1   8
BRANCH   2  21
ATOM     21  C   UNL d   1      -2.604  -1.530   0.146  0.00  0.00     0.015 A 
ATOM     22  C   UNL d   1      -3.775  -1.101  -0.511  0.00  0.00     0.048 A 
ATOM     23  C   UNL d   1      -4.973  -1.817  -0.378  0.00  0.00     0.048 A 
ATOM     24 CL   UNL d   1      -3.833   0.288  -1.546  0.00  0.00    -0.083 Cl
ATOM     25  C   UNL d   1      -5.012  -2.975   0.390  0.00  0.00     0.035 A 
ATOM     26  C   UNL d   1      -3.870  -3.420   1.045  0.00  0.00     0.025 A 
ATOM     27 CL   UNL d   1      -6.475  -3.868   0.526  0.00  0.00    -0.084 Cl
ATOM     28  C   UNL d   1      -2.682  -2.693   0.937  0.00  0.00     0.017 A 
ENDBRANCH   2  21
TORSDOF 3
