REMARK  6 active torsions:
REMARK  status: ('A' for Active; 'I' for Inactive)
REMARK    1  A    between atoms: C_8  and  N_1 
REMARK    2  A    between atoms: S_2  and  C_14 
REMARK    3  A    between atoms: C_5  and  S_2 
REMARK    4  A    between atoms: S_22  and  C_3 
REMARK    5  A    between atoms: C_14  and  C_27 
REMARK    6  A    between atoms: C_27  and  S_22 
ROOT
ATOM      1  N   UNL d   1       0.963  -0.597  -0.257  0.00  0.00    -0.241 N 
ATOM      2  C   UNL d   1       0.955   0.737   0.017  0.00  0.00     0.170 A 
ATOM      3  C   UNL d   1      -0.368  -0.925  -0.432  0.00  0.00     0.347 A 
ATOM      4  N   UNL d   1      -0.228   1.290   0.021  0.00  0.00    -0.275 N 
ATOM      5  HN  UNL d   1      -0.464   2.266   0.196  1.00  0.00     0.189 HD
ATOM      6  N   UNL d   1      -1.073   0.263  -0.264  0.00  0.00    -0.249 N 
ATOM      7  O   UNL d   1      -0.889  -2.012  -0.624  0.00  0.00    -0.245 OA
ATOM      8  H   UNL d   1      -2.081   0.346  -0.238  0.00  0.00     0.192 HD
ENDROOT
BRANCH   2   9
ATOM      9  S   UNL d   1       2.402   1.665   0.231  0.00  0.00    -0.091 SA
BRANCH   9  10
ATOM     10  C   UNL d   1       1.733   3.368   0.334  0.00  0.00     0.098 C 
BRANCH  10  11
ATOM     11  C   UNL d   1       1.111   3.635   1.693  0.00  0.00     0.156 C 
BRANCH  11  12
ATOM     12  S   UNL d   1       0.588   5.317   1.904  0.00  0.00     0.177 S 
ATOM     13  O   UNL d   1      -0.074   5.438   3.188  0.00  0.00    -0.223 OA
ATOM     14  O   UNL d   1       1.751   6.142   1.619  0.00  0.00    -0.223 OA
BRANCH  12  15
ATOM     15  C   UNL d   1      -0.630   5.715   0.671  0.00  0.00     0.081 A 
ATOM     16  C   UNL d   1      -1.821   4.999   0.523  0.00  0.00     0.057 A 
ATOM     17  C   UNL d   1      -2.736   5.376  -0.470  0.00  0.00     0.049 A 
ATOM     18 CL   UNL d   1      -2.294   3.683   1.530  0.00  0.00    -0.083 Cl
ATOM     19  C   UNL d   1      -2.483   6.483  -1.278  0.00  0.00     0.035 A 
ATOM     20  C   UNL d   1      -1.325   7.232  -1.101  0.00  0.00     0.025 A 
ATOM     21 CL   UNL d   1      -3.617   6.935  -2.488  0.00  0.00    -0.084 Cl
ATOM     22  C   UNL d   1      -0.397   6.848  -0.131  0.00  0.00     0.027 A 
ENDBRANCH  12  15
ENDBRANCH  11  12
ENDBRANCH  10  11
ENDBRANCH   9  10
ENDBRANCH   2   9
BRANCH   1  23
ATOM     23  C   UNL d   1       1.981  -1.574  -0.196  0.00  0.00     0.049 A 
ATOM     24  C   UNL d   1       2.891  -1.621   0.868  0.00  0.00     0.069 A 
ATOM     25  C   UNL d   1       3.748  -2.719   1.005  0.00  0.00     0.104 A 
ATOM     26  O   UNL d   1       4.530  -2.752   2.133  0.00  0.00    -0.346 OA
ATOM     27  C   UNL d   1       3.731  -3.750   0.060  0.00  0.00     0.102 A 
ATOM     28  C   UNL d   1       5.463  -3.841   2.124  0.00  0.00     0.202 C 
ATOM     29  C   UNL d   1       4.840  -5.103   1.548  0.00  0.00     0.202 C 
ATOM     30  O   UNL d   1       4.485  -4.888   0.178  0.00  0.00    -0.346 OA
ATOM     31  C   UNL d   1       2.892  -3.670  -1.044  0.00  0.00     0.042 A 
ATOM     32  C   UNL d   1       2.001  -2.600  -1.152  0.00  0.00     0.033 A 
ENDBRANCH   1  23
TORSDOF 6
