REMARK  3 active torsions:
REMARK  status: ('A' for Active; 'I' for Inactive)
REMARK    1  A    between atoms: C_10  and  C_4 
REMARK    2  A    between atoms: O_14  and  C_10 
REMARK    3  A    between atoms: C_16  and  O_14 
ROOT
ATOM      1  N   UNL d   1      -0.285  -0.609   0.042  0.00  0.00    -0.203 N 
ATOM      2  C   UNL d   1       0.827  -1.464   0.035  0.00  0.00     0.285 A 
ATOM      3  C   UNL d   1      -0.227   0.771   0.037  0.00  0.00     0.132 A 
ATOM      4  C   UNL d   1       2.140  -0.744   0.037  0.00  0.00     0.124 A 
ATOM      5  N   UNL d   1      -1.564  -1.065   0.030  0.00  0.00    -0.294 N 
ATOM      6  HN  UNL d   1      -1.884  -2.033   0.030  1.00  0.00     0.187 HD
ATOM      7  C   UNL d   1      -1.519   1.224   0.019  0.00  0.00     0.076 A 
ATOM      8  C   UNL d   1       2.132   0.602   0.030  0.00  0.00     0.113 A 
ATOM      9  N   UNL d   1       0.986   1.368   0.040  0.00  0.00    -0.350 N 
ATOM     10  C   UNL d   1      -2.309   0.048   0.018  0.00  0.00     0.026 A 
ATOM     11  O   UNL d   1       0.682  -2.680  -0.011  0.00  0.00    -0.265 OA
ATOM     12  C   UNL d   1      -3.789  -0.054   0.004  0.00  0.00     0.070 C 
ATOM     13  H   UNL d   1       1.098   2.381   0.001  0.00  0.00     0.166 HD
ENDROOT
BRANCH   4  14
ATOM     14  C   UNL d   1       3.438  -1.435  -0.042  0.00  0.00     0.300 C 
ATOM     15  O   UNL d   1       4.467  -0.902  -0.438  0.00  0.00    -0.259 OA
BRANCH  14  16
ATOM     16  O   UNL d   1       3.310  -2.728   0.323  0.00  0.00    -0.318 OA
BRANCH  16  17
ATOM     17  C   UNL d   1       4.300  -3.633  -0.179  0.00  0.00     0.174 C 
ATOM     18  C   UNL d   1       3.867  -4.090  -1.563  0.00  0.00     0.034 C 
ENDBRANCH  16  17
ENDBRANCH  14  16
ENDBRANCH   4  14
TORSDOF 3
