REMARK  6 active torsions:
REMARK  status: ('A' for Active; 'I' for Inactive)
REMARK    1  A    between atoms: C_7  and  C_1 
REMARK    2  A    between atoms: C_11  and  C_5 
REMARK    3  A    between atoms: S_10  and  C_7 
REMARK    4  A    between atoms: C_8  and  C_12 
REMARK    5  A    between atoms: C_9  and  C_13 
REMARK    6  A    between atoms: C_27  and  S_10 
ROOT
ATOM      1  C   UNL d   1      -0.184  -1.104  -0.295  0.00  0.00     0.086 A 
ATOM      2  S   UNL d   1       1.274  -0.250  -0.603  0.00  0.00    -0.065 SA
ATOM      3  N   UNL d   1      -0.777   1.153  -0.028  0.00  0.00    -0.352 N 
ATOM      4  HN  UNL d   1      -1.390   1.945   0.165  1.00  0.00     0.166 HD
ATOM      5  C   UNL d   1       0.509   1.252  -0.296  0.00  0.00     0.085 A 
ATOM      6  C   UNL d   1      -1.189  -0.177  -0.042  0.00  0.00     0.028 A 
ATOM      7  C   UNL d   1      -2.624  -0.460   0.239  0.00  0.00     0.070 C 
ENDROOT
BRANCH   1   8
ATOM      8  C   UNL d   1      -0.292  -2.560  -0.301  0.00  0.00     0.232 C 
ATOM      9  O   UNL d   1      -1.343  -3.156  -0.092  0.00  0.00    -0.279 OA
BRANCH   8  10
ATOM     10  S   UNL d   1       1.224  -3.432  -0.551  0.00  0.00    -0.047 SA
BRANCH  10  11
ATOM     11  C   UNL d   1       0.858  -5.075  -1.114  0.00  0.00     0.008 A 
ATOM     12  C   UNL d   1      -0.363  -5.513  -1.628  0.00  0.00     0.020 A 
ATOM     13  C   UNL d   1      -0.527  -6.838  -2.057  0.00  0.00     0.017 A 
ATOM     14  C   UNL d   1       0.537  -7.748  -2.001  0.00  0.00     0.048 A 
ATOM     15  C   UNL d   1       1.773  -7.303  -1.517  0.00  0.00     0.017 A 
ATOM     16  C   UNL d   1       1.927  -5.985  -1.079  0.00  0.00     0.020 A 
BRANCH  14  17
ATOM     17  C   UNL d   1       0.376  -9.177  -2.456  0.00  0.00     0.417 C 
ATOM     18  F   UNL d   1      -0.897  -9.494  -2.822  0.00  0.00    -0.166 F 
ATOM     19  F   UNL d   1       1.158  -9.471  -3.531  0.00  0.00    -0.166 F 
ATOM     20  F   UNL d   1       0.720 -10.073  -1.489  0.00  0.00    -0.166 F 
ENDBRANCH  14  17
ENDBRANCH  10  11
ENDBRANCH   8  10
ENDBRANCH   1   8
BRANCH   5  21
ATOM     21  C   UNL d   1       1.280   2.510  -0.289  0.00  0.00    -0.002 A 
ATOM     22  C   UNL d   1       2.522   2.647  -0.932  0.00  0.00     0.015 A 
ATOM     23  C   UNL d   1       3.239   3.847  -0.876  0.00  0.00     0.017 A 
ATOM     24  C   UNL d   1       2.730   4.949  -0.180  0.00  0.00     0.048 A 
ATOM     25  C   UNL d   1       1.488   4.825   0.458  0.00  0.00     0.017 A 
ATOM     26  C   UNL d   1       0.773   3.623   0.400  0.00  0.00     0.015 A 
BRANCH  24  27
ATOM     27  C   UNL d   1       3.494   6.250  -0.116  0.00  0.00     0.417 C 
ATOM     28  F   UNL d   1       4.671   6.223  -0.802  0.00  0.00    -0.166 F 
ATOM     29  F   UNL d   1       2.788   7.295  -0.630  0.00  0.00    -0.166 F 
ATOM     30  F   UNL d   1       3.815   6.604   1.159  0.00  0.00    -0.166 F 
ENDBRANCH  24  27
ENDBRANCH   5  21
TORSDOF 6
