REMARK  4 active torsions:
REMARK  status: ('A' for Active; 'I' for Inactive)
REMARK    1  A    between atoms: N_9  and  C_3 
REMARK    2  A    between atoms: C_11  and  N_9 
REMARK    3  A    between atoms: O_10  and  C_12 
REMARK    4  A    between atoms: C_12  and  C_11 
ROOT
ATOM      1  N   UNL d   1       0.093   0.894   0.000  0.00  0.00    -0.274 N 
ATOM      2  C   UNL d   1       1.264   0.192  -0.063  0.00  0.00     0.272 A 
ATOM      3  C   UNL d   1       1.148  -1.312  -0.028  0.00  0.00     0.092 A 
ATOM      4  C   UNL d   1      -1.155   0.345   0.050  0.00  0.00     0.327 A 
ATOM      5  N   UNL d   1      -1.201  -1.021   0.075  0.00  0.00    -0.317 N 
ATOM      6  C   UNL d   1      -0.088  -1.817   0.038  0.00  0.00     0.122 A 
ATOM      7  O   UNL d   1       2.357   0.746  -0.137  0.00  0.00    -0.266 OA
ATOM      8  O   UNL d   1      -2.175   1.028   0.066  0.00  0.00    -0.247 OA
ATOM      9  H   UNL d   1       0.152   1.898  -0.026  0.00  0.00     0.173 HD
ATOM     10  H   UNL d   1      -2.127  -1.434   0.098  0.00  0.00     0.170 HD
ENDROOT
BRANCH   3  11
ATOM     11  N   UNL d   1       2.305  -2.083  -0.120  0.00  0.00    -0.285 NA
ATOM     12  H   UNL d   1       2.976  -1.579  -0.715  0.00  0.00     0.128 HD
BRANCH  11  13
ATOM     13  C   UNL d   1       3.057  -2.415   1.103  0.00  0.00     0.118 C 
BRANCH  13  14
ATOM     14  C   UNL d   1       3.891  -3.677   0.868  0.00  0.00     0.178 C 
BRANCH  14  15
ATOM     15  O   UNL d   1       4.885  -3.442  -0.129  0.00  0.00    -0.400 OA
ATOM     16  H   UNL d   1       5.263  -4.309  -0.358  0.00  0.00     0.209 HD
ENDBRANCH  14  15
ENDBRANCH  13  14
ENDBRANCH  11  13
ENDBRANCH   3  11
TORSDOF 4
