REMARK  9 active torsions:
REMARK  status: ('A' for Active; 'I' for Inactive)
REMARK    1  A    between atoms: N_2  and  C_1 
REMARK       I    between atoms: C_3  and  N_2 
REMARK       I    between atoms: N_10  and  C_3 
REMARK    2  A    between atoms: C_6  and  C_7 
REMARK    3  A    between atoms: C_8  and  C_19 
REMARK    4  A    between atoms: C_9  and  C_20 
REMARK    5  A    between atoms: C_17  and  N_10 
REMARK    6  A    between atoms: O_16  and  C_13 
REMARK    7  A    between atoms: C_19  and  O_16 
REMARK    8  A    between atoms: C_20  and  O_30 
REMARK    9  A    between atoms: O_30  and  C_29 
ROOT
ATOM      1  C   UNL d   1      -0.955  -0.424   0.368  0.00  0.00     0.686 C 
ATOM      2  N   UNL d   1       0.125  -1.023  -0.159  0.00  0.00    -0.191 N 
ATOM      3  HN  UNL d   1       0.029  -1.761  -0.857  1.00  0.00     0.184 HD
ATOM      4  C   UNL d   1       1.340  -0.620   0.263  0.00  0.00     0.063 C 
ATOM      5  N   UNL d   1      -0.918   0.503   1.334  0.00  0.00    -0.202 N 
ATOM      6  HN  UNL d   1      -1.766   0.837   1.792  1.00  0.00     0.183 HD
ATOM      7  C   UNL d   1       1.450   0.470   1.119  0.00  0.00     0.048 C 
ATOM      8  C   UNL d   1       0.291   0.965   1.664  0.00  0.00     0.108 C 
ENDROOT
BRANCH   4   9
ATOM      9  C   UNL d   1       2.532  -1.443  -0.101  0.00  0.00     0.027 A 
ATOM     10  C   UNL d   1       2.696  -2.313  -1.196  0.00  0.00     0.081 A 
ATOM     11  C   UNL d   1       3.868  -3.106  -1.299  0.00  0.00     0.040 A 
ATOM     12  C   UNL d   1       4.905  -3.039  -0.370  0.00  0.00     0.039 A 
ATOM     13  C   UNL d   1       4.782  -2.174   0.700  0.00  0.00     0.070 A 
ATOM     14  C   UNL d   1       3.609  -1.425   0.832  0.00  0.00     0.053 A 
BRANCH  10  15
ATOM     15  O   UNL d   1       1.815  -2.627  -2.194  0.00  0.00    -0.342 OA
BRANCH  15  16
ATOM     16  C   UNL d   1       1.063  -1.586  -2.822  0.00  0.00     0.293 C 
BRANCH  16  17
ATOM     17  C   UNL d   1       0.980  -1.777  -4.338  0.00  0.00     0.408 C 
ATOM     18  F   UNL d   1       1.542  -2.929  -4.763  0.00  0.00    -0.169 F 
ATOM     19  F   UNL d   1      -0.312  -1.786  -4.747  0.00  0.00    -0.169 F 
ATOM     20  F   UNL d   1       1.595  -0.761  -4.988  0.00  0.00    -0.169 F 
ENDBRANCH  16  17
ENDBRANCH  15  16
ENDBRANCH  10  15
BRANCH  13  21
ATOM     21  O   UNL d   1       5.674  -2.008   1.714  0.00  0.00    -0.342 OA
BRANCH  21  22
ATOM     22  C   UNL d   1       7.059  -2.151   1.387  0.00  0.00     0.293 C 
BRANCH  22  23
ATOM     23  C   UNL d   1       7.919  -1.218   2.245  0.00  0.00     0.408 C 
ATOM     24  F   UNL d   1       7.186  -0.477   3.108  0.00  0.00    -0.169 F 
ATOM     25  F   UNL d   1       8.818  -1.918   2.971  0.00  0.00    -0.169 F 
ATOM     26  F   UNL d   1       8.611  -0.356   1.464  0.00  0.00    -0.169 F 
ENDBRANCH  22  23
ENDBRANCH  21  22
ENDBRANCH  13  21
ENDBRANCH   4   9
BRANCH   1  27
ATOM     27  N   UNL d   1      -2.178  -0.737  -0.198  0.00  0.00    -0.141 N 
ATOM     28  C   UNL d   1      -3.428  -0.375   0.220  0.00  0.00     0.339 C 
ATOM     29  N   UNL d   1      -3.537  -0.009   1.537  0.00  0.00    -0.308 N 
ATOM     30  O   UNL d   1      -4.361  -0.497  -0.573  0.00  0.00    -0.246 OA
ATOM     31  H   UNL d   1      -2.654   0.043   2.033  0.00  0.00     0.170 HD
ATOM     32  H   UNL d   1      -2.136  -1.200  -1.091  0.00  0.00     0.189 HD
BRANCH  29  33
ATOM     33  C   UNL d   1      -4.695   0.277   2.282  0.00  0.00     0.037 A 
ATOM     34  C   UNL d   1      -5.970   0.399   1.728  0.00  0.00     0.053 A 
ATOM     35  C   UNL d   1      -7.061   0.692   2.549  0.00  0.00     0.036 A 
ATOM     36 CL   UNL d   1      -8.630   0.866   1.858  0.00  0.00    -0.084 Cl
ATOM     37  C   UNL d   1      -6.899   0.851   3.925  0.00  0.00     0.024 A 
ATOM     38  C   UNL d   1      -5.632   0.720   4.485  0.00  0.00     0.004 A 
ATOM     39  C   UNL d   1      -4.536   0.444   3.665  0.00  0.00     0.029 A 
ENDBRANCH  29  33
ENDBRANCH   1  27
TORSDOF 9
