REMARK  6 active torsions:
REMARK  status: ('A' for Active; 'I' for Inactive)
REMARK    1  A    between atoms: S_10  and  C_3 
REMARK    2  A    between atoms: C_11  and  C_4 
REMARK    3  A    between atoms: C_6  and  C_12 
REMARK    4  A    between atoms: C_12  and  S_10 
REMARK    5  A    between atoms: O_20  and  C_11 
REMARK    6  A    between atoms: O_21  and  C_11 
ROOT
ATOM      1  N   UNL d   1       1.164   0.632  -0.242  0.00  0.00    -0.336 N 
ATOM      2  HN  UNL d   1       2.079   1.078  -0.307  1.00  0.00     0.168 HD
ATOM      3  C   UNL d   1       0.039   1.354  -0.323  0.00  0.00     0.144 A 
ATOM      4  C   UNL d   1       1.054  -0.707  -0.071  0.00  0.00     0.067 A 
ATOM      5  N   UNL d   1      -1.199   0.836  -0.254  0.00  0.00    -0.347 N 
ATOM      6  HN  UNL d   1      -2.033   1.422  -0.309  1.00  0.00     0.167 HD
ATOM      7  C   UNL d   1      -0.180  -1.329  -0.018  0.00  0.00     0.047 A 
ATOM      8  C   UNL d   1      -1.276  -0.502  -0.106  0.00  0.00     0.092 A 
ENDROOT
BRANCH   3   9
ATOM      9  S   UNL d   1       0.277   3.098  -0.490  0.00  0.00    -0.089 SA
BRANCH   9  10
ATOM     10  C   UNL d   1      -1.431   3.686  -0.333  0.00  0.00     0.122 C 
BRANCH  10  11
ATOM     11  C   UNL d   1      -1.472   5.198  -0.378  0.00  0.00    -0.027 A 
ATOM     12  C   UNL d   1      -1.397   5.999   0.776  0.00  0.00     0.042 A 
ATOM     13  C   UNL d   1      -1.407   7.394   0.679  0.00  0.00     0.048 A 
ATOM     14 CL   UNL d   1      -1.280   5.316   2.359  0.00  0.00    -0.084 Cl
ATOM     15  C   UNL d   1      -1.481   8.000  -0.572  0.00  0.00     0.035 A 
ATOM     16  C   UNL d   1      -1.538   7.228  -1.728  0.00  0.00     0.024 A 
ATOM     17 CL   UNL d   1      -1.497   9.716  -0.690  0.00  0.00    -0.084 Cl
ATOM     18  C   UNL d   1      -1.531   5.836  -1.632  0.00  0.00     0.011 A 
ENDBRANCH  10  11
ENDBRANCH   9  10
ENDBRANCH   3   9
BRANCH   4  19
ATOM     19  C   UNL d   1       2.340  -1.514   0.092  0.00  0.00     0.309 C 
BRANCH  19  20
ATOM     20  O   UNL d   1       2.742  -1.937  -1.218  0.00  0.00    -0.360 OA
ATOM     21  C   UNL d   1       3.913  -2.740  -1.194  0.00  0.00     0.205 C 
ENDBRANCH  19  20
BRANCH  19  22
ATOM     22  O   UNL d   1       3.385  -0.760   0.719  0.00  0.00    -0.360 OA
ATOM     23  C   UNL d   1       3.099  -0.406   2.064  0.00  0.00     0.205 C 
ENDBRANCH  19  22
ENDBRANCH   4  19
TORSDOF 6
