REMARK  2 active torsions:
REMARK  status: ('A' for Active; 'I' for Inactive)
REMARK    1  A    between atoms: C_5  and  C_3 
REMARK    2  A    between atoms: C_18  and  C_6 
ROOT
ATOM      1  C   UNL d   1      -1.246  -4.605  -0.675  0.00  0.00     0.086 A 
ATOM      2  C   UNL d   1      -0.042  -2.641  -0.050  0.00  0.00     0.000 A 
ATOM      3  C   UNL d   1      -0.246  -5.433  -0.019  0.00  0.00     0.085 A 
ATOM      4  C   UNL d   1      -1.165  -3.200  -0.706  0.00  0.00     0.048 A 
ATOM      5  O   UNL d   1      -1.783  -6.699  -0.886  0.00  0.00    -0.156 OA
ATOM      6  N   UNL d   1      -2.177  -5.409  -1.201  0.00  0.00    -0.240 N 
ATOM      7  HN  UNL d   1      -3.007  -5.130  -1.725  1.00  0.00     0.197 HD
ATOM      8  N   UNL d   1      -0.602  -6.715  -0.162  0.00  0.00    -0.240 N 
ATOM      9  HN  UNL d   1      -0.107  -7.534   0.190  1.00  0.00     0.197 HD
ATOM     10  C   UNL d   1       0.939  -3.474   0.582  0.00  0.00     0.017 A 
ATOM     11  C   UNL d   1       0.873  -4.885   0.628  0.00  0.00     0.035 A 
ENDROOT
BRANCH   2  12
ATOM     12  C   UNL d   1       0.172  -1.180  -0.025  0.00  0.00     0.084 A 
ATOM     13  N   UNL d   1       1.358  -0.605   0.012  0.00  0.00    -0.352 N 
ATOM     14  C   UNL d   1       1.245   0.780   0.005  0.00  0.00     0.024 A 
ATOM     15  HN  UNL d   1       2.243  -1.112   0.041  1.00  0.00     0.166 HD
ATOM     16  C   UNL d   1      -0.063   1.233   0.008  0.00  0.00     0.077 A 
ATOM     17  S   UNL d   1      -1.154  -0.080   0.004  0.00  0.00    -0.081 SA
BRANCH  14  18
ATOM     18  C   UNL d   1       2.501   1.641  -0.017  0.00  0.00    -0.008 C 
ATOM     19  C   UNL d   1       3.778   0.776  -0.009  0.00  0.00     0.021 C 
ATOM     20  C   UNL d   1       2.520   2.510  -1.291  0.00  0.00     0.021 C 
ATOM     21  C   UNL d   1       2.540   2.562   1.218  0.00  0.00     0.021 C 
ENDBRANCH  14  18
ENDBRANCH   2  12
TORSDOF 2
