REMARK  1 active torsions:
REMARK  status: ('A' for Active; 'I' for Inactive)
REMARK    1  A    between atoms: C_9  and  N_2 
ROOT
ATOM      1  N   UNL d   1       3.156  -2.518   2.589  0.00  0.00    -0.196 NA
ATOM      2  C   UNL d   1       2.505  -2.057   0.077  0.00  0.00     0.268 C 
ATOM      3  C   UNL d   1       2.867  -2.308   1.484  0.00  0.00     0.080 C 
ENDROOT
BRANCH   2   4
ATOM      4  N   UNL d   1       1.290  -1.260  -0.062  0.00  0.00    -0.224 N 
ATOM      5  S   UNL d   1       1.417   0.408  -0.024  0.00  0.00     0.269 S 
ATOM      6  C   UNL d   1      -0.308   0.632  -0.011  0.00  0.00     0.095 A 
ATOM      7  O   UNL d   1       1.952   0.812   1.252  0.00  0.00    -0.200 OA
ATOM      8  O   UNL d   1       1.943   0.857  -1.289  0.00  0.00    -0.200 OA
ATOM      9  C   UNL d   1      -0.960  -0.595  -0.005  0.00  0.00     0.056 A 
ATOM     10  C   UNL d   1      -0.984   1.838  -0.009  0.00  0.00     0.026 A 
ATOM     11  C   UNL d   1      -2.345  -0.655   0.006  0.00  0.00     0.018 A 
ATOM     12  C   UNL d   1      -0.032  -1.742  -0.012  0.00  0.00     0.269 A 
ATOM     13  C   UNL d   1      -3.055   0.551   0.008  0.00  0.00     0.001 A 
ATOM     14  C   UNL d   1      -2.380   1.787   0.001  0.00  0.00     0.002 A 
ATOM     15  O   UNL d   1      -0.350  -2.914   0.014  0.00  0.00    -0.266 OA
ENDBRANCH   2   4
TORSDOF 1
