REMARK  2 active torsions:
REMARK  status: ('A' for Active; 'I' for Inactive)
REMARK    1  A    between atoms: C_5  and  C_2 
REMARK       I    between atoms: N_13  and  C_5 
REMARK    2  A    between atoms: C_17  and  N_13 
ROOT
ATOM      1  C   UNL d   1      -3.613  -1.438   0.555  0.00  0.00     0.256 C 
ATOM      2  N   UNL d   1      -3.505  -2.701  -0.017  0.00  0.00    -0.323 N 
ATOM      3  O   UNL d   1      -2.810  -0.943   1.337  0.00  0.00    -0.267 OA
ATOM      4  H   UNL d   1      -4.171  -2.971  -0.725  0.00  0.00     0.169 HD
ENDROOT
BRANCH   1   5
ATOM      5  C   UNL d   1      -4.777  -0.583   0.145  0.00  0.00     0.034 A 
ATOM      6  C   UNL d   1      -5.885  -1.095  -0.559  0.00  0.00     0.051 A 
ATOM      7  C   UNL d   1      -6.874  -0.140  -0.875  0.00  0.00     0.086 A 
ATOM      8  C   UNL d   1      -6.774   1.262  -0.495  0.00  0.00     0.085 A 
ATOM      9  N   UNL d   1      -8.024  -0.311  -1.538  0.00  0.00    -0.240 N 
ATOM     10  N   UNL d   1      -7.860   1.898  -0.940  0.00  0.00    -0.240 N 
ATOM     11  C   UNL d   1      -5.677   1.769   0.218  0.00  0.00     0.035 A 
ATOM     12  O   UNL d   1      -8.625   0.938  -1.578  0.00  0.00    -0.156 OA
ATOM     13  HN  UNL d   1      -8.081   2.888  -0.832  1.00  0.00     0.197 HD
ATOM     14  C   UNL d   1      -4.695   0.804   0.517  0.00  0.00     0.019 A 
ATOM     15  HN  UNL d   1      -8.384  -1.180  -1.932  1.00  0.00     0.197 HD
ENDBRANCH   1   5
BRANCH   2  16
ATOM     16  C   UNL d   1      -2.406  -3.583   0.138  0.00  0.00     0.037 A 
ATOM     17  C   UNL d   1      -1.381  -3.386   1.066  0.00  0.00     0.069 A 
ATOM     18  C   UNL d   1      -0.250  -4.201   1.054  0.00  0.00     0.104 A 
ATOM     19  O   UNL d   1       0.747  -3.876   1.939  0.00  0.00    -0.346 OA
ATOM     20  C   UNL d   1      -0.154  -5.266   0.160  0.00  0.00     0.102 A 
ATOM     21  C   UNL d   1       2.001  -4.390   1.485  0.00  0.00     0.202 C 
ATOM     22  C   UNL d   1       1.869  -5.865   1.145  0.00  0.00     0.202 C 
ATOM     23  O   UNL d   1       0.944  -6.081   0.070  0.00  0.00    -0.346 OA
ATOM     24  C   UNL d   1      -1.201  -5.516  -0.724  0.00  0.00     0.042 A 
ATOM     25  C   UNL d   1      -2.325  -4.681  -0.732  0.00  0.00     0.032 A 
ENDBRANCH   2  16
TORSDOF 2
