REMARK  7 active torsions:
REMARK  status: ('A' for Active; 'I' for Inactive)
REMARK    1  A    between atoms: N_3  and  C_1 
REMARK    2  A    between atoms: S_2  and  C_10 
REMARK    3  A    between atoms: C_4  and  S_2 
REMARK    4  A    between atoms: N_7  and  C_5 
REMARK    5  A    between atoms: C_6  and  C_11 
REMARK    6  A    between atoms: C_10  and  C_23 
REMARK    7  A    between atoms: C_23  and  N_12 
ROOT
ATOM      1  N   UNL d   1       1.078  -2.555  -0.342  0.00  0.00    -0.376 N 
ATOM      2  N   UNL d   1       2.048  -5.273  -1.011  0.00  0.00     0.092 N 
ATOM      3  C   UNL d   1       1.895  -3.297   0.642  0.00  0.00     0.153 C 
ATOM      4  C   UNL d   1       0.277  -3.448  -1.204  0.00  0.00     0.153 C 
ATOM      5  C   UNL d   1       1.230  -4.430  -1.923  0.00  0.00     0.292 C 
ATOM      6  C   UNL d   1       2.771  -4.357  -0.085  0.00  0.00     0.292 C 
ENDROOT
BRANCH   1   7
ATOM      7  C   UNL d   1       0.562  -1.297  -0.046  0.00  0.00     0.063 A 
ATOM      8  C   UNL d   1       0.256  -0.326  -1.026  0.00  0.00     0.130 A 
ATOM      9  C   UNL d   1      -0.274   0.941  -0.715  0.00  0.00     0.054 A 
ATOM     10  C   UNL d   1      -0.506   1.294   0.617  0.00  0.00     0.050 A 
ATOM     11  C   UNL d   1      -0.195   0.359   1.612  0.00  0.00     0.018 A 
ATOM     12  C   UNL d   1       0.329  -0.903   1.283  0.00  0.00     0.032 A 
BRANCH   8  13
ATOM     13  N   UNL d   1       0.526  -0.563  -2.436  0.00  0.00    -0.113 N 
ATOM     14  O   UNL d   1       1.697  -0.779  -2.777  0.00  0.00    -0.532 OA
ATOM     15  O   UNL d   1      -0.441  -0.490  -3.208  0.00  0.00    -0.532 OA
ENDBRANCH   8  13
BRANCH  10  16
ATOM     16  C   UNL d   1      -1.072   2.645   0.981  0.00  0.00     0.417 C 
ATOM     17  F   UNL d   1      -1.288   3.447  -0.098  0.00  0.00    -0.166 F 
ATOM     18  F   UNL d   1      -2.267   2.550   1.624  0.00  0.00    -0.166 F 
ATOM     19  F   UNL d   1      -0.251   3.345   1.809  0.00  0.00    -0.166 F 
ENDBRANCH  10  16
ENDBRANCH   1   7
BRANCH   2  20
ATOM     20  C   UNL d   1       1.258  -6.280  -0.271  0.00  0.00     0.287 C 
BRANCH  20  21
ATOM     21  C   UNL d   1       0.614  -7.311  -1.199  0.00  0.00     0.176 C 
BRANCH  21  22
ATOM     22  S   UNL d   1      -0.366  -8.471  -0.277  0.00  0.00     0.178 S 
ATOM     23  O   UNL d   1       0.556  -9.277   0.504  0.00  0.00    -0.223 OA
ATOM     24  O   UNL d   1      -1.448  -7.766   0.384  0.00  0.00    -0.223 OA
BRANCH  22  25
ATOM     25  C   UNL d   1      -1.110  -9.553  -1.485  0.00  0.00     0.081 A 
ATOM     26  C   UNL d   1      -2.023  -9.093  -2.441  0.00  0.00     0.057 A 
ATOM     27  C   UNL d   1      -2.603 -10.002  -3.337  0.00  0.00     0.049 A 
ATOM     28 CL   UNL d   1      -2.528  -7.450  -2.600  0.00  0.00    -0.083 Cl
ATOM     29  C   UNL d   1      -2.294 -11.358  -3.264  0.00  0.00     0.035 A 
ATOM     30  C   UNL d   1      -1.398 -11.823  -2.307  0.00  0.00     0.025 A 
ATOM     31 CL   UNL d   1      -3.037 -12.464  -4.351  0.00  0.00    -0.084 Cl
ATOM     32  C   UNL d   1      -0.803 -10.922  -1.419  0.00  0.00     0.027 A 
ENDBRANCH  22  25
ENDBRANCH  21  22
ENDBRANCH  20  21
ENDBRANCH   2  20
TORSDOF 7
