REMARK  4 active torsions:
REMARK  status: ('A' for Active; 'I' for Inactive)
REMARK    1  A    between atoms: C_8  and  C_1 
REMARK    2  A    between atoms: N_7  and  C_2 
REMARK    3  A    between atoms: C_11  and  C_3 
REMARK       I    between atoms: C_9  and  N_7 
REMARK    4  A    between atoms: C_10  and  C_9 
ROOT
ATOM      1  C   UNL d   1       1.546   0.750  -0.066  0.00  0.00     0.147 A 
ATOM      2  C   UNL d   1       0.157  -0.989   0.145  0.00  0.00     0.138 A 
ATOM      3  C   UNL d   1       1.508  -0.678   0.077  0.00  0.00     0.053 A 
ATOM      4  N   UNL d   1       0.296   1.261  -0.059  0.00  0.00    -0.292 N 
ATOM      5  HN  UNL d   1       0.029   2.243  -0.132  1.00  0.00     0.187 HD
ATOM      6  N   UNL d   1      -0.521   0.201   0.063  0.00  0.00    -0.280 N 
ATOM      7  C   UNL d   1      -1.927   0.452   0.276  0.00  0.00     0.179 C 
ENDROOT
BRANCH   2   8
ATOM      8  N   UNL d   1      -0.318  -2.292   0.302  0.00  0.00    -0.307 N 
ATOM      9  C   UNL d   1      -1.424  -2.801  -0.457  0.00  0.00     0.258 C 
ATOM     10  O   UNL d   1      -2.096  -2.049  -1.138  0.00  0.00    -0.267 OA
ATOM     11  H   UNL d   1       0.319  -2.931   0.758  0.00  0.00     0.170 HD
BRANCH   9  12
ATOM     12  C   UNL d   1      -1.611  -4.270  -0.458  0.00  0.00     0.047 A 
ATOM     13  C   UNL d   1      -2.418  -4.828  -1.441  0.00  0.00     0.104 A 
ATOM     14  N   UNL d   1      -2.628  -6.160  -1.572  0.00  0.00    -0.374 N 
ATOM     15  C   UNL d   1      -2.015  -6.975  -0.688  0.00  0.00     0.087 A 
ATOM     16  HN  UNL d   1      -3.227  -6.532  -2.309  1.00  0.00     0.164 HD
ATOM     17  C   UNL d   1      -1.194  -6.513   0.327  0.00  0.00     0.018 A 
ATOM     18  C   UNL d   1      -0.990  -5.138   0.447  0.00  0.00     0.020 A 
ENDBRANCH   9  12
ENDBRANCH   2   8
BRANCH   3  19
ATOM     19  C   UNL d   1       2.576  -1.673   0.089  0.00  0.00    -0.020 A 
ATOM     20  C   UNL d   1       2.470  -2.845  -0.684  0.00  0.00     0.014 A 
ATOM     21  C   UNL d   1       3.455  -3.834  -0.631  0.00  0.00     0.020 A 
ATOM     22  C   UNL d   1       4.585  -3.637   0.155  0.00  0.00     0.011 A 
ATOM     23  C   UNL d   1       4.728  -2.466   0.896  0.00  0.00     0.020 A 
ATOM     24 BR   UNL d   1       5.930  -4.961   0.209  0.00  0.00    -0.051 Br
ATOM     25  C   UNL d   1       3.720  -1.494   0.876  0.00  0.00     0.014 A 
ENDBRANCH   3  19
BRANCH   1  26
ATOM     26  C   UNL d   1       2.751   1.651  -0.197  0.00  0.00     0.434 C 
ATOM     27  F   UNL d   1       3.871   0.977  -0.569  0.00  0.00    -0.165 F 
ATOM     28  F   UNL d   1       2.576   2.632  -1.119  0.00  0.00    -0.165 F 
ATOM     29  F   UNL d   1       3.045   2.256   0.983  0.00  0.00    -0.165 F 
ENDBRANCH   1  26
TORSDOF 4
