REMARK  8 active torsions:
REMARK  status: ('A' for Active; 'I' for Inactive)
REMARK    1  A    between atoms: N_3  and  S_1 
REMARK    2  A    between atoms: C_10  and  S_1 
REMARK    3  A    between atoms: C_7  and  C_2 
REMARK    4  A    between atoms: C_6  and  N_3 
REMARK    5  A    between atoms: C_5  and  O_11 
REMARK    6  A    between atoms: C_12  and  C_5 
REMARK    7  A    between atoms: C_14  and  C_7 
REMARK    8  A    between atoms: O_11  and  C_23 
ROOT
ATOM      1  C   UNL d   1       0.351   3.113   2.231  0.00  0.00     0.111 C 
ATOM      2  C   UNL d   1       0.894   1.973   1.745  0.00  0.00     0.124 C 
ATOM      3  C   UNL d   1       0.573   3.588   3.573  0.00  0.00     0.105 C 
ATOM      4  N   UNL d   1       0.701   3.995   4.660  0.00  0.00    -0.191 NA
ENDROOT
BRANCH   1   5
ATOM      5  C   UNL d   1      -0.526   3.856   1.260  0.00  0.00     0.204 C 
ATOM      6  O   UNL d   1      -0.411   3.730   0.043  0.00  0.00    -0.286 OA
BRANCH   5   7
ATOM      7  C   UNL d   1      -1.588   4.763   1.778  0.00  0.00     0.016 A 
ATOM      8  C   UNL d   1      -1.921   5.905   1.032  0.00  0.00     0.017 A 
ATOM      9  C   UNL d   1      -2.908   6.783   1.494  0.00  0.00     0.025 A 
ATOM     10  C   UNL d   1      -3.566   6.520   2.694  0.00  0.00     0.034 A 
ATOM     11  C   UNL d   1      -3.263   5.375   3.425  0.00  0.00     0.025 A 
ATOM     12 CL   UNL d   1      -4.772   7.603   3.268  0.00  0.00    -0.084 Cl
ATOM     13  C   UNL d   1      -2.291   4.486   2.958  0.00  0.00     0.017 A 
ENDBRANCH   5   7
ENDBRANCH   1   5
BRANCH   2  14
ATOM     14  N   UNL d   1       1.646   1.129   2.625  0.00  0.00    -0.322 N 
ATOM     15  HN  UNL d   1       1.790   1.430   3.589  1.00  0.00     0.175 HD
BRANCH  14  16
ATOM     16  S   UNL d   1       2.249  -0.221   2.170  0.00  0.00     0.052 S 
ATOM     17  O   UNL d   1       3.121  -0.381   1.023  0.00  0.00    -0.245 OA
ATOM     18  C   UNL d   1       0.910  -1.378   1.974  0.00  0.00     0.142 C 
BRANCH  16  19
ATOM     19  C   UNL d   1       3.105  -0.887   3.594  0.00  0.00     0.038 A 
ATOM     20  C   UNL d   1       2.632  -0.584   4.875  0.00  0.00     0.024 A 
ATOM     21  C   UNL d   1       3.250  -1.138   5.998  0.00  0.00     0.039 A 
ATOM     22  C   UNL d   1       4.332  -2.000   5.837  0.00  0.00     0.079 A 
ATOM     23  C   UNL d   1       4.829  -2.276   4.556  0.00  0.00     0.039 A 
ATOM     24  C   UNL d   1       4.218  -1.715   3.428  0.00  0.00     0.024 A 
BRANCH  22  25
ATOM     25  O   UNL d   1       4.993  -2.662   6.905  0.00  0.00    -0.275 OA
BRANCH  25  26
ATOM     26  C   UNL d   1       4.602  -2.628   8.241  0.00  0.00     0.298 C 
ATOM     27  O   UNL d   1       3.680  -1.993   8.727  0.00  0.00    -0.259 OA
BRANCH  26  28
ATOM     28  C   UNL d   1       5.474  -3.513   9.065  0.00  0.00     0.040 A 
ATOM     29  C   UNL d   1       5.222  -3.578  10.447  0.00  0.00     0.019 A 
ATOM     30  C   UNL d   1       6.015  -4.375  11.278  0.00  0.00     0.025 A 
ATOM     31  C   UNL d   1       7.061  -5.113  10.731  0.00  0.00     0.034 A 
ATOM     32  C   UNL d   1       7.311  -5.071   9.360  0.00  0.00     0.025 A 
ATOM     33 CL   UNL d   1       8.054  -6.075  11.754  0.00  0.00    -0.084 Cl
ATOM     34  C   UNL d   1       6.519  -4.273   8.525  0.00  0.00     0.019 A 
ENDBRANCH  26  28
ENDBRANCH  25  26
ENDBRANCH  22  25
ENDBRANCH  16  19
ENDBRANCH  14  16
ENDBRANCH   2  14
TORSDOF 8
