REMARK  5 active torsions:
REMARK  status: ('A' for Active; 'I' for Inactive)
REMARK    1  A    between atoms: S_7  and  C_1 
REMARK    2  A    between atoms: C_9  and  N_2 
REMARK    3  A    between atoms: C_11  and  S_7 
REMARK    4  A    between atoms: C_8  and  C_11 
REMARK    5  A    between atoms: O_12  and  C_8 
ROOT
ATOM      1  C   UNL d   1       2.469   0.061  -0.022  0.00  0.00     0.148 A 
ATOM      2  N   UNL d   1       1.708  -1.086  -0.028  0.00  0.00    -0.321 N 
ATOM      3  N   UNL d   1       1.735   1.148   0.032  0.00  0.00    -0.335 N 
ATOM      4  HN  UNL d   1       2.061   2.114   0.057  1.00  0.00     0.168 HD
ATOM      5  C   UNL d   1       0.380  -0.684   0.030  0.00  0.00     0.063 A 
ATOM      6  C   UNL d   1       0.435   0.705   0.045  0.00  0.00     0.061 A 
ATOM      7  C   UNL d   1      -0.836  -1.386   0.056  0.00  0.00     0.032 A 
ATOM      8  C   UNL d   1      -0.760   1.443   0.063  0.00  0.00     0.032 A 
ATOM      9  C   UNL d   1      -2.015  -0.635   0.074  0.00  0.00     0.002 A 
ATOM     10  C   UNL d   1      -1.980   0.758   0.070  0.00  0.00     0.002 A 
ENDROOT
BRANCH   1  11
ATOM     11  S   UNL d   1       4.194   0.074  -0.167  0.00  0.00    -0.083 SA
BRANCH  11  12
ATOM     12  C   UNL d   1       4.636   1.591   0.721  0.00  0.00     0.192 C 
BRANCH  12  13
ATOM     13  C   UNL d   1       6.143   1.745   0.704  0.00  0.00     0.149 C 
ATOM     14  O   UNL d   1       6.832   1.875   1.706  0.00  0.00    -0.649 OA
BRANCH  13  15
ATOM     15  O   UNL d   1       6.679   1.762  -0.543  0.00  0.00    -0.776 OA
ATOM     16  H   UNL d   1       6.009   1.591  -1.235  0.00  0.00     0.167 HD
ENDBRANCH  13  15
ENDBRANCH  12  13
ENDBRANCH  11  12
ENDBRANCH   1  11
BRANCH   2  17
ATOM     17  C   UNL d   1       2.138  -2.481  -0.097  0.00  0.00     0.084 C 
ATOM     18  C   UNL d   1       2.857  -2.830  -1.403  0.00  0.00     0.032 C 
ATOM     19  C   UNL d   1       2.909  -2.934   1.143  0.00  0.00     0.032 C 
ENDBRANCH   2  17
TORSDOF 5
