REMARK  9 active torsions:
REMARK  status: ('A' for Active; 'I' for Inactive)
REMARK    1  A    between atoms: C_2  and  N_1 
REMARK    2  A    between atoms: C_3  and  C_5 
REMARK    3  A    between atoms: N_14  and  C_6 
REMARK    4  A    between atoms: C_16  and  N_14 
REMARK    5  A    between atoms: O_15  and  C_17 
REMARK    6  A    between atoms: C_18  and  C_16 
REMARK    7  A    between atoms: C_17  and  C_19 
REMARK    8  A    between atoms: C_20  and  C_18 
REMARK    9  A    between atoms: C_19  and  C_20 
ROOT
ATOM      1  C   UNL d   1      -1.109   2.453  -1.284  0.00  0.00     0.124 A 
ATOM      2  C   UNL d   1      -0.701   2.339  -2.631  0.00  0.00     0.054 A 
ATOM      3  C   UNL d   1       0.216   1.350  -3.002  0.00  0.00     0.050 A 
ATOM      4  C   UNL d   1      -0.613   1.615  -0.265  0.00  0.00     0.041 A 
ATOM      5  C   UNL d   1       0.688   0.478  -2.018  0.00  0.00     0.018 A 
ATOM      6  C   UNL d   1       0.264   0.599  -0.688  0.00  0.00     0.027 A 
ENDROOT
BRANCH   4   7
ATOM      7  N   UNL d   1      -1.078   1.667   1.071  0.00  0.00    -0.291 NA
ATOM      8  H   UNL d   1      -1.405   2.609   1.315  0.00  0.00     0.127 HD
BRANCH   7   9
ATOM      9  C   UNL d   1      -0.187   1.129   2.100  0.00  0.00     0.092 C 
BRANCH   9  10
ATOM     10  C   UNL d   1      -0.766   1.280   3.505  0.00  0.00     0.015 C 
BRANCH  10  11
ATOM     11  C   UNL d   1       0.246   0.714   4.507  0.00  0.00     0.003 C 
BRANCH  11  12
ATOM     12  C   UNL d   1      -0.227   0.790   5.957  0.00  0.00     0.026 C 
BRANCH  12  13
ATOM     13  C   UNL d   1       0.823   0.227   6.912  0.00  0.00     0.164 C 
BRANCH  13  14
ATOM     14  O   UNL d   1       2.021   0.986   6.814  0.00  0.00    -0.401 OA
ATOM     15  H   UNL d   1       2.663   0.591   7.428  0.00  0.00     0.209 HD
ENDBRANCH  13  14
ENDBRANCH  12  13
ENDBRANCH  11  12
ENDBRANCH  10  11
ENDBRANCH   9  10
ENDBRANCH   7   9
ENDBRANCH   4   7
BRANCH   1  16
ATOM     16  N   UNL d   1      -2.053   3.517  -0.974  0.00  0.00    -0.114 N 
ATOM     17  O   UNL d   1      -3.018   3.665  -1.736  0.00  0.00    -0.532 OA
ATOM     18  O   UNL d   1      -1.809   4.228   0.015  0.00  0.00    -0.532 OA
ENDBRANCH   1  16
BRANCH   3  19
ATOM     19  C   UNL d   1       0.695   1.196  -4.425  0.00  0.00     0.417 C 
ATOM     20  F   UNL d   1       0.156   2.107  -5.280  0.00  0.00    -0.166 F 
ATOM     21  F   UNL d   1       2.045   1.333  -4.532  0.00  0.00    -0.166 F 
ATOM     22  F   UNL d   1       0.400  -0.029  -4.942  0.00  0.00    -0.166 F 
ENDBRANCH   3  19
TORSDOF 9
