REMARK  4 active torsions:
REMARK  status: ('A' for Active; 'I' for Inactive)
REMARK    1  A    between atoms: C_7  and  C_1 
REMARK    2  A    between atoms: N_2  and  C_6 
REMARK    3  A    between atoms: S_14  and  C_3 
REMARK    4  A    between atoms: S_15  and  C_3 
ROOT
ATOM      1  C   UNL d   1       1.034  -0.094  -0.024  0.00  0.00     0.078 C 
ATOM      2  C   UNL d   1       0.327   1.062  -0.128  0.00  0.00     0.057 C 
ATOM      3  C   UNL d   1       0.397  -1.376   0.080  0.00  0.00     0.102 C 
ATOM      4  N   UNL d   1      -0.085  -2.428   0.153  0.00  0.00    -0.191 NA
ENDROOT
BRANCH   1   5
ATOM      5  C   UNL d   1       2.517  -0.121  -0.033  0.00  0.00    -0.013 A 
ATOM      6  C   UNL d   1       3.237   0.036   1.162  0.00  0.00     0.015 A 
ATOM      7  C   UNL d   1       4.636   0.041   1.153  0.00  0.00     0.037 A 
ATOM      8  C   UNL d   1       5.319  -0.114  -0.060  0.00  0.00     0.102 A 
ATOM      9  C   UNL d   1       4.612  -0.287  -1.258  0.00  0.00     0.037 A 
ATOM     10  C   UNL d   1       3.214  -0.293  -1.240  0.00  0.00     0.015 A 
BRANCH   8  11
ATOM     11  N   UNL d   1       6.788  -0.087  -0.079  0.00  0.00    -0.116 N 
ATOM     12  O   UNL d   1       7.352  -0.225  -1.174  0.00  0.00    -0.532 OA
ATOM     13  O   UNL d   1       7.375   0.077   0.999  0.00  0.00    -0.532 OA
ENDBRANCH   8  11
ENDBRANCH   1   5
BRANCH   2  14
ATOM     14  S   UNL d   1      -1.438   1.041  -0.119  0.00  0.00    -0.126 SA
ATOM     15  C   UNL d   1      -1.876   2.591   0.704  0.00  0.00     0.096 C 
ENDBRANCH   2  14
BRANCH   2  16
ATOM     16  S   UNL d   1       1.136   2.615  -0.332  0.00  0.00    -0.126 SA
ATOM     17  C   UNL d   1       0.951   2.820  -2.122  0.00  0.00     0.096 C 
ENDBRANCH   2  16
TORSDOF 4
