REMARK  3 active torsions:
REMARK  status: ('A' for Active; 'I' for Inactive)
REMARK    1  A    between atoms: O_17  and  C_12 
REMARK    2  A    between atoms: C_21  and  C_16 
REMARK    3  A    between atoms: C_18  and  O_17 
ROOT
ATOM      1  C   UNL d   1      -2.323  -0.344  -0.006  0.00  0.00     0.071 A 
ATOM      2  C   UNL d   1      -3.743  -0.193   0.033  0.00  0.00     0.091 C 
ATOM      3  N   UNL d   1      -4.591  -0.993   0.660  0.00  0.00    -0.349 N 
ATOM      4  HN  UNL d   1      -4.327  -1.855   1.137  1.00  0.00     0.166 HD
ATOM      5  C   UNL d   1      -1.401   0.819   0.009  0.00  0.00     0.199 A 
ATOM      6  C   UNL d   1       0.038   0.520  -0.034  0.00  0.00     0.050 A 
ATOM      7  S   UNL d   1      -4.523   1.088  -0.840  0.00  0.00    -0.069 SA
ATOM      8  C   UNL d   1      -1.765  -1.565   0.009  0.00  0.00     0.161 A 
ATOM      9  C   UNL d   1       0.463  -0.801  -0.033  0.00  0.00     0.091 A 
ATOM     10  O   UNL d   1      -0.416  -1.854  -0.004  0.00  0.00    -0.321 OA
ATOM     11  C   UNL d   1       0.967   1.565  -0.044  0.00  0.00     0.028 A 
ATOM     12  C   UNL d   1       2.767  -0.043  -0.056  0.00  0.00     0.088 A 
ATOM     13  C   UNL d   1       1.831  -1.088  -0.046  0.00  0.00     0.076 A 
ATOM     14  C   UNL d   1      -5.888  -0.502   0.582  0.00  0.00     0.050 A 
ATOM     15  C   UNL d   1      -6.042   0.652  -0.182  0.00  0.00     0.033 A 
ATOM     16  C   UNL d   1       2.346   1.303  -0.060  0.00  0.00    -0.023 A 
ATOM     17  O   UNL d   1      -1.774   1.982   0.083  0.00  0.00    -0.286 OA
ATOM     18  C   UNL d   1      -7.027  -1.055   1.203  0.00  0.00     0.031 A 
ATOM     19  C   UNL d   1      -7.286   1.287  -0.337  0.00  0.00     0.021 A 
ATOM     20  C   UNL d   1      -8.397   0.728   0.299  0.00  0.00     0.002 A 
ATOM     21  C   UNL d   1      -8.272  -0.432   1.057  0.00  0.00     0.002 A 
ENDROOT
BRANCH  16  22
ATOM     22  C   UNL d   1       3.299   2.478  -0.011  0.00  0.00     0.037 C 
ATOM     23  C   UNL d   1       3.132   3.455  -1.171  0.00  0.00     0.010 C 
ENDBRANCH  16  22
BRANCH  12  24
ATOM     24  O   UNL d   1       4.174  -0.271  -0.052  0.00  0.00    -0.279 OA
BRANCH  24  25
ATOM     25  C   UNL d   1       4.835  -1.504  -0.019  0.00  0.00     0.260 C 
ATOM     26  O   UNL d   1       4.318  -2.612   0.006  0.00  0.00    -0.265 OA
ATOM     27  C   UNL d   1       6.321  -1.290  -0.023  0.00  0.00     0.126 C 
ENDBRANCH  24  25
ENDBRANCH  12  24
TORSDOF 3
