REMARK  4 active torsions:
REMARK  status: ('A' for Active; 'I' for Inactive)
REMARK    1  A    between atoms: C_5  and  C_1 
REMARK    2  A    between atoms: S_15  and  C_6 
REMARK    3  A    between atoms: C_11  and  C_19 
REMARK    4  A    between atoms: C_19  and  S_15 
ROOT
ATOM      1  C   UNL d   1       0.445  -4.987  -2.857  0.00  0.00     0.207 A 
ATOM      2  N   UNL d   1       0.094  -4.798  -1.544  0.00  0.00    -0.317 N 
ATOM      3  N   UNL d   1       0.293  -3.843  -3.503  0.00  0.00    -0.280 N 
ATOM      4  HN  UNL d   1       0.465  -3.690  -4.496  1.00  0.00     0.188 HD
ATOM      5  C   UNL d   1      -0.230  -3.484  -1.435  0.00  0.00     0.161 A 
ATOM      6  N   UNL d   1      -0.137  -2.894  -2.599  0.00  0.00    -0.278 N 
ATOM      7  HN  UNL d   1      -0.343  -1.915  -2.801  1.00  0.00     0.189 HD
ATOM      8  H   UNL d   1       0.053  -5.483  -0.801  0.00  0.00     0.169 HD
ENDROOT
BRANCH   5   9
ATOM      9  S   UNL d   1      -0.683  -2.801   0.072  0.00  0.00    -0.086 SA
BRANCH   9  10
ATOM     10  C   UNL d   1      -2.487  -2.945  -0.049  0.00  0.00     0.140 C 
BRANCH  10  11
ATOM     11  C   UNL d   1      -3.001  -4.358  -0.065  0.00  0.00     0.026 A 
ATOM     12  N   UNL d   1      -2.248  -5.400   0.477  0.00  0.00    -0.356 N 
ATOM     13  C   UNL d   1      -2.925  -6.528   0.423  0.00  0.00     0.047 A 
ATOM     14  HN  UNL d   1      -1.308  -5.302   0.860  1.00  0.00     0.166 HD
ATOM     15  C   UNL d   1      -2.439  -7.827   0.964  0.00  0.00     0.076 C 
ATOM     16  S   UNL d   1      -4.460  -6.432  -0.338  0.00  0.00    -0.087 SA
ATOM     17  C   UNL d   1      -4.227  -4.752  -0.572  0.00  0.00     0.077 A 
ENDBRANCH  10  11
ENDBRANCH   9  10
ENDBRANCH   5   9
BRANCH   1  18
ATOM     18  C   UNL d   1       0.913  -6.292  -3.371  0.00  0.00     0.450 C 
ATOM     19  F   UNL d   1       0.837  -7.257  -2.412  0.00  0.00    -0.163 F 
ATOM     20  F   UNL d   1       0.179  -6.737  -4.422  0.00  0.00    -0.163 F 
ATOM     21  F   UNL d   1       2.209  -6.256  -3.772  0.00  0.00    -0.163 F 
ENDBRANCH   1  18
TORSDOF 4
