REMARK  5 active torsions:
REMARK  status: ('A' for Active; 'I' for Inactive)
REMARK    1  A    between atoms: C_2  and  S_1 
REMARK    2  A    between atoms: C_6  and  S_1 
REMARK    3  A    between atoms: N_7  and  C_3 
REMARK    4  A    between atoms: C_10  and  N_7 
REMARK    5  A    between atoms: O_18  and  C_11 
ROOT
ATOM      1  C   UNL d   1       0.372  -0.033   1.434  0.00  0.00     0.154 C 
ATOM      2  C   UNL d   1      -0.533   0.921   1.732  0.00  0.00     0.097 C 
ATOM      3  C   UNL d   1       1.062  -0.097   0.207  0.00  0.00     0.113 C 
ATOM      4  N   UNL d   1       1.676  -0.172  -0.774  0.00  0.00    -0.191 NA
ENDROOT
BRANCH   1   5
ATOM      5  S   UNL d   1       0.695  -1.256   2.623  0.00  0.00     0.217 S 
ATOM      6  O   UNL d   1      -0.100  -2.428   2.301  0.00  0.00    -0.216 OA
ATOM      7  O   UNL d   1       0.623  -0.677   3.954  0.00  0.00    -0.216 OA
BRANCH   5   8
ATOM      8  C   UNL d   1       2.413  -1.705   2.402  0.00  0.00     0.065 A 
ATOM      9  C   UNL d   1       3.406  -0.742   2.619  0.00  0.00     0.025 A 
ATOM     10  C   UNL d   1       4.748  -1.085   2.434  0.00  0.00     0.025 A 
ATOM     11  C   UNL d   1       5.090  -2.385   2.058  0.00  0.00     0.034 A 
ATOM     12  C   UNL d   1       4.101  -3.351   1.871  0.00  0.00     0.025 A 
ATOM     13 CL   UNL d   1       6.744  -2.799   1.828  0.00  0.00    -0.084 Cl
ATOM     14  C   UNL d   1       2.755  -3.015   2.045  0.00  0.00     0.025 A 
ENDBRANCH   5   8
ENDBRANCH   1   5
BRANCH   2  15
ATOM     15  N   UNL d   1      -0.966   2.012   0.993  0.00  0.00    -0.265 NA
ATOM     16  H   UNL d   1      -1.364   2.736   1.597  0.00  0.00     0.133 HD
BRANCH  15  17
ATOM     17  C   UNL d   1      -1.828   1.941  -0.148  0.00  0.00     0.045 A 
ATOM     18  C   UNL d   1      -2.186   3.091  -0.889  0.00  0.00     0.089 A 
ATOM     19  C   UNL d   1      -3.087   2.974  -1.963  0.00  0.00     0.038 A 
ATOM     20  C   UNL d   1      -3.633   1.746  -2.327  0.00  0.00     0.003 A 
ATOM     21  C   UNL d   1      -3.276   0.610  -1.620  0.00  0.00     0.002 A 
ATOM     22  C   UNL d   1      -2.381   0.705  -0.549  0.00  0.00     0.026 A 
BRANCH  18  23
ATOM     23  O   UNL d   1      -1.812   4.397  -0.717  0.00  0.00    -0.354 OA
ATOM     24  C   UNL d   1      -0.745   4.753   0.139  0.00  0.00     0.210 C 
ENDBRANCH  18  23
ENDBRANCH  15  17
ENDBRANCH   2  15
TORSDOF 5
