REMARK  0 active torsions:
REMARK  status: ('A' for Active; 'I' for Inactive)
ROOT
ATOM      1  C   UNL d   1       0.144   0.671   0.001  0.00  0.00     0.059 A 
ATOM      2  C   UNL d   1      -0.174  -0.640  -0.002  0.00  0.00     0.004 A 
ATOM      3  S   UNL d   1      -1.162   1.706   0.005  0.00  0.00    -0.074 SA
ATOM      4  S   UNL d   1       1.779   0.993   0.001  0.00  0.00    -0.074 SA
ATOM      5  C   UNL d   1      -2.217   0.364   0.002  0.00  0.00     0.059 A 
ATOM      6  C   UNL d   1       2.103  -0.683  -0.001  0.00  0.00     0.059 A 
ATOM      7  C   UNL d   1      -1.583  -0.880  -0.005  0.00  0.00    -0.025 A 
ATOM      8  C   UNL d   1       0.969  -1.499   0.000  0.00  0.00    -0.025 A 
ATOM      9 BR   UNL d   1      -4.085   0.618   0.008  0.00  0.00    -0.042 Br
ATOM     10 BR   UNL d   1       3.879  -1.314  -0.002  0.00  0.00    -0.042 Br
ATOM     11  C   UNL d   1      -2.344  -2.164  -0.013  0.00  0.00     0.050 C 
ATOM     12  C   UNL d   1       1.056  -2.989   0.004  0.00  0.00     0.050 C 
ENDROOT
TORSDOF 0
