REMARK  9 active torsions:
REMARK  status: ('A' for Active; 'I' for Inactive)
REMARK    1  A    between atoms: N_2  and  S_1 
REMARK    2  A    between atoms: C_3  and  S_1 
REMARK    3  A    between atoms: C_5  and  N_2 
REMARK    4  A    between atoms: C_17  and  N_2 
REMARK    5  A    between atoms: C_6  and  C_4 
REMARK       I    between atoms: N_9  and  C_6 
REMARK    6  A    between atoms: C_14  and  N_9 
REMARK    7  A    between atoms: C_11  and  C_14 
REMARK    8  A    between atoms: O_21  and  C_11 
REMARK    9  A    between atoms: C_15  and  C_17 
ROOT
ATOM      1  C   UNL d   1      -1.853   0.868   1.798  0.00  0.00     0.059 A 
ATOM      2  C   UNL d   1      -0.469   0.767   2.029  0.00  0.00     0.061 A 
ATOM      3  C   UNL d   1      -2.586   1.878   2.453  0.00  0.00     0.019 A 
ATOM      4  C   UNL d   1       0.149   1.676   2.902  0.00  0.00     0.031 A 
ATOM      5  C   UNL d   1      -1.955   2.773   3.320  0.00  0.00     0.001 A 
ATOM      6  C   UNL d   1      -0.588   2.670   3.546  0.00  0.00     0.002 A 
ENDROOT
BRANCH   2   7
ATOM      7  N   UNL d   1       0.376  -0.246   1.465  0.00  0.00    -0.267 N 
BRANCH   7   8
ATOM      8  S   UNL d   1       1.183   0.044   0.012  0.00  0.00     0.267 S 
ATOM      9  O   UNL d   1       2.549  -0.421   0.169  0.00  0.00    -0.200 OA
ATOM     10  O   UNL d   1       0.953   1.409  -0.410  0.00  0.00    -0.200 OA
BRANCH   8  11
ATOM     11  C   UNL d   1       0.419  -1.077  -1.147  0.00  0.00     0.101 A 
ATOM     12  C   UNL d   1      -0.612  -0.718  -2.015  0.00  0.00     0.057 A 
ATOM     13 CL   UNL d   1      -1.305   0.857  -2.146  0.00  0.00    -0.083 Cl
ATOM     14  C   UNL d   1      -1.148  -1.688  -2.880  0.00  0.00     0.025 A 
ATOM     15  C   UNL d   1      -0.643  -2.989  -2.908  0.00  0.00     0.002 A 
ATOM     16  C   UNL d   1       0.424  -3.329  -2.088  0.00  0.00     0.002 A 
ATOM     17  C   UNL d   1       0.959  -2.377  -1.222  0.00  0.00     0.027 A 
ENDBRANCH   8  11
ENDBRANCH   7   8
BRANCH   7  18
ATOM     18  C   UNL d   1       0.539  -1.516   2.183  0.00  0.00     0.168 C 
BRANCH  18  19
ATOM     19  C   UNL d   1       1.722  -1.432   3.106  0.00  0.00    -0.016 C 
ATOM     20  C   UNL d   1       1.685  -1.662   4.426  0.00  0.00     0.008 C 
ENDBRANCH  18  19
ENDBRANCH   7  18
ENDBRANCH   2   7
BRANCH   1  21
ATOM     21  C   UNL d   1      -2.591  -0.105   0.945  0.00  0.00     0.254 C 
ATOM     22  N   UNL d   1      -3.683   0.387   0.258  0.00  0.00    -0.347 N 
ATOM     23  H   UNL d   1      -3.836   1.388   0.183  0.00  0.00     0.163 HD
ATOM     24  O   UNL d   1      -2.250  -1.279   0.864  0.00  0.00    -0.268 OA
BRANCH  22  25
ATOM     25  C   UNL d   1      -4.435  -0.461  -0.646  0.00  0.00     0.232 C 
BRANCH  25  26
ATOM     26  C   UNL d   1      -5.606   0.287  -1.268  0.00  0.00     0.158 C 
ATOM     27  O   UNL d   1      -5.884   1.454  -1.032  0.00  0.00    -0.649 OA
BRANCH  26  28
ATOM     28  O   UNL d   1      -6.324  -0.471  -2.131  0.00  0.00    -0.775 OA
ATOM     29  H   UNL d   1      -5.994  -1.385  -2.231  0.00  0.00     0.167 HD
ENDBRANCH  26  28
ENDBRANCH  25  26
ENDBRANCH  22  25
ENDBRANCH   1  21
TORSDOF 9
