REMARK  4 active torsions:
REMARK  status: ('A' for Active; 'I' for Inactive)
REMARK    1  A    between atoms: C_2  and  C_1 
REMARK    2  A    between atoms: C_3  and  C_4 
REMARK       I    between atoms: C_5  and  N_8 
REMARK       I    between atoms: N_7  and  C_5 
REMARK    3  A    between atoms: C_6  and  N_7 
REMARK    4  A    between atoms: N_8  and  C_11 
ROOT
ATOM      1  C   UNL d   1       5.054  -1.093   0.452  0.00  0.00     0.325 C 
ATOM      2  N   UNL d   1       4.580  -2.361   0.314  0.00  0.00    -0.308 N 
ATOM      3  N   UNL d   1       4.192  -0.056   0.577  0.00  0.00    -0.309 N 
ATOM      4  O   UNL d   1       6.252  -0.801   0.533  0.00  0.00    -0.247 OA
ATOM      5  H   UNL d   1       3.729  -2.521   0.839  0.00  0.00     0.170 HD
ATOM      6  H   UNL d   1       4.746   0.764   0.795  0.00  0.00     0.170 HD
ENDROOT
BRANCH   3   7
ATOM      7  C   UNL d   1       2.832   0.195   0.341  0.00  0.00     0.037 A 
ATOM      8  C   UNL d   1       1.879  -0.712  -0.114  0.00  0.00     0.047 A 
ATOM      9  C   UNL d   1       0.550  -0.297  -0.426  0.00  0.00     0.067 A 
ATOM     10  C   UNL d   1       0.203   1.050  -0.252  0.00  0.00     0.026 A 
ATOM     11  C   UNL d   1       1.151   1.955   0.226  0.00  0.00     0.022 A 
ATOM     12 BR   UNL d   1      -1.504   1.782  -0.642  0.00  0.00    -0.050 Br
ATOM     13  C   UNL d   1       2.445   1.530   0.522  0.00  0.00     0.031 A 
BRANCH   9  14
ATOM     14  C   UNL d   1      -0.400  -1.362  -0.925  0.00  0.00     0.418 C 
ATOM     15  F   UNL d   1      -1.574  -0.932  -1.452  0.00  0.00    -0.166 F 
ATOM     16  F   UNL d   1       0.171  -2.122  -1.906  0.00  0.00    -0.166 F 
ATOM     17  F   UNL d   1      -0.735  -2.239   0.062  0.00  0.00    -0.166 F 
ENDBRANCH   9  14
ENDBRANCH   3   7
BRANCH   2  18
ATOM     18  C   UNL d   1       5.463  -3.471   0.173  0.00  0.00     0.051 A 
ATOM     19  C   UNL d   1       5.249  -4.670   0.872  0.00  0.00     0.074 A 
ATOM     20  C   UNL d   1       6.200  -5.710   0.759  0.00  0.00     0.018 A 
ATOM     21  C   UNL d   1       7.325  -5.577  -0.053  0.00  0.00     0.001 A 
ATOM     22  C   UNL d   1       7.513  -4.408  -0.776  0.00  0.00     0.002 A 
ATOM     23  C   UNL d   1       6.589  -3.367  -0.667  0.00  0.00     0.030 A 
BRANCH  19  24
ATOM     24  C   UNL d   1       4.093  -4.885   1.810  0.00  0.00     0.419 C 
ATOM     25  F   UNL d   1       3.190  -3.860   1.825  0.00  0.00    -0.166 F 
ATOM     26  F   UNL d   1       3.372  -6.000   1.506  0.00  0.00    -0.166 F 
ATOM     27  F   UNL d   1       4.491  -5.041   3.104  0.00  0.00    -0.166 F 
ENDBRANCH  19  24
ENDBRANCH   2  18
TORSDOF 4
