REMARK  1 active torsions:
REMARK  status: ('A' for Active; 'I' for Inactive)
REMARK    1  A    between atoms: C_8  and  C_1 
ROOT
ATOM      1  C   UNL d   1       0.370   1.075  -0.017  0.00  0.00     0.151 A 
ATOM      2  N   UNL d   1       0.920   0.134  -0.853  0.00  0.00    -0.266 N 
ATOM      3  HN  UNL d   1       1.668   0.284  -1.531  1.00  0.00     0.186 HD
ATOM      4  N   UNL d   1      -0.596   0.569   0.770  0.00  0.00    -0.271 N 
ATOM      5  HN  UNL d   1      -1.164   1.023   1.486  1.00  0.00     0.190 HD
ATOM      6  N   UNL d   1       0.290  -1.007  -0.607  0.00  0.00    -0.005 NA
ATOM      7  N   UNL d   1      -0.599  -0.702   0.344  0.00  0.00    -0.225 N 
ATOM      8  H   UNL d   1      -1.244  -1.395   0.711  0.00  0.00     0.205 HD
ENDROOT
BRANCH   1   9
ATOM      9  C   UNL d   1       0.780   2.511   0.001  0.00  0.00     0.051 A 
ATOM     10  S   UNL d   1       1.947   3.179  -1.050  0.00  0.00    -0.098 SA
ATOM     11  C   UNL d   1       1.736   4.744  -0.389  0.00  0.00     0.050 A 
ATOM     12  C   UNL d   1       0.813   4.752   0.633  0.00  0.00     0.009 A 
ATOM     13  C   UNL d   1       0.258   3.458   0.858  0.00  0.00     0.023 A 
ENDBRANCH   1   9
TORSDOF 1
