REMARK  5 active torsions:
REMARK  status: ('A' for Active; 'I' for Inactive)
REMARK    1  A    between atoms: C_2  and  C_1 
REMARK       I    between atoms: N_5  and  C_2 
REMARK    2  A    between atoms: C_4  and  C_11 
REMARK    3  A    between atoms: C_19  and  C_8 
REMARK    4  A    between atoms: N_13  and  O_16 
REMARK    5  A    between atoms: O_16  and  C_19 
ROOT
ATOM      1  C   UNL d   1      -2.523  -4.372  -0.048  0.00  0.00     0.266 C 
ENDROOT
BRANCH   1   2
ATOM      2  O   UNL d   1      -1.814  -4.827   1.105  0.00  0.00    -0.274 OA
BRANCH   2   3
ATOM      3  N   UNL d   1      -0.594  -4.143   1.226  0.00  0.00    -0.270 N 
ATOM      4  C   UNL d   1       0.010  -4.472   2.332  0.00  0.00     0.040 C 
ATOM      5  C   UNL d   1      -0.578  -5.505   3.284  0.00  0.00     0.071 C 
ATOM      6  HN  UNL d   1      -0.230  -3.480   0.542  1.00  0.00     0.194 HD
BRANCH   4   7
ATOM      7  C   UNL d   1       1.324  -3.845   2.688  0.00  0.00     0.010 A 
ATOM      8  C   UNL d   1       1.646  -2.512   2.372  0.00  0.00     0.048 A 
ATOM      9  C   UNL d   1       2.895  -1.982   2.732  0.00  0.00     0.048 A 
ATOM     10 CL   UNL d   1       0.557  -1.413   1.598  0.00  0.00    -0.083 Cl
ATOM     11  C   UNL d   1       3.817  -2.766   3.419  0.00  0.00     0.035 A 
ATOM     12  C   UNL d   1       3.514  -4.084   3.741  0.00  0.00     0.025 A 
ATOM     13 CL   UNL d   1       5.336  -2.102   3.875  0.00  0.00    -0.084 Cl
ATOM     14  C   UNL d   1       2.280  -4.625   3.365  0.00  0.00     0.017 A 
ENDBRANCH   4   7
ENDBRANCH   2   3
ENDBRANCH   1   2
BRANCH   1  15
ATOM     15  C   UNL d   1      -3.751  -5.207  -0.116  0.00  0.00     0.080 A 
ATOM     16  O   UNL d   1      -4.963  -4.575  -0.045  0.00  0.00    -0.307 OA
ATOM     17  C   UNL d   1      -5.936  -5.546  -0.065  0.00  0.00     0.143 A 
ATOM     18  C   UNL d   1      -5.328  -6.787  -0.137  0.00  0.00     0.045 A 
ATOM     19  C   UNL d   1      -3.936  -6.572  -0.194  0.00  0.00     0.038 A 
BRANCH  17  20
ATOM     20  C   UNL d   1      -7.341  -5.233   0.114  0.00  0.00     0.277 C 
ATOM     21  N   UNL d   1      -7.847  -4.007  -0.307  0.00  0.00    -0.342 N 
ATOM     22  C   UNL d   1      -9.215  -3.627   0.053  0.00  0.00     0.152 C 
ATOM     23  C   UNL d   1      -7.213  -3.060  -1.228  0.00  0.00     0.152 C 
ATOM     24  C   UNL d   1      -9.224  -2.196   0.600  0.00  0.00     0.187 C 
ATOM     25  O   UNL d   1      -8.641  -1.278  -0.342  0.00  0.00    -0.388 OA
ATOM     26  C   UNL d   1      -7.283  -1.645  -0.645  0.00  0.00     0.187 C 
ATOM     27  O   UNL d   1      -8.095  -6.054   0.649  0.00  0.00    -0.265 OA
ENDBRANCH  17  20
ENDBRANCH   1  15
TORSDOF 5
