REMARK  4 active torsions:
REMARK  status: ('A' for Active; 'I' for Inactive)
REMARK    1  A    between atoms: C_9  and  C_1 
REMARK    2  A    between atoms: S_12  and  C_4 
REMARK    3  A    between atoms: C_10  and  C_5 
REMARK    4  A    between atoms: O_15  and  C_11 
ROOT
ATOM      1  C   UNL d   1      -0.663   1.111   0.038  0.00  0.00     0.119 A 
ATOM      2  N   UNL d   1      -1.395  -0.017   0.018  0.00  0.00    -0.336 N 
ATOM      3  HN  UNL d   1      -2.414   0.019  -0.010  1.00  0.00     0.168 HD
ATOM      4  C   UNL d   1      -0.741  -1.198   0.037  0.00  0.00     0.084 A 
ATOM      5  C   UNL d   1       0.642  -1.304   0.039  0.00  0.00     0.065 A 
ATOM      6  N   UNL d   1       0.674   1.103   0.106  0.00  0.00    -0.344 N 
ATOM      7  HN  UNL d   1       1.196   1.978   0.155  1.00  0.00     0.167 HD
ATOM      8  C   UNL d   1       1.325  -0.093   0.108  0.00  0.00     0.023 A 
ATOM      9  C   UNL d   1       2.818   0.057   0.115  0.00  0.00     0.069 C 
ENDROOT
BRANCH   1  10
ATOM     10  C   UNL d   1      -1.410   2.388   0.014  0.00  0.00     0.041 A 
ATOM     11  C   UNL d   1      -0.878   3.619  -0.435  0.00  0.00     0.082 A 
ATOM     12  C   UNL d   1      -1.695   4.765  -0.491  0.00  0.00     0.038 A 
ATOM     13  C   UNL d   1      -3.023   4.721  -0.070  0.00  0.00     0.003 A 
ATOM     14  C   UNL d   1      -3.555   3.536   0.407  0.00  0.00     0.001 A 
ATOM     15  C   UNL d   1      -2.760   2.393   0.452  0.00  0.00     0.018 A 
BRANCH  11  16
ATOM     16  O   UNL d   1       0.421   3.638  -0.882  0.00  0.00    -0.355 OA
ATOM     17  C   UNL d   1       1.091   4.893  -0.853  0.00  0.00     0.210 C 
ENDBRANCH  11  16
ENDBRANCH   1  10
BRANCH   4  18
ATOM     18  S   UNL d   1      -1.878  -2.563   0.139  0.00  0.00    -0.124 SA
ATOM     19  H   UNL d   1      -2.965  -1.784   0.040  0.00  0.00     0.108 HD
ENDBRANCH   4  18
BRANCH   5  20
ATOM     20  C   UNL d   1       1.347  -2.607   0.038  0.00  0.00     0.160 C 
ATOM     21  O   UNL d   1       2.262  -2.803   0.835  0.00  0.00    -0.293 OA
ATOM     22  C   UNL d   1       0.948  -3.682  -0.947  0.00  0.00     0.097 C 
ENDBRANCH   5  20
TORSDOF 4
