REMARK  4 active torsions:
REMARK  status: ('A' for Active; 'I' for Inactive)
REMARK    1  A    between atoms: C_5  and  C_4 
REMARK    2  A    between atoms: C_9  and  C_5 
REMARK       I    between atoms: C_6  and  N_10 
REMARK       I    between atoms: N_11  and  C_6 
REMARK       I    between atoms: N_12  and  C_9 
REMARK    3  A    between atoms: N_10  and  N_12 
REMARK    4  A    between atoms: C_16  and  N_11 
ROOT
ATOM      1  C   UNL d   1       2.061   0.742   2.669  0.00  0.00     0.233 C 
ATOM      2  N   UNL d   1       3.104   1.324   1.969  0.00  0.00    -0.283 N 
ATOM      3  O   UNL d   1       1.648   1.167   3.748  0.00  0.00    -0.272 OA
ATOM      4  H   UNL d   1       3.655   0.757   1.332  0.00  0.00     0.184 HD
ENDROOT
BRANCH   1   5
ATOM      5  C   UNL d   1       1.410  -0.428   1.965  0.00  0.00     0.129 C 
BRANCH   5   6
ATOM      6  C   UNL d   1       0.072   0.007   1.361  0.00  0.00     0.153 C 
ATOM      7  C   UNL d   1      -0.840   0.665   2.389  0.00  0.00     0.236 C 
ATOM      8  N   UNL d   1      -1.392  -0.132   3.356  0.00  0.00    -0.325 N 
ATOM      9  O   UNL d   1      -0.998   1.886   2.422  0.00  0.00    -0.272 OA
ATOM     10  C   UNL d   1      -1.557  -1.523   3.270  0.00  0.00     0.051 A 
ATOM     11  H   UNL d   1      -1.787   0.367   4.143  0.00  0.00     0.169 HD
ATOM     12  C   UNL d   1      -1.341  -2.226   2.073  0.00  0.00     0.028 A 
ATOM     13  C   UNL d   1      -2.010  -2.200   4.406  0.00  0.00     0.031 A 
ATOM     14  S   UNL d   1      -0.770  -1.418   0.587  0.00  0.00    -0.113 SA
ATOM     15  C   UNL d   1      -1.613  -3.597   2.022  0.00  0.00     0.021 A 
ATOM     16  C   UNL d   1      -2.062  -4.270   3.160  0.00  0.00     0.002 A 
ATOM     17  C   UNL d   1      -2.250  -3.574   4.353  0.00  0.00     0.002 A 
ENDBRANCH   5   6
ENDBRANCH   1   5
BRANCH   2  18
ATOM     18  N   UNL d   1       3.830   2.336   2.650  0.00  0.00    -0.152 NA
ATOM     19  C   UNL d   1       4.643   1.919   3.714  0.00  0.00     0.317 C 
ATOM     20  N   UNL d   1       5.093   3.011   4.426  0.00  0.00    -0.312 N 
ATOM     21  O   UNL d   1       4.917   0.741   3.920  0.00  0.00    -0.252 OA
ATOM     22  H   UNL d   1       5.095   3.883   3.914  0.00  0.00     0.170 HD
ATOM     23  H   UNL d   1       3.237   3.125   2.900  0.00  0.00     0.157 HD
BRANCH  20  24
ATOM     24  C   UNL d   1       5.736   3.002   5.676  0.00  0.00     0.036 A 
ATOM     25  C   UNL d   1       5.725   1.901   6.536  0.00  0.00     0.031 A 
ATOM     26  C   UNL d   1       6.369   1.969   7.777  0.00  0.00     0.026 A 
ATOM     27  C   UNL d   1       7.027   3.137   8.157  0.00  0.00     0.034 A 
ATOM     28  C   UNL d   1       7.029   4.245   7.314  0.00  0.00     0.026 A 
ATOM     29 CL   UNL d   1       7.834   3.214   9.674  0.00  0.00    -0.084 Cl
ATOM     30  C   UNL d   1       6.377   4.180   6.080  0.00  0.00     0.031 A 
ENDBRANCH  20  24
ENDBRANCH   2  18
TORSDOF 4
