REMARK  8 active torsions:
REMARK  status: ('A' for Active; 'I' for Inactive)
REMARK    1  A    between atoms: C_9  and  C_18 
REMARK    2  A    between atoms: O_14  and  C_9 
REMARK    3  A    between atoms: O_16  and  C_12 
REMARK    4  A    between atoms: C_19  and  O_14 
REMARK    5  A    between atoms: C_20  and  O_16 
REMARK    6  A    between atoms: C_18  and  C_21 
REMARK    7  A    between atoms: C_22  and  C_20 
REMARK    8  A    between atoms: C_21  and  C_22 
ROOT
ATOM      1  C   UNL d   1      -0.079   1.034   1.032  0.00  0.00     0.198 A 
ATOM      2  C   UNL d   1      -1.287   0.424   0.456  0.00  0.00     0.051 A 
ATOM      3  C   UNL d   1       1.163   0.253   0.939  0.00  0.00     0.049 A 
ATOM      4  O   UNL d   1      -0.002  -1.521  -0.268  0.00  0.00    -0.309 OA
ATOM      5  C   UNL d   1      -1.180  -0.826  -0.147  0.00  0.00     0.090 A 
ATOM      6  C   UNL d   1       1.130  -0.976   0.284  0.00  0.00     0.090 A 
ATOM      7  C   UNL d   1      -2.518   1.087   0.529  0.00  0.00     0.055 A 
ATOM      8  O   UNL d   1      -0.109   2.135   1.563  0.00  0.00    -0.286 OA
ATOM      9  C   UNL d   1      -2.321  -1.436  -0.663  0.00  0.00     0.041 A 
ATOM     10  C   UNL d   1      -3.655   0.486  -0.004  0.00  0.00     0.069 A 
ATOM     11  C   UNL d   1      -3.555  -0.786  -0.579  0.00  0.00     0.039 A 
ATOM     12  C   UNL d   1       2.353   0.734   1.494  0.00  0.00     0.018 A 
ATOM     13  C   UNL d   1       2.303  -1.726   0.170  0.00  0.00     0.038 A 
ATOM     14  C   UNL d   1       3.519  -0.021   1.384  0.00  0.00     0.001 A 
ATOM     15  C   UNL d   1       3.496  -1.247   0.719  0.00  0.00     0.003 A 
ENDROOT
BRANCH  10  16
ATOM     16  O   UNL d   1      -4.914   1.015   0.018  0.00  0.00    -0.351 OA
BRANCH  16  17
ATOM     17  C   UNL d   1      -5.003   2.441   0.054  0.00  0.00     0.175 C 
BRANCH  17  18
ATOM     18  C   UNL d   1      -6.478   2.837   0.104  0.00  0.00     0.027 C 
BRANCH  18  19
ATOM     19  C   UNL d   1      -7.130   2.338   1.394  0.00  0.00     0.012 C 
BRANCH  19  20
ATOM     20  C   UNL d   1      -8.592   2.756   1.508  0.00  0.00     0.111 C 
BRANCH  20  21
ATOM     21  C   UNL d   1      -9.213   2.157   2.748  0.00  0.00     0.258 C 
ATOM     22  O   UNL d   1      -8.625   1.477   3.576  0.00  0.00    -0.265 OA
BRANCH  21  23
ATOM     23  O   UNL d   1     -10.550   2.420   2.753  0.00  0.00    -0.322 OA
BRANCH  23  24
ATOM     24  C   UNL d   1     -11.325   1.558   3.598  0.00  0.00     0.174 C 
ATOM     25  C   UNL d   1     -11.718   0.345   2.773  0.00  0.00     0.034 C 
ENDBRANCH  23  24
ENDBRANCH  21  23
ENDBRANCH  20  21
ENDBRANCH  19  20
ENDBRANCH  18  19
ENDBRANCH  17  18
ENDBRANCH  16  17
ENDBRANCH  10  16
TORSDOF 8
