REMARK  5 active torsions:
REMARK  status: ('A' for Active; 'I' for Inactive)
REMARK    1  A    between atoms: C_2  and  C_1 
REMARK    2  A    between atoms: O_8  and  C_1 
REMARK    3  A    between atoms: C_6  and  C_2 
REMARK    4  A    between atoms: N_4  and  C_6 
REMARK    5  A    between atoms: C_5  and  N_4 
ROOT
ATOM      1  N   UNL d   1       0.312   3.713  -0.515  0.00  0.00    -0.293 NA
ATOM      2  H   UNL d   1      -0.469   3.815   0.130  0.00  0.00     0.127 HD
ENDROOT
BRANCH   1   3
ATOM      3  C   UNL d   1       1.058   2.466  -0.299  0.00  0.00     0.102 C 
BRANCH   3   4
ATOM      4  C   UNL d   1       0.120   1.268  -0.240  0.00  0.00     0.125 C 
BRANCH   4   5
ATOM      5  C   UNL d   1       0.925   0.014  -0.002  0.00  0.00     0.259 C 
ATOM      6  O   UNL d   1       2.140  -0.032   0.126  0.00  0.00    -0.265 OA
BRANCH   5   7
ATOM      7  O   UNL d   1       0.095  -1.066   0.051  0.00  0.00    -0.326 OA
ATOM      8  C   UNL d   1       0.769  -2.307   0.275  0.00  0.00     0.213 C 
ENDBRANCH   5   7
ENDBRANCH   4   5
ENDBRANCH   3   4
ENDBRANCH   1   3
BRANCH   1   9
ATOM      9  C   UNL d   1       1.075   4.898  -0.553  0.00  0.00     0.008 A 
ATOM     10  C   UNL d   1       2.380   4.947  -1.068  0.00  0.00     0.025 A 
ATOM     11  C   UNL d   1       3.097   6.146  -1.120  0.00  0.00     0.025 A 
ATOM     12  C   UNL d   1       2.503   7.325  -0.686  0.00  0.00     0.034 A 
ATOM     13  C   UNL d   1       1.190   7.316  -0.227  0.00  0.00     0.025 A 
ATOM     14 CL   UNL d   1       3.392   8.796  -0.731  0.00  0.00    -0.084 Cl
ATOM     15  C   UNL d   1       0.478   6.111  -0.181  0.00  0.00     0.025 A 
ENDBRANCH   1   9
TORSDOF 5
