REMARK  8 active torsions:
REMARK  status: ('A' for Active; 'I' for Inactive)
REMARK    1  A    between atoms: C_6  and  C_1 
REMARK    2  A    between atoms: N_7  and  C_2 
REMARK    3  A    between atoms: C_8  and  N_4 
REMARK    4  A    between atoms: O_16  and  C_6 
REMARK    5  A    between atoms: C_14  and  N_7 
REMARK    6  A    between atoms: C_10  and  O_12 
REMARK    7  A    between atoms: O_12  and  C_15 
REMARK    8  A    between atoms: C_25  and  O_16 
ROOT
ATOM      1  C   UNL d   1      -1.441   0.817   0.120  0.00  0.00     0.062 A 
ATOM      2  C   UNL d   1      -0.192   1.301   0.132  0.00  0.00     0.095 A 
ATOM      3  C   UNL d   1       0.685   0.106   0.011  0.00  0.00     0.266 A 
ATOM      4  N   UNL d   1      -0.114  -1.022  -0.037  0.00  0.00    -0.334 N 
ATOM      5  C   UNL d   1      -1.511  -0.662   0.064  0.00  0.00     0.174 A 
ATOM      6  O   UNL d   1       1.901   0.187  -0.027  0.00  0.00    -0.266 OA
ENDROOT
BRANCH   2   7
ATOM      7  N   UNL d   1       0.337   2.578   0.177  0.00  0.00    -0.254 NA
ATOM      8  H   UNL d   1       1.355   2.540   0.074  0.00  0.00     0.134 HD
BRANCH   7   9
ATOM      9  C   UNL d   1      -0.010   3.484   1.211  0.00  0.00     0.013 A 
ATOM     10  C   UNL d   1      -0.247   3.058   2.526  0.00  0.00     0.026 A 
ATOM     11  C   UNL d   1      -0.579   3.972   3.530  0.00  0.00     0.039 A 
ATOM     12  C   UNL d   1      -0.636   5.328   3.228  0.00  0.00     0.079 A 
ATOM     13  C   UNL d   1      -0.372   5.776   1.933  0.00  0.00     0.039 A 
ATOM     14  C   UNL d   1      -0.037   4.856   0.934  0.00  0.00     0.026 A 
BRANCH  12  15
ATOM     15  O   UNL d   1      -1.032   6.318   4.152  0.00  0.00    -0.279 OA
BRANCH  15  16
ATOM     16  C   UNL d   1      -0.812   6.199   5.526  0.00  0.00     0.260 C 
ATOM     17  O   UNL d   1      -0.214   5.301   6.100  0.00  0.00    -0.265 OA
ATOM     18  C   UNL d   1      -1.408   7.384   6.230  0.00  0.00     0.126 C 
ENDBRANCH  15  16
ENDBRANCH  12  15
ENDBRANCH   7   9
ENDBRANCH   2   7
BRANCH   1  19
ATOM     19  C   UNL d   1      -2.696   1.570   0.046  0.00  0.00     0.292 C 
ATOM     20  O   UNL d   1      -3.784   1.060   0.260  0.00  0.00    -0.259 OA
BRANCH  19  21
ATOM     21  O   UNL d   1      -2.470   2.804  -0.456  0.00  0.00    -0.318 OA
BRANCH  21  22
ATOM     22  C   UNL d   1      -3.593   3.517  -0.975  0.00  0.00     0.174 C 
ATOM     23  C   UNL d   1      -3.733   3.155  -2.441  0.00  0.00     0.034 C 
ENDBRANCH  21  22
ENDBRANCH  19  21
ENDBRANCH   1  19
BRANCH   4  24
ATOM     24  C   UNL d   1       0.372  -2.416  -0.182  0.00  0.00     0.025 C 
ATOM     25  C   UNL d   1      -0.784  -3.436  -0.259  0.00  0.00     0.037 C 
ATOM     26  C   UNL d   1       1.196  -2.550  -1.477  0.00  0.00     0.037 C 
ATOM     27  C   UNL d   1       1.251  -2.795   1.024  0.00  0.00     0.037 C 
ENDBRANCH   4  24
TORSDOF 8
