REMARK  4 active torsions:
REMARK  status: ('A' for Active; 'I' for Inactive)
REMARK    1  A    between atoms: C_7  and  C_4 
REMARK    2  A    between atoms: S_8  and  C_5 
REMARK    3  A    between atoms: O_9  and  C_12 
REMARK    4  A    between atoms: C_15  and  O_9 
ROOT
ATOM      1  C   UNL d   1      -0.902   2.418  -0.009  0.00  0.00    -0.008 A 
ATOM      2  C   UNL d   1      -0.562   3.209  -1.116  0.00  0.00     0.016 A 
ATOM      3  C   UNL d   1      -1.755   2.951   0.968  0.00  0.00     0.016 A 
ATOM      4  C   UNL d   1      -1.832   5.059  -0.218  0.00  0.00     0.076 A 
ATOM      5  C   UNL d   1      -2.216   4.267   0.863  0.00  0.00     0.038 A 
ATOM      6  C   UNL d   1      -1.045   4.514  -1.234  0.00  0.00     0.038 A 
ENDROOT
BRANCH   1   7
ATOM      7  C   UNL d   1      -0.355   1.067   0.124  0.00  0.00     0.061 A 
ATOM      8  N   UNL d   1       0.859   0.753  -0.363  0.00  0.00    -0.299 N 
ATOM      9  N   UNL d   1       1.029  -0.534  -0.021  0.00  0.00    -0.294 N 
ATOM     10  HN  UNL d   1       1.503   1.355  -0.875  1.00  0.00     0.187 HD
ATOM     11  C   UNL d   1      -0.035  -1.070   0.635  0.00  0.00     0.086 A 
ATOM     12  H   UNL d   1       1.897  -0.996  -0.268  0.00  0.00     0.187 HD
ATOM     13  C   UNL d   1      -0.955  -0.060   0.751  0.00  0.00     0.070 A 
BRANCH  11  14
ATOM     14  S   UNL d   1       0.025  -2.724   1.121  0.00  0.00    -0.115 SA
ATOM     15  C   UNL d   1      -1.604  -2.965   1.862  0.00  0.00     0.097 C 
ENDBRANCH  11  14
ENDBRANCH   1   7
BRANCH   4  16
ATOM     16  O   UNL d   1      -2.307   6.351  -0.231  0.00  0.00    -0.311 OA
BRANCH  16  17
ATOM     17  C   UNL d   1      -1.489   7.354  -0.704  0.00  0.00     0.076 A 
ATOM     18  C   UNL d   1      -2.121   8.397  -1.384  0.00  0.00     0.037 A 
ATOM     19  C   UNL d   1      -1.368   9.448  -1.905  0.00  0.00     0.003 A 
ATOM     20  C   UNL d   1       0.017   9.464  -1.743  0.00  0.00     0.000 A 
ATOM     21  C   UNL d   1       0.647   8.443  -1.031  0.00  0.00     0.003 A 
ATOM     22  C   UNL d   1      -0.107   7.400  -0.493  0.00  0.00     0.037 A 
ENDBRANCH  16  17
ENDBRANCH   4  16
TORSDOF 4
