REMARK  3 active torsions:
REMARK  status: ('A' for Active; 'I' for Inactive)
REMARK    1  A    between atoms: C_2  and  C_1 
REMARK       I    between atoms: N_8  and  C_2 
REMARK    2  A    between atoms: C_7  and  C_3 
REMARK    3  A    between atoms: O_14  and  C_9 
ROOT
ATOM      1  C   UNL d   1       1.074  -1.699   0.694  0.00  0.00     0.112 C 
ATOM      2  C   UNL d   1       0.239  -0.643   0.677  0.00  0.00     0.039 C 
ATOM      3  C   UNL d   1       0.611  -3.041   0.723  0.00  0.00     0.105 C 
ATOM      4  N   UNL d   1       0.289  -4.157   0.741  0.00  0.00    -0.191 NA
ENDROOT
BRANCH   1   5
ATOM      5  C   UNL d   1       2.543  -1.417   0.686  0.00  0.00     0.260 C 
ATOM      6  O   UNL d   1       3.004  -0.281   0.666  0.00  0.00    -0.267 OA
ATOM      7  N   UNL d   1       3.385  -2.490   0.709  0.00  0.00    -0.365 N 
ATOM      8  H   UNL d   1       3.097  -3.461   0.734  0.00  0.00     0.159 HD
ATOM      9  H   UNL d   1       4.379  -2.299   0.717  0.00  0.00     0.159 HD
ENDBRANCH   1   5
BRANCH   2  10
ATOM     10  C   UNL d   1      -1.225  -0.726   0.715  0.00  0.00    -0.034 A 
ATOM     11  C   UNL d   1      -1.895  -0.719   1.944  0.00  0.00     0.014 A 
ATOM     12  C   UNL d   1      -3.291  -0.742   1.982  0.00  0.00     0.037 A 
ATOM     13  C   UNL d   1      -4.013  -0.765   0.795  0.00  0.00     0.065 A 
ATOM     14  C   UNL d   1      -3.362  -0.800  -0.434  0.00  0.00     0.037 A 
ATOM     15  C   UNL d   1      -1.964  -0.787  -0.473  0.00  0.00     0.014 A 
BRANCH  13  16
ATOM     16  O   UNL d   1      -5.373  -0.744   0.879  0.00  0.00    -0.361 OA
ATOM     17  H   UNL d   1      -5.740  -0.686  -0.019  0.00  0.00     0.217 HD
ENDBRANCH  13  16
ENDBRANCH   2  10
TORSDOF 3
