REMARK  7 active torsions:
REMARK  status: ('A' for Active; 'I' for Inactive)
REMARK    1  A    between atoms: N_5  and  C_1 
REMARK    2  A    between atoms: C_11  and  C_2 
REMARK    3  A    between atoms: N_4  and  C_3 
REMARK       I    between atoms: C_9  and  N_5 
REMARK    4  A    between atoms: C_8  and  C_9 
REMARK    5  A    between atoms: O_19  and  C_11 
REMARK    6  A    between atoms: C_20  and  C_13 
REMARK    7  A    between atoms: C_21  and  O_19 
ROOT
ATOM      1  C   UNL d   1       0.246   1.430  -0.056  0.00  0.00     0.093 A 
ATOM      2  C   UNL d   1       1.521   0.955   0.228  0.00  0.00     0.074 A 
ATOM      3  S   UNL d   1      -0.887   0.177  -0.224  0.00  0.00    -0.076 SA
ATOM      4  C   UNL d   1       1.528  -0.488   0.247  0.00  0.00     0.035 A 
ATOM      5  C   UNL d   1       0.284  -1.039   0.013  0.00  0.00    -0.015 A 
ENDROOT
BRANCH   1   6
ATOM      6  N   UNL d   1      -0.139   2.758  -0.183  0.00  0.00    -0.315 N 
ATOM      7  C   UNL d   1      -1.338   3.247  -0.660  0.00  0.00     0.280 C 
ATOM      8  O   UNL d   1      -2.322   2.588  -0.981  0.00  0.00    -0.265 OA
ATOM      9  H   UNL d   1       0.593   3.445  -0.022  0.00  0.00     0.170 HD
BRANCH   7  10
ATOM     10  C   UNL d   1      -1.334   4.692  -0.825  0.00  0.00     0.146 A 
ATOM     11  O   UNL d   1      -0.339   5.458  -0.266  0.00  0.00    -0.283 OA
ATOM     12  C   UNL d   1      -0.623   6.748  -0.602  0.00  0.00     0.215 A 
ATOM     13  C   UNL d   1      -1.751   6.836  -1.382  0.00  0.00     0.066 A 
ATOM     14  C   UNL d   1      -2.218   5.507  -1.514  0.00  0.00     0.047 A 
BRANCH  12  15
ATOM     15  N   UNL d   1       0.265   7.755  -0.108  0.00  0.00    -0.090 N 
ATOM     16  O   UNL d   1      -0.015   8.925  -0.400  0.00  0.00    -0.530 OA
ATOM     17  O   UNL d   1       1.235   7.384   0.564  0.00  0.00    -0.530 OA
ENDBRANCH  12  15
ENDBRANCH   7  10
ENDBRANCH   1   6
BRANCH   2  18
ATOM     18  C   UNL d   1       2.697   1.798   0.485  0.00  0.00     0.296 C 
ATOM     19  O   UNL d   1       3.775   1.355   0.861  0.00  0.00    -0.259 OA
BRANCH  18  20
ATOM     20  O   UNL d   1       2.434   3.123   0.293  0.00  0.00    -0.318 OA
BRANCH  20  21
ATOM     21  C   UNL d   1       3.387   4.077   0.784  0.00  0.00     0.174 C 
ATOM     22  C   UNL d   1       4.323   4.546  -0.314  0.00  0.00     0.034 C 
ENDBRANCH  20  21
ENDBRANCH  18  20
ENDBRANCH   2  18
BRANCH   5  23
ATOM     23  C   UNL d   1      -0.122  -2.483  -0.026  0.00  0.00     0.042 C 
ATOM     24  C   UNL d   1      -0.282  -2.999  -1.450  0.00  0.00     0.010 C 
ENDBRANCH   5  23
TORSDOF 7
