REMARK  4 active torsions:
REMARK  status: ('A' for Active; 'I' for Inactive)
REMARK    1  A    between atoms: C_2  and  C_1 
REMARK    2  A    between atoms: C_6  and  C_2 
REMARK    3  A    between atoms: C_10  and  C_3 
REMARK    4  A    between atoms: N_8  and  C_7 
ROOT
ATOM      1  C   UNL d   1       0.880  -0.063   0.082  0.00  0.00     0.091 C 
ATOM      2  C   UNL d   1       0.174   0.063  -1.061  0.00  0.00     0.038 C 
ATOM      3  C   UNL d   1       0.225  -0.194   1.339  0.00  0.00     0.103 C 
ATOM      4  N   UNL d   1      -0.313  -0.310   2.358  0.00  0.00    -0.191 NA
ENDROOT
BRANCH   1   5
ATOM      5  C   UNL d   1       2.383  -0.023  -0.019  0.00  0.00     0.177 C 
ATOM      6  O   UNL d   1       2.886   0.524  -1.007  0.00  0.00    -0.291 OA
BRANCH   5   7
ATOM      7  C   UNL d   1       3.294  -0.670   1.065  0.00  0.00     0.015 C 
ATOM      8  C   UNL d   1       2.953  -2.156   1.241  0.00  0.00     0.023 C 
ATOM      9  C   UNL d   1       4.767  -0.585   0.597  0.00  0.00     0.023 C 
ATOM     10  C   UNL d   1       3.219   0.074   2.405  0.00  0.00     0.023 C 
ENDBRANCH   5   7
ENDBRANCH   1   5
BRANCH   2  11
ATOM     11  C   UNL d   1      -1.294   0.124  -1.099  0.00  0.00    -0.035 A 
ATOM     12  C   UNL d   1      -1.937   1.358  -1.047  0.00  0.00     0.013 A 
ATOM     13  C   UNL d   1      -3.340   1.431  -1.006  0.00  0.00     0.030 A 
ATOM     14  C   UNL d   1      -4.152   0.285  -1.023  0.00  0.00     0.029 A 
ATOM     15  C   UNL d   1      -3.471  -0.944  -1.089  0.00  0.00     0.030 A 
ATOM     16  C   UNL d   1      -2.069  -1.032  -1.120  0.00  0.00     0.013 A 
BRANCH  14  17
ATOM     17  N   UNL d   1      -5.545   0.345  -1.055  0.00  0.00    -0.390 N 
ATOM     18  C   UNL d   1      -6.332  -0.655  -0.330  0.00  0.00     0.149 C 
ATOM     19  C   UNL d   1      -6.238   1.620  -1.233  0.00  0.00     0.149 C 
ENDBRANCH  14  17
ENDBRANCH   2  11
TORSDOF 4
