REMARK  4 active torsions:
REMARK  status: ('A' for Active; 'I' for Inactive)
REMARK    1  A    between atoms: C_5  and  N_1 
REMARK       I    between atoms: C_2  and  N_8 
REMARK    2  A    between atoms: C_3  and  C_2 
REMARK    3  A    between atoms: C_4  and  C_10 
REMARK       I    between atoms: N_9  and  C_4 
REMARK    4  A    between atoms: N_8  and  N_9 
ROOT
ATOM      1  C   UNL d   1       0.191   3.828   3.161  0.00  0.00     0.270 C 
ATOM      2  N   UNL d   1      -0.635   4.413   4.099  0.00  0.00    -0.263 N 
ATOM      3  O   UNL d   1       1.216   4.378   2.763  0.00  0.00    -0.266 OA
ATOM      4  H   UNL d   1      -1.412   3.957   4.569  0.00  0.00     0.190 HD
ENDROOT
BRANCH   1   5
ATOM      5  C   UNL d   1      -0.205   2.490   2.622  0.00  0.00     0.036 A 
ATOM      6  C   UNL d   1       0.703   1.834   1.773  0.00  0.00     0.053 A 
ATOM      7  C   UNL d   1       0.360   0.600   1.202  0.00  0.00     0.103 A 
ATOM      8  C   UNL d   1      -0.881   0.011   1.470  0.00  0.00     0.036 A 
ATOM      9  C   UNL d   1      -1.779   0.659   2.316  0.00  0.00     0.003 A 
ATOM     10  C   UNL d   1      -1.447   1.892   2.889  0.00  0.00     0.017 A 
BRANCH   7  11
ATOM     11  N   UNL d   1       1.306  -0.077   0.307  0.00  0.00    -0.116 N 
ATOM     12  O   UNL d   1       2.417   0.444   0.138  0.00  0.00    -0.532 OA
ATOM     13  O   UNL d   1       0.937  -1.133  -0.228  0.00  0.00    -0.532 OA
ENDBRANCH   7  11
ENDBRANCH   1   5
BRANCH   2  14
ATOM     14  N   UNL d   1      -0.268   5.660   4.617  0.00  0.00    -0.267 N 
ATOM     15  C   UNL d   1      -0.874   6.092   5.772  0.00  0.00     0.240 C 
ATOM     16  O   UNL d   1      -1.722   5.435   6.372  0.00  0.00    -0.271 OA
ATOM     17  H   UNL d   1       0.495   6.147   4.149  0.00  0.00     0.190 HD
BRANCH  15  18
ATOM     18  C   UNL d   1      -0.436   7.434   6.246  0.00  0.00     0.080 A 
ATOM     19  C   UNL d   1      -0.155   7.678   7.710  0.00  0.00     0.015 A 
ATOM     20  C   UNL d   1      -1.378   8.277   7.078  0.00  0.00     0.015 A 
ENDBRANCH  15  18
ENDBRANCH   2  14
TORSDOF 4
