REMARK  2 active torsions:
REMARK  status: ('A' for Active; 'I' for Inactive)
REMARK    1  A    between atoms: C_7  and  C_1 
REMARK    2  A    between atoms: N_13  and  C_10 
ROOT
ATOM      1  C   UNL d   1      -1.589  -2.462  -0.050  0.00  0.00     0.054 A 
ATOM      2  N   UNL d   1      -2.825  -2.452   0.493  0.00  0.00    -0.332 N 
ATOM      3  HN  UNL d   1      -3.195  -1.623   0.959  1.00  0.00     0.168 HD
ATOM      4  C   UNL d   1      -3.542  -3.574   0.396  0.00  0.00     0.155 A 
ATOM      5  N   UNL d   1      -3.113  -4.706  -0.164  0.00  0.00    -0.343 N 
ATOM      6  HN  UNL d   1      -3.693  -5.544  -0.191  1.00  0.00     0.167 HD
ATOM      7  C   UNL d   1      -1.063  -3.580  -0.664  0.00  0.00     0.048 A 
ATOM      8  C   UNL d   1      -1.877  -4.684  -0.691  0.00  0.00     0.093 A 
ENDROOT
BRANCH   1   9
ATOM      9  C   UNL d   1      -0.878  -1.178   0.014  0.00  0.00     0.055 A 
ATOM     10  C   UNL d   1      -1.376   0.121   0.044  0.00  0.00     0.025 A 
ATOM     11  N   UNL d   1      -0.415   1.124   0.051  0.00  0.00    -0.357 N 
ATOM     12  C   UNL d   1      -2.807   0.534   0.029  0.00  0.00     0.070 C 
ATOM     13  C   UNL d   1       0.790   0.600   0.053  0.00  0.00     0.048 A 
ATOM     14  HN  UNL d   1      -0.616   2.124   0.054  1.00  0.00     0.166 HD
ATOM     15  S   UNL d   1       0.844  -1.110   0.069  0.00  0.00    -0.073 SA
ATOM     16  C   UNL d   1       2.043   1.401   0.038  0.00  0.00     0.076 C 
ENDBRANCH   1   9
BRANCH   4  17
ATOM     17  N   UNL d   1      -4.809  -3.577   0.937  0.00  0.00    -0.274 NA
ATOM     18  H   UNL d   1      -4.869  -2.903   1.686  0.00  0.00     0.127 HD
ATOM     19  H   UNL d   1      -5.088  -4.527   1.141  0.00  0.00     0.127 HD
ENDBRANCH   4  17
TORSDOF 2
