REMARK  4 active torsions:
REMARK  status: ('A' for Active; 'I' for Inactive)
REMARK    1  A    between atoms: C_10  and  N_1 
REMARK    2  A    between atoms: C_11  and  C_10 
REMARK    3  A    between atoms: O_16  and  C_11 
REMARK    4  A    between atoms: C_19  and  O_16 
ROOT
ATOM      1  N   UNL d   1      -1.324  -1.244   0.080  0.00  0.00    -0.290 N 
ATOM      2  C   UNL d   1      -0.075  -0.570   0.085  0.00  0.00     0.121 A 
ATOM      3  C   UNL d   1      -0.049   0.837   0.028  0.00  0.00     0.014 A 
ATOM      4  C   UNL d   1      -2.514  -0.593  -0.152  0.00  0.00     0.249 C 
ATOM      5  N   UNL d   1       1.048  -1.330   0.121  0.00  0.00    -0.345 N 
ATOM      6  HN  UNL d   1       0.992  -2.346   0.177  1.00  0.00     0.167 HD
ATOM      7  C   UNL d   1      -1.322   1.556  -0.067  0.00  0.00     0.021 C 
ATOM      8  C   UNL d   1      -2.472   0.884  -0.177  0.00  0.00     0.075 C 
ATOM      9  C   UNL d   1       1.203   1.479   0.055  0.00  0.00    -0.046 A 
ATOM     10  C   UNL d   1       2.243  -0.700   0.079  0.00  0.00     0.007 A 
ATOM     11  C   UNL d   1       2.358   0.686   0.061  0.00  0.00     0.032 A 
ATOM     12  O   UNL d   1      -3.597  -1.153  -0.306  0.00  0.00    -0.268 OA
ATOM     13  C   UNL d   1       1.406   2.969   0.035  0.00  0.00     0.049 C 
ATOM     14  C   UNL d   1       3.475  -1.552  -0.006  0.00  0.00     0.068 C 
ENDROOT
BRANCH   1  15
ATOM     15  C   UNL d   1      -1.335  -2.695   0.234  0.00  0.00     0.245 C 
BRANCH  15  16
ATOM     16  C   UNL d   1      -1.021  -3.499  -1.017  0.00  0.00     0.277 C 
ATOM     17  O   UNL d   1      -0.943  -4.724  -1.015  0.00  0.00    -0.263 OA
BRANCH  16  18
ATOM     18  O   UNL d   1      -0.809  -2.714  -2.109  0.00  0.00    -0.321 OA
BRANCH  18  19
ATOM     19  C   UNL d   1      -0.189  -3.367  -3.222  0.00  0.00     0.174 C 
ATOM     20  C   UNL d   1       1.315  -3.356  -3.013  0.00  0.00     0.034 C 
ENDBRANCH  18  19
ENDBRANCH  16  18
ENDBRANCH  15  16
ENDBRANCH   1  15
TORSDOF 4
