REMARK  6 active torsions:
REMARK  status: ('A' for Active; 'I' for Inactive)
REMARK    1  A    between atoms: C_11  and  C_1 
REMARK    2  A    between atoms: S_16  and  C_7 
REMARK    3  A    between atoms: C_10  and  C_17 
REMARK    4  A    between atoms: C_18  and  C_12 
REMARK    5  A    between atoms: C_26  and  S_16 
REMARK    6  A    between atoms: C_27  and  C_26 
ROOT
ATOM      1  C   UNL d   1       2.340  -6.696  -0.129  0.00  0.00     0.010 A 
ATOM      2  C   UNL d   1       1.841  -5.383  -0.165  0.00  0.00     0.023 A 
ATOM      3  C   UNL d   1       2.690  -4.265  -0.108  0.00  0.00    -0.048 A 
ATOM      4  C   UNL d   1       3.723  -6.897  -0.109  0.00  0.00     0.015 A 
ATOM      5  C   UNL d   1       4.587  -5.799  -0.101  0.00  0.00     0.002 A 
ATOM      6  C   UNL d   1       4.074  -4.498  -0.096  0.00  0.00     0.008 A 
ENDROOT
BRANCH   1   7
ATOM      7  C   UNL d   1       1.404  -7.810  -0.050  0.00  0.00     0.138 A 
ATOM      8  N   UNL d   1       0.111  -7.614   0.386  0.00  0.00    -0.319 N 
ATOM      9  C   UNL d   1      -0.380  -8.830   0.394  0.00  0.00     0.182 A 
ATOM     10  HN  UNL d   1      -0.350  -6.740   0.639  1.00  0.00     0.169 HD
ATOM     11  O   UNL d   1       0.512  -9.769  -0.039  0.00  0.00    -0.217 OA
ATOM     12  N   UNL d   1       1.699  -9.089  -0.327  0.00  0.00    -0.242 N 
ATOM     13  HN  UNL d   1       2.581  -9.474  -0.668  1.00  0.00     0.196 HD
BRANCH   9  14
ATOM     14  C   UNL d   1      -1.708  -9.278   0.796  0.00  0.00     0.017 A 
ATOM     15  C   UNL d   1      -2.655  -8.322   1.204  0.00  0.00     0.017 A 
ATOM     16  C   UNL d   1      -3.944  -8.704   1.586  0.00  0.00     0.025 A 
ATOM     17  C   UNL d   1      -4.295 -10.050   1.567  0.00  0.00     0.034 A 
ATOM     18  C   UNL d   1      -3.367 -11.015   1.179  0.00  0.00     0.025 A 
ATOM     19 CL   UNL d   1      -5.885 -10.525   2.021  0.00  0.00    -0.084 Cl
ATOM     20  C   UNL d   1      -2.076 -10.631   0.796  0.00  0.00     0.017 A 
ENDBRANCH   9  14
ENDBRANCH   1   7
BRANCH   3  21
ATOM     21  C   UNL d   1       2.163  -2.840  -0.126  0.00  0.00     0.121 C 
BRANCH  21  22
ATOM     22  S   UNL d   1       0.580  -2.618   0.757  0.00  0.00    -0.088 SA
BRANCH  22  23
ATOM     23  C   UNL d   1       0.255  -0.944   0.483  0.00  0.00     0.162 A 
ATOM     24  N   UNL d   1      -0.882  -0.306   0.918  0.00  0.00    -0.312 N 
ATOM     25  C   UNL d   1      -0.735   1.013   0.540  0.00  0.00     0.209 A 
ATOM     26  C   UNL d   1      -1.967  -0.942   1.624  0.00  0.00     0.160 C 
ATOM     27  N   UNL d   1       0.417   1.128  -0.105  0.00  0.00    -0.279 N 
ATOM     28  N   UNL d   1       1.033  -0.093  -0.138  0.00  0.00    -0.278 N 
ATOM     29  HN  UNL d   1       0.786   1.989  -0.510  1.00  0.00     0.188 HD
ATOM     30  HN  UNL d   1       1.934  -0.303  -0.569  1.00  0.00     0.189 HD
BRANCH  25  31
ATOM     31  C   UNL d   1      -1.681   2.135   0.799  0.00  0.00     0.450 C 
ATOM     32  F   UNL d   1      -2.788   1.776   1.495  0.00  0.00    -0.163 F 
ATOM     33  F   UNL d   1      -1.097   3.131   1.517  0.00  0.00    -0.163 F 
ATOM     34  F   UNL d   1      -2.130   2.694  -0.355  0.00  0.00    -0.163 F 
ENDBRANCH  25  31
ENDBRANCH  22  23
ENDBRANCH  21  22
ENDBRANCH   3  21
TORSDOF 6
