REMARK  4 active torsions:
REMARK  status: ('A' for Active; 'I' for Inactive)
REMARK    1  A    between atoms: C_6  and  C_1 
REMARK    2  A    between atoms: C_14  and  N_2 
REMARK    3  A    between atoms: C_11  and  C_3 
REMARK    4  A    between atoms: O_16  and  C_11 
ROOT
ATOM      1  C   UNL d   1      -0.339  -1.217   0.038  0.00  0.00     0.103 C 
ATOM      2  N   UNL d   1       0.931  -0.672   0.182  0.00  0.00    -0.253 N 
ATOM      3  C   UNL d   1      -1.219  -0.143  -0.066  0.00  0.00     0.094 C 
ATOM      4  N   UNL d   1       0.876   0.677   0.333  0.00  0.00    -0.297 N 
ATOM      5  HN  UNL d   1       1.638   1.304   0.588  1.00  0.00     0.187 HD
ATOM      6  C   UNL d   1      -0.392   1.004   0.074  0.00  0.00     0.041 C 
ATOM      7  C   UNL d   1      -0.762   2.444   0.044  0.00  0.00     0.071 C 
ENDROOT
BRANCH   1   8
ATOM      8  C   UNL d   1      -0.668  -2.675   0.061  0.00  0.00     0.087 A 
ATOM      9  N   UNL d   1       0.076  -3.547   0.750  0.00  0.00    -0.259 N 
ATOM     10  O   UNL d   1      -0.501  -4.784   0.561  0.00  0.00    -0.242 OA
ATOM     11  HN  UNL d   1       0.906  -3.338   1.305  1.00  0.00     0.195 HD
ATOM     12  C   UNL d   1      -1.583  -4.656  -0.248  0.00  0.00     0.074 A 
ATOM     13  C   UNL d   1      -1.732  -3.336  -0.594  0.00  0.00     0.068 A 
ATOM     14  C   UNL d   1      -2.313  -5.896  -0.561  0.00  0.00     0.079 C 
ENDBRANCH   1   8
BRANCH   2  15
ATOM     15  C   UNL d   1       2.215  -1.279   0.062  0.00  0.00     0.057 A 
ATOM     16  C   UNL d   1       2.428  -2.384  -0.772  0.00  0.00     0.031 A 
ATOM     17  C   UNL d   1       3.703  -2.944  -0.880  0.00  0.00     0.002 A 
ATOM     18  C   UNL d   1       4.769  -2.406  -0.160  0.00  0.00     0.000 A 
ATOM     19  C   UNL d   1       4.568  -1.292   0.653  0.00  0.00     0.002 A 
ATOM     20  C   UNL d   1       3.300  -0.716   0.751  0.00  0.00     0.031 A 
ENDBRANCH   2  15
BRANCH   3  21
ATOM     21  C   UNL d   1      -2.665  -0.130  -0.186  0.00  0.00     0.297 C 
ATOM     22  O   UNL d   1      -3.276   0.731  -0.808  0.00  0.00    -0.259 OA
BRANCH  21  23
ATOM     23  O   UNL d   1      -3.269  -1.125   0.523  0.00  0.00    -0.322 OA
ATOM     24  C   UNL d   1      -4.697  -1.081   0.512  0.00  0.00     0.213 C 
ENDBRANCH  21  23
ENDBRANCH   3  21
TORSDOF 4
