REMARK  1 active torsions:
REMARK  status: ('A' for Active; 'I' for Inactive)
REMARK       I    between atoms: N_2  and  C_1 
REMARK    1  A    between atoms: C_5  and  C_1 
ROOT
ATOM      1  N   UNL d   1      -2.063  -0.037   2.081  0.00  0.00    -0.197 NA
ATOM      2  C   UNL d   1      -0.985   0.217   1.741  0.00  0.00     0.068 C 
ATOM      3  C   UNL d   1       0.345   0.595   1.273  0.00  0.00     0.226 C 
ENDROOT
BRANCH   3   4
ATOM      4  C   UNL d   1       0.746  -0.207   0.056  0.00  0.00     0.232 C 
ATOM      5  N   UNL d   1       0.153   0.064  -1.171  0.00  0.00    -0.350 N 
ATOM      6  C   UNL d   1       0.579  -0.711  -2.345  0.00  0.00     0.136 C 
ATOM      7  C   UNL d   1      -0.997   0.952  -1.407  0.00  0.00     0.136 C 
ATOM      8  C   UNL d   1      -0.501  -1.681  -2.826  0.00  0.00     0.093 C 
ATOM      9  S   UNL d   1      -2.019  -0.795  -3.328  0.00  0.00    -0.166 SA
ATOM     10  C   UNL d   1      -2.264   0.182  -1.804  0.00  0.00     0.093 C 
ATOM     11  O   UNL d   1       1.634  -1.057   0.170  0.00  0.00    -0.272 OA
ENDBRANCH   3   4
TORSDOF 1
