REMARK  3 active torsions:
REMARK  status: ('A' for Active; 'I' for Inactive)
REMARK    1  A    between atoms: C_4  and  C_1 
REMARK       I    between atoms: N_8  and  C_4 
REMARK    2  A    between atoms: C_6  and  N_9 
REMARK    3  A    between atoms: N_9  and  N_8 
ROOT
ATOM      1  C   UNL d   1      -2.630  -1.417   0.139  0.00  0.00     0.284 C 
ATOM      2  N   UNL d   1      -3.900  -0.873   0.264  0.00  0.00    -0.281 N 
ATOM      3  O   UNL d   1      -1.653  -0.738  -0.185  0.00  0.00    -0.265 OA
ATOM      4  H   UNL d   1      -4.705  -1.500   0.311  0.00  0.00     0.184 HD
ENDROOT
BRANCH   2   5
ATOM      5  N   UNL d   1      -4.111   0.413  -0.273  0.00  0.00    -0.201 NA
ATOM      6  H   UNL d   1      -3.206   0.892  -0.374  0.00  0.00     0.153 HD
BRANCH   5   7
ATOM      7  C   UNL d   1      -5.054   1.213   0.434  0.00  0.00     0.051 A 
ATOM      8  C   UNL d   1      -4.792   2.597   0.505  0.00  0.00     0.050 A 
ATOM      9  C   UNL d   1      -5.712   3.482   1.072  0.00  0.00     0.035 A 
ATOM     10 CL   UNL d   1      -5.351   5.163   1.141  0.00  0.00    -0.084 Cl
ATOM     11  C   UNL d   1      -6.926   3.019   1.564  0.00  0.00     0.026 A 
ATOM     12  C   UNL d   1      -7.220   1.659   1.488  0.00  0.00     0.027 A 
ATOM     13  C   UNL d   1      -6.302   0.762   0.919  0.00  0.00     0.057 A 
ATOM     14 CL   UNL d   1      -6.825  -0.886   0.802  0.00  0.00    -0.082 Cl
ENDBRANCH   5   7
ENDBRANCH   2   5
BRANCH   1  15
ATOM     15  C   UNL d   1      -2.541  -2.849   0.414  0.00  0.00     0.126 A 
ATOM     16  N   UNL d   1      -3.610  -3.580   0.780  0.00  0.00    -0.256 N 
ATOM     17  O   UNL d   1      -3.139  -4.869   0.972  0.00  0.00    -0.242 OA
ATOM     18  HN  UNL d   1      -4.569  -3.253   0.893  1.00  0.00     0.195 HD
ATOM     19  C   UNL d   1      -1.805  -4.910   0.714  0.00  0.00     0.075 A 
ATOM     20  C   UNL d   1      -1.379  -3.660   0.346  0.00  0.00     0.071 A 
ATOM     21  C   UNL d   1      -1.138  -6.214   0.883  0.00  0.00     0.079 C 
ENDBRANCH   1  15
TORSDOF 3
