REMARK  9 active torsions:
REMARK  status: ('A' for Active; 'I' for Inactive)
REMARK    1  A    between atoms: C_8  and  C_1 
REMARK    2  A    between atoms: C_12  and  N_2 
REMARK    3  A    between atoms: C_27  and  C_3 
REMARK    4  A    between atoms: C_7  and  C_14 
REMARK    5  A    between atoms: O_13  and  C_8 
REMARK    6  A    between atoms: N_9  and  O_13 
REMARK    7  A    between atoms: C_15  and  C_11 
REMARK    8  A    between atoms: N_26  and  C_11 
REMARK    9  A    between atoms: C_32  and  C_27 
ROOT
ATOM      1  C   UNL d   1       1.095   1.133   0.260  0.00  0.00     0.318 C 
ATOM      2  O   UNL d   1       1.464  -0.005   0.536  0.00  0.00    -0.257 OA
ENDROOT
BRANCH   1   3
ATOM      3  C   UNL d   1      -0.317   1.469   0.088  0.00  0.00     0.082 A 
ATOM      4  C   UNL d   1      -0.976   2.697  -0.050  0.00  0.00     0.052 A 
ATOM      5  N   UNL d   1      -2.345   2.392  -0.068  0.00  0.00    -0.260 N 
ATOM      6  N   UNL d   1      -2.563   1.065   0.091  0.00  0.00    -0.304 N 
ATOM      7  C   UNL d   1      -1.354   0.519   0.144  0.00  0.00     0.127 A 
ATOM      8  HN  UNL d   1      -3.462   0.588   0.155  1.00  0.00     0.186 HD
BRANCH   4   9
ATOM      9  C   UNL d   1      -0.412   4.092  -0.053  0.00  0.00     0.060 C 
BRANCH   9  10
ATOM     10  C   UNL d   1      -0.810   4.973   1.139  0.00  0.00     0.002 C 
ATOM     11  C   UNL d   1      -0.412   4.404   2.491  0.00  0.00     0.005 C 
ENDBRANCH   9  10
ENDBRANCH   4   9
BRANCH   5  12
ATOM     12  C   UNL d   1      -3.466   3.271  -0.077  0.00  0.00     0.056 A 
ATOM     13  C   UNL d   1      -3.457   4.479  -0.784  0.00  0.00     0.033 A 
ATOM     14  C   UNL d   1      -4.477   5.412  -0.583  0.00  0.00     0.026 A 
ATOM     15  C   UNL d   1      -5.519   5.127   0.297  0.00  0.00     0.034 A 
ATOM     16  C   UNL d   1      -5.588   3.886   0.926  0.00  0.00     0.026 A 
ATOM     17 CL   UNL d   1      -6.711   6.323   0.623  0.00  0.00    -0.084 Cl
ATOM     18  C   UNL d   1      -4.575   2.949   0.726  0.00  0.00     0.033 A 
ENDBRANCH   5  12
ENDBRANCH   1   3
BRANCH   1  19
ATOM     19  O   UNL d   1       1.944   2.194   0.076  0.00  0.00    -0.193 OA
BRANCH  19  20
ATOM     20  N   UNL d   1       2.955   2.171   1.063  0.00  0.00    -0.246 N 
ATOM     21  C   UNL d   1       3.928   2.976   0.760  0.00  0.00     0.109 C 
ATOM     22  HN  UNL d   1       2.924   1.597   1.906  1.00  0.00     0.196 HD
BRANCH  21  23
ATOM     23  C   UNL d   1       5.002   3.204   1.778  0.00  0.00     0.004 A 
ATOM     24  C   UNL d   1       5.283   2.232   2.743  0.00  0.00     0.015 A 
ATOM     25  C   UNL d   1       6.308   2.442   3.672  0.00  0.00     0.017 A 
ATOM     26  C   UNL d   1       7.057   3.629   3.654  0.00  0.00     0.048 A 
ATOM     27  C   UNL d   1       6.739   4.617   2.709  0.00  0.00     0.017 A 
ATOM     28  C   UNL d   1       5.719   4.407   1.777  0.00  0.00     0.015 A 
BRANCH  26  29
ATOM     29  C   UNL d   1       8.196   3.857   4.620  0.00  0.00     0.417 C 
ATOM     30  F   UNL d   1       8.451   2.792   5.428  0.00  0.00    -0.166 F 
ATOM     31  F   UNL d   1       9.367   4.126   3.978  0.00  0.00    -0.166 F 
ATOM     32  F   UNL d   1       7.974   4.914   5.448  0.00  0.00    -0.166 F 
ENDBRANCH  26  29
ENDBRANCH  21  23
BRANCH  21  33
ATOM     33  N   UNL d   1       4.034   3.618  -0.456  0.00  0.00    -0.286 NA
ATOM     34  H   UNL d   1       3.466   3.171  -1.168  0.00  0.00     0.125 HD
ATOM     35  H   UNL d   1       4.986   3.756  -0.782  0.00  0.00     0.125 HD
ENDBRANCH  21  33
ENDBRANCH  19  20
ENDBRANCH   1  19
TORSDOF 9
