REMARK  6 active torsions:
REMARK  status: ('A' for Active; 'I' for Inactive)
REMARK    1  A    between atoms: C_2  and  C_1 
REMARK       I    between atoms: N_4  and  C_1 
REMARK    2  A    between atoms: O_6  and  C_2 
REMARK    3  A    between atoms: C_10  and  N_4 
REMARK    4  A    between atoms: C_12  and  O_6 
REMARK    5  A    between atoms: C_7  and  C_10 
REMARK    6  A    between atoms: O_13  and  C_7 
ROOT
ATOM      1  N   UNL d   1       2.651  -5.138   5.023  0.00  0.00    -0.191 NA
ATOM      2  C   UNL d   1       2.135  -4.580   4.143  0.00  0.00     0.099 C 
ATOM      3  C   UNL d   1       1.529  -3.873   3.058  0.00  0.00     0.044 A 
ATOM      4  C   UNL d   1       0.368  -2.445   0.929  0.00  0.00     0.070 A 
ATOM      5  C   UNL d   1       1.713  -2.269   1.261  0.00  0.00     0.038 A 
ATOM      6  C   UNL d   1       0.182  -4.062   2.737  0.00  0.00     0.025 A 
ATOM      7  C   UNL d   1      -0.393  -3.349   1.676  0.00  0.00     0.038 A 
ATOM      8  C   UNL d   1       2.293  -2.977   2.313  0.00  0.00     0.025 A 
ENDROOT
BRANCH   4   9
ATOM      9  O   UNL d   1      -0.311  -1.794  -0.068  0.00  0.00    -0.331 OA
BRANCH   9  10
ATOM     10  C   UNL d   1       0.366  -0.830  -0.896  0.00  0.00     0.141 C 
ATOM     11  C   UNL d   1      -0.707  -0.174  -1.787  0.00  0.00     0.057 C 
ATOM     12  C   UNL d   1       1.344  -1.539  -1.853  0.00  0.00     0.057 C 
BRANCH  10  13
ATOM     13  C   UNL d   1       1.014   0.334  -0.088  0.00  0.00     0.252 C 
ATOM     14  N   UNL d   1       0.260   0.789   0.979  0.00  0.00    -0.349 N 
ATOM     15  H   UNL d   1      -0.536   0.227   1.273  0.00  0.00     0.163 HD
ATOM     16  O   UNL d   1       2.110   0.813  -0.364  0.00  0.00    -0.270 OA
BRANCH  14  17
ATOM     17  C   UNL d   1       0.844   1.686   1.967  0.00  0.00     0.233 C 
BRANCH  17  18
ATOM     18  C   UNL d   1      -0.088   1.911   3.150  0.00  0.00     0.276 C 
ATOM     19  O   UNL d   1      -1.152   1.327   3.317  0.00  0.00    -0.263 OA
BRANCH  18  20
ATOM     20  O   UNL d   1       0.451   2.827   4.004  0.00  0.00    -0.325 OA
ATOM     21  C   UNL d   1      -0.343   3.095   5.164  0.00  0.00     0.213 C 
ENDBRANCH  18  20
ENDBRANCH  17  18
ENDBRANCH  14  17
ENDBRANCH  10  13
ENDBRANCH   9  10
ENDBRANCH   4   9
TORSDOF 6
