REMARK  7 active torsions:
REMARK  status: ('A' for Active; 'I' for Inactive)
REMARK    1  A    between atoms: S_9  and  C_2 
REMARK    2  A    between atoms: C_13  and  C_3 
REMARK    3  A    between atoms: C_8  and  S_12 
REMARK    4  A    between atoms: C_19  and  S_9 
REMARK    5  A    between atoms: C_11  and  C_19 
REMARK       I    between atoms: N_14  and  C_11 
REMARK    6  A    between atoms: S_12  and  C_13 
REMARK    7  A    between atoms: C_21  and  N_14 
ROOT
ATOM      1  N   UNL d   1       0.996  -0.044  -0.193  0.00  0.00    -0.319 N 
ATOM      2  C   UNL d   1       0.209   1.037  -0.473  0.00  0.00     0.162 C 
ATOM      3  C   UNL d   1       0.128  -1.112  -0.103  0.00  0.00     0.109 C 
ATOM      4  N   UNL d   1      -1.050   0.712  -0.276  0.00  0.00    -0.278 N 
ATOM      5  HN  UNL d   1      -1.845   1.351  -0.283  1.00  0.00     0.189 HD
ATOM      6  N   UNL d   1      -1.102  -0.640  -0.059  0.00  0.00    -0.286 N 
ATOM      7  HN  UNL d   1      -1.947  -1.187   0.107  1.00  0.00     0.188 HD
ATOM      8  C   UNL d   1       2.422  -0.067  -0.003  0.00  0.00     0.159 C 
ENDROOT
BRANCH   2   9
ATOM      9  S   UNL d   1       0.765   2.446  -1.283  0.00  0.00    -0.083 SA
BRANCH   9  10
ATOM     10  C   UNL d   1      -0.731   3.467  -1.397  0.00  0.00     0.185 C 
BRANCH  10  11
ATOM     11  C   UNL d   1      -1.819   3.042  -2.380  0.00  0.00     0.231 C 
ATOM     12  N   UNL d   1      -1.956   1.700  -2.643  0.00  0.00    -0.327 N 
ATOM     13  H   UNL d   1      -1.569   1.068  -1.946  0.00  0.00     0.169 HD
ATOM     14  O   UNL d   1      -2.589   3.909  -2.818  0.00  0.00    -0.272 OA
BRANCH  12  15
ATOM     15  C   UNL d   1      -2.878   1.110  -3.524  0.00  0.00     0.034 A 
ATOM     16  C   UNL d   1      -3.395   1.767  -4.642  0.00  0.00     0.031 A 
ATOM     17  C   UNL d   1      -4.300   1.115  -5.482  0.00  0.00     0.026 A 
ATOM     18  C   UNL d   1      -4.701  -0.189  -5.192  0.00  0.00     0.034 A 
ATOM     19  C   UNL d   1      -4.196  -0.851  -4.077  0.00  0.00     0.026 A 
ATOM     20 CL   UNL d   1      -5.821  -0.991  -6.225  0.00  0.00    -0.084 Cl
ATOM     21  C   UNL d   1      -3.270  -0.207  -3.254  0.00  0.00     0.031 A 
ENDBRANCH  12  15
ENDBRANCH  10  11
ENDBRANCH   9  10
ENDBRANCH   2   9
BRANCH   3  22
ATOM     22  C   UNL d   1       0.544  -2.542  -0.067  0.00  0.00     0.158 C 
BRANCH  22  23
ATOM     23  S   UNL d   1      -0.355  -3.580  -1.252  0.00  0.00    -0.115 SA
BRANCH  23  24
ATOM     24  C   UNL d   1       0.059  -2.959  -2.848  0.00  0.00     0.041 A 
ATOM     25  S   UNL d   1       1.547  -2.234  -3.277  0.00  0.00    -0.095 SA
ATOM     26  C   UNL d   1       1.073  -2.056  -4.915  0.00  0.00     0.051 A 
ATOM     27  C   UNL d   1      -0.193  -2.544  -5.137  0.00  0.00     0.009 A 
ATOM     28  C   UNL d   1      -0.773  -3.068  -3.945  0.00  0.00     0.026 A 
ENDBRANCH  23  24
ENDBRANCH  22  23
ENDBRANCH   3  22
TORSDOF 7
