REMARK  4 active torsions:
REMARK  status: ('A' for Active; 'I' for Inactive)
REMARK    1  A    between atoms: N_2  and  S_1 
REMARK    2  A    between atoms: C_7  and  S_1 
REMARK       I    between atoms: C_4  and  N_2 
REMARK    3  A    between atoms: C_5  and  C_4 
REMARK    4  A    between atoms: S_14  and  C_6 
ROOT
ATOM      1  N   UNL d   1       0.720  -0.551  -1.199  0.00  0.00    -0.279 N 
ATOM      2  HN  UNL d   1       0.265  -1.462  -1.260  1.00  0.00     0.179 HD
ATOM      3  C   UNL d   1       1.054   0.155  -2.377  0.00  0.00     0.265 C 
ATOM      4  O   UNL d   1       2.027   0.900  -2.423  0.00  0.00    -0.267 OA
ENDROOT
BRANCH   1   5
ATOM      5  S   UNL d   1       1.047   0.060   0.176  0.00  0.00     0.055 S 
ATOM      6  O   UNL d   1       0.597   1.365   0.624  0.00  0.00    -0.245 OA
ATOM      7  C   UNL d   1       2.806  -0.004   0.446  0.00  0.00     0.142 C 
BRANCH   5   8
ATOM      8  C   UNL d   1       0.444  -1.111   1.393  0.00  0.00     0.038 A 
ATOM      9  C   UNL d   1       0.907  -2.431   1.377  0.00  0.00     0.023 A 
ATOM     10  C   UNL d   1       0.530  -3.303   2.401  0.00  0.00     0.025 A 
ATOM     11  C   UNL d   1      -0.308  -2.855   3.424  0.00  0.00     0.034 A 
ATOM     12  C   UNL d   1      -0.791  -1.546   3.424  0.00  0.00     0.025 A 
ATOM     13 CL   UNL d   1      -0.735  -3.921   4.706  0.00  0.00    -0.084 Cl
ATOM     14  C   UNL d   1      -0.417  -0.669   2.404  0.00  0.00     0.023 A 
ENDBRANCH   5   8
ENDBRANCH   1   5
BRANCH   3  15
ATOM     15  C   UNL d   1       0.365  -0.168  -3.659  0.00  0.00     0.066 A 
ATOM     16  C   UNL d   1       0.127   0.762  -4.673  0.00  0.00     0.085 A 
ATOM     17  N   UNL d   1      -0.434   0.396  -5.860  0.00  0.00    -0.360 N 
ATOM     18  C   UNL d   1      -0.777  -0.897  -6.043  0.00  0.00     0.089 A 
ATOM     19  HN  UNL d   1      -0.591   1.085  -6.595  1.00  0.00     0.166 HD
ATOM     20  C   UNL d   1      -0.604  -1.873  -5.084  0.00  0.00     0.018 A 
ATOM     21  C   UNL d   1      -0.026  -1.500  -3.875  0.00  0.00     0.021 A 
BRANCH  16  22
ATOM     22  S   UNL d   1       0.439   2.519  -4.501  0.00  0.00    -0.116 SA
ATOM     23  C   UNL d   1      -0.139   3.140  -6.107  0.00  0.00     0.097 C 
ENDBRANCH  16  22
ENDBRANCH   3  15
TORSDOF 4
