REMARK  3 active torsions:
REMARK  status: ('A' for Active; 'I' for Inactive)
REMARK    1  A    between atoms: O_2  and  S_1 
REMARK    2  A    between atoms: C_4  and  S_1 
REMARK    3  A    between atoms: C_3  and  O_2 
ROOT
ATOM      1  S   UNL d   1       1.015  -0.304  -0.084  0.00  0.00     0.303 S 
ATOM      2  O   UNL d   1      -0.178  -0.775   0.592  0.00  0.00    -0.193 OA
ATOM      3  O   UNL d   1       2.178  -1.144  -0.305  0.00  0.00    -0.193 OA
ENDROOT
BRANCH   1   4
ATOM      4  O   UNL d   1       1.497   1.073   0.619  0.00  0.00    -0.226 OA
BRANCH   4   5
ATOM      5  C   UNL d   1       2.137   1.174   1.836  0.00  0.00     0.133 A 
ATOM      6  C   UNL d   1       2.376   0.183   2.806  0.00  0.00     0.070 A 
ATOM      7 CL   UNL d   1       1.892  -1.472   2.725  0.00  0.00    -0.081 Cl
ATOM      8  C   UNL d   1       3.050   0.505   4.000  0.00  0.00     0.027 A 
ATOM      9  C   UNL d   1       3.483   1.801   4.260  0.00  0.00     0.003 A 
ATOM     10  C   UNL d   1       3.248   2.793   3.320  0.00  0.00     0.027 A 
ATOM     11  C   UNL d   1       2.587   2.482   2.126  0.00  0.00     0.070 A 
ATOM     12 CL   UNL d   1       2.335   3.784   1.006  0.00  0.00    -0.081 Cl
ENDBRANCH   4   5
ENDBRANCH   1   4
BRANCH   1  13
ATOM     13  C   UNL d   1       0.458   0.126  -1.723  0.00  0.00     0.088 A 
ATOM     14  C   UNL d   1       0.410   1.443  -2.186  0.00  0.00     0.035 A 
ATOM     15  C   UNL d   1      -0.044   1.689  -3.492  0.00  0.00    -0.021 A 
ATOM     16  C   UNL d   1      -0.118   3.079  -4.053  0.00  0.00     0.051 C 
ATOM     17  C   UNL d   1      -0.435   0.610  -4.303  0.00  0.00     0.128 A 
ATOM     18  C   UNL d   1      -0.389  -0.708  -3.843  0.00  0.00    -0.021 A 
ATOM     19  F   UNL d   1      -0.863   0.855  -5.551  0.00  0.00    -0.205 F 
ATOM     20  C   UNL d   1       0.062  -0.943  -2.542  0.00  0.00     0.035 A 
ATOM     21  C   UNL d   1      -0.802  -1.861  -4.706  0.00  0.00     0.051 C 
ENDBRANCH   1  13
TORSDOF 3
