REMARK  1 active torsions:
REMARK  status: ('A' for Active; 'I' for Inactive)
REMARK    1  A    between atoms: N_12  and  C_8 
ROOT
ATOM      1  N   UNL d   1       2.616  -0.763   0.535  0.00  0.00    -0.289 N 
ATOM      2  C   UNL d   1       3.425  -1.560  -0.215  0.00  0.00     0.259 A 
ATOM      3  C   UNL d   1       2.171   0.322  -0.157  0.00  0.00     0.259 A 
ATOM      4  C   UNL d   1       3.525  -0.927  -1.528  0.00  0.00     0.049 A 
ATOM      5  C   UNL d   1       2.750   0.220  -1.496  0.00  0.00     0.050 A 
ATOM      6  C   UNL d   1       2.610   1.045  -2.595  0.00  0.00     0.043 A 
ATOM      7  C   UNL d   1       4.224  -1.306  -2.654  0.00  0.00     0.043 A 
ATOM      8  C   UNL d   1       3.247   0.660  -3.783  0.00  0.00     0.029 A 
ATOM      9  C   UNL d   1       4.091  -0.489  -3.781  0.00  0.00     0.056 A 
ATOM     10  O   UNL d   1       3.959  -2.602   0.104  0.00  0.00    -0.267 OA
ATOM     11  O   UNL d   1       1.431   1.203   0.224  0.00  0.00    -0.267 OA
ATOM     12 CL   UNL d   1       4.954  -0.936  -5.214  0.00  0.00    -0.082 Cl
ATOM     13  H   UNL d   1       2.358  -0.965   1.488  0.00  0.00     0.172 HD
ENDROOT
BRANCH   8  14
ATOM     14  N   UNL d   1       3.200   1.533  -4.886  0.00  0.00    -0.301 NA
ATOM     15  H   UNL d   1       2.343   2.072  -4.964  0.00  0.00     0.124 HD
ATOM     16  H   UNL d   1       3.456   1.079  -5.762  0.00  0.00     0.124 HD
ENDBRANCH   8  14
TORSDOF 1
