REMARK  7 active torsions:
REMARK  status: ('A' for Active; 'I' for Inactive)
REMARK    1  A    between atoms: C_14  and  C_1 
REMARK    2  A    between atoms: C_2  and  C_13 
REMARK    3  A    between atoms: O_16  and  C_3 
REMARK    4  A    between atoms: O_15  and  C_4 
REMARK    5  A    between atoms: O_17  and  C_5 
REMARK    6  A    between atoms: O_18  and  C_6 
REMARK    7  A    between atoms: C_13  and  C_14 
ROOT
ATOM      1  C   UNL d   1       3.173   1.324   0.043  0.00  0.00     0.046 C 
ENDROOT
BRANCH   1   2
ATOM      2  C   UNL d   1       4.642   0.990   0.200  0.00  0.00    -0.022 A 
ATOM      3  C   UNL d   1       5.595   0.792  -0.801  0.00  0.00     0.075 A 
ATOM      4  C   UNL d   1       6.923   0.506  -0.408  0.00  0.00     0.046 A 
ATOM      5  C   UNL d   1       7.363   0.402   0.931  0.00  0.00    -0.026 A 
ATOM      6  C   UNL d   1       6.414   0.585   1.925  0.00  0.00     0.074 A 
ATOM      7  C   UNL d   1       8.827   0.084   1.060  0.00  0.00     0.051 C 
ATOM      8  C   UNL d   1       5.087   0.874   1.540  0.00  0.00     0.047 A 
BRANCH   3   9
ATOM      9  O   UNL d   1       5.529   0.823  -2.156  0.00  0.00    -0.355 OA
ATOM     10  C   UNL d   1       4.337   1.060  -2.871  0.00  0.00     0.210 C 
ENDBRANCH   3   9
BRANCH   6  11
ATOM     11  O   UNL d   1       6.506   0.533   3.287  0.00  0.00    -0.355 OA
ATOM     12  C   UNL d   1       7.742   0.327   3.934  0.00  0.00     0.210 C 
ENDBRANCH   6  11
ENDBRANCH   1   2
BRANCH   1  13
ATOM     13  C   UNL d   1       2.247   0.114   0.269  0.00  0.00     0.046 C 
BRANCH  13  14
ATOM     14  C   UNL d   1       0.781   0.457   0.100  0.00  0.00    -0.022 A 
ATOM     15  C   UNL d   1      -0.180   0.671   1.089  0.00  0.00     0.075 A 
ATOM     16  C   UNL d   1      -1.496   0.975   0.684  0.00  0.00     0.046 A 
ATOM     17  C   UNL d   1      -1.924   1.088  -0.659  0.00  0.00    -0.026 A 
ATOM     18  C   UNL d   1      -0.965   0.889  -1.647  0.00  0.00     0.074 A 
ATOM     19  C   UNL d   1      -3.387   1.390  -0.807  0.00  0.00     0.051 C 
ATOM     20  C   UNL d   1       0.351   0.581  -1.246  0.00  0.00     0.047 A 
BRANCH  15  21
ATOM     21  O   UNL d   1      -0.122   0.652   2.447  0.00  0.00    -0.355 OA
ATOM     22  C   UNL d   1       1.044   0.328   3.170  0.00  0.00     0.210 C 
ENDBRANCH  15  21
BRANCH  18  23
ATOM     23  O   UNL d   1      -1.044   0.933  -3.007  0.00  0.00    -0.355 OA
ATOM     24  C   UNL d   1      -2.253   1.234  -3.669  0.00  0.00     0.210 C 
ENDBRANCH  18  23
ENDBRANCH  13  14
ENDBRANCH   1  13
TORSDOF 7
