REMARK  3 active torsions:
REMARK  status: ('A' for Active; 'I' for Inactive)
REMARK    1  A    between atoms: C_5  and  C_1 
REMARK    2  A    between atoms: C_4  and  C_16 
REMARK       I    between atoms: N_17  and  C_5 
REMARK    3  A    between atoms: N_14  and  N_17 
ROOT
ATOM      1  N   UNL d   1       4.011  -0.945   0.115  0.00  0.00    -0.307 N 
ATOM      2  HN  UNL d   1       3.410  -0.124   0.190  1.00  0.00     0.186 HD
ATOM      3  C   UNL d   1       5.297  -0.826   0.119  0.00  0.00     0.139 C 
ENDROOT
BRANCH   1   4
ATOM      4  N   UNL d   1       3.478  -2.197   0.007  0.00  0.00    -0.265 N 
ATOM      5  C   UNL d   1       2.098  -2.331  -0.024  0.00  0.00     0.287 C 
ATOM      6  O   UNL d   1       1.301  -1.400   0.080  0.00  0.00    -0.264 OA
ATOM      7  H   UNL d   1       4.057  -3.025  -0.102  0.00  0.00     0.190 HD
BRANCH   5   8
ATOM      8  C   UNL d   1       1.639  -3.712  -0.205  0.00  0.00     0.109 A 
ATOM      9  N   UNL d   1       2.514  -4.797  -0.336  0.00  0.00    -0.349 N 
ATOM     10  C   UNL d   1       1.818  -5.908  -0.493  0.00  0.00     0.047 A 
ATOM     11  HN  UNL d   1       3.532  -4.739  -0.312  1.00  0.00     0.166 HD
ATOM     12  C   UNL d   1       2.399  -7.267  -0.673  0.00  0.00     0.076 C 
ATOM     13  S   UNL d   1       0.107  -5.728  -0.486  0.00  0.00    -0.087 SA
ATOM     14  C   UNL d   1       0.297  -4.046  -0.270  0.00  0.00     0.086 A 
ENDBRANCH   5   8
ENDBRANCH   1   4
BRANCH   3  15
ATOM     15  C   UNL d   1       5.892   0.502   0.192  0.00  0.00     0.083 A 
ATOM     16  C   UNL d   1       5.288   1.779   0.319  0.00  0.00     0.057 A 
ATOM     17  C   UNL d   1       6.307   2.694   0.291  0.00  0.00     0.128 A 
ATOM     18 BR   UNL d   1       3.469   2.197   0.483  0.00  0.00    -0.047 Br
ATOM     19  N   UNL d   1       7.445   1.960   0.173  0.00  0.00    -0.310 N 
ATOM     20  N   UNL d   1       7.234   0.632   0.117  0.00  0.00    -0.298 N 
ATOM     21  H   UNL d   1       8.402   2.299   0.120  0.00  0.00     0.186 HD
ATOM     22  HN  UNL d   1       7.930  -0.109   0.037  1.00  0.00     0.187 HD
ENDBRANCH   3  15
TORSDOF 3
