REMARK  1 active torsions:
REMARK  status: ('A' for Active; 'I' for Inactive)
REMARK    1  A    between atoms: C_2  and  N_1 
ROOT
ATOM      1  N   UNL d   1       1.967  -0.035  -0.070  0.00  0.00    -0.227 N 
ATOM      2  C   UNL d   1       1.210   1.110   0.029  0.00  0.00     0.267 A 
ATOM      3  C   UNL d   1       1.180  -1.159  -0.131  0.00  0.00     0.267 A 
ATOM      4  C   UNL d   1      -0.186   0.677   0.016  0.00  0.00     0.048 A 
ATOM      5  C   UNL d   1      -0.204  -0.699  -0.067  0.00  0.00     0.048 A 
ATOM      6  O   UNL d   1       1.491   2.293   0.108  0.00  0.00    -0.267 OA
ATOM      7  O   UNL d   1       1.458  -2.342  -0.214  0.00  0.00    -0.267 OA
ATOM      8  C   UNL d   1      -1.351   1.419   0.071  0.00  0.00     0.018 A 
ATOM      9  C   UNL d   1      -1.385  -1.417  -0.082  0.00  0.00     0.018 A 
ATOM     10  C   UNL d   1      -2.562   0.719   0.049  0.00  0.00     0.001 A 
ATOM     11  C   UNL d   1      -2.578  -0.690  -0.022  0.00  0.00     0.001 A 
ENDROOT
BRANCH   1  12
ATOM     12  C   UNL d   1       3.355  -0.059  -0.088  0.00  0.00     0.133 A 
ATOM     13  N   UNL d   1       4.116   1.030   0.082  0.00  0.00    -0.283 N 
ATOM     14  N   UNL d   1       5.380   0.589   0.044  0.00  0.00    -0.306 N 
ATOM     15  HN  UNL d   1       3.800   1.991   0.213  1.00  0.00     0.188 HD
ATOM     16  C   UNL d   1       6.470   1.500   0.295  0.00  0.00     0.177 C 
ATOM     17  C   UNL d   1       5.481  -0.745  -0.199  0.00  0.00     0.113 A 
ATOM     18  C   UNL d   1       4.186  -1.200  -0.275  0.00  0.00     0.069 A 
ENDBRANCH   1  12
TORSDOF 1
