REMARK  3 active torsions:
REMARK  status: ('A' for Active; 'I' for Inactive)
REMARK    1  A    between atoms: C_2  and  S_1 
REMARK    2  A    between atoms: O_10  and  S_1 
REMARK    3  A    between atoms: C_16  and  O_10 
ROOT
ATOM      1  C   UNL d   1       0.380   0.529   1.712  0.00  0.00     0.117 A 
ATOM      2  C   UNL d   1       0.109   1.850   2.093  0.00  0.00     0.109 A 
ATOM      3  C   UNL d   1      -0.320   2.170   3.454  0.00  0.00     0.086 A 
ATOM      4  N   UNL d   1       0.173   2.997   1.405  0.00  0.00    -0.238 N 
ATOM      5  HN  UNL d   1       0.440   3.110   0.427  1.00  0.00     0.197 HD
ATOM      6  O   UNL d   1      -0.196   3.997   2.288  0.00  0.00    -0.156 OA
ATOM      7  N   UNL d   1      -0.500   3.492   3.539  0.00  0.00    -0.239 N 
ATOM      8  HN  UNL d   1      -0.801   4.020   4.358  1.00  0.00     0.197 HD
ATOM      9  C   UNL d   1       0.201  -0.449   2.718  0.00  0.00     0.028 A 
ATOM     10  C   UNL d   1      -0.213  -0.129   4.035  0.00  0.00     0.004 A 
ATOM     11  C   UNL d   1      -0.486   1.188   4.450  0.00  0.00     0.034 A 
ENDROOT
BRANCH   1  12
ATOM     12  S   UNL d   1       0.946   0.066   0.122  0.00  0.00     0.305 S 
ATOM     13  O   UNL d   1       0.351  -1.230  -0.152  0.00  0.00    -0.193 OA
ATOM     14  O   UNL d   1       2.388   0.221   0.165  0.00  0.00    -0.193 OA
BRANCH  12  15
ATOM     15  O   UNL d   1       0.314   1.141  -0.924  0.00  0.00    -0.228 OA
BRANCH  15  16
ATOM     16  C   UNL d   1       0.647   1.135  -2.253  0.00  0.00     0.105 A 
ATOM     17  C   UNL d   1       0.104   2.146  -3.038  0.00  0.00     0.125 A 
ATOM     18  N   UNL d   1       0.337   2.295  -4.365  0.00  0.00    -0.373 N 
ATOM     19  C   UNL d   1       1.158   1.391  -4.940  0.00  0.00     0.088 A 
ATOM     20  HN  UNL d   1      -0.086   3.052  -4.901  1.00  0.00     0.164 HD
ATOM     21  C   UNL d   1       1.743   0.344  -4.250  0.00  0.00     0.020 A 
ATOM     22  C   UNL d   1       1.479   0.214  -2.886  0.00  0.00     0.041 A 
ENDBRANCH  15  16
ENDBRANCH  12  15
ENDBRANCH   1  12
TORSDOF 3
