REMARK  5 active torsions:
REMARK  status: ('A' for Active; 'I' for Inactive)
REMARK    1  A    between atoms: C_4  and  C_1 
REMARK       I    between atoms: N_8  and  C_4 
REMARK       I    between atoms: C_7  and  N_10 
REMARK       I    between atoms: N_13  and  C_7 
REMARK    2  A    between atoms: N_10  and  N_8 
REMARK    3  A    between atoms: C_15  and  N_13 
REMARK    4  A    between atoms: C_16  and  C_15 
REMARK    5  A    between atoms: C_17  and  C_16 
ROOT
ATOM      1  C   UNL d   1      -2.689  -1.373   0.018  0.00  0.00     0.288 C 
ATOM      2  N   UNL d   1      -3.955  -0.823   0.043  0.00  0.00    -0.261 N 
ATOM      3  O   UNL d   1      -1.669  -0.683  -0.000  0.00  0.00    -0.264 OA
ATOM      4  H   UNL d   1      -4.797  -1.400   0.038  0.00  0.00     0.190 HD
ENDROOT
BRANCH   2   5
ATOM      5  N   UNL d   1      -4.115   0.567   0.000  0.00  0.00    -0.249 N 
ATOM      6  C   UNL d   1      -5.389   1.082   0.047  0.00  0.00     0.334 C 
ATOM      7  O   UNL d   1      -6.390   0.376   0.110  0.00  0.00    -0.246 OA
ATOM      8  N   UNL d   1      -5.418   2.450  -0.015  0.00  0.00    -0.342 N 
ATOM      9  H   UNL d   1      -4.550   2.960   0.049  0.00  0.00     0.164 HD
ATOM     10  H   UNL d   1      -3.274   1.132   0.011  0.00  0.00     0.192 HD
BRANCH   8  11
ATOM     11  C   UNL d   1      -6.662   3.193   0.024  0.00  0.00     0.124 C 
BRANCH  11  12
ATOM     12  C   UNL d   1      -7.151   3.471   1.446  0.00  0.00     0.019 C 
BRANCH  12  13
ATOM     13  C   UNL d   1      -6.195   4.372   2.231  0.00  0.00    -0.003 C 
ATOM     14  C   UNL d   1      -6.719   4.664   3.629  0.00  0.00     0.005 C 
ENDBRANCH  12  13
ENDBRANCH  11  12
ENDBRANCH   8  11
ENDBRANCH   2   5
BRANCH   1  15
ATOM     15  C   UNL d   1      -2.656  -2.837   0.015  0.00  0.00     0.126 A 
ATOM     16  N   UNL d   1      -3.776  -3.582   0.027  0.00  0.00    -0.256 N 
ATOM     17  O   UNL d   1      -3.356  -4.901   0.015  0.00  0.00    -0.242 OA
ATOM     18  HN  UNL d   1      -4.738  -3.244   0.042  1.00  0.00     0.195 HD
ATOM     19  C   UNL d   1      -1.997  -4.947  -0.004  0.00  0.00     0.075 A 
ATOM     20  C   UNL d   1      -1.506  -3.667  -0.005  0.00  0.00     0.071 A 
ATOM     21  C   UNL d   1      -1.383  -6.286  -0.021  0.00  0.00     0.079 C 
ENDBRANCH   1  15
TORSDOF 5
