REMARK  8 active torsions:
REMARK  status: ('A' for Active; 'I' for Inactive)
REMARK    1  A    between atoms: N_2  and  S_1 
REMARK    2  A    between atoms: C_4  and  S_1 
REMARK    3  A    between atoms: C_5  and  C_3 
REMARK    4  A    between atoms: C_6  and  C_10 
REMARK    5  A    between atoms: C_7  and  C_9 
REMARK    6  A    between atoms: C_8  and  C_15 
REMARK    7  A    between atoms: C_15  and  S_19 
REMARK    8  A    between atoms: S_19  and  C_20 
ROOT
ATOM      1  N   UNL d   1       0.376   0.207   1.363  0.00  0.00    -0.256 N 
ATOM      2  C   UNL d   1       0.173   1.480   2.042  0.00  0.00     0.124 C 
ATOM      3  N   UNL d   1      -0.266   1.488   3.251  0.00  0.00    -0.375 N 
ATOM      4  HN  UNL d   1      -0.331   2.385   3.732  1.00  0.00     0.161 HD
ATOM      5  C   UNL d   1       0.021  -1.064   2.077  0.00  0.00     0.145 C 
ATOM      6  C   UNL d   1      -0.675   0.297   3.970  0.00  0.00     0.123 C 
ATOM      7  C   UNL d   1      -1.112  -0.803   3.036  0.00  0.00     0.041 C 
ENDROOT
BRANCH   1   8
ATOM      8  S   UNL d   1       1.251  -0.133  -0.072  0.00  0.00     0.266 S 
ATOM      9  O   UNL d   1       1.070   0.940  -1.021  0.00  0.00    -0.200 OA
ATOM     10  O   UNL d   1       1.018  -1.507  -0.468  0.00  0.00    -0.200 OA
BRANCH   8  11
ATOM     11  C   UNL d   1       2.981  -0.096   0.433  0.00  0.00     0.081 A 
ATOM     12  C   UNL d   1       3.358   0.070   1.773  0.00  0.00     0.041 A 
ATOM     13  C   UNL d   1       4.700   0.314   2.104  0.00  0.00     0.050 A 
ATOM     14  C   UNL d   1       5.660   0.345   1.077  0.00  0.00     0.032 A 
ATOM     15  C   UNL d   1       5.297   0.153  -0.269  0.00  0.00     0.050 A 
ATOM     16  C   UNL d   1       3.946  -0.063  -0.583  0.00  0.00     0.041 A 
BRANCH  13  17
ATOM     17  C   UNL d   1       5.113   0.594   3.534  0.00  0.00     0.417 C 
ATOM     18  F   UNL d   1       4.072   0.576   4.409  0.00  0.00    -0.166 F 
ATOM     19  F   UNL d   1       6.015  -0.311   4.000  0.00  0.00    -0.166 F 
ATOM     20  F   UNL d   1       5.697   1.815   3.668  0.00  0.00    -0.166 F 
ENDBRANCH  13  17
BRANCH  15  21
ATOM     21  C   UNL d   1       6.357   0.220  -1.346  0.00  0.00     0.417 C 
ATOM     22  F   UNL d   1       5.864   0.078  -2.606  0.00  0.00    -0.166 F 
ATOM     23  F   UNL d   1       7.025   1.406  -1.334  0.00  0.00    -0.166 F 
ATOM     24  F   UNL d   1       7.304  -0.746  -1.198  0.00  0.00    -0.166 F 
ENDBRANCH  15  21
ENDBRANCH   8  11
ENDBRANCH   1   8
BRANCH   2  25
ATOM     25  C   UNL d   1       0.492   2.841   1.435  0.00  0.00     0.025 A 
ATOM     26  C   UNL d   1      -0.314   4.000   1.656  0.00  0.00     0.014 A 
ATOM     27  C   UNL d   1       0.142   5.242   1.150  0.00  0.00     0.019 A 
ATOM     28  C   UNL d   1       1.312   5.365   0.406  0.00  0.00     0.001 A 
ATOM     29  C   UNL d   1       2.098   4.255   0.206  0.00  0.00     0.001 A 
ATOM     30  C   UNL d   1       1.708   3.033   0.755  0.00  0.00     0.016 A 
BRANCH  26  31
ATOM     31  S   UNL d   1      -1.842   3.997   2.644  0.00  0.00    -0.124 SA
BRANCH  31  32
ATOM     32  C   UNL d   1      -2.776   5.458   2.065  0.00  0.00     0.123 C 
BRANCH  32  33
ATOM     33  C   UNL d   1      -3.949   5.807   2.944  0.00  0.00     0.012 A 
ATOM     34  C   UNL d   1      -5.221   5.336   2.602  0.00  0.00     0.125 A 
ATOM     35  F   UNL d   1      -5.373   4.543   1.535  0.00  0.00    -0.205 F 
ATOM     36  C   UNL d   1      -6.359   5.701   3.323  0.00  0.00     0.043 A 
ATOM     37  C   UNL d   1      -6.242   6.552   4.417  0.00  0.00     0.005 A 
ATOM     38  C   UNL d   1      -4.983   7.019   4.793  0.00  0.00     0.024 A 
ATOM     39  C   UNL d   1      -3.845   6.644   4.066  0.00  0.00     0.044 A 
ATOM     40 CL   UNL d   1      -2.329   7.293   4.590  0.00  0.00    -0.084 Cl
ENDBRANCH  32  33
ENDBRANCH  31  32
ENDBRANCH  26  31
ENDBRANCH   2  25
TORSDOF 8
