REMARK  8 active torsions:
REMARK  status: ('A' for Active; 'I' for Inactive)
REMARK    1  A    between atoms: C_3  and  C_1 
REMARK       I    between atoms: N_19  and  C_1 
REMARK    2  A    between atoms: C_2  and  S_20 
REMARK    3  A    between atoms: C_4  and  C_2 
REMARK    4  A    between atoms: C_5  and  C_8 
REMARK    5  A    between atoms: C_6  and  C_7 
REMARK    6  A    between atoms: C_27  and  N_19 
REMARK    7  A    between atoms: S_20  and  C_28 
REMARK    8  A    between atoms: C_28  and  C_27 
ROOT
ATOM      1  C   UNL d   1       3.309   0.792   1.051  0.00  0.00     0.133 C 
ENDROOT
BRANCH   1   2
ATOM      2  N   UNL d   1       2.561   0.025   0.063  0.00  0.00    -0.356 N 
ATOM      3  C   UNL d   1       2.541   0.397  -1.266  0.00  0.00     0.251 C 
ATOM      4  O   UNL d   1       3.203   1.331  -1.708  0.00  0.00    -0.268 OA
ATOM      5  H   UNL d   1       1.799  -0.548   0.402  0.00  0.00     0.162 HD
BRANCH   3   6
ATOM      6  C   UNL d   1       1.635  -0.371  -2.170  0.00  0.00     0.032 A 
ATOM      7  C   UNL d   1       1.270  -1.697  -1.930  0.00  0.00     0.017 A 
ATOM      8  C   UNL d   1       0.461  -2.384  -2.849  0.00  0.00     0.009 A 
ATOM      9  C   UNL d   1      -0.002  -1.771  -4.032  0.00  0.00    -0.051 A 
ATOM     10  C   UNL d   1       0.368  -0.433  -4.244  0.00  0.00     0.009 A 
ATOM     11  C   UNL d   1       1.178   0.255  -3.332  0.00  0.00     0.017 A 
BRANCH   9  12
ATOM     12  C   UNL d   1      -0.841  -2.567  -5.052  0.00  0.00    -0.024 C 
ATOM     13  C   UNL d   1      -1.279  -1.732  -6.278  0.00  0.00     0.019 C 
ATOM     14  C   UNL d   1      -0.016  -3.758  -5.585  0.00  0.00     0.019 C 
ATOM     15  C   UNL d   1      -2.126  -3.105  -4.388  0.00  0.00     0.019 C 
ENDBRANCH   9  12
ENDBRANCH   3   6
ENDBRANCH   1   2
BRANCH   1  16
ATOM     16  C   UNL d   1       4.831   0.676   0.908  0.00  0.00     0.102 C 
BRANCH  16  17
ATOM     17  S   UNL d   1       5.649   1.547   2.293  0.00  0.00    -0.086 SA
BRANCH  17  18
ATOM     18  C   UNL d   1       7.332   1.188   1.918  0.00  0.00     0.219 C 
ATOM     19  O   UNL d   1       7.634   0.443   0.998  0.00  0.00    -0.280 OA
BRANCH  18  20
ATOM     20  C   UNL d   1       8.391   1.777   2.793  0.00  0.00     0.021 A 
ATOM     21  C   UNL d   1       8.231   2.951   3.535  0.00  0.00     0.016 A 
ATOM     22  C   UNL d   1       9.302   3.470   4.282  0.00  0.00     0.009 A 
ATOM     23  C   UNL d   1      10.562   2.839   4.310  0.00  0.00    -0.051 A 
ATOM     24  C   UNL d   1      10.691   1.645   3.584  0.00  0.00     0.009 A 
ATOM     25  C   UNL d   1       9.629   1.128   2.831  0.00  0.00     0.016 A 
BRANCH  23  26
ATOM     26  C   UNL d   1      11.745   3.477   5.066  0.00  0.00    -0.024 C 
ATOM     27  C   UNL d   1      13.048   2.647   4.988  0.00  0.00     0.019 C 
ATOM     28  C   UNL d   1      12.053   4.862   4.455  0.00  0.00     0.019 C 
ATOM     29  C   UNL d   1      11.409   3.655   6.562  0.00  0.00     0.019 C 
ENDBRANCH  23  26
ENDBRANCH  18  20
ENDBRANCH  17  18
ENDBRANCH  16  17
ENDBRANCH   1  16
TORSDOF 8
