REMARK  8 active torsions:
REMARK  status: ('A' for Active; 'I' for Inactive)
REMARK    1  A    between atoms: C_13  and  C_1 
REMARK    2  A    between atoms: N_7  and  C_2 
REMARK    3  A    between atoms: S_3  and  N_7 
REMARK    4  A    between atoms: C_14  and  S_3 
REMARK    5  A    between atoms: C_10  and  C_5 
REMARK    6  A    between atoms: C_8  and  C_12 
REMARK    7  A    between atoms: C_9  and  C_11 
REMARK    8  A    between atoms: O_29  and  C_13 
ROOT
ATOM      1  C   UNL d   1      -0.055   1.358   0.101  0.00  0.00     0.108 A 
ATOM      2  C   UNL d   1       1.268   0.953   0.076  0.00  0.00     0.067 A 
ATOM      3  S   UNL d   1      -1.119   0.015  -0.020  0.00  0.00    -0.081 SA
ATOM      4  C   UNL d   1       0.156  -1.128   0.030  0.00  0.00     0.018 A 
ATOM      5  C   UNL d   1       1.378  -0.476   0.049  0.00  0.00     0.051 A 
ENDROOT
BRANCH   4   6
ATOM      6  C   UNL d   1      -0.129  -2.578   0.033  0.00  0.00    -0.017 A 
ATOM      7  C   UNL d   1       0.726  -3.467  -0.638  0.00  0.00     0.029 A 
ATOM      8  C   UNL d   1       0.514  -4.859  -0.604  0.00  0.00     0.049 A 
ATOM      9  C   UNL d   1      -0.579  -5.365   0.113  0.00  0.00     0.032 A 
ATOM     10  C   UNL d   1      -1.446  -4.507   0.801  0.00  0.00     0.049 A 
ATOM     11  C   UNL d   1      -1.215  -3.118   0.744  0.00  0.00     0.029 A 
BRANCH   8  12
ATOM     12  C   UNL d   1       1.475  -5.787  -1.311  0.00  0.00     0.417 C 
ATOM     13  F   UNL d   1       1.175  -7.106  -1.145  0.00  0.00    -0.166 F 
ATOM     14  F   UNL d   1       1.512  -5.577  -2.655  0.00  0.00    -0.166 F 
ATOM     15  F   UNL d   1       2.754  -5.638  -0.869  0.00  0.00    -0.166 F 
ENDBRANCH   8  12
BRANCH  10  16
ATOM     16  C   UNL d   1      -2.591  -5.053   1.623  0.00  0.00     0.417 C 
ATOM     17  F   UNL d   1      -2.635  -6.415   1.652  0.00  0.00    -0.166 F 
ATOM     18  F   UNL d   1      -2.526  -4.657   2.924  0.00  0.00    -0.166 F 
ATOM     19  F   UNL d   1      -3.807  -4.649   1.166  0.00  0.00    -0.166 F 
ENDBRANCH  10  16
ENDBRANCH   4   6
BRANCH   1  20
ATOM     20  C   UNL d   1      -0.651   2.676   0.228  0.00  0.00     0.302 C 
ATOM     21  O   UNL d   1      -1.806   2.975  -0.060  0.00  0.00    -0.259 OA
BRANCH  20  22
ATOM     22  O   UNL d   1       0.237   3.555   0.781  0.00  0.00    -0.322 OA
ATOM     23  C   UNL d   1      -0.295   4.862   1.000  0.00  0.00     0.213 C 
ENDBRANCH  20  22
ENDBRANCH   1  20
BRANCH   2  24
ATOM     24  N   UNL d   1       2.388   1.802   0.150  0.00  0.00    -0.279 N 
ATOM     25  H   UNL d   1       3.010   1.671   0.951  0.00  0.00     0.179 HD
BRANCH  24  26
ATOM     26  S   UNL d   1       3.381   2.073  -1.201  0.00  0.00     0.263 S 
ATOM     27  O   UNL d   1       4.563   2.736  -0.696  0.00  0.00    -0.200 OA
ATOM     28  O   UNL d   1       3.491   0.837  -1.951  0.00  0.00    -0.200 OA
BRANCH  26  29
ATOM     29  C   UNL d   1       2.463   3.249  -2.162  0.00  0.00     0.079 A 
ATOM     30  C   UNL d   1       2.537   4.614  -1.864  0.00  0.00     0.026 A 
ATOM     31  C   UNL d   1       1.862   5.532  -2.675  0.00  0.00     0.008 A 
ATOM     32  C   UNL d   1       1.125   5.097  -3.787  0.00  0.00    -0.062 A 
ATOM     33  C   UNL d   1       1.074   3.728  -4.080  0.00  0.00     0.008 A 
ATOM     34  C   UNL d   1       0.404   6.090  -4.652  0.00  0.00     0.048 C 
ATOM     35  C   UNL d   1       1.744   2.806  -3.274  0.00  0.00     0.026 A 
ENDBRANCH  26  29
ENDBRANCH  24  26
ENDBRANCH   2  24
TORSDOF 8
