REMARK  4 active torsions:
REMARK  status: ('A' for Active; 'I' for Inactive)
REMARK    1  A    between atoms: C_2  and  C_1 
REMARK       I    between atoms: N_4  and  C_2 
REMARK    2  A    between atoms: C_7  and  C_3 
REMARK    3  A    between atoms: O_11  and  C_9 
REMARK    4  A    between atoms: C_18  and  O_11 
ROOT
ATOM      1  C   UNL d   1       1.023   0.825   0.132  0.00  0.00     0.113 C 
ATOM      2  C   UNL d   1       0.269   0.415   1.177  0.00  0.00     0.042 C 
ATOM      3  C   UNL d   1       0.457   1.129  -1.128  0.00  0.00     0.105 C 
ATOM      4  N   UNL d   1       0.008   1.389  -2.164  0.00  0.00    -0.191 NA
ENDROOT
BRANCH   1   5
ATOM      5  C   UNL d   1       2.520   0.654   0.282  0.00  0.00     0.264 C 
ATOM      6  N   UNL d   1       3.423   1.332  -0.519  0.00  0.00    -0.343 N 
ATOM      7  C   UNL d   1       3.198   2.453  -1.442  0.00  0.00     0.152 C 
ATOM      8  C   UNL d   1       4.811   0.852  -0.579  0.00  0.00     0.152 C 
ATOM      9  C   UNL d   1       3.592   2.041  -2.870  0.00  0.00     0.187 C 
ATOM     10  O   UNL d   1       4.954   1.574  -2.913  0.00  0.00    -0.388 OA
ATOM     11  C   UNL d   1       5.153   0.461  -2.023  0.00  0.00     0.187 C 
ATOM     12  O   UNL d   1       2.922  -0.185   1.099  0.00  0.00    -0.267 OA
ENDBRANCH   1   5
BRANCH   2  13
ATOM     13  C   UNL d   1      -1.163   0.069   1.069  0.00  0.00    -0.001 A 
ATOM     14  C   UNL d   1      -2.238   0.900   1.437  0.00  0.00     0.079 A 
ATOM     15  C   UNL d   1      -3.547   0.424   1.243  0.00  0.00     0.037 A 
ATOM     16  C   UNL d   1      -3.793  -0.847   0.721  0.00  0.00     0.003 A 
ATOM     17  C   UNL d   1      -2.733  -1.675   0.388  0.00  0.00     0.001 A 
ATOM     18  C   UNL d   1      -1.429  -1.222   0.562  0.00  0.00     0.014 A 
BRANCH  14  19
ATOM     19  O   UNL d   1      -1.953   2.147   1.950  0.00  0.00    -0.351 OA
BRANCH  19  20
ATOM     20  C   UNL d   1      -3.043   2.804   2.612  0.00  0.00     0.171 C 
ATOM     21  C   UNL d   1      -2.647   4.205   3.039  0.00  0.00     0.034 C 
ENDBRANCH  19  20
ENDBRANCH  14  19
ENDBRANCH   2  13
TORSDOF 4
