REMARK  4 active torsions:
REMARK  status: ('A' for Active; 'I' for Inactive)
REMARK    1  A    between atoms: C_2  and  C_1 
REMARK    2  A    between atoms: C_6  and  C_2 
REMARK    3  A    between atoms: N_8  and  N_3 
REMARK    4  A    between atoms: C_11  and  N_8 
ROOT
ATOM      1  C   UNL d   1       0.977  -0.094   0.009  0.00  0.00     0.179 C 
ATOM      2  N   UNL d   1       0.299   0.977  -0.302  0.00  0.00    -0.287 N 
ATOM      3  HN  UNL d   1       0.783   1.837  -0.559  1.00  0.00     0.188 HD
ATOM      4  C   UNL d   1       0.251  -1.288   0.358  0.00  0.00     0.123 C 
ATOM      5  N   UNL d   1      -0.380  -2.218   0.671  0.00  0.00    -0.190 NA
ENDROOT
BRANCH   1   6
ATOM      6  C   UNL d   1       2.479  -0.073  -0.060  0.00  0.00     0.220 C 
ATOM      7  O   UNL d   1       3.059  -1.112  -0.354  0.00  0.00    -0.284 OA
BRANCH   6   8
ATOM      8  C   UNL d   1       3.247   1.172   0.185  0.00  0.00     0.019 A 
ATOM      9  C   UNL d   1       2.773   2.182   1.027  0.00  0.00     0.039 A 
ATOM     10  C   UNL d   1       3.535   3.337   1.211  0.00  0.00     0.035 A 
ATOM     11 CL   UNL d   1       2.950   4.584   2.243  0.00  0.00    -0.084 Cl
ATOM     12  C   UNL d   1       4.764   3.492   0.572  0.00  0.00     0.024 A 
ATOM     13  C   UNL d   1       5.249   2.477  -0.252  0.00  0.00     0.003 A 
ATOM     14  C   UNL d   1       4.497   1.316  -0.439  0.00  0.00     0.015 A 
ENDBRANCH   6   8
ENDBRANCH   1   6
BRANCH   2  15
ATOM     15  N   UNL d   1      -1.064   0.934  -0.280  0.00  0.00    -0.300 N 
ATOM     16  H   UNL d   1      -1.578   0.599   0.538  0.00  0.00     0.187 HD
BRANCH  15  17
ATOM     17  C   UNL d   1      -1.772   1.813  -1.124  0.00  0.00     0.048 A 
ATOM     18  C   UNL d   1      -1.107   2.591  -2.085  0.00  0.00     0.034 A 
ATOM     19  C   UNL d   1      -1.813   3.392  -2.981  0.00  0.00     0.044 A 
ATOM     20  C   UNL d   1      -3.199   3.412  -2.929  0.00  0.00     0.116 A 
ATOM     21  C   UNL d   1      -3.888   2.632  -2.010  0.00  0.00     0.044 A 
ATOM     22  F   UNL d   1      -3.878   4.192  -3.780  0.00  0.00    -0.206 F 
ATOM     23  C   UNL d   1      -3.176   1.823  -1.116  0.00  0.00     0.034 A 
ENDBRANCH  15  17
ENDBRANCH   2  15
TORSDOF 4
