REMARK  8 active torsions:
REMARK  status: ('A' for Active; 'I' for Inactive)
REMARK    1  A    between atoms: C_5  and  C_1 
REMARK    2  A    between atoms: C_2  and  O_11 
REMARK    3  A    between atoms: C_3  and  N_8 
REMARK    4  A    between atoms: N_7  and  C_3 
REMARK       I    between atoms: C_4  and  N_6 
REMARK    5  A    between atoms: C_10  and  C_4 
REMARK    6  A    between atoms: N_6  and  N_7 
REMARK    7  A    between atoms: N_8  and  C_13 
REMARK    8  A    between atoms: O_11  and  C_23 
ROOT
ATOM      1  N   UNL d   1       1.399  -4.260   0.240  0.00  0.00    -0.273 N 
ATOM      2  H   UNL d   1       1.796  -5.014  -0.318  0.00  0.00     0.189 HD
ENDROOT
BRANCH   1   3
ATOM      3  N   UNL d   1       1.966  -3.003  -0.060  0.00  0.00    -0.264 N 
ATOM      4  C   UNL d   1       2.763  -2.923  -1.189  0.00  0.00     0.270 C 
ATOM      5  O   UNL d   1       3.072  -3.918  -1.835  0.00  0.00    -0.266 OA
ATOM      6  H   UNL d   1       1.557  -2.193   0.395  0.00  0.00     0.190 HD
BRANCH   4   7
ATOM      7  C   UNL d   1       3.183  -1.566  -1.628  0.00  0.00     0.033 A 
ATOM      8  C   UNL d   1       3.320  -0.476  -0.758  0.00  0.00     0.020 A 
ATOM      9  C   UNL d   1       3.725   0.780  -1.249  0.00  0.00     0.038 A 
ATOM     10  C   UNL d   1       4.016   0.945  -2.603  0.00  0.00     0.078 A 
ATOM     11  C   UNL d   1       3.861  -0.141  -3.468  0.00  0.00     0.038 A 
ATOM     12  C   UNL d   1       3.461  -1.389  -2.990  0.00  0.00     0.020 A 
BRANCH  10  13
ATOM     13  O   UNL d   1       4.428   2.081  -3.228  0.00  0.00    -0.255 OA
BRANCH  13  14
ATOM     14  C   UNL d   1       5.053   3.120  -2.495  0.00  0.00     0.530 C 
ATOM     15  F   UNL d   1       5.614   2.704  -1.341  0.00  0.00    -0.144 F 
ATOM     16  F   UNL d   1       6.034   3.647  -3.264  0.00  0.00    -0.144 F 
ATOM     17  F   UNL d   1       4.158   4.094  -2.229  0.00  0.00    -0.144 F 
ENDBRANCH  13  14
ENDBRANCH  10  13
ENDBRANCH   4   7
ENDBRANCH   1   3
BRANCH   1  18
ATOM     18  C   UNL d   1       1.020  -4.564   1.516  0.00  0.00     0.191 C 
ATOM     19  S   UNL d   1       1.176  -3.519   2.824  0.00  0.00    -0.039 SA
BRANCH  18  20
ATOM     20  N   UNL d   1       0.443  -5.775   1.766  0.00  0.00    -0.332 N 
ATOM     21  H   UNL d   1       0.307  -5.910   2.764  0.00  0.00     0.168 HD
BRANCH  20  22
ATOM     22  C   UNL d   1      -0.185  -6.746   0.954  0.00  0.00     0.035 A 
ATOM     23  C   UNL d   1      -0.316  -6.686  -0.434  0.00  0.00     0.045 A 
ATOM     24  C   UNL d   1      -1.071  -7.652  -1.135  0.00  0.00     0.050 A 
ATOM     25  C   UNL d   1      -1.681  -8.697  -0.427  0.00  0.00     0.016 A 
ATOM     26  C   UNL d   1      -1.546  -8.776   0.954  0.00  0.00     0.003 A 
ATOM     27  C   UNL d   1      -0.803  -7.808   1.635  0.00  0.00     0.029 A 
BRANCH  24  28
ATOM     28  C   UNL d   1      -1.275  -7.541  -2.627  0.00  0.00     0.417 C 
ATOM     29  F   UNL d   1      -0.654  -6.467  -3.186  0.00  0.00    -0.166 F 
ATOM     30  F   UNL d   1      -2.591  -7.422  -2.958  0.00  0.00    -0.166 F 
ATOM     31  F   UNL d   1      -0.818  -8.632  -3.301  0.00  0.00    -0.166 F 
ENDBRANCH  24  28
ENDBRANCH  20  22
ENDBRANCH  18  20
ENDBRANCH   1  18
TORSDOF 8
