REMARK  8 active torsions:
REMARK  status: ('A' for Active; 'I' for Inactive)
REMARK    1  A    between atoms: C_6  and  C_1 
REMARK    2  A    between atoms: N_7  and  C_2 
REMARK       I    between atoms: C_5  and  N_7 
REMARK       I    between atoms: N_8  and  C_5 
REMARK    3  A    between atoms: C_11  and  N_8 
REMARK    4  A    between atoms: C_16  and  N_8 
REMARK    5  A    between atoms: C_12  and  C_11 
REMARK    6  A    between atoms: O_20  and  C_12 
REMARK    7  A    between atoms: C_21  and  C_16 
REMARK    8  A    between atoms: C_27  and  O_20 
ROOT
ATOM      1  C   UNL d   1       1.784  -2.956  -0.125  0.00  0.00     0.324 C 
ATOM      2  N   UNL d   1       1.814  -3.818   0.952  0.00  0.00    -0.304 N 
ATOM      3  N   UNL d   1       2.998  -2.302  -0.369  0.00  0.00    -0.316 N 
ATOM      4  O   UNL d   1       0.773  -2.689  -0.762  0.00  0.00    -0.247 OA
ATOM      5  H   UNL d   1       2.451  -3.494   1.673  0.00  0.00     0.171 HD
ENDROOT
BRANCH   2   6
ATOM      6  C   UNL d   1       0.701  -4.493   1.461  0.00  0.00     0.097 A 
ATOM      7  C   UNL d   1       0.419  -4.662   2.862  0.00  0.00     0.097 A 
ATOM      8  N   UNL d   1      -0.689  -5.389   3.044  0.00  0.00    -0.258 N 
ATOM      9  O   UNL d   1      -1.157  -5.686   1.785  0.00  0.00    -0.240 OA
ATOM     10  HN  UNL d   1      -1.103  -5.666   3.934  1.00  0.00     0.195 HD
ATOM     11  C   UNL d   1      -0.350  -5.133   0.835  0.00  0.00     0.101 A 
ATOM     12  C   UNL d   1      -0.787  -5.412  -0.546  0.00  0.00     0.081 C 
BRANCH   7  13
ATOM     13  C   UNL d   1       1.132  -4.077   3.998  0.00  0.00     0.038 A 
ATOM     14  C   UNL d   1       1.264  -2.679   4.115  0.00  0.00     0.048 A 
ATOM     15 CL   UNL d   1       0.515  -1.561   3.019  0.00  0.00    -0.083 Cl
ATOM     16  C   UNL d   1       2.010  -2.111   5.154  0.00  0.00     0.025 A 
ATOM     17  C   UNL d   1       2.593  -2.920   6.122  0.00  0.00     0.003 A 
ATOM     18  C   UNL d   1       2.429  -4.300   6.053  0.00  0.00     0.025 A 
ATOM     19  C   UNL d   1       1.715  -4.881   4.995  0.00  0.00     0.048 A 
ATOM     20 CL   UNL d   1       1.631  -6.611   4.981  0.00  0.00    -0.083 Cl
ENDBRANCH   7  13
ENDBRANCH   2   6
BRANCH   3  21
ATOM     21  C   UNL d   1       4.351  -2.762   0.049  0.00  0.00     0.185 C 
ATOM     22  C   UNL d   1       4.595  -4.261  -0.108  0.00  0.00     0.043 C 
BRANCH  21  23
ATOM     23  C   UNL d   1       4.664  -2.310   1.480  0.00  0.00     0.281 C 
ATOM     24  O   UNL d   1       3.860  -2.370   2.403  0.00  0.00    -0.263 OA
BRANCH  23  25
ATOM     25  O   UNL d   1       5.925  -1.809   1.565  0.00  0.00    -0.320 OA
BRANCH  25  26
ATOM     26  C   UNL d   1       6.246  -1.054   2.746  0.00  0.00     0.174 C 
ATOM     27  C   UNL d   1       6.539  -1.931   3.949  0.00  0.00     0.034 C 
ENDBRANCH  25  26
ENDBRANCH  23  25
ENDBRANCH  21  23
ENDBRANCH   3  21
BRANCH   3  28
ATOM     28  C   UNL d   1       2.885  -0.890  -0.756  0.00  0.00     0.167 C 
BRANCH  28  29
ATOM     29  C   UNL d   1       3.446  -0.530  -2.112  0.00  0.00    -0.040 A 
ATOM     30  C   UNL d   1       2.944  -1.135  -3.272  0.00  0.00     0.009 A 
ATOM     31  C   UNL d   1       3.348  -0.689  -4.534  0.00  0.00     0.001 A 
ATOM     32  C   UNL d   1       4.255   0.363  -4.651  0.00  0.00     0.000 A 
ATOM     33  C   UNL d   1       4.775   0.961  -3.506  0.00  0.00     0.001 A 
ATOM     34  C   UNL d   1       4.373   0.516  -2.243  0.00  0.00     0.009 A 
ENDBRANCH  28  29
ENDBRANCH   3  28
TORSDOF 8
