REMARK  7 active torsions:
REMARK  status: ('A' for Active; 'I' for Inactive)
REMARK    1  A    between atoms: C_9  and  C_1 
REMARK    2  A    between atoms: S_2  and  N_5 
REMARK    3  A    between atoms: C_11  and  S_2 
REMARK    4  A    between atoms: N_7  and  C_3 
REMARK    5  A    between atoms: N_5  and  N_7 
REMARK    6  A    between atoms: C_8  and  C_14 
REMARK    7  A    between atoms: O_23  and  C_9 
ROOT
ATOM      1  N   UNL d   1       2.762   2.653   0.269  0.00  0.00    -0.222 N 
ATOM      2  H   UNL d   1       3.384   1.856   0.372  0.00  0.00     0.200 HD
ENDROOT
BRANCH   1   3
ATOM      3  S   UNL d   1       3.447   4.205   0.156  0.00  0.00     0.276 S 
ATOM      4  O   UNL d   1       3.292   4.665  -1.205  0.00  0.00    -0.199 OA
ATOM      5  O   UNL d   1       2.962   4.987   1.275  0.00  0.00    -0.199 OA
BRANCH   3   6
ATOM      6  C   UNL d   1       5.175   3.879   0.420  0.00  0.00     0.081 A 
ATOM      7  C   UNL d   1       6.022   3.652  -0.669  0.00  0.00     0.026 A 
ATOM      8  C   UNL d   1       7.395   3.483  -0.453  0.00  0.00     0.018 A 
ATOM      9  C   UNL d   1       7.926   3.549   0.847  0.00  0.00     0.048 A 
ATOM     10  C   UNL d   1       7.059   3.792   1.925  0.00  0.00     0.018 A 
ATOM     11  C   UNL d   1       5.690   3.960   1.716  0.00  0.00     0.026 A 
BRANCH   9  12
ATOM     12  C   UNL d   1       9.405   3.377   1.108  0.00  0.00     0.417 C 
ATOM     13  F   UNL d   1      10.134   3.124  -0.013  0.00  0.00    -0.166 F 
ATOM     14  F   UNL d   1       9.965   4.479   1.679  0.00  0.00    -0.166 F 
ATOM     15  F   UNL d   1       9.660   2.345   1.960  0.00  0.00    -0.166 F 
ENDBRANCH   9  12
ENDBRANCH   3   6
ENDBRANCH   1   3
BRANCH   1  16
ATOM     16  N   UNL d   1       1.327   2.512   0.059  0.00  0.00    -0.289 N 
ATOM     17  H   UNL d   1       0.807   3.391   0.220  0.00  0.00     0.188 HD
BRANCH  16  18
ATOM     18  C   UNL d   1       0.648   1.418  -0.389  0.00  0.00     0.078 A 
ATOM     19  C   UNL d   1      -0.745   1.425  -0.409  0.00  0.00     0.108 A 
ATOM     20  S   UNL d   1      -1.377  -0.029  -1.047  0.00  0.00    -0.093 SA
ATOM     21  C   UNL d   1       0.176  -0.646  -1.347  0.00  0.00     0.059 A 
ATOM     22  C   UNL d   1       1.195   0.215  -0.971  0.00  0.00    -0.026 A 
ATOM     23  C   UNL d   1       2.620  -0.146  -1.232  0.00  0.00     0.051 C 
BRANCH  19  24
ATOM     24  C   UNL d   1      -1.615   2.510   0.026  0.00  0.00     0.302 C 
ATOM     25  O   UNL d   1      -1.209   3.576   0.480  0.00  0.00    -0.259 OA
BRANCH  24  26
ATOM     26  O   UNL d   1      -2.939   2.219  -0.149  0.00  0.00    -0.322 OA
ATOM     27  C   UNL d   1      -3.820   3.274   0.239  0.00  0.00     0.213 C 
ENDBRANCH  24  26
ENDBRANCH  19  24
ENDBRANCH  16  18
ENDBRANCH   1  16
TORSDOF 7
