REMARK  4 active torsions:
REMARK  status: ('A' for Active; 'I' for Inactive)
REMARK    1  A    between atoms: C_10  and  N_1 
REMARK    2  A    between atoms: C_7  and  C_5 
REMARK       I    between atoms: C_9  and  N_14 
REMARK       I    between atoms: N_11  and  C_9 
REMARK    3  A    between atoms: C_13  and  N_11 
REMARK    4  A    between atoms: N_14  and  C_28 
ROOT
ATOM      1  C   UNL d   1       2.006  -1.586   0.462  0.00  0.00     0.057 A 
ATOM      2  C   UNL d   1       1.986  -2.884  -0.063  0.00  0.00     0.034 A 
ATOM      3  C   UNL d   1       3.215  -1.052   0.908  0.00  0.00     0.034 A 
ATOM      4  C   UNL d   1       4.407  -3.053   0.185  0.00  0.00     0.036 A 
ATOM      5  C   UNL d   1       3.182  -3.608  -0.203  0.00  0.00     0.032 A 
ATOM      6  C   UNL d   1       4.394  -1.794   0.797  0.00  0.00     0.032 A 
ENDROOT
BRANCH   1   7
ATOM      7  N   UNL d   1       0.841  -0.765   0.471  0.00  0.00    -0.255 N 
ATOM      8  C   UNL d   1      -0.497  -1.131   0.491  0.00  0.00     0.076 C 
ATOM      9  C   UNL d   1      -1.193  -0.015   0.073  0.00  0.00     0.069 C 
ATOM     10  C   UNL d   1      -1.050  -2.346   1.020  0.00  0.00     0.033 A 
ATOM     11  C   UNL d   1      -0.255   1.043   0.068  0.00  0.00     0.135 C 
ATOM     12  N   UNL d   1       0.974   0.591   0.383  0.00  0.00    -0.289 N 
ATOM     13  HN  UNL d   1       1.820   1.142   0.524  1.00  0.00     0.187 HD
ATOM     14  S   UNL d   1      -2.502  -3.016   0.400  0.00  0.00    -0.100 SA
ATOM     15  C   UNL d   1      -0.607  -3.049   2.125  0.00  0.00     0.021 A 
ATOM     16  C   UNL d   1      -2.599  -4.151   1.672  0.00  0.00     0.050 A 
ATOM     17  C   UNL d   1      -1.513  -4.078   2.514  0.00  0.00     0.008 A 
BRANCH  11  18
ATOM     18  C   UNL d   1      -0.592   2.491  -0.168  0.00  0.00     0.434 C 
ATOM     19  F   UNL d   1       0.467   3.334  -0.065  0.00  0.00    -0.165 F 
ATOM     20  F   UNL d   1      -1.129   2.681  -1.405  0.00  0.00    -0.165 F 
ATOM     21  F   UNL d   1      -1.528   2.929   0.721  0.00  0.00    -0.165 F 
ENDBRANCH  11  18
ENDBRANCH   1   7
BRANCH   4  22
ATOM     22  N   UNL d   1       5.595  -3.764  -0.135  0.00  0.00    -0.309 N 
ATOM     23  C   UNL d   1       6.884  -3.277   0.011  0.00  0.00     0.325 C 
ATOM     24  N   UNL d   1       7.836  -4.059  -0.628  0.00  0.00    -0.309 N 
ATOM     25  O   UNL d   1       7.148  -2.238   0.613  0.00  0.00    -0.247 OA
ATOM     26  H   UNL d   1       7.525  -4.909  -1.072  0.00  0.00     0.170 HD
ATOM     27  H   UNL d   1       5.480  -4.638  -0.621  0.00  0.00     0.170 HD
BRANCH  24  28
ATOM     28  C   UNL d   1       9.195  -3.695  -0.838  0.00  0.00     0.037 A 
ATOM     29  C   UNL d   1       9.760  -2.524  -0.322  0.00  0.00     0.036 A 
ATOM     30  C   UNL d   1      11.058  -2.120  -0.652  0.00  0.00    -0.059 A 
ATOM     31  C   UNL d   1      11.584  -0.804  -0.159  0.00  0.00     0.048 C 
ATOM     32  C   UNL d   1      11.832  -2.938  -1.474  0.00  0.00     0.013 A 
ATOM     33  C   UNL d   1      11.310  -4.138  -1.974  0.00  0.00    -0.059 A 
ATOM     34  C   UNL d   1       9.992  -4.511  -1.653  0.00  0.00     0.036 A 
ATOM     35  C   UNL d   1      12.158  -4.966  -2.896  0.00  0.00     0.048 C 
ENDBRANCH  24  28
ENDBRANCH   4  22
TORSDOF 4
