REMARK  5 active torsions:
REMARK  status: ('A' for Active; 'I' for Inactive)
REMARK    1  A    between atoms: C_3  and  C_1 
REMARK    2  A    between atoms: C_7  and  C_2 
REMARK    3  A    between atoms: C_8  and  C_3 
REMARK    4  A    between atoms: C_4  and  O_9 
REMARK    5  A    between atoms: O_9  and  C_17 
ROOT
ATOM      1  C   UNL d   1       1.005   0.104   0.057  0.00  0.00     0.096 C 
ATOM      2  C   UNL d   1       0.327   0.071   1.220  0.00  0.00     0.040 C 
ATOM      3  C   UNL d   1       2.365   0.509  -0.027  0.00  0.00     0.103 C 
ATOM      4  N   UNL d   1       3.480   0.825  -0.098  0.00  0.00    -0.191 NA
ENDROOT
BRANCH   1   5
ATOM      5  C   UNL d   1       0.225  -0.262  -1.171  0.00  0.00     0.202 C 
ATOM      6  O   UNL d   1      -1.003  -0.206  -1.187  0.00  0.00    -0.286 OA
BRANCH   5   7
ATOM      7  C   UNL d   1       0.935  -0.659  -2.415  0.00  0.00     0.016 A 
ATOM      8  C   UNL d   1       2.100  -1.433  -2.405  0.00  0.00     0.018 A 
ATOM      9  C   UNL d   1       2.758  -1.735  -3.604  0.00  0.00     0.038 A 
ATOM     10  C   UNL d   1       2.256  -1.268  -4.817  0.00  0.00     0.078 A 
ATOM     11  C   UNL d   1       1.039  -0.581  -4.833  0.00  0.00     0.038 A 
ATOM     12  C   UNL d   1       0.380  -0.275  -3.641  0.00  0.00     0.018 A 
BRANCH  10  13
ATOM     13  O   UNL d   1       2.817  -1.469  -6.040  0.00  0.00    -0.255 OA
BRANCH  13  14
ATOM     14  C   UNL d   1       4.234  -1.501  -6.149  0.00  0.00     0.530 C 
ATOM     15  F   UNL d   1       4.882  -1.092  -5.038  0.00  0.00    -0.144 F 
ATOM     16  F   UNL d   1       4.631  -2.756  -6.449  0.00  0.00    -0.144 F 
ATOM     17  F   UNL d   1       4.603  -0.688  -7.164  0.00  0.00    -0.144 F 
ENDBRANCH  13  14
ENDBRANCH  10  13
ENDBRANCH   5   7
ENDBRANCH   1   5
BRANCH   2  18
ATOM     18  C   UNL d   1       0.902   0.403   2.531  0.00  0.00    -0.013 A 
ATOM     19  C   UNL d   1       1.511  -0.558   3.359  0.00  0.00     0.044 A 
ATOM     20 CL   UNL d   1       1.641  -2.213   2.877  0.00  0.00    -0.083 Cl
ATOM     21  C   UNL d   1       2.032  -0.190   4.601  0.00  0.00     0.024 A 
ATOM     22  C   UNL d   1       1.960   1.137   5.025  0.00  0.00     0.002 A 
ATOM     23  C   UNL d   1       1.371   2.099   4.206  0.00  0.00     0.001 A 
ATOM     24  C   UNL d   1       0.843   1.734   2.967  0.00  0.00     0.013 A 
ENDBRANCH   2  18
TORSDOF 5
