REMARK  6 active torsions:
REMARK  status: ('A' for Active; 'I' for Inactive)
REMARK    1  A    between atoms: N_6  and  C_1 
REMARK    2  A    between atoms: C_7  and  C_2 
REMARK       I    between atoms: C_8  and  N_6 
REMARK    3  A    between atoms: O_13  and  C_7 
REMARK    4  A    between atoms: C_10  and  C_8 
REMARK    5  A    between atoms: N_9  and  C_10 
REMARK    6  A    between atoms: C_18  and  O_13 
ROOT
ATOM      1  C   UNL d   1      -1.926  -0.882   0.973  0.00  0.00     0.094 A 
ATOM      2  C   UNL d   1      -0.880  -1.743   0.651  0.00  0.00     0.080 A 
ATOM      3  S   UNL d   1      -1.379   0.671   1.381  0.00  0.00    -0.075 SA
ATOM      4  C   UNL d   1       0.385  -1.025   0.622  0.00  0.00    -0.026 A 
ATOM      5  C   UNL d   1       0.210   0.306   0.950  0.00  0.00    -0.008 A 
ATOM      6  C   UNL d   1       1.741  -1.547   0.221  0.00  0.00     0.041 C 
ATOM      7  C   UNL d   1       1.272   1.359   0.952  0.00  0.00     0.047 C 
ATOM      8  C   UNL d   1       2.871  -0.550   0.529  0.00  0.00     0.005 C 
ATOM      9  C   UNL d   1       2.485   0.882   0.146  0.00  0.00     0.005 C 
ENDROOT
BRANCH   1  10
ATOM     10  N   UNL d   1      -3.283  -1.183   0.979  0.00  0.00    -0.319 N 
ATOM     11  C   UNL d   1      -4.323  -0.295   1.200  0.00  0.00     0.251 C 
ATOM     12  O   UNL d   1      -4.233   0.891   1.523  0.00  0.00    -0.271 OA
ATOM     13  H   UNL d   1      -3.520  -2.138   0.729  0.00  0.00     0.169 HD
BRANCH  11  14
ATOM     14  C   UNL d   1      -5.706  -0.895   0.945  0.00  0.00     0.374 C 
BRANCH  14  15
ATOM     15  N   UNL d   1      -6.215  -1.778   1.999  0.00  0.00     0.097 N 
ATOM     16  C   UNL d   1      -6.135  -1.224   3.350  0.00  0.00     0.273 C 
ATOM     17  C   UNL d   1      -7.072  -2.009   4.271  0.00  0.00     0.030 C 
ATOM     18  C   UNL d   1      -6.831  -3.518   4.207  0.00  0.00     0.003 C 
ATOM     19  C   UNL d   1      -6.704  -4.019   2.768  0.00  0.00     0.030 C 
ATOM     20  C   UNL d   1      -5.741  -3.156   1.951  0.00  0.00     0.273 C 
ENDBRANCH  14  15
ENDBRANCH  11  14
ENDBRANCH   1  10
BRANCH   2  21
ATOM     21  C   UNL d   1      -1.102  -3.167   0.383  0.00  0.00     0.296 C 
ATOM     22  O   UNL d   1      -2.217  -3.687   0.431  0.00  0.00    -0.259 OA
BRANCH  21  23
ATOM     23  O   UNL d   1       0.059  -3.859   0.173  0.00  0.00    -0.318 OA
BRANCH  23  24
ATOM     24  C   UNL d   1      -0.005  -5.272   0.369  0.00  0.00     0.174 C 
ATOM     25  C   UNL d   1       0.219  -5.555   1.844  0.00  0.00     0.034 C 
ENDBRANCH  23  24
ENDBRANCH  21  23
ENDBRANCH   2  21
TORSDOF 6
