REMARK  4 active torsions:
REMARK  status: ('A' for Active; 'I' for Inactive)
REMARK    1  A    between atoms: C_3  and  S_1 
REMARK    2  A    between atoms: C_5  and  S_1 
REMARK    3  A    between atoms: N_2  and  C_4 
REMARK    4  A    between atoms: C_14  and  C_5 
ROOT
ATOM      1  S   UNL d   1       0.985  -0.101   0.085  0.00  0.00     0.179 S 
ATOM      2  O   UNL d   1       2.430  -0.199  -0.023  0.00  0.00    -0.222 OA
ATOM      3  O   UNL d   1       0.296  -0.484   1.303  0.00  0.00    -0.222 OA
ENDROOT
BRANCH   1   4
ATOM      4  C   UNL d   1       0.314  -1.114  -1.226  0.00  0.00     0.059 A 
ATOM      5  C   UNL d   1       1.079  -1.347  -2.375  0.00  0.00     0.025 A 
ATOM      6  C   UNL d   1       0.578  -2.178  -3.380  0.00  0.00     0.025 A 
ATOM      7  C   UNL d   1      -0.675  -2.775  -3.227  0.00  0.00     0.034 A 
ATOM      8  C   UNL d   1      -1.433  -2.548  -2.076  0.00  0.00     0.025 A 
ATOM      9 CL   UNL d   1      -1.281  -3.811  -4.458  0.00  0.00    -0.084 Cl
ATOM     10  C   UNL d   1      -0.938  -1.718  -1.067  0.00  0.00     0.025 A 
ENDBRANCH   1   4
BRANCH   1  11
ATOM     11  C   UNL d   1       0.464   1.543  -0.387  0.00  0.00     0.184 C 
BRANCH  11  12
ATOM     12  C   UNL d   1       1.052   2.563   0.558  0.00  0.00    -0.044 A 
ATOM     13  C   UNL d   1       2.321   3.111   0.310  0.00  0.00     0.010 A 
ATOM     14  C   UNL d   1       2.855   4.089   1.153  0.00  0.00     0.036 A 
ATOM     15  C   UNL d   1       2.117   4.523   2.260  0.00  0.00     0.102 A 
ATOM     16  C   UNL d   1       0.863   3.966   2.539  0.00  0.00     0.036 A 
ATOM     17  C   UNL d   1       0.338   2.987   1.690  0.00  0.00     0.010 A 
BRANCH  15  18
ATOM     18  N   UNL d   1       2.655   5.580   3.126  0.00  0.00    -0.116 N 
ATOM     19  O   UNL d   1       3.767   6.049   2.841  0.00  0.00    -0.532 OA
ATOM     20  O   UNL d   1       1.960   5.953   4.082  0.00  0.00    -0.532 OA
ENDBRANCH  15  18
ENDBRANCH  11  12
ENDBRANCH   1  11
TORSDOF 4
