REMARK  2 active torsions:
REMARK  status: ('A' for Active; 'I' for Inactive)
REMARK    1  A    between atoms: C_7  and  C_4 
REMARK    2  A    between atoms: O_15  and  C_9 
ROOT
ATOM      1  C   UNL d   1      -1.085  -0.837  -0.183  0.00  0.00     0.045 A 
ATOM      2  C   UNL d   1       0.418  -0.942  -0.256  0.00  0.00     0.257 A 
ATOM      3  N   UNL d   1       0.862   0.367  -0.313  0.00  0.00    -0.322 N 
ATOM      4  C   UNL d   1      -1.835  -1.949  -0.145  0.00  0.00     0.032 C 
ATOM      5  C   UNL d   1      -1.421   0.588  -0.157  0.00  0.00     0.006 A 
ATOM      6  C   UNL d   1      -0.201   1.266  -0.264  0.00  0.00     0.046 A 
ATOM      7  O   UNL d   1       1.089  -1.955  -0.249  0.00  0.00    -0.267 OA
ATOM      8  C   UNL d   1      -2.603   1.299  -0.054  0.00  0.00     0.015 A 
ATOM      9  C   UNL d   1      -0.116   2.643  -0.310  0.00  0.00     0.030 A 
ATOM     10  C   UNL d   1      -2.541   2.697  -0.101  0.00  0.00     0.001 A 
ATOM     11  C   UNL d   1      -1.310   3.362  -0.237  0.00  0.00     0.002 A 
ATOM     12  H   UNL d   1       1.839   0.610  -0.362  0.00  0.00     0.169 HD
ENDROOT
BRANCH   4  13
ATOM     13  C   UNL d   1      -3.294  -1.975  -0.035  0.00  0.00    -0.001 A 
ATOM     14  C   UNL d   1      -4.010  -2.095   1.170  0.00  0.00     0.078 A 
ATOM     15  C   UNL d   1      -5.416  -2.058   1.130  0.00  0.00     0.039 A 
ATOM     16  C   UNL d   1      -6.109  -1.905  -0.071  0.00  0.00     0.022 A 
ATOM     17  C   UNL d   1      -5.396  -1.796  -1.257  0.00  0.00     0.011 A 
ATOM     18  C   UNL d   1      -4.003  -1.839  -1.246  0.00  0.00     0.033 A 
ATOM     19 BR   UNL d   1      -6.320  -1.573  -2.890  0.00  0.00    -0.051 Br
BRANCH  14  20
ATOM     20  O   UNL d   1      -3.554  -2.243   2.451  0.00  0.00    -0.355 OA
ATOM     21  C   UNL d   1      -2.164  -2.309   2.721  0.00  0.00     0.210 C 
ENDBRANCH  14  20
ENDBRANCH   4  13
TORSDOF 2
