REMARK  7 active torsions:
REMARK  status: ('A' for Active; 'I' for Inactive)
REMARK    1  A    between atoms: S_8  and  C_2 
REMARK    2  A    between atoms: C_10  and  C_7 
REMARK    3  A    between atoms: S_11  and  C_10 
REMARK    4  A    between atoms: C_14  and  S_11 
REMARK    5  A    between atoms: C_12  and  O_13 
REMARK    6  A    between atoms: O_13  and  C_15 
REMARK    7  A    between atoms: C_15  and  C_14 
ROOT
ATOM      1  C   UNL d   1      -2.910  -2.900  -1.485  0.00  0.00     0.151 C 
ENDROOT
BRANCH   1   2
ATOM      2  C   UNL d   1      -3.444  -2.368  -2.767  0.00  0.00     0.109 A 
ATOM      3  N   UNL d   1      -4.370  -2.944  -3.506  0.00  0.00    -0.286 N 
ATOM      4  N   UNL d   1      -4.560  -2.175  -4.626  0.00  0.00    -0.279 N 
ATOM      5  HN  UNL d   1      -4.861  -3.811  -3.283  1.00  0.00     0.188 HD
ATOM      6  C   UNL d   1      -3.755  -1.142  -4.552  0.00  0.00     0.159 A 
ATOM      7  HN  UNL d   1      -5.213  -2.371  -5.385  1.00  0.00     0.189 HD
ATOM      8  N   UNL d   1      -3.028  -1.209  -3.393  0.00  0.00    -0.319 N 
ATOM      9  C   UNL d   1      -2.037  -0.303  -2.878  0.00  0.00     0.159 C 
BRANCH   6  10
ATOM     10  S   UNL d   1      -3.643   0.081  -5.767  0.00  0.00    -0.105 SA
ATOM     11  H   UNL d   1      -2.925   1.014  -5.135  0.00  0.00     0.110 HD
ENDBRANCH   6  10
ENDBRANCH   1   2
BRANCH   1  12
ATOM     12  S   UNL d   1      -3.379  -1.894  -0.037  0.00  0.00    -0.159 SA
BRANCH  12  13
ATOM     13  C   UNL d   1      -5.207  -1.991  -0.122  0.00  0.00     0.101 C 
BRANCH  13  14
ATOM     14  C   UNL d   1      -5.728  -3.421  -0.021  0.00  0.00     0.186 C 
BRANCH  14  15
ATOM     15  O   UNL d   1      -7.155  -3.399   0.072  0.00  0.00    -0.350 OA
BRANCH  15  16
ATOM     16  C   UNL d   1      -7.764  -4.627   0.109  0.00  0.00     0.068 A 
ATOM     17  C   UNL d   1      -7.110  -5.862   0.133  0.00  0.00     0.037 A 
ATOM     18  C   UNL d   1      -7.843  -7.050   0.174  0.00  0.00     0.003 A 
ATOM     19  C   UNL d   1      -9.235  -7.011   0.193  0.00  0.00     0.000 A 
ATOM     20  C   UNL d   1      -9.894  -5.784   0.168  0.00  0.00     0.003 A 
ATOM     21  C   UNL d   1      -9.159  -4.597   0.127  0.00  0.00     0.037 A 
ENDBRANCH  15  16
ENDBRANCH  14  15
ENDBRANCH  13  14
ENDBRANCH  12  13
ENDBRANCH   1  12
TORSDOF 7
