REMARK  6 active torsions:
REMARK  status: ('A' for Active; 'I' for Inactive)
REMARK    1  A    between atoms: S_15  and  C_5 
REMARK    2  A    between atoms: C_14  and  C_7 
REMARK    3  A    between atoms: C_11  and  C_12 
REMARK    4  A    between atoms: O_27  and  C_14 
REMARK    5  A    between atoms: C_18  and  S_15 
REMARK    6  A    between atoms: C_29  and  O_27 
ROOT
ATOM      1  C   UNL d   1       0.199  -0.821  -0.065  0.00  0.00     0.051 A 
ATOM      2  C   UNL d   1       0.150   0.569  -0.080  0.00  0.00     0.135 A 
ATOM      3  N   UNL d   1       2.348  -0.002  -0.142  0.00  0.00    -0.301 N 
ATOM      4  HN  UNL d   1       3.365   0.069  -0.176  1.00  0.00     0.187 HD
ATOM      5  C   UNL d   1      -1.032  -1.523   0.007  0.00  0.00     0.040 A 
ATOM      6  N   UNL d   1       1.449   0.998  -0.119  0.00  0.00    -0.280 N 
ATOM      7  C   UNL d   1      -2.196  -0.742   0.117  0.00  0.00     0.073 A 
ATOM      8  C   UNL d   1       1.600  -1.114  -0.108  0.00  0.00     0.037 A 
ATOM      9  N   UNL d   1      -0.944   1.353  -0.043  0.00  0.00    -0.349 N 
ATOM     10  HN  UNL d   1      -0.910   2.372  -0.085  1.00  0.00     0.167 HD
ATOM     11  C   UNL d   1      -2.093   0.646   0.057  0.00  0.00     0.108 A 
ATOM     12  C   UNL d   1       1.911   2.362  -0.085  0.00  0.00     0.179 C 
ATOM     13  C   UNL d   1       2.281  -2.432  -0.084  0.00  0.00     0.070 C 
ENDROOT
BRANCH   5  14
ATOM     14  S   UNL d   1      -0.951  -3.297   0.016  0.00  0.00    -0.070 SA
BRANCH  14  15
ATOM     15  C   UNL d   1      -1.923  -3.778  -1.398  0.00  0.00     0.074 A 
ATOM     16  N   UNL d   1      -2.042  -2.923  -2.437  0.00  0.00    -0.359 N 
ATOM     17  C   UNL d   1      -2.806  -3.319  -3.487  0.00  0.00     0.105 A 
ATOM     18  HN  UNL d   1      -1.577  -2.015  -2.433  1.00  0.00     0.166 HD
ATOM     19  C   UNL d   1      -3.475  -4.533  -3.551  0.00  0.00     0.063 A 
ATOM     20  C   UNL d   1      -3.316  -5.408  -2.473  0.00  0.00     0.020 A 
ATOM     21  C   UNL d   1      -2.526  -5.031  -1.390  0.00  0.00     0.038 A 
BRANCH  19  22
ATOM     22  C   UNL d   1      -4.349  -4.882  -4.716  0.00  0.00     0.418 C 
ATOM     23  F   UNL d   1      -4.381  -3.929  -5.686  0.00  0.00    -0.166 F 
ATOM     24  F   UNL d   1      -3.962  -6.032  -5.333  0.00  0.00    -0.166 F 
ATOM     25  F   UNL d   1      -5.645  -5.080  -4.345  0.00  0.00    -0.166 F 
ENDBRANCH  19  22
ENDBRANCH  14  15
ENDBRANCH   5  14
BRANCH   7  26
ATOM     26  C   UNL d   1      -3.557  -1.255   0.364  0.00  0.00     0.296 C 
ATOM     27  O   UNL d   1      -4.565  -0.719  -0.068  0.00  0.00    -0.259 OA
BRANCH  26  28
ATOM     28  O   UNL d   1      -3.514  -2.272   1.257  0.00  0.00    -0.318 OA
BRANCH  28  29
ATOM     29  C   UNL d   1      -4.778  -2.757   1.731  0.00  0.00     0.174 C 
ATOM     30  C   UNL d   1      -5.421  -3.679   0.714  0.00  0.00     0.034 C 
ENDBRANCH  28  29
ENDBRANCH  26  28
ENDBRANCH   7  26
TORSDOF 6
