REMARK  4 active torsions:
REMARK  status: ('A' for Active; 'I' for Inactive)
REMARK    1  A    between atoms: C_3  and  C_1 
REMARK    2  A    between atoms: C_2  and  S_4 
REMARK    3  A    between atoms: C_8  and  C_2 
REMARK    4  A    between atoms: S_4  and  C_7 
ROOT
ATOM      1  C   UNL d   1       3.894   2.939  -4.878  0.00  0.00     0.063 A 
ATOM      2  N   UNL d   1       1.741   4.004  -4.586  0.00  0.00    -0.359 N 
ATOM      3  HN  UNL d   1       1.201   4.836  -4.346  1.00  0.00     0.166 HD
ATOM      4  C   UNL d   1       1.120   2.854  -4.942  0.00  0.00     0.077 A 
ATOM      5  C   UNL d   1       3.097   4.024  -4.555  0.00  0.00     0.105 A 
ATOM      6  C   UNL d   1       3.243   1.760  -5.242  0.00  0.00     0.020 A 
ATOM      7  C   UNL d   1       1.847   1.714  -5.262  0.00  0.00     0.038 A 
ENDROOT
BRANCH   4   8
ATOM      8  S   UNL d   1      -0.656   2.924  -4.879  0.00  0.00    -0.030 SA
BRANCH   8   9
ATOM      9  C   UNL d   1      -1.151   1.860  -6.178  0.00  0.00     0.225 C 
ATOM     10  O   UNL d   1      -0.868   0.666  -6.176  0.00  0.00    -0.279 OA
BRANCH   9  11
ATOM     11  C   UNL d   1      -1.940   2.430  -7.303  0.00  0.00     0.021 A 
ATOM     12  C   UNL d   1      -2.804   3.522  -7.163  0.00  0.00     0.016 A 
ATOM     13  C   UNL d   1      -3.521   3.995  -8.268  0.00  0.00     0.007 A 
ATOM     14  C   UNL d   1      -3.383   3.387  -9.523  0.00  0.00    -0.062 A 
ATOM     15  C   UNL d   1      -2.536   2.283  -9.655  0.00  0.00     0.007 A 
ATOM     16  C   UNL d   1      -4.139   3.922 -10.705  0.00  0.00     0.048 C 
ATOM     17  C   UNL d   1      -1.826   1.804  -8.553  0.00  0.00     0.016 A 
ENDBRANCH   9  11
ENDBRANCH   8   9
ENDBRANCH   4   8
BRANCH   1  18
ATOM     18  C   UNL d   1       5.388   3.030  -4.829  0.00  0.00     0.418 C 
ATOM     19  F   UNL d   1       5.850   4.251  -4.441  0.00  0.00    -0.166 F 
ATOM     20  F   UNL d   1       5.963   2.782  -6.037  0.00  0.00    -0.166 F 
ATOM     21  F   UNL d   1       5.937   2.133  -3.964  0.00  0.00    -0.166 F 
ENDBRANCH   1  18
TORSDOF 4
