REMARK  5 active torsions:
REMARK  status: ('A' for Active; 'I' for Inactive)
REMARK    1  A    between atoms: N_2  and  S_1 
REMARK    2  A    between atoms: C_11  and  S_1 
REMARK       I    between atoms: C_3  and  N_2 
REMARK       I    between atoms: N_5  and  C_3 
REMARK    3  A    between atoms: C_4  and  N_6 
REMARK    4  A    between atoms: C_28  and  C_17 
REMARK    5  A    between atoms: C_30  and  C_28 
ROOT
ATOM      1  N   UNL d   1       0.969   1.074   2.434  0.00  0.00    -0.232 N 
ATOM      2  C   UNL d   1       0.739  -0.264   2.721  0.00  0.00     0.332 C 
ATOM      3  N   UNL d   1       1.872  -1.058   2.904  0.00  0.00    -0.332 N 
ATOM      4  N   UNL d   1       4.005  -3.004   3.703  0.00  0.00    -0.216 N 
ATOM      5  O   UNL d   1      -0.398  -0.694   2.858  0.00  0.00    -0.246 OA
ATOM      6  C   UNL d   1       1.614  -2.448   3.324  0.00  0.00     0.148 C 
ATOM      7  C   UNL d   1       2.663  -3.049   4.267  0.00  0.00     0.161 C 
ATOM      8  C   UNL d   1       4.383  -0.695   2.852  0.00  0.00     0.040 C 
ATOM      9  C   UNL d   1       3.074  -0.858   2.083  0.00  0.00     0.129 C 
ATOM     10  C   UNL d   1       4.763  -1.780   3.857  0.00  0.00     0.143 C 
ATOM     11  H   UNL d   1       1.884   1.486   2.546  0.00  0.00     0.183 HD
ENDROOT
BRANCH   1  12
ATOM     12  S   UNL d   1      -0.194   2.155   1.947  0.00  0.00     0.266 S 
ATOM     13  O   UNL d   1      -0.855   1.637   0.769  0.00  0.00    -0.200 OA
ATOM     14  O   UNL d   1       0.479   3.438   1.898  0.00  0.00    -0.200 OA
BRANCH  12  15
ATOM     15  C   UNL d   1      -1.361   2.230   3.284  0.00  0.00     0.080 A 
ATOM     16  C   UNL d   1      -1.125   3.094   4.357  0.00  0.00     0.026 A 
ATOM     17  C   UNL d   1      -2.103   3.253   5.343  0.00  0.00     0.008 A 
ATOM     18  C   UNL d   1      -3.321   2.565   5.257  0.00  0.00    -0.062 A 
ATOM     19  C   UNL d   1      -3.541   1.693   4.183  0.00  0.00     0.008 A 
ATOM     20  C   UNL d   1      -4.385   2.796   6.291  0.00  0.00     0.048 C 
ATOM     21  C   UNL d   1      -2.568   1.531   3.194  0.00  0.00     0.026 A 
ENDBRANCH  12  15
ENDBRANCH   1  12
BRANCH   4  22
ATOM     22  C   UNL d   1       4.504  -4.074   2.998  0.00  0.00     0.679 A 
ATOM     23  N   UNL d   1       3.766  -5.194   2.919  0.00  0.00    -0.201 N 
ATOM     24  C   UNL d   1       4.303  -6.266   2.297  0.00  0.00     0.114 A 
ATOM     25  HN  UNL d   1       2.827  -5.234   3.316  1.00  0.00     0.183 HD
ATOM     26  C   UNL d   1       5.556  -6.276   1.727  0.00  0.00    -0.026 A 
ATOM     27  C   UNL d   1       6.216  -5.074   1.819  0.00  0.00     0.114 A 
ATOM     28  N   UNL d   1       5.719  -3.979   2.438  0.00  0.00    -0.201 N 
ATOM     29  HN  UNL d   1       6.250  -3.110   2.476  1.00  0.00     0.183 HD
BRANCH  26  30
ATOM     30  C   UNL d   1       6.120  -7.484   1.044  0.00  0.00     0.041 C 
BRANCH  30  31
ATOM     31  C   UNL d   1       7.454  -7.985   1.612  0.00  0.00     0.000 C 
ATOM     32  C   UNL d   1       7.353  -8.472   3.051  0.00  0.00     0.005 C 
ENDBRANCH  30  31
ENDBRANCH  26  30
ENDBRANCH   4  22
TORSDOF 5
