REMARK  4 active torsions:
REMARK  status: ('A' for Active; 'I' for Inactive)
REMARK    1  A    between atoms: C_2  and  S_1 
REMARK    2  A    between atoms: N_8  and  S_1 
REMARK    3  A    between atoms: C_6  and  C_3 
REMARK       I    between atoms: N_9  and  C_6 
REMARK    4  A    between atoms: C_13  and  N_9 
ROOT
ATOM      1  C   UNL d   1       0.729   0.007   1.753  0.00  0.00     0.186 A 
ATOM      2  C   UNL d   1       0.075   0.989   3.716  0.00  0.00     0.065 A 
ATOM      3  C   UNL d   1       0.700   1.213   2.450  0.00  0.00     0.070 A 
ATOM      4  O   UNL d   1       0.197  -0.961   2.570  0.00  0.00    -0.301 OA
ATOM      5  C   UNL d   1      -0.187  -0.373   3.733  0.00  0.00     0.066 A 
ATOM      6  C   UNL d   1      -0.787  -1.276   4.741  0.00  0.00     0.078 C 
ENDROOT
BRANCH   2   7
ATOM      7  C   UNL d   1      -0.269   1.904   4.812  0.00  0.00     0.258 C 
ATOM      8  N   UNL d   1       0.207   3.199   4.664  0.00  0.00    -0.323 N 
ATOM      9  H   UNL d   1       0.752   3.397   3.839  0.00  0.00     0.169 HD
ATOM     10  O   UNL d   1      -0.928   1.501   5.765  0.00  0.00    -0.267 OA
BRANCH   8  11
ATOM     11  C   UNL d   1       0.032   4.284   5.558  0.00  0.00     0.035 A 
ATOM     12  C   UNL d   1      -0.684   4.207   6.755  0.00  0.00     0.029 A 
ATOM     13  C   UNL d   1      -0.811   5.327   7.586  0.00  0.00     0.002 A 
ATOM     14  C   UNL d   1      -0.221   6.536   7.229  0.00  0.00     0.000 A 
ATOM     15  C   UNL d   1       0.497   6.625   6.042  0.00  0.00     0.002 A 
ATOM     16  C   UNL d   1       0.620   5.507   5.209  0.00  0.00     0.029 A 
ENDBRANCH   8  11
ENDBRANCH   2   7
BRANCH   1  17
ATOM     17  S   UNL d   1       1.302  -0.359   0.087  0.00  0.00     0.266 S 
ATOM     18  O   UNL d   1       2.737  -0.205   0.153  0.00  0.00    -0.204 OA
ATOM     19  O   UNL d   1       0.496   0.501  -0.747  0.00  0.00    -0.204 OA
BRANCH  17  20
ATOM     20  N   UNL d   1       0.933  -1.981  -0.301  0.00  0.00    -0.205 NA
ATOM     21  C   UNL d   1       1.705  -3.024   0.417  0.00  0.00     0.107 C 
ATOM     22  C   UNL d   1       2.900  -3.295  -0.480  0.00  0.00     0.017 C 
ATOM     23  C   UNL d   1       2.388  -3.059  -1.892  0.00  0.00     0.017 C 
ATOM     24  C   UNL d   1       1.065  -2.314  -1.746  0.00  0.00     0.107 C 
ENDBRANCH  17  20
ENDBRANCH   1  17
TORSDOF 4
