REMARK  3 active torsions:
REMARK  status: ('A' for Active; 'I' for Inactive)
REMARK    1  A    between atoms: C_3  and  C_1 
REMARK    2  A    between atoms: C_13  and  N_2 
REMARK    3  A    between atoms: C_11  and  C_15 
ROOT
ATOM      1  C   UNL d   1      -0.216  -1.325  -0.083  0.00  0.00     0.167 C 
ATOM      2  N   UNL d   1       1.017  -0.730   0.115  0.00  0.00    -0.223 N 
ATOM      3  N   UNL d   1       0.808   0.585   0.369  0.00  0.00     0.001 NA
ATOM      4  N   UNL d   1      -0.472   0.801   0.103  0.00  0.00    -0.007 NA
ATOM      5  N   UNL d   1      -1.121  -0.371  -0.192  0.00  0.00    -0.268 N 
ATOM      6  HN  UNL d   1      -2.103  -0.482  -0.444  1.00  0.00     0.185 HD
ENDROOT
BRANCH   2   7
ATOM      7  C   UNL d   1       2.321  -1.263   0.012  0.00  0.00     0.056 A 
ATOM      8  C   UNL d   1       2.597  -2.266  -0.926  0.00  0.00     0.032 A 
ATOM      9  C   UNL d   1       3.867  -2.842  -0.982  0.00  0.00     0.018 A 
ATOM     10  C   UNL d   1       4.876  -2.422  -0.107  0.00  0.00     0.048 A 
ATOM     11  C   UNL d   1       4.603  -1.380   0.797  0.00  0.00     0.018 A 
ATOM     12  C   UNL d   1       3.338  -0.784   0.844  0.00  0.00     0.032 A 
BRANCH  10  13
ATOM     13  C   UNL d   1       6.232  -3.083  -0.124  0.00  0.00     0.417 C 
ATOM     14  F   UNL d   1       6.348  -4.065  -1.062  0.00  0.00    -0.166 F 
ATOM     15  F   UNL d   1       7.238  -2.203  -0.382  0.00  0.00    -0.166 F 
ATOM     16  F   UNL d   1       6.542  -3.667   1.066  0.00  0.00    -0.166 F 
ENDBRANCH  10  13
ENDBRANCH   2   7
BRANCH   1  17
ATOM     17  C   UNL d   1      -0.535  -2.779  -0.029  0.00  0.00     0.103 A 
ATOM     18  N   UNL d   1       0.354  -3.697   0.371  0.00  0.00    -0.257 N 
ATOM     19  O   UNL d   1      -0.298  -4.909   0.324  0.00  0.00    -0.242 OA
ATOM     20  HN  UNL d   1       1.320  -3.532   0.654  1.00  0.00     0.195 HD
ATOM     21  C   UNL d   1      -1.577  -4.716  -0.085  0.00  0.00     0.074 A 
ATOM     22  C   UNL d   1      -1.783  -3.376  -0.313  0.00  0.00     0.070 A 
ATOM     23  C   UNL d   1      -2.410  -5.927  -0.174  0.00  0.00     0.079 C 
ENDBRANCH   1  17
TORSDOF 3
