REMARK  5 active torsions:
REMARK  status: ('A' for Active; 'I' for Inactive)
REMARK    1  A    between atoms: N_3  and  S_1 
REMARK    2  A    between atoms: C_4  and  S_1 
REMARK    3  A    between atoms: C_2  and  O_13 
REMARK    4  A    between atoms: C_16  and  N_3 
REMARK    5  A    between atoms: O_13  and  C_17 
ROOT
ATOM      1  C   UNL d   1       0.272  -4.772  -4.517  0.00  0.00     0.117 A 
ATOM      2  N   UNL d   1      -2.821  -6.477  -4.864  0.00  0.00    -0.191 NA
ATOM      3  N   UNL d   1       2.737  -2.203  -4.650  0.00  0.00    -0.191 NA
ATOM      4  C   UNL d   1      -0.266  -6.029  -4.838  0.00  0.00     0.080 A 
ATOM      5  C   UNL d   1       1.651  -4.556  -4.702  0.00  0.00     0.080 A 
ATOM      6  C   UNL d   1      -1.681  -6.259  -4.832  0.00  0.00     0.102 C 
ATOM      7  C   UNL d   1       2.237  -3.253  -4.649  0.00  0.00     0.102 C 
ATOM      8  C   UNL d   1       2.492  -5.628  -5.036  0.00  0.00     0.026 A 
ATOM      9  C   UNL d   1       0.583  -7.082  -5.218  0.00  0.00     0.026 A 
ATOM     10  C   UNL d   1       1.962  -6.891  -5.282  0.00  0.00     0.003 A 
ENDROOT
BRANCH   1  11
ATOM     11  O   UNL d   1      -0.617  -3.790  -4.116  0.00  0.00    -0.308 OA
BRANCH  11  12
ATOM     12  C   UNL d   1      -0.288  -2.980  -3.047  0.00  0.00     0.076 A 
ATOM     13  C   UNL d   1      -0.761  -1.664  -3.105  0.00  0.00     0.039 A 
ATOM     14  C   UNL d   1      -0.390  -0.737  -2.125  0.00  0.00     0.028 A 
ATOM     15  C   UNL d   1       0.460  -1.135  -1.088  0.00  0.00     0.080 A 
ATOM     16  C   UNL d   1       0.866  -2.469  -0.980  0.00  0.00     0.028 A 
ATOM     17  C   UNL d   1       0.473  -3.397  -1.949  0.00  0.00     0.039 A 
BRANCH  15  18
ATOM     18  S   UNL d   1       0.971   0.038   0.152  0.00  0.00     0.263 S 
ATOM     19  O   UNL d   1      -0.083   1.023   0.274  0.00  0.00    -0.200 OA
ATOM     20  O   UNL d   1       1.439  -0.699   1.306  0.00  0.00    -0.200 OA
BRANCH  18  21
ATOM     21  N   UNL d   1       2.266   0.824  -0.555  0.00  0.00    -0.281 N 
ATOM     22  H   UNL d   1       2.189   1.831  -0.677  0.00  0.00     0.179 HD
BRANCH  21  23
ATOM     23  C   UNL d   1       3.477   0.158  -0.845  0.00  0.00     0.042 A 
ATOM     24  C   UNL d   1       3.731  -0.225  -2.159  0.00  0.00     0.032 A 
ATOM     25  C   UNL d   1       4.944  -0.836  -2.489  0.00  0.00     0.026 A 
ATOM     26  C   UNL d   1       5.905  -1.042  -1.504  0.00  0.00     0.034 A 
ATOM     27  C   UNL d   1       5.663  -0.638  -0.190  0.00  0.00     0.026 A 
ATOM     28 CL   UNL d   1       7.398  -1.790  -1.913  0.00  0.00    -0.084 Cl
ATOM     29  C   UNL d   1       4.444  -0.034   0.140  0.00  0.00     0.032 A 
ENDBRANCH  21  23
ENDBRANCH  18  21
ENDBRANCH  15  18
ENDBRANCH  11  12
ENDBRANCH   1  11
TORSDOF 5
