REMARK  2 active torsions:
REMARK  status: ('A' for Active; 'I' for Inactive)
REMARK    1  A    between atoms: C_4  and  C_3 
REMARK    2  A    between atoms: O_10  and  N_5 
ROOT
ATOM      1  N   UNL d   1      -6.375  -2.022  -0.043  0.00  0.00    -0.369 N 
ATOM      2  HN  UNL d   1      -7.388  -1.902  -0.048  1.00  0.00     0.165 HD
ATOM      3  C   UNL d   1      -4.151  -1.049  -0.024  0.00  0.00     0.003 A 
ATOM      4  C   UNL d   1      -5.537  -0.953  -0.047  0.00  0.00     0.101 A 
ATOM      5  C   UNL d   1      -3.593  -2.325  -0.026  0.00  0.00     0.017 A 
ATOM      6  C   UNL d   1      -5.812  -3.251  -0.032  0.00  0.00     0.005 A 
ATOM      7  C   UNL d   1      -4.432  -3.441  -0.028  0.00  0.00     0.025 A 
ATOM      8  C   UNL d   1      -6.737  -4.432  -0.033  0.00  0.00     0.068 C 
ENDROOT
BRANCH   3   9
ATOM      9  C   UNL d   1      -3.337   0.197  -0.022  0.00  0.00     0.039 C 
ATOM     10  N   UNL d   1      -3.835   1.266  -0.573  0.00  0.00    -0.273 N 
ATOM     11  HN  UNL d   1      -4.756   1.310  -1.009  1.00  0.00     0.194 HD
ATOM     12  C   UNL d   1      -1.971   0.178   0.636  0.00  0.00     0.071 C 
BRANCH  10  13
ATOM     13  O   UNL d   1      -2.951   2.347  -0.492  0.00  0.00    -0.290 OA
ATOM     14  H   UNL d   1      -3.439   3.052  -0.957  0.00  0.00     0.244 HD
ENDBRANCH  10  13
ENDBRANCH   3   9
TORSDOF 2
