REMARK  6 active torsions:
REMARK  status: ('A' for Active; 'I' for Inactive)
REMARK    1  A    between atoms: C_4  and  C_1 
REMARK    2  A    between atoms: C_2  and  C_3 
REMARK       I    between atoms: N_7  and  C_4 
REMARK    3  A    between atoms: C_5  and  O_10 
REMARK       I    between atoms: C_6  and  N_8 
REMARK    4  A    between atoms: C_9  and  C_6 
REMARK    5  A    between atoms: N_8  and  N_7 
REMARK    6  A    between atoms: O_10  and  C_24 
ROOT
ATOM      1  C   UNL d   1       0.956   2.543   0.651  0.00  0.00     0.272 C 
ATOM      2  N   UNL d   1       0.408   3.787   0.446  0.00  0.00    -0.263 N 
ATOM      3  O   UNL d   1       0.279   1.518   0.694  0.00  0.00    -0.266 OA
ATOM      4  H   UNL d   1       0.914   4.672   0.410  0.00  0.00     0.190 HD
ENDROOT
BRANCH   2   5
ATOM      5  N   UNL d   1      -0.965   3.866   0.167  0.00  0.00    -0.263 N 
ATOM      6  C   UNL d   1      -1.507   5.119  -0.044  0.00  0.00     0.270 C 
ATOM      7  O   UNL d   1      -0.815   6.137  -0.005  0.00  0.00    -0.266 OA
ATOM      8  H   UNL d   1      -1.499   3.005   0.263  0.00  0.00     0.190 HD
BRANCH   6   9
ATOM      9  C   UNL d   1      -2.973   5.207  -0.291  0.00  0.00     0.033 A 
ATOM     10  C   UNL d   1      -3.747   4.139  -0.770  0.00  0.00     0.020 A 
ATOM     11  C   UNL d   1      -5.129   4.303  -0.988  0.00  0.00     0.038 A 
ATOM     12  C   UNL d   1      -5.745   5.526  -0.714  0.00  0.00     0.078 A 
ATOM     13  C   UNL d   1      -4.964   6.596  -0.275  0.00  0.00     0.038 A 
ATOM     14  C   UNL d   1      -3.591   6.441  -0.064  0.00  0.00     0.020 A 
BRANCH  12  15
ATOM     15  O   UNL d   1      -7.069   5.823  -0.838  0.00  0.00    -0.255 OA
BRANCH  15  16
ATOM     16  C   UNL d   1      -8.003   4.764  -0.944  0.00  0.00     0.530 C 
ATOM     17  F   UNL d   1      -7.695   3.725  -0.138  0.00  0.00    -0.144 F 
ATOM     18  F   UNL d   1      -9.218   5.228  -0.574  0.00  0.00    -0.144 F 
ATOM     19  F   UNL d   1      -8.083   4.334  -2.220  0.00  0.00    -0.144 F 
ENDBRANCH  15  16
ENDBRANCH  12  15
ENDBRANCH   6   9
ENDBRANCH   2   5
BRANCH   1  20
ATOM     20  C   UNL d   1       2.413   2.463   0.904  0.00  0.00     0.064 A 
ATOM     21  C   UNL d   1       3.428   3.090   0.168  0.00  0.00     0.066 A 
ATOM     22  C   UNL d   1       4.763   2.885   0.574  0.00  0.00     0.034 A 
ATOM     23  C   UNL d   1       5.033   2.059   1.651  0.00  0.00     0.088 A 
ATOM     24  N   UNL d   1       4.074   1.427   2.349  0.00  0.00    -0.374 N 
ATOM     25  C   UNL d   1       2.793   1.634   1.958  0.00  0.00     0.105 A 
ATOM     26  HN  UNL d   1       4.300   0.819   3.137  1.00  0.00     0.164 HD
BRANCH  21  27
ATOM     27  C   UNL d   1       3.202   3.953  -1.040  0.00  0.00     0.418 C 
ATOM     28  F   UNL d   1       1.982   3.832  -1.617  0.00  0.00    -0.166 F 
ATOM     29  F   UNL d   1       3.352   5.272  -0.741  0.00  0.00    -0.166 F 
ATOM     30  F   UNL d   1       4.099   3.694  -2.033  0.00  0.00    -0.166 F 
ENDBRANCH  21  27
ENDBRANCH   1  20
TORSDOF 6
