REMARK  6 active torsions:
REMARK  status: ('A' for Active; 'I' for Inactive)
REMARK    1  A    between atoms: C_5  and  S_1 
REMARK    2  A    between atoms: O_6  and  S_1 
REMARK    3  A    between atoms: C_9  and  C_2 
REMARK    4  A    between atoms: C_3  and  O_6 
REMARK    5  A    between atoms: N_4  and  C_8 
REMARK    6  A    between atoms: O_21  and  C_9 
ROOT
ATOM      1  S   UNL d   1       0.369   0.020   0.144  0.00  0.00     0.303 S 
ATOM      2  O   UNL d   1      -0.862   0.191   0.895  0.00  0.00    -0.193 OA
ATOM      3  O   UNL d   1       1.622   0.550   0.647  0.00  0.00    -0.193 OA
ENDROOT
BRANCH   1   4
ATOM      4  C   UNL d   1       0.081   0.902  -1.394  0.00  0.00     0.095 A 
ATOM      5  C   UNL d   1       0.026   2.306  -1.241  0.00  0.00     0.062 A 
ATOM      6  C   UNL d   1      -0.201   3.131  -2.348  0.00  0.00     0.104 A 
ATOM      7  C   UNL d   1      -0.345   2.576  -3.618  0.00  0.00     0.037 A 
ATOM      8  C   UNL d   1      -0.291   1.188  -3.766  0.00  0.00     0.011 A 
ATOM      9  C   UNL d   1      -0.110   0.327  -2.660  0.00  0.00    -0.038 A 
ATOM     10  C   UNL d   1      -0.117  -1.141  -2.949  0.00  0.00     0.050 C 
BRANCH   6  11
ATOM     11  N   UNL d   1      -0.305   4.587  -2.173  0.00  0.00    -0.116 N 
ATOM     12  O   UNL d   1      -0.189   5.038  -1.026  0.00  0.00    -0.532 OA
ATOM     13  O   UNL d   1      -0.512   5.274  -3.184  0.00  0.00    -0.532 OA
ENDBRANCH   6  11
ENDBRANCH   1   4
BRANCH   1  14
ATOM     14  O   UNL d   1       0.582  -1.580  -0.136  0.00  0.00    -0.228 OA
BRANCH  14  15
ATOM     15  C   UNL d   1       0.705  -2.468   0.896  0.00  0.00     0.113 A 
ATOM     16  C   UNL d   1       0.764  -3.844   0.702  0.00  0.00     0.114 A 
ATOM     17  S   UNL d   1       0.882  -4.675   2.215  0.00  0.00    -0.093 SA
ATOM     18  C   UNL d   1       0.893  -3.230   3.106  0.00  0.00     0.053 A 
ATOM     19  C   UNL d   1       0.801  -2.128   2.289  0.00  0.00     0.047 A 
BRANCH  16  20
ATOM     20  C   UNL d   1       0.744  -4.683  -0.482  0.00  0.00     0.302 C 
ATOM     21  O   UNL d   1       0.867  -5.904  -0.502  0.00  0.00    -0.259 OA
BRANCH  20  22
ATOM     22  O   UNL d   1       0.571  -3.932  -1.611  0.00  0.00    -0.322 OA
ATOM     23  C   UNL d   1       0.547  -4.688  -2.824  0.00  0.00     0.213 C 
ENDBRANCH  20  22
ENDBRANCH  16  20
ENDBRANCH  14  15
ENDBRANCH   1  14
TORSDOF 6
