REMARK  8 active torsions:
REMARK  status: ('A' for Active; 'I' for Inactive)
REMARK    1  A    between atoms: C_7  and  C_1 
REMARK    2  A    between atoms: C_10  and  N_2 
REMARK    3  A    between atoms: C_17  and  C_3 
REMARK       I    between atoms: N_8  and  C_7 
REMARK    4  A    between atoms: C_16  and  N_8 
REMARK    5  A    between atoms: O_19  and  C_9 
REMARK    6  A    between atoms: O_20  and  C_11 
REMARK    7  A    between atoms: C_15  and  C_16 
REMARK    8  A    between atoms: C_25  and  C_17 
ROOT
ATOM      1  C   UNL d   1      -0.165   1.225  -0.031  0.00  0.00     0.073 C 
ATOM      2  N   UNL d   1       0.895  -0.756   0.084  0.00  0.00    -0.260 N 
ATOM      3  C   UNL d   1       1.119   0.645  -0.035  0.00  0.00     0.051 C 
ATOM      4  N   UNL d   1      -0.403  -1.032   0.332  0.00  0.00    -0.304 N 
ATOM      5  HN  UNL d   1      -0.808  -1.927   0.606  1.00  0.00     0.186 HD
ATOM      6  C   UNL d   1      -1.030   0.111   0.141  0.00  0.00     0.126 C 
ENDROOT
BRANCH   1   7
ATOM      7  C   UNL d   1      -0.781   2.552  -0.162  0.00  0.00     0.255 C 
ATOM      8  N   UNL d   1      -0.020   3.695  -0.098  0.00  0.00    -0.353 N 
ATOM      9  H   UNL d   1       0.832   3.638   0.427  0.00  0.00     0.163 HD
ATOM     10  O   UNL d   1      -2.008   2.644  -0.275  0.00  0.00    -0.268 OA
BRANCH   8  11
ATOM     11  C   UNL d   1      -0.710   4.974  -0.074  0.00  0.00     0.161 C 
BRANCH  11  12
ATOM     12  C   UNL d   1       0.171   6.198  -0.112  0.00  0.00    -0.038 A 
ATOM     13  C   UNL d   1       1.424   6.233  -0.749  0.00  0.00     0.048 A 
ATOM     14  C   UNL d   1       2.187   7.411  -0.804  0.00  0.00     0.102 A 
ATOM     15  C   UNL d   1       1.672   8.595  -0.252  0.00  0.00     0.101 A 
ATOM     16  C   UNL d   1       0.423   8.568   0.374  0.00  0.00     0.040 A 
ATOM     17  C   UNL d   1      -0.319   7.394   0.441  0.00  0.00     0.012 A 
BRANCH  14  18
ATOM     18  O   UNL d   1       3.470   7.436  -1.290  0.00  0.00    -0.353 OA
ATOM     19  C   UNL d   1       3.766   6.551  -2.364  0.00  0.00     0.210 C 
ENDBRANCH  14  18
BRANCH  15  20
ATOM     20  O   UNL d   1       2.275   9.825  -0.222  0.00  0.00    -0.353 OA
ATOM     21  C   UNL d   1       3.093  10.158  -1.339  0.00  0.00     0.210 C 
ENDBRANCH  15  20
ENDBRANCH  11  12
ENDBRANCH   8  11
ENDBRANCH   1   7
BRANCH   3  22
ATOM     22  C   UNL d   1       2.548   1.125  -0.109  0.00  0.00     0.060 C 
BRANCH  22  23
ATOM     23  C   UNL d   1       2.877   2.603  -0.065  0.00  0.00     0.002 C 
ATOM     24  C   UNL d   1       4.379   2.834  -0.210  0.00  0.00     0.005 C 
ENDBRANCH  22  23
ENDBRANCH   3  22
BRANCH   2  25
ATOM     25  C   UNL d   1       1.770  -1.888  -0.046  0.00  0.00     0.056 A 
ATOM     26  C   UNL d   1       1.426  -3.077   0.629  0.00  0.00     0.031 A 
ATOM     27  C   UNL d   1       2.167  -4.248   0.447  0.00  0.00     0.002 A 
ATOM     28  C   UNL d   1       3.254  -4.255  -0.419  0.00  0.00     0.000 A 
ATOM     29  C   UNL d   1       3.610  -3.087  -1.087  0.00  0.00     0.002 A 
ATOM     30  C   UNL d   1       2.873  -1.909  -0.905  0.00  0.00     0.031 A 
ENDBRANCH   2  25
TORSDOF 8
