REMARK  3 active torsions:
REMARK  status: ('A' for Active; 'I' for Inactive)
REMARK    1  A    between atoms: O_8  and  C_3 
REMARK       I    between atoms: C_4  and  N_7 
REMARK    2  A    between atoms: N_7  and  C_12 
REMARK    3  A    between atoms: C_9  and  O_8 
ROOT
ATOM      1  N   UNL d   1      -1.292  -0.062   0.187  0.00  0.00    -0.344 N 
ATOM      2  HN  UNL d   1      -2.303  -0.105   0.314  1.00  0.00     0.167 HD
ATOM      3  C   UNL d   1      -0.563  -1.179   0.004  0.00  0.00     0.148 A 
ATOM      4  C   UNL d   1       0.746   1.244   0.068  0.00  0.00     0.050 A 
ATOM      5  C   UNL d   1      -0.632   1.118   0.198  0.00  0.00     0.119 A 
ATOM      6  C   UNL d   1       0.819  -1.175  -0.093  0.00  0.00     0.059 A 
ATOM      7  C   UNL d   1       1.478   0.058  -0.062  0.00  0.00     0.035 A 
ENDROOT
BRANCH   3   8
ATOM      8  O   UNL d   1      -1.219  -2.400  -0.116  0.00  0.00    -0.292 OA
BRANCH   8   9
ATOM      9  C   UNL d   1      -2.527  -2.353  -0.542  0.00  0.00     0.094 A 
ATOM     10  C   UNL d   1      -2.965  -1.549  -1.597  0.00  0.00     0.064 A 
ATOM     11  C   UNL d   1      -4.314  -1.533  -1.925  0.00  0.00     0.052 A 
ATOM     12 CL   UNL d   1      -4.897  -0.490  -3.158  0.00  0.00    -0.083 Cl
ATOM     13  C   UNL d   1      -5.174  -2.367  -1.227  0.00  0.00     0.111 A 
ATOM     14  N   UNL d   1      -4.775  -3.206  -0.238  0.00  0.00    -0.371 N 
ATOM     15  C   UNL d   1      -3.457  -3.173   0.084  0.00  0.00     0.124 A 
ATOM     16  HN  UNL d   1      -5.430  -3.827   0.237  1.00  0.00     0.164 HD
ENDBRANCH   8   9
ENDBRANCH   3   8
BRANCH   4  17
ATOM     17  N   UNL d   1       1.436   2.476   0.056  0.00  0.00    -0.326 N 
ATOM     18  C   UNL d   1       0.857   3.731   0.137  0.00  0.00     0.218 C 
ATOM     19  O   UNL d   1      -0.341   3.975   0.210  0.00  0.00    -0.274 OA
ATOM     20  C   UNL d   1       1.857   4.860   0.132  0.00  0.00     0.117 C 
ATOM     21  H   UNL d   1       2.442   2.427  -0.036  0.00  0.00     0.169 HD
ENDBRANCH   4  17
TORSDOF 3
