REMARK  6 active torsions:
REMARK  status: ('A' for Active; 'I' for Inactive)
REMARK    1  A    between atoms: C_6  and  C_1 
REMARK    2  A    between atoms: C_12  and  C_5 
REMARK    3  A    between atoms: O_13  and  C_6 
REMARK    4  A    between atoms: O_8  and  C_12 
REMARK    5  A    between atoms: C_10  and  O_8 
REMARK    6  A    between atoms: C_17  and  O_13 
ROOT
ATOM      1  C   UNL d   1       1.296   0.793   0.023  0.00  0.00     0.115 A 
ATOM      2  N   UNL d   1       1.461  -0.589  -0.034  0.00  0.00    -0.347 N 
ATOM      3  HN  UNL d   1       2.357  -1.061  -0.157  1.00  0.00     0.166 HD
ATOM      4  C   UNL d   1      -0.015   1.195   0.215  0.00  0.00     0.087 A 
ATOM      5  C   UNL d   1       0.304  -1.204   0.093  0.00  0.00     0.075 A 
ATOM      6  S   UNL d   1      -1.049  -0.171   0.324  0.00  0.00    -0.084 SA
ENDROOT
BRANCH   5   7
ATOM      7  C   UNL d   1       0.147  -2.694  -0.014  0.00  0.00     0.240 C 
BRANCH   7   8
ATOM      8  O   UNL d   1       0.119  -3.212   1.310  0.00  0.00    -0.343 OA
BRANCH   8   9
ATOM      9  C   UNL d   1      -0.167  -4.538   1.497  0.00  0.00     0.090 A 
ATOM     10  C   UNL d   1       0.052  -5.635   0.650  0.00  0.00     0.067 A 
ATOM     11 CL   UNL d   1       0.768  -5.558  -0.920  0.00  0.00    -0.081 Cl
ATOM     12  C   UNL d   1      -0.280  -6.929   1.083  0.00  0.00     0.026 A 
ATOM     13  C   UNL d   1      -0.824  -7.146   2.348  0.00  0.00     0.002 A 
ATOM     14  C   UNL d   1      -1.039  -6.067   3.194  0.00  0.00     0.003 A 
ATOM     15  C   UNL d   1      -0.707  -4.778   2.772  0.00  0.00     0.038 A 
ENDBRANCH   8   9
ENDBRANCH   7   8
ENDBRANCH   5   7
BRANCH   1  16
ATOM     16  C   UNL d   1       2.423   1.707  -0.167  0.00  0.00     0.310 C 
ATOM     17  O   UNL d   1       2.297   2.923  -0.269  0.00  0.00    -0.258 OA
BRANCH  16  18
ATOM     18  O   UNL d   1       3.606   1.035  -0.270  0.00  0.00    -0.317 OA
BRANCH  18  19
ATOM     19  C   UNL d   1       4.741   1.787  -0.706  0.00  0.00     0.175 C 
ATOM     20  C   UNL d   1       4.840   1.680  -2.216  0.00  0.00     0.034 C 
ENDBRANCH  18  19
ENDBRANCH  16  18
ENDBRANCH   1  16
TORSDOF 6
