REMARK  6 active torsions:
REMARK  status: ('A' for Active; 'I' for Inactive)
REMARK    1  A    between atoms: C_4  and  C_1 
REMARK    2  A    between atoms: N_20  and  C_4 
REMARK    3  A    between atoms: C_5  and  C_13 
REMARK    4  A    between atoms: O_12  and  N_7 
REMARK    5  A    between atoms: C_11  and  O_12 
REMARK    6  A    between atoms: C_14  and  C_11 
ROOT
ATOM      1  C   UNL d   1       1.973  -0.302   0.760  0.00  0.00     0.126 C 
ATOM      2  N   UNL d   1       3.167  -0.673   1.077  0.00  0.00    -0.244 N 
ATOM      3  HN  UNL d   1       3.553  -0.608   2.019  1.00  0.00     0.196 HD
ENDROOT
BRANCH   2   4
ATOM      4  O   UNL d   1       3.877  -1.180  -0.030  0.00  0.00    -0.193 OA
BRANCH   4   5
ATOM      5  C   UNL d   1       5.184  -0.810   0.096  0.00  0.00     0.315 C 
ATOM      6  O   UNL d   1       5.585   0.310   0.388  0.00  0.00    -0.257 OA
BRANCH   5   7
ATOM      7  C   UNL d   1       6.099  -1.962  -0.138  0.00  0.00     0.041 A 
ATOM      8  C   UNL d   1       7.478  -1.732  -0.018  0.00  0.00     0.018 A 
ATOM      9  C   UNL d   1       8.386  -2.787  -0.133  0.00  0.00     0.017 A 
ATOM     10  C   UNL d   1       7.935  -4.094  -0.370  0.00  0.00     0.048 A 
ATOM     11  C   UNL d   1       6.555  -4.317  -0.506  0.00  0.00     0.017 A 
ATOM     12  C   UNL d   1       5.642  -3.261  -0.390  0.00  0.00     0.018 A 
BRANCH  10  13
ATOM     13  C   UNL d   1       8.930  -5.227  -0.456  0.00  0.00     0.417 C 
ATOM     14  F   UNL d   1       8.357  -6.442  -0.677  0.00  0.00    -0.166 F 
ATOM     15  F   UNL d   1       9.832  -5.051  -1.461  0.00  0.00    -0.166 F 
ATOM     16  F   UNL d   1       9.664  -5.362   0.685  0.00  0.00    -0.166 F 
ENDBRANCH  10  13
ENDBRANCH   5   7
ENDBRANCH   4   5
ENDBRANCH   2   4
BRANCH   1  17
ATOM     17  C   UNL d   1       1.080   0.139   1.835  0.00  0.00     0.079 A 
ATOM     18  N   UNL d   1      -0.214   0.607   1.563  0.00  0.00    -0.351 N 
ATOM     19  C   UNL d   1      -0.830   0.892   2.692  0.00  0.00     0.047 A 
ATOM     20  HN  UNL d   1      -0.617   0.710   0.632  1.00  0.00     0.166 HD
ATOM     21  C   UNL d   1      -2.236   1.370   2.797  0.00  0.00     0.076 C 
ATOM     22  S   UNL d   1       0.094   0.671   4.124  0.00  0.00    -0.087 SA
ATOM     23  C   UNL d   1       1.410   0.131   3.178  0.00  0.00     0.084 A 
ENDBRANCH   1  17
BRANCH   1  24
ATOM     24  N   UNL d   1       1.390  -0.233  -0.477  0.00  0.00    -0.285 NA
ATOM     25  H   UNL d   1       0.569   0.370  -0.491  0.00  0.00     0.125 HD
ATOM     26  H   UNL d   1       2.048  -0.034  -1.219  0.00  0.00     0.125 HD
ENDBRANCH   1  24
TORSDOF 6
