REMARK  10 active torsions:
REMARK  status: ('A' for Active; 'I' for Inactive)
REMARK    1  A    between atoms: C_8  and  C_1 
REMARK    2  A    between atoms: C_2  and  O_6 
REMARK    3  A    between atoms: C_4  and  C_2 
REMARK    4  A    between atoms: C_3  and  C_9 
REMARK    5  A    between atoms: O_6  and  C_23 
REMARK    6  A    between atoms: O_27  and  C_7 
REMARK    7  A    between atoms: N_10  and  O_22 
REMARK    8  A    between atoms: O_28  and  C_12 
REMARK    9  A    between atoms: O_22  and  C_31 
REMARK   10  A    between atoms: C_31  and  C_24 
ROOT
ATOM      1  C   UNL d   1      -2.070  -3.392   4.928  0.00  0.00     0.040 A 
ATOM      2  C   UNL d   1      -0.905  -3.569   4.157  0.00  0.00     0.027 A 
ATOM      3  C   UNL d   1       0.335  -3.809   4.772  0.00  0.00    -0.031 A 
ATOM      4  C   UNL d   1      -1.978  -3.422   6.325  0.00  0.00     0.017 A 
ATOM      5  C   UNL d   1      -0.745  -3.630   6.944  0.00  0.00     0.002 A 
ATOM      6  C   UNL d   1       0.402  -3.822   6.172  0.00  0.00     0.009 A 
ENDROOT
BRANCH   3   7
ATOM      7  C   UNL d   1       1.590  -4.062   3.963  0.00  0.00     0.239 C 
BRANCH   7   8
ATOM      8  O   UNL d   1       2.300  -2.871   3.616  0.00  0.00    -0.276 OA
BRANCH   8   9
ATOM      9  N   UNL d   1       2.837  -2.265   4.760  0.00  0.00    -0.270 N 
ATOM     10  C   UNL d   1       3.439  -1.133   4.523  0.00  0.00     0.038 C 
ATOM     11  C   UNL d   1       4.022  -0.446   5.746  0.00  0.00     0.071 C 
ATOM     12  HN  UNL d   1       2.763  -2.672   5.693  1.00  0.00     0.194 HD
BRANCH  10  13
ATOM     13  C   UNL d   1       3.594  -0.448   3.198  0.00  0.00    -0.009 A 
ATOM     14  C   UNL d   1       2.567  -0.487   2.246  0.00  0.00     0.053 A 
ATOM     15  C   UNL d   1       2.700   0.116   0.985  0.00  0.00     0.102 A 
ATOM     16  C   UNL d   1       3.870   0.840   0.703  0.00  0.00     0.101 A 
ATOM     17  C   UNL d   1       4.881   0.913   1.673  0.00  0.00     0.040 A 
ATOM     18  C   UNL d   1       4.759   0.263   2.902  0.00  0.00     0.016 A 
BRANCH  15  19
ATOM     19  O   UNL d   1       1.724   0.041   0.027  0.00  0.00    -0.353 OA
ATOM     20  C   UNL d   1       0.634  -0.849   0.243  0.00  0.00     0.210 C 
ENDBRANCH  15  19
BRANCH  16  21
ATOM     21  O   UNL d   1       4.200   1.529  -0.435  0.00  0.00    -0.353 OA
ATOM     22  C   UNL d   1       3.298   1.518  -1.531  0.00  0.00     0.210 C 
ENDBRANCH  16  21
ENDBRANCH  10  13
ENDBRANCH   8   9
ENDBRANCH   7   8
ENDBRANCH   3   7
BRANCH   1  23
ATOM     23  C   UNL d   1      -3.368  -3.178   4.221  0.00  0.00     0.298 C 
ATOM     24  O   UNL d   1      -3.448  -3.045   3.011  0.00  0.00    -0.259 OA
BRANCH  23  25
ATOM     25  O   UNL d   1      -4.415  -3.169   5.141  0.00  0.00    -0.275 OA
BRANCH  25  26
ATOM     26  C   UNL d   1      -5.790  -2.957   4.861  0.00  0.00     0.079 A 
ATOM     27  C   UNL d   1      -6.611  -2.813   5.983  0.00  0.00     0.038 A 
ATOM     28  C   UNL d   1      -7.977  -2.563   5.823  0.00  0.00     0.019 A 
ATOM     29  C   UNL d   1      -8.535  -2.457   4.539  0.00  0.00     0.048 A 
ATOM     30  C   UNL d   1      -7.700  -2.633   3.424  0.00  0.00     0.019 A 
ATOM     31  C   UNL d   1      -6.332  -2.885   3.582  0.00  0.00     0.038 A 
BRANCH  29  32
ATOM     32  C   UNL d   1     -10.004  -2.144   4.375  0.00  0.00     0.417 C 
ATOM     33  F   UNL d   1     -10.397  -2.028   3.075  0.00  0.00    -0.166 F 
ATOM     34  F   UNL d   1     -10.355  -0.971   4.973  0.00  0.00    -0.166 F 
ATOM     35  F   UNL d   1     -10.807  -3.097   4.923  0.00  0.00    -0.166 F 
ENDBRANCH  29  32
ENDBRANCH  25  26
ENDBRANCH  23  25
ENDBRANCH   1  23
TORSDOF 10
