REMARK  6 active torsions:
REMARK  status: ('A' for Active; 'I' for Inactive)
REMARK    1  A    between atoms: S_3  and  C_1 
REMARK    2  A    between atoms: C_5  and  C_2 
REMARK    3  A    between atoms: C_4  and  S_3 
REMARK    4  A    between atoms: O_13  and  C_5 
REMARK    5  A    between atoms: O_16  and  C_9 
REMARK    6  A    between atoms: O_17  and  C_12 
ROOT
ATOM      1  C   UNL d   1      -0.580   1.245   0.328  0.00  0.00     0.091 A 
ATOM      2  C   UNL d   1      -0.884   0.286   1.294  0.00  0.00     0.071 A 
ATOM      3  N   UNL d   1       0.640   1.275  -0.279  0.00  0.00    -0.359 N 
ATOM      4  HN  UNL d   1       0.838   1.950  -1.018  1.00  0.00     0.166 HD
ATOM      5  C   UNL d   1       0.141  -0.565   1.742  0.00  0.00     0.022 A 
ATOM      6  C   UNL d   1       1.580   0.391   0.119  0.00  0.00     0.089 A 
ATOM      7  C   UNL d   1       1.392  -0.518   1.141  0.00  0.00     0.018 A 
ENDROOT
BRANCH   1   8
ATOM      8  S   UNL d   1      -1.734   2.485  -0.258  0.00  0.00    -0.069 SA
BRANCH   8   9
ATOM      9  C   UNL d   1      -0.741   3.983  -0.130  0.00  0.00     0.043 A 
ATOM     10  C   UNL d   1       0.107   4.238  -1.235  0.00  0.00     0.058 A 
ATOM     11  C   UNL d   1       0.908   5.380  -1.300  0.00  0.00     0.069 A 
ATOM     12  C   UNL d   1       0.851   6.303  -0.263  0.00  0.00     0.039 A 
ATOM     13  C   UNL d   1      -0.001   6.086   0.819  0.00  0.00     0.041 A 
ATOM     14  C   UNL d   1      -0.799   4.934   0.906  0.00  0.00     0.085 A 
BRANCH  11  15
ATOM     15  O   UNL d   1       1.771   5.710  -2.307  0.00  0.00    -0.356 OA
ATOM     16  C   UNL d   1       1.868   4.802  -3.396  0.00  0.00     0.210 C 
ENDBRANCH  11  15
BRANCH  14  17
ATOM     17  O   UNL d   1      -1.595   4.976   2.018  0.00  0.00    -0.355 OA
ATOM     18  C   UNL d   1      -1.982   3.761   2.632  0.00  0.00     0.210 C 
ENDBRANCH  14  17
ENDBRANCH   8   9
ENDBRANCH   1   8
BRANCH   2  19
ATOM     19  C   UNL d   1      -2.247   0.066   1.813  0.00  0.00     0.179 C 
ATOM     20  O   UNL d   1      -3.125   0.878   2.041  0.00  0.00    -0.646 OA
BRANCH  19  21
ATOM     21  O   UNL d   1      -2.474  -1.257   1.959  0.00  0.00    -0.773 OA
ATOM     22  H   UNL d   1      -3.425  -1.325   2.183  0.00  0.00     0.167 HD
ENDBRANCH  19  21
ENDBRANCH   2  19
TORSDOF 6
