REMARK  6 active torsions:
REMARK  status: ('A' for Active; 'I' for Inactive)
REMARK    1  A    between atoms: C_5  and  C_1 
REMARK       I    between atoms: N_11  and  C_5 
REMARK    2  A    between atoms: C_21  and  C_6 
REMARK    3  A    between atoms: N_8  and  N_11 
REMARK    4  A    between atoms: N_20  and  C_10 
REMARK    5  A    between atoms: C_12  and  O_19 
REMARK    6  A    between atoms: O_19  and  C_21 
ROOT
ATOM      1  C   UNL d   1      -0.208  -1.235  -0.019  0.00  0.00     0.126 A 
ATOM      2  N   UNL d   1       0.904  -0.480  -0.008  0.00  0.00    -0.256 N 
ATOM      3  HN  UNL d   1       1.867  -0.815   0.000  1.00  0.00     0.195 HD
ATOM      4  C   UNL d   1      -1.361  -0.400  -0.029  0.00  0.00     0.074 A 
ATOM      5  C   UNL d   1      -0.866   0.882  -0.018  0.00  0.00     0.102 A 
ATOM      6  O   UNL d   1       0.490   0.833  -0.010  0.00  0.00    -0.239 OA
ENDROOT
BRANCH   1   7
ATOM      7  C   UNL d   1      -0.116  -2.701  -0.000  0.00  0.00     0.288 C 
ATOM      8  N   UNL d   1      -1.230  -3.357  -0.526  0.00  0.00    -0.264 N 
ATOM      9  H   UNL d   1      -1.977  -2.853  -0.986  0.00  0.00     0.190 HD
ATOM     10  O   UNL d   1       0.874  -3.285   0.435  0.00  0.00    -0.264 OA
BRANCH   8  11
ATOM     11  N   UNL d   1      -1.243  -4.720  -0.536  0.00  0.00    -0.293 N 
ATOM     12  C   UNL d   1      -2.238  -5.310  -1.110  0.00  0.00     0.194 C 
ATOM     13  HN  UNL d   1      -0.491  -5.257  -0.105  1.00  0.00     0.187 HD
BRANCH  12  14
ATOM     14  N   UNL d   1      -2.400  -6.670  -1.207  0.00  0.00    -0.385 N 
ATOM     15  C   UNL d   1      -1.417  -7.583  -0.637  0.00  0.00     0.149 C 
ATOM     16  C   UNL d   1      -3.539  -7.290  -1.854  0.00  0.00     0.149 C 
ENDBRANCH  12  14
ENDBRANCH   8  11
ENDBRANCH   1   7
BRANCH   5  17
ATOM     17  C   UNL d   1      -1.471   2.232  -0.022  0.00  0.00     0.242 C 
BRANCH  17  18
ATOM     18  O   UNL d   1      -1.727   2.574   1.339  0.00  0.00    -0.345 OA
BRANCH  18  19
ATOM     19  C   UNL d   1      -2.335   3.778   1.573  0.00  0.00     0.072 A 
ATOM     20  C   UNL d   1      -2.747   4.689   0.599  0.00  0.00     0.060 A 
ATOM     21  C   UNL d   1      -3.382   5.873   0.980  0.00  0.00     0.038 A 
ATOM     22 CL   UNL d   1      -3.901   6.982  -0.232  0.00  0.00    -0.084 Cl
ATOM     23  C   UNL d   1      -3.607   6.166   2.321  0.00  0.00     0.048 A 
ATOM     24  C   UNL d   1      -3.184   5.261   3.289  0.00  0.00     0.038 A 
ATOM     25  C   UNL d   1      -2.551   4.073   2.922  0.00  0.00     0.060 A 
ATOM     26 CL   UNL d   1      -3.453   5.607   4.953  0.00  0.00    -0.084 Cl
ENDBRANCH  18  19
ENDBRANCH  17  18
ENDBRANCH   5  17
TORSDOF 6
