REMARK  2 active torsions:
REMARK  status: ('A' for Active; 'I' for Inactive)
REMARK    1  A    between atoms: C_7  and  C_6 
REMARK    2  A    between atoms: O_11  and  C_7 
ROOT
ATOM      1  C   UNL d   1      -0.658   0.836   0.028  0.00  0.00     0.006 A 
ATOM      2  C   UNL d   1      -1.155  -0.486  -0.024  0.00  0.00     0.027 A 
ATOM      3  C   UNL d   1      -0.014  -1.416  -0.037  0.00  0.00     0.194 A 
ATOM      4  C   UNL d   1       0.803   0.764   0.011  0.00  0.00    -0.010 A 
ATOM      5  C   UNL d   1       1.200  -0.588  -0.020  0.00  0.00     0.026 A 
ATOM      6  C   UNL d   1      -1.592   1.871   0.068  0.00  0.00     0.051 A 
ATOM      7  O   UNL d   1      -0.068  -2.627  -0.067  0.00  0.00    -0.287 OA
ATOM      8  C   UNL d   1      -2.496  -0.828  -0.060  0.00  0.00     0.016 A 
ATOM      9  C   UNL d   1       1.801   1.726  -0.013  0.00  0.00     0.013 A 
ATOM     10  C   UNL d   1       2.514  -1.020  -0.056  0.00  0.00     0.016 A 
ATOM     11  C   UNL d   1      -2.970   1.544   0.018  0.00  0.00     0.018 A 
ATOM     12  C   UNL d   1      -3.415   0.213  -0.050  0.00  0.00     0.002 A 
ATOM     13  C   UNL d   1       3.147   1.319  -0.043  0.00  0.00     0.001 A 
ATOM     14  C   UNL d   1       3.501  -0.040  -0.064  0.00  0.00     0.001 A 
ENDROOT
BRANCH   6  15
ATOM     15  C   UNL d   1      -1.219   3.293   0.252  0.00  0.00     0.293 C 
ATOM     16  O   UNL d   1      -0.308   3.678   0.965  0.00  0.00    -0.259 OA
BRANCH  15  17
ATOM     17  O   UNL d   1      -2.057   4.088  -0.461  0.00  0.00    -0.322 OA
ATOM     18  C   UNL d   1      -1.798   5.486  -0.311  0.00  0.00     0.213 C 
ENDBRANCH  15  17
ENDBRANCH   6  15
TORSDOF 2
