REMARK  3 active torsions:
REMARK  status: ('A' for Active; 'I' for Inactive)
REMARK    1  A    between atoms: C_6  and  C_1 
REMARK    2  A    between atoms: C_3  and  C_6 
REMARK    3  A    between atoms: N_12  and  C_10 
ROOT
ATOM      1  C   UNL d   1       4.232  -0.496  -0.032  0.00  0.00     0.056 A 
ATOM      2  S   UNL d   1       5.933  -0.293  -0.054  0.00  0.00    -0.075 SA
ATOM      3  C   UNL d   1       6.229  -1.976  -0.048  0.00  0.00     0.086 A 
ATOM      4  C   UNL d   1       3.908  -1.844  -0.021  0.00  0.00     0.025 A 
ATOM      5  N   UNL d   1       8.599  -3.022  -0.068  0.00  0.00    -0.191 NA
ATOM      6  C   UNL d   1       7.540  -2.547  -0.059  0.00  0.00     0.107 C 
ATOM      7  C   UNL d   1       5.053  -2.695  -0.030  0.00  0.00     0.032 A 
ENDROOT
BRANCH   1   8
ATOM      8  C   UNL d   1       3.269   0.611  -0.026  0.00  0.00     0.190 C 
ATOM      9  O   UNL d   1       2.057   0.391  -0.006  0.00  0.00    -0.287 OA
BRANCH   8  10
ATOM     10  C   UNL d   1       3.748   2.032  -0.043  0.00  0.00     0.073 C 
ATOM     11  C   UNL d   1       2.877   3.052  -0.029  0.00  0.00     0.088 C 
BRANCH  11  12
ATOM     12  N   UNL d   1       3.107   4.423  -0.041  0.00  0.00    -0.398 N 
ATOM     13  C   UNL d   1       4.426   5.051  -0.077  0.00  0.00     0.148 C 
ATOM     14  C   UNL d   1       2.000   5.386  -0.015  0.00  0.00     0.148 C 
ENDBRANCH  11  12
ENDBRANCH   8  10
ENDBRANCH   1   8
TORSDOF 3
