REMARK  4 active torsions:
REMARK  status: ('A' for Active; 'I' for Inactive)
REMARK    1  A    between atoms: N_7  and  C_1 
REMARK    2  A    between atoms: N_5  and  C_12 
REMARK       I    between atoms: C_6  and  N_9 
REMARK    3  A    between atoms: O_11  and  C_6 
REMARK    4  A    between atoms: C_23  and  O_11 
ROOT
ATOM      1  C   UNL d   1      -8.333   1.540   0.389  0.00  0.00     0.368 C 
ATOM      2  N   UNL d   1      -4.546   0.144  -0.014  0.00  0.00    -0.360 N 
ATOM      3  N   UNL d   1      -6.967   1.755   0.579  0.00  0.00    -0.326 N 
ATOM      4  O   UNL d   1      -8.882   1.596  -0.701  0.00  0.00    -0.238 OA
ATOM      5  C   UNL d   1      -5.312   0.795  -1.086  0.00  0.00     0.145 C 
ATOM      6  C   UNL d   1      -6.101   2.020  -0.583  0.00  0.00     0.148 C 
ATOM      7  C   UNL d   1      -5.647   0.322   2.191  0.00  0.00     0.040 C 
ATOM      8  C   UNL d   1      -5.331  -0.565   0.990  0.00  0.00     0.126 C 
ATOM      9  C   UNL d   1      -6.295   1.672   1.873  0.00  0.00     0.129 C 
ENDROOT
BRANCH   1  10
ATOM     10  O   UNL d   1      -9.009   1.245   1.583  0.00  0.00    -0.261 OA
BRANCH  10  11
ATOM     11  C   UNL d   1     -10.423   1.202   1.748  0.00  0.00     0.081 A 
ATOM     12  C   UNL d   1     -10.876   0.427   2.821  0.00  0.00     0.040 A 
ATOM     13  C   UNL d   1     -12.223   0.463   3.195  0.00  0.00     0.039 A 
ATOM     14  C   UNL d   1     -13.112   1.288   2.493  0.00  0.00     0.103 A 
ATOM     15  C   UNL d   1     -12.670   2.026   1.383  0.00  0.00     0.039 A 
ATOM     16  C   UNL d   1     -11.316   1.983   1.012  0.00  0.00     0.040 A 
BRANCH  14  17
ATOM     17  N   UNL d   1     -14.497   1.425   2.964  0.00  0.00    -0.116 N 
ATOM     18  O   UNL d   1     -14.832   0.785   3.973  0.00  0.00    -0.532 OA
ATOM     19  O   UNL d   1     -15.249   2.192   2.342  0.00  0.00    -0.532 OA
ENDBRANCH  14  17
ENDBRANCH  10  11
ENDBRANCH   1  10
BRANCH   2  20
ATOM     20  C   UNL d   1      -3.175   0.197  -0.004  0.00  0.00     0.147 A 
ATOM     21  N   UNL d   1      -2.456   0.870  -0.876  0.00  0.00    -0.336 N 
ATOM     22  C   UNL d   1      -1.096   0.731  -0.632  0.00  0.00     0.051 A 
ATOM     23  HN  UNL d   1      -2.848   1.425  -1.637  1.00  0.00     0.168 HD
ATOM     24  C   UNL d   1      -0.044   1.313  -1.376  0.00  0.00     0.032 A 
ATOM     25  C   UNL d   1      -0.768  -0.066   0.461  0.00  0.00     0.036 A 
ATOM     26  C   UNL d   1       1.287   1.086  -1.001  0.00  0.00     0.026 A 
ATOM     27  C   UNL d   1       1.578   0.285   0.098  0.00  0.00     0.035 A 
ATOM     28  C   UNL d   1       0.562  -0.309   0.848  0.00  0.00     0.045 A 
ATOM     29 CL   UNL d   1       3.219   0.020   0.550  0.00  0.00    -0.084 Cl
ATOM     30  S   UNL d   1      -2.213  -0.637   1.178  0.00  0.00    -0.052 SA
ENDBRANCH   2  20
TORSDOF 4
