REMARK  4 active torsions:
REMARK  status: ('A' for Active; 'I' for Inactive)
REMARK    1  A    between atoms: N_8  and  C_1 
REMARK       I    between atoms: C_9  and  N_8 
REMARK    2  A    between atoms: C_14  and  C_9 
REMARK    3  A    between atoms: C_10  and  O_16 
REMARK    4  A    between atoms: O_16  and  C_23 
ROOT
ATOM      1  N   UNL d   1       3.289   1.288  -0.123  0.00  0.00    -0.303 N 
ATOM      2  C   UNL d   1       4.574   0.755  -0.068  0.00  0.00     0.257 C 
ATOM      3  O   UNL d   1       5.609   1.387   0.101  0.00  0.00    -0.267 OA
ATOM      4  H   UNL d   1       2.548   0.678  -0.438  0.00  0.00     0.171 HD
ENDROOT
BRANCH   1   5
ATOM      5  C   UNL d   1       2.783   2.538   0.197  0.00  0.00     0.155 C 
ATOM      6  S   UNL d   1       3.899   3.731   0.777  0.00  0.00    -0.010 SA
ATOM      7  C   UNL d   1       2.822   4.818   1.614  0.00  0.00     0.235 C 
ATOM      8  O   UNL d   1       3.249   5.533   2.515  0.00  0.00    -0.279 OA
ATOM      9  C   UNL d   1       1.486   4.822   1.108  0.00  0.00     0.089 A 
ATOM     10  C   UNL d   1       0.904   3.847   0.349  0.00  0.00     0.056 A 
ATOM     11  S   UNL d   1       0.407   6.106   1.419  0.00  0.00    -0.095 SA
ATOM     12  N   UNL d   1       1.507   2.639   0.005  0.00  0.00    -0.335 N 
ATOM     13  C   UNL d   1      -0.434   4.144  -0.011  0.00  0.00     0.038 A 
ATOM     14  HN  UNL d   1       0.965   1.865  -0.381  1.00  0.00     0.168 HD
ATOM     15  C   UNL d   1      -0.833   5.360   0.500  0.00  0.00     0.053 A 
ENDBRANCH   1   5
BRANCH   2  16
ATOM     16  C   UNL d   1       4.668  -0.713  -0.313  0.00  0.00     0.032 A 
ATOM     17  C   UNL d   1       5.820  -1.214  -0.931  0.00  0.00     0.020 A 
ATOM     18  C   UNL d   1       5.971  -2.590  -1.155  0.00  0.00     0.038 A 
ATOM     19  C   UNL d   1       4.982  -3.476  -0.732  0.00  0.00     0.078 A 
ATOM     20  C   UNL d   1       3.826  -2.970  -0.125  0.00  0.00     0.038 A 
ATOM     21  C   UNL d   1       3.668  -1.599   0.095  0.00  0.00     0.020 A 
BRANCH  19  22
ATOM     22  O   UNL d   1       5.011  -4.837  -0.824  0.00  0.00    -0.255 OA
BRANCH  22  23
ATOM     23  C   UNL d   1       6.218  -5.466  -1.220  0.00  0.00     0.530 C 
ATOM     24  F   UNL d   1       7.290  -4.962  -0.572  0.00  0.00    -0.144 F 
ATOM     25  F   UNL d   1       6.133  -6.781  -0.921  0.00  0.00    -0.144 F 
ATOM     26  F   UNL d   1       6.397  -5.344  -2.552  0.00  0.00    -0.144 F 
ENDBRANCH  22  23
ENDBRANCH  19  22
ENDBRANCH   2  16
TORSDOF 4
