REMARK  9 active torsions:
REMARK  status: ('A' for Active; 'I' for Inactive)
REMARK    1  A    between atoms: C_3  and  S_1 
REMARK    2  A    between atoms: C_13  and  S_1 
REMARK    3  A    between atoms: S_2  and  C_6 
REMARK    4  A    between atoms: C_5  and  S_2 
REMARK    5  A    between atoms: C_4  and  C_3 
REMARK    6  A    between atoms: N_16  and  C_4 
REMARK    7  A    between atoms: C_6  and  C_17 
REMARK    8  A    between atoms: O_18  and  N_11 
REMARK    9  A    between atoms: C_17  and  O_18 
ROOT
ATOM      1  C   UNL d   1       1.502   1.651   2.156  0.00  0.00     0.109 C 
ATOM      2  N   UNL d   1       2.053   0.568   2.629  0.00  0.00    -0.254 N 
ATOM      3  HN  UNL d   1       2.308   0.421   3.606  1.00  0.00     0.195 HD
ENDROOT
BRANCH   2   4
ATOM      4  O   UNL d   1       2.244  -0.368   1.595  0.00  0.00    -0.278 OA
BRANCH   4   5
ATOM      5  C   UNL d   1       2.664  -1.617   2.147  0.00  0.00     0.216 C 
BRANCH   5   6
ATOM      6  C   UNL d   1       1.502  -2.408   2.723  0.00  0.00     0.174 C 
BRANCH   6   7
ATOM      7  S   UNL d   1       0.441  -3.008   1.426  0.00  0.00     0.177 S 
ATOM      8  O   UNL d   1      -0.321  -1.905   0.874  0.00  0.00    -0.223 OA
ATOM      9  O   UNL d   1       1.224  -3.872   0.565  0.00  0.00    -0.223 OA
BRANCH   7  10
ATOM     10  C   UNL d   1      -0.729  -4.060   2.276  0.00  0.00     0.059 A 
ATOM     11  C   UNL d   1      -1.911  -3.508   2.782  0.00  0.00     0.025 A 
ATOM     12  C   UNL d   1      -2.868  -4.344   3.362  0.00  0.00     0.025 A 
ATOM     13  C   UNL d   1      -2.646  -5.722   3.424  0.00  0.00     0.034 A 
ATOM     14  C   UNL d   1      -1.467  -6.271   2.916  0.00  0.00     0.025 A 
ATOM     15 CL   UNL d   1      -3.841  -6.751   4.109  0.00  0.00    -0.084 Cl
ATOM     16  C   UNL d   1      -0.505  -5.439   2.334  0.00  0.00     0.025 A 
ENDBRANCH   7  10
ENDBRANCH   6   7
ENDBRANCH   5   6
ENDBRANCH   4   5
ENDBRANCH   2   4
BRANCH   1  17
ATOM     17  C   UNL d   1       1.161   2.740   3.141  0.00  0.00     0.218 C 
BRANCH  17  18
ATOM     18  S   UNL d   1       1.977   4.271   2.774  0.00  0.00     0.154 S 
ATOM     19  O   UNL d   1       1.581   5.218   3.802  0.00  0.00    -0.227 OA
ATOM     20  O   UNL d   1       1.717   4.577   1.376  0.00  0.00    -0.227 OA
BRANCH  18  21
ATOM     21  C   UNL d   1       3.751   3.981   2.947  0.00  0.00     0.101 C 
ATOM     22  C   UNL d   1       4.503   5.285   2.671  0.00  0.00     0.026 C 
ATOM     23  C   UNL d   1       4.118   3.452   4.327  0.00  0.00     0.026 C 
ENDBRANCH  18  21
ENDBRANCH  17  18
ENDBRANCH   1  17
BRANCH   1  24
ATOM     24  N   UNL d   1       1.161   1.820   0.839  0.00  0.00    -0.387 N 
ATOM     25  H   UNL d   1       1.151   2.769   0.460  0.00  0.00     0.157 HD
ATOM     26  H   UNL d   1       1.545   1.119   0.213  0.00  0.00     0.157 HD
ENDBRANCH   1  24
TORSDOF 9
