REMARK  4 active torsions:
REMARK  status: ('A' for Active; 'I' for Inactive)
REMARK    1  A    between atoms: N_5  and  C_1 
REMARK    2  A    between atoms: C_11  and  C_4 
REMARK       I    between atoms: C_6  and  N_5 
REMARK       I    between atoms: N_9  and  C_6 
REMARK    3  A    between atoms: C_10  and  N_9 
REMARK    4  A    between atoms: C_15  and  C_12 
ROOT
ATOM      1  N   UNL d   1       0.398  -4.269  -1.485  0.00  0.00    -0.288 N 
ATOM      2  C   UNL d   1       0.835  -3.138  -0.887  0.00  0.00     0.326 C 
ATOM      3  N   UNL d   1       2.173  -2.992  -0.645  0.00  0.00    -0.308 N 
ATOM      4  O   UNL d   1      -0.027  -2.303  -0.595  0.00  0.00    -0.247 OA
ATOM      5  H   UNL d   1      -0.606  -4.305  -1.598  0.00  0.00     0.172 HD
ATOM      6  H   UNL d   1       2.768  -3.533  -1.250  0.00  0.00     0.170 HD
ENDROOT
BRANCH   1   7
ATOM      7  C   UNL d   1       1.091  -5.366  -1.888  0.00  0.00     0.152 A 
ATOM      8  N   UNL d   1       2.381  -5.595  -1.923  0.00  0.00    -0.335 N 
ATOM      9  C   UNL d   1       2.603  -6.871  -2.458  0.00  0.00     0.051 A 
ATOM     10  HN  UNL d   1       3.107  -4.949  -1.611  1.00  0.00     0.168 HD
ATOM     11  C   UNL d   1       1.450  -7.572  -2.769  0.00  0.00     0.083 A 
ATOM     12  S   UNL d   1       0.071  -6.615  -2.442  0.00  0.00    -0.063 SA
BRANCH   9  13
ATOM     13  C   UNL d   1       3.957  -7.372  -2.705  0.00  0.00    -0.006 A 
ATOM     14  C   UNL d   1       5.055  -6.660  -2.205  0.00  0.00     0.059 A 
ATOM     15  C   UNL d   1       6.355  -7.057  -2.510  0.00  0.00     0.155 A 
ATOM     16  F   UNL d   1       7.386  -6.335  -2.049  0.00  0.00    -0.203 F 
ATOM     17  C   UNL d   1       6.584  -8.179  -3.294  0.00  0.00     0.154 A 
ATOM     18  C   UNL d   1       5.515  -8.925  -3.772  0.00  0.00     0.046 A 
ATOM     19  F   UNL d   1       7.834  -8.547  -3.602  0.00  0.00    -0.203 F 
ATOM     20  C   UNL d   1       4.206  -8.523  -3.479  0.00  0.00     0.017 A 
ENDBRANCH   9  13
ENDBRANCH   1   7
BRANCH   3  21
ATOM     21  C   UNL d   1       2.718  -1.944   0.136  0.00  0.00     0.043 A 
ATOM     22  C   UNL d   1       3.930  -1.275  -0.188  0.00  0.00    -0.024 A 
ATOM     23  C   UNL d   1       4.393  -0.318   0.752  0.00  0.00     0.010 A 
ATOM     24  C   UNL d   1       3.690   0.007   1.915  0.00  0.00     0.001 A 
ATOM     25  C   UNL d   1       2.493  -0.625   2.191  0.00  0.00     0.002 A 
ATOM     26  C   UNL d   1       2.021  -1.601   1.317  0.00  0.00     0.030 A 
BRANCH  22  27
ATOM     27  C   UNL d   1       4.658  -1.390  -1.555  0.00  0.00    -0.022 C 
ATOM     28  C   UNL d   1       3.682  -0.985  -2.684  0.00  0.00     0.019 C 
ATOM     29  C   UNL d   1       5.879  -0.435  -1.702  0.00  0.00     0.019 C 
ATOM     30  C   UNL d   1       5.227  -2.796  -1.815  0.00  0.00     0.019 C 
ENDBRANCH  22  27
ENDBRANCH   3  21
TORSDOF 4
