REMARK  7 active torsions:
REMARK  status: ('A' for Active; 'I' for Inactive)
REMARK    1  A    between atoms: O_7  and  C_1 
REMARK       I    between atoms: C_2  and  N_3 
REMARK    2  A    between atoms: C_8  and  C_2 
REMARK    3  A    between atoms: N_3  and  C_17 
REMARK    4  A    between atoms: N_4  and  O_10 
REMARK    5  A    between atoms: C_9  and  C_6 
REMARK    6  A    between atoms: C_18  and  O_7 
REMARK    7  A    between atoms: O_10  and  C_8 
ROOT
ATOM      1  C   UNL d   1       7.549  -2.541  -3.428  0.00  0.00     0.248 C 
ATOM      2  N   UNL d   1       8.066  -1.777  -4.472  0.00  0.00    -0.325 N 
ATOM      3  O   UNL d   1       8.138  -2.813  -2.383  0.00  0.00    -0.271 OA
ATOM      4  H   UNL d   1       7.421  -1.487  -5.197  0.00  0.00     0.169 HD
ENDROOT
BRANCH   1   5
ATOM      5  C   UNL d   1       6.125  -3.040  -3.666  0.00  0.00     0.304 C 
BRANCH   5   6
ATOM      6  O   UNL d   1       5.250  -2.507  -2.677  0.00  0.00    -0.271 OA
BRANCH   6   7
ATOM      7  N   UNL d   1       4.096  -3.306  -2.621  0.00  0.00    -0.270 N 
ATOM      8  C   UNL d   1       3.297  -2.955  -1.655  0.00  0.00     0.038 C 
ATOM      9  C   UNL d   1       3.525  -1.771  -0.739  0.00  0.00     0.071 C 
ATOM     10  HN  UNL d   1       3.906  -4.074  -3.265  1.00  0.00     0.194 HD
BRANCH   8  11
ATOM     11  C   UNL d   1       2.079  -3.785  -1.408  0.00  0.00    -0.012 A 
ATOM     12  C   UNL d   1       1.581  -3.971  -0.110  0.00  0.00     0.015 A 
ATOM     13  C   UNL d   1       0.468  -4.790   0.100  0.00  0.00     0.024 A 
ATOM     14  C   UNL d   1      -0.150  -5.417  -0.980  0.00  0.00     0.034 A 
ATOM     15  C   UNL d   1       0.338  -5.236  -2.274  0.00  0.00     0.024 A 
ATOM     16 CL   UNL d   1      -1.516  -6.429  -0.717  0.00  0.00    -0.084 Cl
ATOM     17  C   UNL d   1       1.457  -4.426  -2.486  0.00  0.00     0.015 A 
ENDBRANCH   8  11
ENDBRANCH   6   7
ENDBRANCH   5   6
ENDBRANCH   1   5
BRANCH   2  18
ATOM     18  C   UNL d   1       9.358  -1.200  -4.518  0.00  0.00     0.035 A 
ATOM     19  C   UNL d   1      10.378  -1.540  -3.631  0.00  0.00     0.032 A 
ATOM     20  C   UNL d   1      11.606  -0.876  -3.653  0.00  0.00     0.039 A 
ATOM     21  C   UNL d   1      11.821   0.172  -4.543  0.00  0.00     0.078 A 
ATOM     22  C   UNL d   1      10.852   0.447  -5.507  0.00  0.00     0.039 A 
ATOM     23  C   UNL d   1       9.627  -0.237  -5.498  0.00  0.00     0.032 A 
BRANCH  21  24
ATOM     24  O   UNL d   1      12.983   0.880  -4.598  0.00  0.00    -0.255 OA
BRANCH  24  25
ATOM     25  C   UNL d   1      13.475   1.411  -3.368  0.00  0.00     0.530 C 
ATOM     26  F   UNL d   1      12.987   0.820  -2.258  0.00  0.00    -0.144 F 
ATOM     27  F   UNL d   1      13.190   2.732  -3.303  0.00  0.00    -0.144 F 
ATOM     28  F   UNL d   1      14.821   1.276  -3.350  0.00  0.00    -0.144 F 
ENDBRANCH  24  25
ENDBRANCH  21  24
ENDBRANCH   2  18
TORSDOF 7
