REMARK  6 active torsions:
REMARK  status: ('A' for Active; 'I' for Inactive)
REMARK    1  A    between atoms: C_3  and  C_1 
REMARK    2  A    between atoms: N_9  and  C_2 
REMARK    3  A    between atoms: O_12  and  C_3 
REMARK    4  A    between atoms: N_7  and  N_9 
REMARK    5  A    between atoms: C_13  and  C_11 
REMARK    6  A    between atoms: O_19  and  C_14 
ROOT
ATOM      1  N   UNL d   1       2.690   2.902   0.358  0.00  0.00    -0.311 N 
ATOM      2  HN  UNL d   1       1.836   3.453   0.443  1.00  0.00     0.186 HD
ATOM      3  C   UNL d   1       3.853   3.455   0.463  0.00  0.00     0.118 C 
ENDROOT
BRANCH   1   4
ATOM      4  N   UNL d   1       2.643   1.562   0.130  0.00  0.00    -0.300 N 
ATOM      5  H   UNL d   1       3.507   1.045  -0.036  0.00  0.00     0.187 HD
BRANCH   4   6
ATOM      6  C   UNL d   1       1.448   0.907   0.061  0.00  0.00     0.071 A 
ATOM      7  C   UNL d   1       1.274  -0.437  -0.226  0.00  0.00     0.108 A 
ATOM      8  S   UNL d   1      -0.403  -0.853  -0.225  0.00  0.00    -0.094 SA
ATOM      9  C   UNL d   1      -0.880   0.733   0.168  0.00  0.00     0.053 A 
ATOM     10  C   UNL d   1       0.201   1.571   0.292  0.00  0.00     0.039 A 
BRANCH   7  11
ATOM     11  C   UNL d   1       2.217  -1.501  -0.514  0.00  0.00     0.302 C 
ATOM     12  O   UNL d   1       1.935  -2.666  -0.780  0.00  0.00    -0.259 OA
BRANCH  11  13
ATOM     13  O   UNL d   1       3.508  -1.044  -0.445  0.00  0.00    -0.322 OA
ATOM     14  C   UNL d   1       4.476  -2.067  -0.693  0.00  0.00     0.213 C 
ENDBRANCH  11  13
ENDBRANCH   7  11
ENDBRANCH   4   6
ENDBRANCH   1   4
BRANCH   3  15
ATOM     15  C   UNL d   1       3.967   4.909   0.721  0.00  0.00    -0.019 A 
ATOM     16  C   UNL d   1       2.816   5.706   0.775  0.00  0.00     0.015 A 
ATOM     17  C   UNL d   1       2.924   7.071   1.040  0.00  0.00     0.037 A 
ATOM     18  C   UNL d   1       4.177   7.632   1.253  0.00  0.00     0.065 A 
ATOM     19  C   UNL d   1       5.330   6.851   1.195  0.00  0.00     0.037 A 
ATOM     20  C   UNL d   1       5.226   5.481   0.925  0.00  0.00     0.015 A 
BRANCH  18  21
ATOM     21  O   UNL d   1       4.233   8.966   1.524  0.00  0.00    -0.361 OA
ATOM     22  H   UNL d   1       5.155   9.215   1.700  0.00  0.00     0.217 HD
ENDBRANCH  18  21
ENDBRANCH   3  15
TORSDOF 6
