REMARK  4 active torsions:
REMARK  status: ('A' for Active; 'I' for Inactive)
REMARK    1  A    between atoms: O_13  and  C_3 
REMARK    2  A    between atoms: C_16  and  O_13 
REMARK    3  A    between atoms: C_14  and  C_16 
REMARK    4  A    between atoms: C_15  and  C_14 
ROOT
ATOM      1  N   UNL d   1      -0.142   0.679  -0.152  0.00  0.00    -0.120 N 
ATOM      2  C   UNL d   1      -0.167  -0.708  -0.149  0.00  0.00     0.706 A 
ATOM      3  C   UNL d   1       1.038   1.423  -0.075  0.00  0.00     0.168 A 
ATOM      4  N   UNL d   1       0.985  -1.434  -0.064  0.00  0.00    -0.194 N 
ATOM      5  HN  UNL d   1       0.978  -2.454  -0.063  1.00  0.00     0.184 HD
ATOM      6  C   UNL d   1       2.194   0.737   0.018  0.00  0.00     0.082 A 
ATOM      7  N   UNL d   1      -1.421  -1.102  -0.244  0.00  0.00    -0.130 N 
ATOM      8  HN  UNL d   1      -1.741  -2.070  -0.268  1.00  0.00     0.205 HD
ATOM      9  N   UNL d   1      -2.228   0.014  -0.305  0.00  0.00    -0.281 N 
ATOM     10  HN  UNL d   1      -3.245   0.020  -0.383  1.00  0.00     0.188 HD
ATOM     11  C   UNL d   1       2.092  -0.759   0.017  0.00  0.00     0.027 A 
ATOM     12  C   UNL d   1      -1.448   1.067  -0.246  0.00  0.00     0.226 A 
ATOM     13  C   UNL d   1       3.385  -1.531   0.108  0.00  0.00     0.069 C 
ENDROOT
BRANCH   3  14
ATOM     14  O   UNL d   1       0.921   2.804  -0.106  0.00  0.00    -0.327 OA
BRANCH  14  15
ATOM     15  C   UNL d   1       2.119   3.561   0.006  0.00  0.00     0.261 C 
BRANCH  15  16
ATOM     16  C   UNL d   1       1.833   5.053  -0.017  0.00  0.00     0.183 C 
ATOM     17  O   UNL d   1       1.673   5.703   1.014  0.00  0.00    -0.290 OA
BRANCH  16  18
ATOM     18  C   UNL d   1       1.835   5.744  -1.334  0.00  0.00     0.012 A 
ATOM     19  C   UNL d   1       1.433   5.093  -2.504  0.00  0.00     0.016 A 
ATOM     20  C   UNL d   1       1.508   5.758  -3.730  0.00  0.00     0.007 A 
ATOM     21  C   UNL d   1       1.987   7.073  -3.799  0.00  0.00    -0.062 A 
ATOM     22  C   UNL d   1       2.363   7.727  -2.620  0.00  0.00     0.007 A 
ATOM     23  C   UNL d   1       2.067   7.769  -5.126  0.00  0.00     0.048 C 
ATOM     24  C   UNL d   1       2.283   7.068  -1.391  0.00  0.00     0.016 A 
ENDBRANCH  16  18
ENDBRANCH  15  16
ENDBRANCH  14  15
ENDBRANCH   3  14
TORSDOF 4
