REMARK  4 active torsions:
REMARK  status: ('A' for Active; 'I' for Inactive)
REMARK    1  A    between atoms: S_7  and  C_1 
REMARK    2  A    between atoms: C_3  and  S_7 
REMARK    3  A    between atoms: C_15  and  C_4 
REMARK    4  A    between atoms: C_17  and  C_15 
ROOT
ATOM      1  C   UNL d   1       0.122   1.258  -0.250  0.00  0.00     0.169 A 
ATOM      2  N   UNL d   1       0.918   0.165  -0.033  0.00  0.00    -0.319 N 
ATOM      3  C   UNL d   1       0.092  -0.930  -0.169  0.00  0.00     0.104 A 
ATOM      4  N   UNL d   1      -1.110   0.865  -0.479  0.00  0.00    -0.278 N 
ATOM      5  HN  UNL d   1      -1.910   1.472  -0.658  1.00  0.00     0.189 HD
ATOM      6  N   UNL d   1      -1.129  -0.508  -0.433  0.00  0.00    -0.286 N 
ATOM      7  HN  UNL d   1      -1.948  -1.099  -0.579  1.00  0.00     0.188 HD
ATOM      8  C   UNL d   1       2.322   0.119   0.289  0.00  0.00     0.159 C 
ENDROOT
BRANCH   1   9
ATOM      9  S   UNL d   1       0.600   2.913  -0.084  0.00  0.00    -0.027 SA
BRANCH   9  10
ATOM     10  C   UNL d   1       1.528   3.069  -1.562  0.00  0.00     0.120 A 
ATOM     11  N   UNL d   1       2.422   2.171  -1.916  0.00  0.00    -0.344 N 
ATOM     12  C   UNL d   1       3.039   2.562  -3.089  0.00  0.00     0.050 A 
ATOM     13  HN  UNL d   1       2.628   1.315  -1.402  1.00  0.00     0.167 HD
ATOM     14  C   UNL d   1       4.029   1.830  -3.775  0.00  0.00     0.032 A 
ATOM     15  C   UNL d   1       2.624   3.790  -3.609  0.00  0.00     0.035 A 
ATOM     16  C   UNL d   1       4.565   2.334  -4.964  0.00  0.00     0.026 A 
ATOM     17  C   UNL d   1       4.129   3.557  -5.464  0.00  0.00     0.035 A 
ATOM     18  C   UNL d   1       3.161   4.314  -4.797  0.00  0.00     0.045 A 
ATOM     19 CL   UNL d   1       4.791   4.149  -6.940  0.00  0.00    -0.084 Cl
ATOM     20  S   UNL d   1       1.422   4.453  -2.567  0.00  0.00    -0.063 SA
ENDBRANCH   9  10
ENDBRANCH   1   9
BRANCH   3  21
ATOM     21  C   UNL d   1       0.503  -2.359  -0.005  0.00  0.00     0.117 C 
BRANCH  21  22
ATOM     22  C   UNL d   1       0.879  -3.016  -1.305  0.00  0.00    -0.044 A 
ATOM     23  C   UNL d   1       2.102  -3.604  -1.574  0.00  0.00     0.057 A 
ATOM     24  S   UNL d   1       2.191  -4.269  -3.148  0.00  0.00    -0.113 SA
ATOM     25  C   UNL d   1       0.583  -3.808  -3.492  0.00  0.00     0.050 A 
ATOM     26  C   UNL d   1      -0.004  -3.159  -2.429  0.00  0.00     0.015 A 
ENDBRANCH  21  22
ENDBRANCH   3  21
TORSDOF 4
