REMARK  6 active torsions:
REMARK  status: ('A' for Active; 'I' for Inactive)
REMARK    1  A    between atoms: N_2  and  C_1 
REMARK    2  A    between atoms: C_3  and  C_1 
REMARK    3  A    between atoms: C_4  and  C_1 
REMARK    4  A    between atoms: N_6  and  C_1 
REMARK       I    between atoms: C_5  and  N_2 
REMARK    5  A    between atoms: C_7  and  C_5 
REMARK    6  A    between atoms: C_16  and  N_6 
ROOT
ATOM      1  C   UNL d   1       0.629  -0.099   0.027  0.00  0.00     0.306 C 
ENDROOT
BRANCH   1   2
ATOM      2  N   UNL d   1       0.493   0.737  -1.203  0.00  0.00    -0.315 N 
ATOM      3  C   UNL d   1       1.073   1.974  -1.381  0.00  0.00     0.254 C 
ATOM      4  O   UNL d   1       1.688   2.512  -0.470  0.00  0.00    -0.268 OA
ATOM      5  H   UNL d   1       0.182   0.229  -2.017  0.00  0.00     0.165 HD
BRANCH   3   6
ATOM      6  C   UNL d   1       0.896   2.630  -2.739  0.00  0.00     0.037 A 
ATOM      7  C   UNL d   1       1.699   3.710  -3.163  0.00  0.00    -0.046 A 
ATOM      8  C   UNL d   1       2.851   4.292  -2.373  0.00  0.00     0.049 C 
ATOM      9  C   UNL d   1       1.408   4.354  -4.393  0.00  0.00     0.007 A 
ATOM     10  C   UNL d   1       0.387   3.899  -5.216  0.00  0.00     0.001 A 
ATOM     11  C   UNL d   1      -0.383   2.806  -4.827  0.00  0.00     0.001 A 
ATOM     12  C   UNL d   1      -0.140   2.190  -3.594  0.00  0.00     0.017 A 
ENDBRANCH   3   6
ENDBRANCH   1   2
BRANCH   1  13
ATOM     13  C   UNL d   1      -0.507  -1.170   0.079  0.00  0.00     0.441 C 
ATOM     14  F   UNL d   1      -0.919  -1.481  -1.186  0.00  0.00    -0.166 F 
ATOM     15  F   UNL d   1      -0.100  -2.339   0.638  0.00  0.00    -0.166 F 
ATOM     16  F   UNL d   1      -1.622  -0.774   0.725  0.00  0.00    -0.166 F 
ENDBRANCH   1  13
BRANCH   1  17
ATOM     17  C   UNL d   1       0.454   0.667   1.392  0.00  0.00     0.441 C 
ATOM     18  F   UNL d   1      -0.341   1.757   1.279  0.00  0.00    -0.166 F 
ATOM     19  F   UNL d   1      -0.073  -0.104   2.375  0.00  0.00    -0.166 F 
ATOM     20  F   UNL d   1       1.658   1.084   1.873  0.00  0.00    -0.166 F 
ENDBRANCH   1  17
BRANCH   1  21
ATOM     21  N   UNL d   1       2.015  -0.697  -0.032  0.00  0.00    -0.349 N 
ATOM     22  H   UNL d   1       2.653  -0.124   0.524  0.00  0.00     0.162 HD
BRANCH  21  23
ATOM     23  C   UNL d   1       2.636  -1.272  -1.125  0.00  0.00     0.030 A 
ATOM     24  C   UNL d   1       4.041  -1.336  -1.129  0.00  0.00     0.032 A 
ATOM     25  C   UNL d   1       4.743  -1.911  -2.194  0.00  0.00     0.044 A 
ATOM     26  C   UNL d   1       4.040  -2.453  -3.257  0.00  0.00     0.116 A 
ATOM     27  C   UNL d   1       2.656  -2.459  -3.258  0.00  0.00     0.044 A 
ATOM     28  F   UNL d   1       4.704  -2.997  -4.284  0.00  0.00    -0.206 F 
ATOM     29  C   UNL d   1       1.963  -1.888  -2.187  0.00  0.00     0.032 A 
ENDBRANCH  21  23
ENDBRANCH   1  21
TORSDOF 6
