REMARK  5 active torsions:
REMARK  status: ('A' for Active; 'I' for Inactive)
REMARK    1  A    between atoms: C_11  and  N_3 
REMARK    2  A    between atoms: C_8  and  C_4 
REMARK    3  A    between atoms: O_10  and  C_8 
REMARK    4  A    between atoms: C_14  and  O_10 
REMARK    5  A    between atoms: C_21  and  C_16 
ROOT
ATOM      1  N   UNL d   1      -9.030  -1.651   2.448  0.00  0.00    -0.197 NA
ATOM      2  C   UNL d   1      -8.806  -1.924   1.346  0.00  0.00     0.063 C 
ATOM      3  C   UNL d   1      -8.544  -2.278  -0.066  0.00  0.00     0.162 C 
ENDROOT
BRANCH   3   4
ATOM      4  C   UNL d   1      -7.099  -2.044  -0.448  0.00  0.00    -0.045 A 
ATOM      5  C   UNL d   1      -6.142  -3.060  -0.289  0.00  0.00     0.011 A 
ATOM      6  C   UNL d   1      -4.781  -2.782  -0.448  0.00  0.00     0.038 A 
ATOM      7  C   UNL d   1      -4.369  -1.486  -0.761  0.00  0.00     0.079 A 
ATOM      8  C   UNL d   1      -5.313  -0.501  -1.043  0.00  0.00     0.038 A 
ATOM      9  C   UNL d   1      -6.674  -0.775  -0.871  0.00  0.00     0.011 A 
BRANCH   7  10
ATOM     10  O   UNL d   1      -2.974  -1.255  -0.751  0.00  0.00    -0.274 OA
BRANCH  10  11
ATOM     11  C   UNL d   1      -2.468  -0.063  -0.202  0.00  0.00     0.318 C 
ATOM     12  O   UNL d   1      -3.156   0.901   0.116  0.00  0.00    -0.257 OA
BRANCH  11  13
ATOM     13  C   UNL d   1      -1.013  -0.072  -0.007  0.00  0.00     0.149 A 
ATOM     14  N   UNL d   1      -0.207  -1.134  -0.230  0.00  0.00    -0.272 N 
ATOM     15  N   UNL d   1       1.022  -0.657   0.120  0.00  0.00    -0.196 N 
ATOM     16  HN  UNL d   1      -0.456  -2.062  -0.574  1.00  0.00     0.189 HD
ATOM     17  N   UNL d   1       1.054   0.619   0.568  0.00  0.00    -0.281 N 
ATOM     18  C   UNL d   1      -0.216   1.008   0.463  0.00  0.00     0.058 A 
ATOM     19  HN  UNL d   1       1.855   1.153   0.904  1.00  0.00     0.189 HD
ATOM     20  C   UNL d   1      -0.562   2.409   0.797  0.00  0.00     0.072 C 
BRANCH  15  21
ATOM     21  C   UNL d   1       2.227  -1.394  -0.019  0.00  0.00     0.074 A 
ATOM     22  C   UNL d   1       2.233  -2.674  -0.583  0.00  0.00     0.033 A 
ATOM     23  C   UNL d   1       3.450  -3.337  -0.771  0.00  0.00     0.002 A 
ATOM     24  C   UNL d   1       4.652  -2.736  -0.389  0.00  0.00     0.000 A 
ATOM     25  C   UNL d   1       4.646  -1.473   0.197  0.00  0.00     0.002 A 
ATOM     26  C   UNL d   1       3.439  -0.803   0.384  0.00  0.00     0.033 A 
ENDBRANCH  15  21
ENDBRANCH  11  13
ENDBRANCH  10  11
ENDBRANCH   7  10
ENDBRANCH   3   4
TORSDOF 5
