REMARK  1 active torsions:
REMARK  status: ('A' for Active; 'I' for Inactive)
REMARK    1  A    between atoms: C_2  and  C_1 
ROOT
ATOM      1  C   UNL d   1      -1.845  -1.578  -0.071  0.00  0.00     0.113 A 
ATOM      2  C   UNL d   1      -2.334  -0.330  -0.075  0.00  0.00     0.095 A 
ATOM      3  O   UNL d   1      -0.499  -1.899  -0.028  0.00  0.00    -0.307 OA
ATOM      4  C   UNL d   1      -1.397   0.803  -0.032  0.00  0.00     0.187 A 
ATOM      5  C   UNL d   1       0.036   0.470  -0.017  0.00  0.00     0.048 A 
ATOM      6  C   UNL d   1       0.410  -0.871  -0.014  0.00  0.00     0.090 A 
ATOM      7  O   UNL d   1      -1.800   1.957  -0.014  0.00  0.00    -0.287 OA
ATOM      8  C   UNL d   1       1.005   1.477  -0.010  0.00  0.00     0.018 A 
ATOM      9  C   UNL d   1       1.762  -1.216  -0.001  0.00  0.00     0.038 A 
ATOM     10  C   UNL d   1       2.357   1.131  -0.002  0.00  0.00     0.001 A 
ATOM     11  C   UNL d   1       2.735  -0.213   0.004  0.00  0.00     0.003 A 
ENDROOT
BRANCH   1  12
ATOM     12  C   UNL d   1      -2.728  -2.698  -0.108  0.00  0.00     0.111 A 
ATOM     13  O   UNL d   1      -4.104  -2.585  -0.188  0.00  0.00    -0.307 OA
ATOM     14  C   UNL d   1      -4.644  -3.830  -0.188  0.00  0.00     0.086 A 
ATOM     15  C   UNL d   1      -6.005  -4.121  -0.251  0.00  0.00     0.038 A 
ATOM     16  C   UNL d   1      -3.646  -4.787  -0.113  0.00  0.00     0.001 A 
ATOM     17  C   UNL d   1      -6.353  -5.475  -0.227  0.00  0.00     0.003 A 
ATOM     18  C   UNL d   1      -5.375  -6.471  -0.147  0.00  0.00     0.001 A 
ATOM     19  C   UNL d   1      -4.012  -6.143  -0.092  0.00  0.00     0.014 A 
ATOM     20  C   UNL d   1      -2.430  -4.059  -0.071  0.00  0.00     0.054 A 
ENDBRANCH   1  12
TORSDOF 1
