REMARK  3 active torsions:
REMARK  status: ('A' for Active; 'I' for Inactive)
REMARK    1  A    between atoms: C_2  and  C_1 
REMARK    2  A    between atoms: S_11  and  C_3 
REMARK    3  A    between atoms: C_13  and  S_11 
ROOT
ATOM      1  N   UNL d   1       2.791   2.767   4.310  0.00  0.00    -0.197 NA
ATOM      2  C   UNL d   1       1.798   3.011   3.756  0.00  0.00     0.069 C 
ATOM      3  C   UNL d   1       0.548   3.342   3.058  0.00  0.00     0.204 C 
ENDROOT
BRANCH   3   4
ATOM      4  S   UNL d   1       0.322   2.422   1.493  0.00  0.00    -0.097 SA
BRANCH   4   5
ATOM      5  C   UNL d   1       0.187   0.755   2.111  0.00  0.00     0.085 A 
ATOM      6  C   UNL d   1       0.492  -0.382   1.369  0.00  0.00     0.081 A 
ATOM      7  C   UNL d   1       0.343  -1.631   2.008  0.00  0.00     0.020 A 
ATOM      8  C   UNL d   1      -0.098  -1.711   3.321  0.00  0.00     0.018 A 
ATOM      9  C   UNL d   1      -0.394  -0.532   3.967  0.00  0.00     0.089 A 
ATOM     10  N   UNL d   1      -0.269   0.681   3.389  0.00  0.00    -0.360 N 
ATOM     11  HN  UNL d   1      -0.513   1.528   3.903  1.00  0.00     0.166 HD
BRANCH   6  12
ATOM     12  C   UNL d   1       0.969  -0.394  -0.054  0.00  0.00     0.420 C 
ATOM     13  F   UNL d   1       1.142   0.806  -0.662  0.00  0.00    -0.166 F 
ATOM     14  F   UNL d   1       0.113  -1.088  -0.862  0.00  0.00    -0.166 F 
ATOM     15  F   UNL d   1       2.168  -1.037  -0.176  0.00  0.00    -0.166 F 
ENDBRANCH   6  12
ENDBRANCH   4   5
ENDBRANCH   3   4
TORSDOF 3
