REMARK  5 active torsions:
REMARK  status: ('A' for Active; 'I' for Inactive)
REMARK    1  A    between atoms: N_8  and  C_3 
REMARK    2  A    between atoms: C_12  and  N_6 
REMARK    3  A    between atoms: C_11  and  N_8 
REMARK    4  A    between atoms: C_17  and  C_12 
REMARK    5  A    between atoms: N_21  and  C_18 
ROOT
ATOM      1  N   UNL d   1      -0.760   1.129  -0.115  0.00  0.00    -0.293 N 
ATOM      2  HN  UNL d   1      -1.254   2.020  -0.169  1.00  0.00     0.172 HD
ATOM      3  C   UNL d   1      -1.454   0.025  -0.069  0.00  0.00     0.132 A 
ATOM      4  C   UNL d   1       0.609   1.131  -0.093  0.00  0.00     0.328 A 
ATOM      5  C   UNL d   1      -0.775  -1.309   0.016  0.00  0.00     0.104 A 
ATOM      6  N   UNL d   1       1.263  -0.100  -0.020  0.00  0.00    -0.304 N 
ATOM      7  C   UNL d   1       0.560  -1.285   0.040  0.00  0.00     0.122 A 
ATOM      8  C   UNL d   1      -1.515  -2.515   0.103  0.00  0.00     0.104 C 
ATOM      9  N   UNL d   1      -2.148  -3.482   0.177  0.00  0.00    -0.191 NA
ATOM     10  O   UNL d   1       1.238   2.186  -0.124  0.00  0.00    -0.246 OA
ENDROOT
BRANCH   3  11
ATOM     11  N   UNL d   1      -2.842   0.096  -0.125  0.00  0.00    -0.340 N 
ATOM     12  H   UNL d   1      -3.385  -0.761  -0.149  0.00  0.00     0.167 HD
BRANCH  11  13
ATOM     13  C   UNL d   1      -3.622   1.147   0.429  0.00  0.00     0.054 A 
ATOM     14  C   UNL d   1      -4.872   1.470  -0.149  0.00  0.00     0.033 A 
ATOM     15  C   UNL d   1      -5.610   2.538   0.380  0.00  0.00     0.025 A 
ATOM     16  C   UNL d   1      -5.182   3.211   1.524  0.00  0.00     0.002 A 
ATOM     17  C   UNL d   1      -3.981   2.857   2.128  0.00  0.00     0.002 A 
ATOM     18  C   UNL d   1      -3.200   1.841   1.575  0.00  0.00     0.031 A 
BRANCH  14  19
ATOM     19  N   UNL d   1      -5.278   0.913  -1.374  0.00  0.00    -0.301 NA
ATOM     20  H   UNL d   1      -4.874   0.013  -1.595  0.00  0.00     0.124 HD
ATOM     21  H   UNL d   1      -6.272   0.976  -1.562  0.00  0.00     0.124 HD
ENDBRANCH  14  19
ENDBRANCH  11  13
ENDBRANCH   3  11
BRANCH   6  22
ATOM     22  C   UNL d   1       2.723  -0.105   0.017  0.00  0.00     0.171 C 
BRANCH  22  23
ATOM     23  C   UNL d   1       3.357  -0.209  -1.354  0.00  0.00    -0.038 A 
ATOM     24  C   UNL d   1       3.674  -1.462  -1.904  0.00  0.00     0.035 A 
ATOM     25  C   UNL d   1       4.306  -1.546  -3.147  0.00  0.00     0.073 A 
ATOM     26 CL   UNL d   1       4.710  -3.095  -3.783  0.00  0.00    -0.081 Cl
ATOM     27  C   UNL d   1       4.615  -0.386  -3.853  0.00  0.00     0.138 A 
ATOM     28  C   UNL d   1       4.286   0.861  -3.334  0.00  0.00     0.044 A 
ATOM     29  F   UNL d   1       5.240  -0.449  -5.038  0.00  0.00    -0.204 F 
ATOM     30  C   UNL d   1       3.654   0.950  -2.091  0.00  0.00     0.012 A 
ENDBRANCH  22  23
ENDBRANCH   6  22
TORSDOF 5
