REMARK  2 active torsions:
REMARK  status: ('A' for Active; 'I' for Inactive)
REMARK       I    between atoms: C_4  and  N_1 
REMARK    1  A    between atoms: C_15  and  C_4 
REMARK    2  A    between atoms: C_16  and  C_9 
ROOT
ATOM      1  N   UNL d   1       0.872  -0.712   0.033  0.00  0.00    -0.217 N 
ATOM      2  C   UNL d   1      -0.442  -1.155   0.105  0.00  0.00     0.097 A 
ATOM      3  C   UNL d   1      -0.900  -2.463   0.458  0.00  0.00     0.130 A 
ATOM      4  C   UNL d   1       2.084  -1.438   0.070  0.00  0.00     0.277 C 
ATOM      5  C   UNL d   1      -0.356  -3.417   1.294  0.00  0.00     0.074 A 
ATOM      6  N   UNL d   1      -2.382  -4.153   0.616  0.00  0.00    -0.260 N 
ATOM      7  HN  UNL d   1      -3.220  -4.720   0.483  1.00  0.00     0.195 HD
ATOM      8  O   UNL d   1      -2.122  -2.926   0.053  0.00  0.00    -0.235 OA
ATOM      9  C   UNL d   1      -1.317  -4.456   1.375  0.00  0.00     0.068 A 
ATOM     10  N   UNL d   1       0.924   0.648  -0.124  0.00  0.00    -0.302 N 
ATOM     11  HN  UNL d   1       1.752   1.242  -0.129  1.00  0.00     0.186 HD
ATOM     12  C   UNL d   1      -1.234  -0.052  -0.149  0.00  0.00     0.053 A 
ATOM     13  C   UNL d   1      -0.345   1.022  -0.267  0.00  0.00     0.110 A 
ATOM     14  O   UNL d   1       2.052  -2.639  -0.195  0.00  0.00    -0.265 OA
ENDROOT
BRANCH   4  15
ATOM     15  C   UNL d   1       3.392  -0.831   0.434  0.00  0.00     0.034 A 
ATOM     16  C   UNL d   1       3.463   0.164   1.418  0.00  0.00     0.017 A 
ATOM     17  C   UNL d   1       4.698   0.688   1.795  0.00  0.00     0.001 A 
ATOM     18  C   UNL d   1       5.866   0.214   1.200  0.00  0.00     0.000 A 
ATOM     19  C   UNL d   1       5.802  -0.790   0.233  0.00  0.00     0.001 A 
ATOM     20  C   UNL d   1       4.568  -1.321  -0.146  0.00  0.00     0.017 A 
ENDBRANCH   4  15
BRANCH   9  21
ATOM     21  C   UNL d   1      -1.270  -5.685   2.163  0.00  0.00    -0.007 A 
ATOM     22  C   UNL d   1      -2.460  -6.270   2.624  0.00  0.00     0.014 A 
ATOM     23  C   UNL d   1      -2.435  -7.456   3.359  0.00  0.00     0.001 A 
ATOM     24  C   UNL d   1      -1.218  -8.072   3.641  0.00  0.00     0.000 A 
ATOM     25  C   UNL d   1      -0.027  -7.496   3.201  0.00  0.00     0.001 A 
ATOM     26  C   UNL d   1      -0.050  -6.305   2.468  0.00  0.00     0.014 A 
ENDBRANCH   9  21
TORSDOF 2
