REMARK  8 active torsions:
REMARK  status: ('A' for Active; 'I' for Inactive)
REMARK    1  A    between atoms: C_7  and  C_1 
REMARK    2  A    between atoms: C_16  and  C_3 
REMARK    3  A    between atoms: S_17  and  C_5 
REMARK    4  A    between atoms: S_10  and  C_6 
REMARK    5  A    between atoms: C_13  and  S_10 
REMARK    6  A    between atoms: C_21  and  C_13 
REMARK    7  A    between atoms: N_18  and  C_21 
REMARK    8  A    between atoms: C_23  and  N_18 
ROOT
ATOM      1  C   UNL d   1       1.204  -1.360  -0.014  0.00  0.00     0.045 A 
ATOM      2  C   UNL d   1      -0.287   0.303  -0.752  0.00  0.00     0.080 A 
ATOM      3  C   UNL d   1       0.664  -0.724  -1.140  0.00  0.00     0.016 A 
ATOM      4  S   UNL d   1       0.561  -0.692   1.439  0.00  0.00    -0.079 SA
ATOM      5  C   UNL d   1      -0.420   0.424   0.616  0.00  0.00     0.063 A 
ATOM      6  C   UNL d   1      -1.019   1.136  -1.662  0.00  0.00     0.102 C 
ATOM      7  N   UNL d   1      -1.657   1.780  -2.391  0.00  0.00    -0.191 NA
ENDROOT
BRANCH   3   8
ATOM      8  C   UNL d   1       1.041  -1.074  -2.527  0.00  0.00    -0.023 A 
ATOM      9  C   UNL d   1       2.381  -1.269  -2.896  0.00  0.00     0.012 A 
ATOM     10  C   UNL d   1       2.723  -1.655  -4.197  0.00  0.00     0.001 A 
ATOM     11  C   UNL d   1       1.735  -1.789  -5.167  0.00  0.00     0.000 A 
ATOM     12  C   UNL d   1       0.406  -1.548  -4.834  0.00  0.00     0.001 A 
ATOM     13  C   UNL d   1       0.059  -1.211  -3.521  0.00  0.00     0.012 A 
ENDBRANCH   3   8
BRANCH   5  14
ATOM     14  S   UNL d   1      -1.388   1.583   1.530  0.00  0.00    -0.126 SA
ATOM     15  C   UNL d   1      -3.058   0.958   1.236  0.00  0.00     0.096 C 
ENDBRANCH   5  14
BRANCH   1  16
ATOM     16  C   UNL d   1       2.164  -2.479   0.115  0.00  0.00     0.053 A 
ATOM     17  N   UNL d   1       2.068  -3.414  -0.845  0.00  0.00    -0.335 N 
ATOM     18  C   UNL d   1       2.947  -4.425  -0.811  0.00  0.00     0.152 A 
ATOM     19  HN  UNL d   1       1.354  -3.357  -1.571  1.00  0.00     0.168 HD
ATOM     20  N   UNL d   1       3.914  -4.571   0.111  0.00  0.00    -0.346 N 
ATOM     21  C   UNL d   1       3.967  -3.627   1.066  0.00  0.00     0.092 A 
ATOM     22  HN  UNL d   1       4.570  -5.351   0.087  1.00  0.00     0.167 HD
ATOM     23  C   UNL d   1       3.120  -2.545   1.112  0.00  0.00     0.048 A 
BRANCH  18  24
ATOM     24  S   UNL d   1       2.971  -5.525  -2.192  0.00  0.00    -0.015 SA
BRANCH  24  25
ATOM     25  C   UNL d   1       1.855  -6.741  -1.593  0.00  0.00     0.206 C 
ATOM     26  O   UNL d   1       0.997  -6.501  -0.748  0.00  0.00    -0.284 OA
BRANCH  25  27
ATOM     27  C   UNL d   1       2.029  -8.111  -2.240  0.00  0.00     0.183 C 
BRANCH  27  28
ATOM     28  N   UNL d   1       1.351  -8.187  -3.542  0.00  0.00    -0.285 NA
ATOM     29  H   UNL d   1       1.546  -7.385  -4.138  0.00  0.00     0.128 HD
BRANCH  28  30
ATOM     30  C   UNL d   1       1.394  -9.390  -4.259  0.00  0.00     0.008 A 
ATOM     31  C   UNL d   1       1.488 -10.649  -3.653  0.00  0.00     0.023 A 
ATOM     32  C   UNL d   1       1.444 -11.825  -4.411  0.00  0.00     0.002 A 
ATOM     33  C   UNL d   1       1.283 -11.764  -5.792  0.00  0.00     0.000 A 
ATOM     34  C   UNL d   1       1.148 -10.525  -6.410  0.00  0.00     0.002 A 
ATOM     35  C   UNL d   1       1.187  -9.354  -5.646  0.00  0.00     0.023 A 
ENDBRANCH  28  30
ENDBRANCH  27  28
ENDBRANCH  25  27
ENDBRANCH  24  25
ENDBRANCH  18  24
ENDBRANCH   1  16
TORSDOF 8
