REMARK  2 active torsions:
REMARK  status: ('A' for Active; 'I' for Inactive)
REMARK    1  A    between atoms: O_13  and  C_1 
REMARK    2  A    between atoms: C_7  and  O_13 
ROOT
ATOM      1  C   UNL d   1       4.780   1.631   0.644  0.00  0.00     0.092 A 
ATOM      2  C   UNL d   1       4.453   2.764   1.407  0.00  0.00     0.028 A 
ATOM      3  N   UNL d   1       5.437   4.142  -0.317  0.00  0.00    -0.359 N 
ATOM      4  HN  UNL d   1       5.650   5.065  -0.695  1.00  0.00     0.166 HD
ATOM      5  C   UNL d   1       4.768   4.016   0.841  0.00  0.00     0.045 A 
ATOM      6  C   UNL d   1       5.501   1.753  -0.540  0.00  0.00     0.062 A 
ATOM      7  C   UNL d   1       5.826   3.025  -0.976  0.00  0.00     0.008 A 
ATOM      8  C   UNL d   1       3.831   2.705   2.673  0.00  0.00     0.058 A 
ATOM      9  C   UNL d   1       4.369   5.167   1.511  0.00  0.00     0.033 A 
ATOM     10  C   UNL d   1       3.492   3.877   3.334  0.00  0.00     0.117 A 
ATOM     11  C   UNL d   1       3.731   5.111   2.752  0.00  0.00     0.044 A 
ATOM     12  F   UNL d   1       2.927   3.813   4.546  0.00  0.00    -0.206 F 
ATOM     13  C   UNL d   1       6.595   3.210  -2.249  0.00  0.00     0.068 C 
ENDROOT
BRANCH   1  14
ATOM     14  O   UNL d   1       4.365   0.381   1.058  0.00  0.00    -0.287 OA
BRANCH  14  15
ATOM     15  C   UNL d   1       3.431  -0.247   0.328  0.00  0.00     0.193 A 
ATOM     16  N   UNL d   1       2.857   0.290  -0.726  0.00  0.00    -0.328 N 
ATOM     17  C   UNL d   1       1.954  -0.590  -1.294  0.00  0.00     0.074 A 
ATOM     18  HN  UNL d   1       3.051   1.227  -1.077  1.00  0.00     0.168 HD
ATOM     19  C   UNL d   1       1.150  -0.400  -2.440  0.00  0.00     0.063 A 
ATOM     20  C   UNL d   1       1.845  -1.820  -0.631  0.00  0.00     0.039 A 
ATOM     21  C   UNL d   1       0.287  -1.386  -2.910  0.00  0.00     0.050 A 
ATOM     22 CL   UNL d   1       1.305   1.108  -3.232  0.00  0.00    -0.082 Cl
ATOM     23  C   UNL d   1       0.211  -2.591  -2.227  0.00  0.00     0.037 A 
ATOM     24  C   UNL d   1       0.978  -2.833  -1.080  0.00  0.00     0.045 A 
ATOM     25 CL   UNL d   1      -0.844  -3.823  -2.804  0.00  0.00    -0.084 Cl
ATOM     26  S   UNL d   1       2.910  -1.824   0.728  0.00  0.00    -0.044 SA
ENDBRANCH  14  15
ENDBRANCH   1  14
TORSDOF 2
