REMARK  3 active torsions:
REMARK  status: ('A' for Active; 'I' for Inactive)
REMARK    1  A    between atoms: O_5  and  C_2 
REMARK    2  A    between atoms: C_7  and  O_5 
REMARK    3  A    between atoms: S_10  and  C_8 
ROOT
ATOM      1  C   UNL d   1      -0.143   0.364   0.718  0.00  0.00     0.117 A 
ATOM      2  C   UNL d   1       0.441   1.613   0.451  0.00  0.00     0.100 A 
ATOM      3  C   UNL d   1      -1.487  -0.006   0.393  0.00  0.00     0.105 C 
ATOM      4  N   UNL d   1      -2.589  -0.326   0.188  0.00  0.00    -0.191 NA
ATOM      5  C   UNL d   1       0.637  -0.622   1.339  0.00  0.00     0.139 A 
ATOM      6  F   UNL d   1       0.086  -1.797   1.683  0.00  0.00    -0.204 F 
ATOM      7  C   UNL d   1       1.815   1.796   0.708  0.00  0.00     0.039 A 
ATOM      8  C   UNL d   1       2.585   0.779   1.275  0.00  0.00     0.006 A 
ATOM      9  C   UNL d   1       1.986  -0.427   1.615  0.00  0.00     0.044 A 
ENDROOT
BRANCH   2  10
ATOM     10  O   UNL d   1      -0.140   2.714  -0.143  0.00  0.00    -0.309 OA
BRANCH  10  11
ATOM     11  C   UNL d   1      -1.448   3.060   0.085  0.00  0.00     0.076 C 
ATOM     12  C   UNL d   1      -2.170   2.769   1.240  0.00  0.00     0.038 C 
ATOM     13  C   UNL d   1      -3.550   3.010   1.286  0.00  0.00     0.021 C 
ATOM     14  C   UNL d   1      -4.199   3.638   0.220  0.00  0.00    -0.000 C 
ATOM     15  C   UNL d   1      -3.433   4.067  -0.870  0.00  0.00     0.021 C 
ATOM     16  C   UNL d   1      -2.068   3.773  -0.941  0.00  0.00     0.038 C 
BRANCH  14  17
ATOM     17  S   UNL d   1      -5.952   3.984   0.196  0.00  0.00    -0.134 SA
ATOM     18  C   UNL d   1      -6.642   2.559   1.086  0.00  0.00     0.095 C 
ENDBRANCH  14  17
ENDBRANCH  10  11
ENDBRANCH   2  10
TORSDOF 3
