REMARK  4 active torsions:
REMARK  status: ('A' for Active; 'I' for Inactive)
REMARK    1  A    between atoms: C_2  and  C_1 
REMARK    2  A    between atoms: O_7  and  C_3 
REMARK    3  A    between atoms: C_4  and  C_11 
REMARK    4  A    between atoms: C_17  and  O_7 
ROOT
ATOM      1  C   UNL d   1       0.272   6.102  -0.203  0.00  0.00    -0.003 A 
ATOM      2  C   UNL d   1      -0.473   5.703   0.916  0.00  0.00     0.017 A 
ATOM      3  C   UNL d   1       0.407   5.219  -1.281  0.00  0.00     0.017 A 
ATOM      4  C   UNL d   1      -0.903   3.550  -0.109  0.00  0.00     0.077 A 
ATOM      5  C   UNL d   1      -1.047   4.428   0.966  0.00  0.00     0.038 A 
ATOM      6  C   UNL d   1      -0.165   3.943  -1.228  0.00  0.00     0.038 A 
ENDROOT
BRANCH   4   7
ATOM      7  O   UNL d   1      -1.436   2.290   0.052  0.00  0.00    -0.293 OA
BRANCH   7   8
ATOM      8  C   UNL d   1      -1.953   1.646  -1.058  0.00  0.00     0.163 A 
ATOM      9  C   UNL d   1      -1.839   0.266  -1.148  0.00  0.00     0.099 A 
ATOM     10  C   UNL d   1      -2.385  -0.351  -2.286  0.00  0.00     0.022 A 
ATOM     11  C   UNL d   1      -3.029   0.410  -3.256  0.00  0.00     0.018 A 
ATOM     12  C   UNL d   1      -3.119   1.773  -3.055  0.00  0.00     0.090 A 
ATOM     13  N   UNL d   1      -2.604   2.401  -1.980  0.00  0.00    -0.346 N 
ATOM     14  HN  UNL d   1      -2.701   3.410  -1.862  1.00  0.00     0.167 HD
BRANCH   9  15
ATOM     15  C   UNL d   1      -1.156  -0.570  -0.113  0.00  0.00     0.421 C 
ATOM     16  F   UNL d   1      -0.719   0.085   0.994  0.00  0.00    -0.166 F 
ATOM     17  F   UNL d   1      -1.967  -1.565   0.350  0.00  0.00    -0.166 F 
ATOM     18  F   UNL d   1      -0.061  -1.207  -0.619  0.00  0.00    -0.166 F 
ENDBRANCH   9  15
ENDBRANCH   7   8
ENDBRANCH   4   7
BRANCH   1  19
ATOM     19  C   UNL d   1       0.907   7.442  -0.194  0.00  0.00     0.076 C 
ATOM     20  N   UNL d   1       0.535   8.401   0.595  0.00  0.00    -0.383 N 
ATOM     21  C   UNL d   1       1.356   9.601   0.332  0.00  0.00     0.131 C 
ATOM     22  HN  UNL d   1      -0.210   8.337   1.290  1.00  0.00     0.160 HD
ATOM     23  C   UNL d   1       2.715   9.183  -0.199  0.00  0.00     0.100 C 
ATOM     24  S   UNL d   1       2.293   7.764  -1.221  0.00  0.00    -0.110 SA
ENDBRANCH   1  19
TORSDOF 4
