REMARK  6 active torsions:
REMARK  status: ('A' for Active; 'I' for Inactive)
REMARK    1  A    between atoms: C_7  and  C_1 
REMARK    2  A    between atoms: C_8  and  C_2 
REMARK    3  A    between atoms: O_16  and  C_7 
REMARK    4  A    between atoms: O_18  and  C_10 
REMARK    5  A    between atoms: O_19  and  C_12 
REMARK    6  A    between atoms: C_20  and  O_16 
ROOT
ATOM      1  C   UNL d   1       1.440   1.030   0.004  0.00  0.00     0.066 C 
ATOM      2  C   UNL d   1       0.214   1.905  -0.127  0.00  0.00     0.161 C 
ATOM      3  C   UNL d   1       1.345  -0.316  -0.047  0.00  0.00     0.024 C 
ATOM      4  C   UNL d   1      -1.088  -0.206  -0.121  0.00  0.00     0.321 C 
ATOM      5  N   UNL d   1       0.093  -0.879  -0.167  0.00  0.00    -0.312 N 
ATOM      6  N   UNL d   1      -1.005   1.135   0.039  0.00  0.00    -0.330 N 
ATOM      7  O   UNL d   1      -2.167  -0.784  -0.180  0.00  0.00    -0.247 OA
ATOM      8  C   UNL d   1       2.470  -1.315  -0.017  0.00  0.00     0.069 C 
ATOM      9  H   UNL d   1      -0.004  -1.887  -0.227  0.00  0.00     0.170 HD
ATOM     10  H   UNL d   1      -1.893   1.617   0.027  0.00  0.00     0.165 HD
ENDROOT
BRANCH   2  11
ATOM     11  C   UNL d   1       0.164   3.089   0.826  0.00  0.00    -0.028 A 
ATOM     12  C   UNL d   1       0.226   2.898   2.218  0.00  0.00     0.049 A 
ATOM     13  C   UNL d   1       0.307   3.983   3.106  0.00  0.00     0.102 A 
ATOM     14  C   UNL d   1       0.289   5.288   2.581  0.00  0.00     0.101 A 
ATOM     15  C   UNL d   1       0.188   5.476   1.196  0.00  0.00     0.040 A 
ATOM     16  C   UNL d   1       0.117   4.393   0.324  0.00  0.00     0.012 A 
BRANCH  13  17
ATOM     17  O   UNL d   1       0.442   3.826   4.459  0.00  0.00    -0.353 OA
ATOM     18  C   UNL d   1       0.535   2.505   4.976  0.00  0.00     0.210 C 
ENDBRANCH  13  17
BRANCH  14  19
ATOM     19  O   UNL d   1       0.413   6.475   3.255  0.00  0.00    -0.353 OA
ATOM     20  C   UNL d   1       0.091   6.493   4.637  0.00  0.00     0.210 C 
ENDBRANCH  14  19
ENDBRANCH   2  11
BRANCH   1  21
ATOM     21  C   UNL d   1       2.757   1.692   0.195  0.00  0.00     0.293 C 
ATOM     22  O   UNL d   1       3.674   1.215   0.849  0.00  0.00    -0.259 OA
BRANCH  21  23
ATOM     23  O   UNL d   1       2.785   2.892  -0.433  0.00  0.00    -0.318 OA
BRANCH  23  24
ATOM     24  C   UNL d   1       3.981   3.673  -0.249  0.00  0.00     0.174 C 
ATOM     25  C   UNL d   1       4.098   4.233   1.160  0.00  0.00     0.034 C 
ENDBRANCH  23  24
ENDBRANCH  21  23
ENDBRANCH   1  21
TORSDOF 6
