REMARK  2 active torsions:
REMARK  status: ('A' for Active; 'I' for Inactive)
REMARK    1  A    between atoms: N_20  and  C_10 
REMARK    2  A    between atoms: C_13  and  N_20 
ROOT
ATOM      1  S   UNL d   1      -0.978  -1.396   0.016  0.00  0.00     0.270 S 
ATOM      2  C   UNL d   1      -1.711  -0.218   2.282  0.00  0.00     0.101 A 
ATOM      3  N   UNL d   1      -1.377  -1.475   1.660  0.00  0.00    -0.269 N 
ATOM      4  C   UNL d   1      -2.031   0.934   1.569  0.00  0.00     0.057 A 
ATOM      5  C   UNL d   1      -2.140  -0.293  -0.557  0.00  0.00     0.146 C 
ATOM      6  C   UNL d   1      -2.112   1.001   0.108  0.00  0.00     0.210 C 
ATOM      7  S   UNL d   1      -1.791   0.036   3.967  0.00  0.00    -0.075 SA
ATOM      8  C   UNL d   1      -2.357   2.037   2.454  0.00  0.00    -0.032 A 
ATOM      9  C   UNL d   1      -2.234   1.673   3.785  0.00  0.00    -0.012 A 
ATOM     10  C   UNL d   1      -3.124  -0.608  -1.412  0.00  0.00     0.119 C 
ATOM     11  O   UNL d   1      -1.213  -2.713  -0.552  0.00  0.00    -0.200 OA
ATOM     12  O   UNL d   1       0.339  -0.800  -0.074  0.00  0.00    -0.200 OA
ATOM     13  O   UNL d   1      -2.286   2.032  -0.537  0.00  0.00    -0.286 OA
ATOM     14  C   UNL d   1      -1.189  -2.765   2.324  0.00  0.00     0.170 C 
ATOM     15  C   UNL d   1      -2.809   3.406   2.034  0.00  0.00     0.050 C 
ATOM     16  C   UNL d   1      -2.478   2.557   4.969  0.00  0.00     0.057 C 
ENDROOT
BRANCH  10  17
ATOM     17  N   UNL d   1      -4.157   0.216  -1.813  0.00  0.00    -0.351 N 
ATOM     18  H   UNL d   1      -4.080   1.197  -1.552  0.00  0.00     0.166 HD
BRANCH  17  19
ATOM     19  C   UNL d   1      -5.149  -0.087  -2.760  0.00  0.00     0.108 A 
ATOM     20  N   UNL d   1      -5.259  -1.338  -3.236  0.00  0.00    -0.332 N 
ATOM     21  C   UNL d   1      -6.223  -1.571  -4.144  0.00  0.00     0.078 A 
ATOM     22  HN  UNL d   1      -4.636  -2.082  -2.922  1.00  0.00     0.168 HD
ATOM     23  C   UNL d   1      -6.357  -2.960  -4.680  0.00  0.00     0.089 C 
ATOM     24  N   UNL d   1      -7.075  -0.644  -4.615  0.00  0.00    -0.350 N 
ATOM     25  C   UNL d   1      -6.950   0.600  -4.122  0.00  0.00     0.010 A 
ATOM     26  HN  UNL d   1      -7.783  -0.875  -5.313  1.00  0.00     0.167 HD
ATOM     27  C   UNL d   1      -6.003   0.921  -3.171  0.00  0.00     0.073 A 
ATOM     28  C   UNL d   1      -7.870   1.652  -4.664  0.00  0.00     0.068 C 
ENDBRANCH  17  19
ENDBRANCH  10  17
TORSDOF 2
