REMARK  4 active torsions:
REMARK  status: ('A' for Active; 'I' for Inactive)
REMARK    1  A    between atoms: C_2  and  S_1 
REMARK    2  A    between atoms: C_3  and  S_1 
REMARK    3  A    between atoms: C_17  and  C_4 
REMARK    4  A    between atoms: C_14  and  C_18 
ROOT
ATOM      1  C   UNL d   1       0.371   0.701  -1.563  0.00  0.00     0.146 C 
ATOM      2  C   UNL d   1      -0.458   0.044  -2.396  0.00  0.00     0.046 C 
ATOM      3  C   UNL d   1       0.845   0.174  -0.338  0.00  0.00     0.112 C 
ATOM      4  N   UNL d   1       1.225  -0.256   0.670  0.00  0.00    -0.191 NA
ENDROOT
BRANCH   1   5
ATOM      5  S   UNL d   1       0.776   2.345  -1.941  0.00  0.00     0.232 S 
ATOM      6  O   UNL d   1      -0.172   3.208  -1.250  0.00  0.00    -0.215 OA
ATOM      7  O   UNL d   1       0.956   2.502  -3.376  0.00  0.00    -0.215 OA
BRANCH   5   8
ATOM      8  C   UNL d   1       2.375   2.608  -1.182  0.00  0.00     0.134 A 
ATOM      9  N   UNL d   1       3.335   1.747  -1.612  0.00  0.00    -0.356 N 
ATOM     10  C   UNL d   1       4.554   1.906  -1.054  0.00  0.00     0.089 A 
ATOM     11  HN  UNL d   1       3.147   1.028  -2.311  1.00  0.00     0.166 HD
ATOM     12  C   UNL d   1       4.842   2.861  -0.088  0.00  0.00     0.017 A 
ATOM     13  C   UNL d   1       3.824   3.713   0.335  0.00  0.00     0.004 A 
ATOM     14  C   UNL d   1       2.556   3.594  -0.223  0.00  0.00     0.042 A 
ENDBRANCH   5   8
ENDBRANCH   1   5
BRANCH   2  15
ATOM     15  C   UNL d   1      -0.957  -1.308  -2.128  0.00  0.00    -0.034 A 
ATOM     16  C   UNL d   1      -2.151  -1.482  -1.420  0.00  0.00     0.012 A 
ATOM     17  C   UNL d   1      -2.603  -2.767  -1.105  0.00  0.00     0.012 A 
ATOM     18  C   UNL d   1      -1.867  -3.888  -1.501  0.00  0.00    -0.034 A 
ATOM     19  C   UNL d   1      -0.676  -3.714  -2.213  0.00  0.00     0.012 A 
ATOM     20  C   UNL d   1      -0.222  -2.428  -2.526  0.00  0.00     0.012 A 
BRANCH  18  21
ATOM     21  C   UNL d   1      -2.345  -5.237  -1.183  0.00  0.00     0.045 C 
ATOM     22  C   UNL d   1      -2.076  -5.916  -0.050  0.00  0.00     0.125 C 
ATOM     23  C   UNL d   1      -1.274  -5.378   0.997  0.00  0.00     0.110 C 
ATOM     24  C   UNL d   1      -2.611  -7.226   0.114  0.00  0.00     0.110 C 
ATOM     25  N   UNL d   1      -0.625  -4.955   1.859  0.00  0.00    -0.191 NA
ATOM     26  N   UNL d   1      -3.060  -8.291   0.221  0.00  0.00    -0.191 NA
ENDBRANCH  18  21
ENDBRANCH   2  15
TORSDOF 4
