REMARK  3 active torsions:
REMARK  status: ('A' for Active; 'I' for Inactive)
REMARK    1  A    between atoms: S_14  and  C_2 
REMARK    2  A    between atoms: C_8  and  C_3 
REMARK    3  A    between atoms: C_7  and  C_8 
ROOT
ATOM      1  C   UNL d   1      -0.737   1.318   0.018  0.00  0.00     0.084 A 
ATOM      2  C   UNL d   1      -1.463   0.130   0.098  0.00  0.00     0.088 A 
ATOM      3  C   UNL d   1       1.314  -0.003   0.037  0.00  0.00    -0.024 A 
ATOM      4  N   UNL d   1      -0.856  -1.072   0.192  0.00  0.00    -0.353 N 
ATOM      5  HN  UNL d   1      -1.412  -1.925   0.265  1.00  0.00     0.166 HD
ATOM      6  C   UNL d   1       0.678   1.262  -0.001  0.00  0.00    -0.030 A 
ATOM      7  C   UNL d   1       0.497  -1.137   0.188  0.00  0.00     0.013 A 
ATOM      8  C   UNL d   1      -1.413   2.575  -0.051  0.00  0.00     0.103 C 
ATOM      9  N   UNL d   1      -1.971   3.593  -0.112  0.00  0.00    -0.191 NA
ATOM     10  C   UNL d   1       1.458   2.558  -0.041  0.00  0.00     0.050 C 
ATOM     11  C   UNL d   1       1.042  -2.529   0.345  0.00  0.00     0.068 C 
ENDROOT
BRANCH   2  12
ATOM     12  S   UNL d   1      -3.244   0.015   0.090  0.00  0.00    -0.124 SA
ATOM     13  H   UNL d   1      -3.539   1.319   0.005  0.00  0.00     0.108 HD
ENDBRANCH   2  12
BRANCH   3  14
ATOM     14  C   UNL d   1       2.822  -0.149  -0.066  0.00  0.00     0.084 C 
BRANCH  14  15
ATOM     15  C   UNL d   1       3.649  -0.105   1.205  0.00  0.00     0.006 A 
ATOM     16  C   UNL d   1       5.056  -0.130   1.128  0.00  0.00     0.043 A 
ATOM     17 CL   UNL d   1       5.887  -0.078  -0.390  0.00  0.00    -0.084 Cl
ATOM     18  C   UNL d   1       5.849  -0.209   2.281  0.00  0.00     0.024 A 
ATOM     19  C   UNL d   1       5.256  -0.259   3.539  0.00  0.00     0.005 A 
ATOM     20  C   UNL d   1       3.872  -0.201   3.641  0.00  0.00     0.043 A 
ATOM     21  C   UNL d   1       3.088  -0.121   2.490  0.00  0.00     0.124 A 
ATOM     22  F   UNL d   1       1.762  -0.074   2.667  0.00  0.00    -0.205 F 
ENDBRANCH  14  15
ENDBRANCH   3  14
TORSDOF 3
