REMARK  4 active torsions:
REMARK  status: ('A' for Active; 'I' for Inactive)
REMARK    1  A    between atoms: C_7  and  C_1 
REMARK    2  A    between atoms: C_8  and  N_2 
REMARK    3  A    between atoms: O_12  and  C_7 
REMARK    4  A    between atoms: O_17  and  C_14 
ROOT
ATOM      1  C   UNL d   1      -1.096   0.284  -0.260  0.00  0.00     0.078 C 
ATOM      2  N   UNL d   1       0.907  -0.666   0.035  0.00  0.00    -0.260 N 
ATOM      3  C   UNL d   1      -0.381  -0.899  -0.438  0.00  0.00     0.049 C 
ATOM      4  N   UNL d   1       0.974   0.532   0.673  0.00  0.00    -0.304 N 
ATOM      5  HN  UNL d   1       1.750   0.901   1.222  1.00  0.00     0.186 HD
ATOM      6  C   UNL d   1      -0.193   1.118   0.426  0.00  0.00     0.128 C 
ATOM      7  C   UNL d   1      -0.890  -2.205  -0.947  0.00  0.00     0.071 C 
ENDROOT
BRANCH   2   8
ATOM      8  C   UNL d   1       2.084  -1.465  -0.059  0.00  0.00     0.056 A 
ATOM      9  C   UNL d   1       2.266  -2.396  -1.087  0.00  0.00     0.034 A 
ATOM     10  C   UNL d   1       3.430  -3.177  -1.139  0.00  0.00     0.039 A 
ATOM     11  C   UNL d   1       4.425  -3.026  -0.174  0.00  0.00     0.068 A 
ATOM     12  C   UNL d   1       4.268  -2.063   0.822  0.00  0.00     0.039 A 
ATOM     13  C   UNL d   1       3.110  -1.281   0.880  0.00  0.00     0.034 A 
BRANCH  11  14
ATOM     14  O   UNL d   1       5.601  -3.721  -0.131  0.00  0.00    -0.356 OA
ATOM     15  C   UNL d   1       5.602  -4.990  -0.775  0.00  0.00     0.210 C 
ENDBRANCH  11  14
ENDBRANCH   2   8
BRANCH   1  16
ATOM     16  C   UNL d   1      -2.475   0.522  -0.668  0.00  0.00     0.179 C 
ATOM     17  O   UNL d   1      -3.154  -0.300  -1.271  0.00  0.00    -0.646 OA
BRANCH  16  18
ATOM     18  O   UNL d   1      -2.985   1.740  -0.352  0.00  0.00    -0.773 OA
ATOM     19  H   UNL d   1      -2.379   2.329   0.127  0.00  0.00     0.167 HD
ENDBRANCH  16  18
ENDBRANCH   1  16
TORSDOF 4
