REMARK  4 active torsions:
REMARK  status: ('A' for Active; 'I' for Inactive)
REMARK    1  A    between atoms: N_10  and  C_2 
REMARK    2  A    between atoms: S_3  and  N_5 
REMARK    3  A    between atoms: C_11  and  S_3 
REMARK    4  A    between atoms: N_5  and  N_10 
ROOT
ATOM      1  N   UNL d   1      -3.196  -1.353   0.224  0.00  0.00    -0.221 N 
ATOM      2  H   UNL d   1      -2.547  -2.143   0.293  0.00  0.00     0.200 HD
ENDROOT
BRANCH   1   3
ATOM      3  S   UNL d   1      -4.846  -1.752   0.112  0.00  0.00     0.276 S 
ATOM      4  O   UNL d   1      -5.481  -1.391   1.363  0.00  0.00    -0.199 OA
ATOM      5  O   UNL d   1      -5.343  -1.256  -1.155  0.00  0.00    -0.199 OA
BRANCH   3   6
ATOM      6  C   UNL d   1      -4.796  -3.526   0.013  0.00  0.00     0.081 A 
ATOM      7  C   UNL d   1      -4.883  -4.290   1.182  0.00  0.00     0.027 A 
ATOM      8  C   UNL d   1      -4.835  -5.684   1.096  0.00  0.00     0.025 A 
ATOM      9  C   UNL d   1      -4.713  -6.301  -0.150  0.00  0.00     0.034 A 
ATOM     10  C   UNL d   1      -4.668  -5.538  -1.318  0.00  0.00     0.025 A 
ATOM     11 CL   UNL d   1      -4.610  -8.015  -0.248  0.00  0.00    -0.084 Cl
ATOM     12  C   UNL d   1      -4.719  -4.144  -1.240  0.00  0.00     0.027 A 
ENDBRANCH   3   6
ENDBRANCH   1   3
BRANCH   1  13
ATOM     13  N   UNL d   1      -2.636   0.049   0.244  0.00  0.00    -0.284 N 
ATOM     14  C   UNL d   1      -3.624   1.138   0.150  0.00  0.00     0.179 C 
BRANCH  13  15
ATOM     15  C   UNL d   1      -1.248   0.287   0.367  0.00  0.00     0.095 C 
ATOM     16  C   UNL d   1      -0.202  -0.568   0.362  0.00  0.00     0.133 C 
ATOM     17  C   UNL d   1       1.214  -0.126   0.584  0.00  0.00     0.285 C 
ATOM     18 CL   UNL d   1      -0.385  -2.280   0.116  0.00  0.00    -0.076 Cl
ATOM     19  N   UNL d   1       1.392   1.222   0.863  0.00  0.00    -0.261 N 
ATOM     20  O   UNL d   1       2.152  -0.923   0.540  0.00  0.00    -0.265 OA
ATOM     21  N   UNL d   1       0.399   2.147   0.761  0.00  0.00    -0.305 N 
ATOM     22  C   UNL d   1       2.721   1.733   1.146  0.00  0.00     0.181 C 
ATOM     23  C   UNL d   1      -0.789   1.705   0.521  0.00  0.00     0.140 C 
ATOM     24  HN  UNL d   1       0.585   3.144   0.869  1.00  0.00     0.186 HD
ENDBRANCH  13  15
ENDBRANCH   1  13
TORSDOF 4
