REMARK  2 active torsions:
REMARK  status: ('A' for Active; 'I' for Inactive)
REMARK    1  A    between atoms: C_8  and  C_3 
REMARK    2  A    between atoms: C_12  and  C_4 
ROOT
ATOM      1  N   UNL d   1       0.295   0.643  -0.018  0.00  0.00    -0.202 N 
ATOM      2  C   UNL d   1       0.287  -0.737   0.045  0.00  0.00     0.144 A 
ATOM      3  C   UNL d   1       2.359   0.067  -0.074  0.00  0.00     0.147 A 
ATOM      4  C   UNL d   1       1.604  -1.152   0.016  0.00  0.00     0.053 A 
ATOM      5  N   UNL d   1       1.550   1.147  -0.071  0.00  0.00    -0.284 N 
ATOM      6  HN  UNL d   1       1.824   2.129  -0.103  1.00  0.00     0.187 HD
ATOM      7  C   UNL d   1      -0.858   1.448  -0.030  0.00  0.00     0.270 A 
ATOM      8  N   UNL d   1      -0.912  -1.362   0.119  0.00  0.00    -0.344 N 
ATOM      9  C   UNL d   1      -2.133   0.685   0.006  0.00  0.00     0.101 A 
ATOM     10  C   UNL d   1      -2.109  -0.662   0.073  0.00  0.00     0.012 A 
ATOM     11  O   UNL d   1      -0.805   2.670  -0.076  0.00  0.00    -0.266 OA
ATOM     12  C   UNL d   1      -3.379  -1.464   0.090  0.00  0.00     0.068 C 
ATOM     13  H   UNL d   1      -0.984  -2.375   0.232  0.00  0.00     0.167 HD
ENDROOT
BRANCH   4  14
ATOM     14  C   UNL d   1       2.023  -2.548   0.053  0.00  0.00    -0.020 A 
ATOM     15  C   UNL d   1       1.380  -3.509  -0.743  0.00  0.00     0.014 A 
ATOM     16  C   UNL d   1       1.774  -4.850  -0.705  0.00  0.00     0.020 A 
ATOM     17  C   UNL d   1       2.833  -5.234   0.112  0.00  0.00     0.011 A 
ATOM     18  C   UNL d   1       3.491  -4.294   0.900  0.00  0.00     0.020 A 
ATOM     19 BR   UNL d   1       3.384  -7.042   0.145  0.00  0.00    -0.051 Br
ATOM     20  C   UNL d   1       3.078  -2.957   0.880  0.00  0.00     0.014 A 
ENDBRANCH   4  14
BRANCH   3  21
ATOM     21  C   UNL d   1       3.856   0.237  -0.164  0.00  0.00     0.434 C 
ATOM     22  F   UNL d   1       4.502  -0.907  -0.521  0.00  0.00    -0.165 F 
ATOM     23  F   UNL d   1       4.223   1.172  -1.082  0.00  0.00    -0.165 F 
ATOM     24  F   UNL d   1       4.393   0.618   1.027  0.00  0.00    -0.165 F 
ENDBRANCH   3  21
TORSDOF 2
