REMARK  2 active torsions:
REMARK  status: ('A' for Active; 'I' for Inactive)
REMARK    1  A    between atoms: C_9  and  N_8 
REMARK    2  A    between atoms: O_12  and  N_10 
ROOT
ATOM      1  S   UNL d   1       0.251   1.136   0.005  0.00  0.00    -0.038 SA
ATOM      2  C   UNL d   1       1.618   0.081   0.003  0.00  0.00     0.166 A 
ATOM      3  N   UNL d   1       1.282  -1.193   0.001  0.00  0.00    -0.279 N 
ATOM      4  HN  UNL d   1       1.962  -1.954  -0.000  1.00  0.00     0.189 HD
ATOM      5  N   UNL d   1      -0.081  -1.394   0.000  0.00  0.00    -0.296 N 
ATOM      6  HN  UNL d   1      -0.522  -2.314  -0.002  1.00  0.00     0.187 HD
ATOM      7  C   UNL d   1      -0.746  -0.261   0.003  0.00  0.00     0.066 A 
ATOM      8  N   UNL d   1       2.875   0.571   0.005  0.00  0.00    -0.330 N 
ATOM      9  C   UNL d   1      -2.225  -0.153   0.003  0.00  0.00     0.078 C 
ATOM     10  H   UNL d   1       3.011   1.572   0.007  0.00  0.00     0.168 HD
ENDROOT
BRANCH   8  11
ATOM     11  C   UNL d   1       4.021  -0.161   0.006  0.00  0.00     0.206 C 
ATOM     12  N   UNL d   1       5.211   0.346   0.008  0.00  0.00    -0.265 N 
ATOM     13  HN  UNL d   1       5.434   1.342   0.010  1.00  0.00     0.194 HD
BRANCH  12  14
ATOM     14  O   UNL d   1       6.142  -0.701   0.008  0.00  0.00    -0.289 OA
ATOM     15  H   UNL d   1       6.995  -0.229   0.011  0.00  0.00     0.244 HD
ENDBRANCH  12  14
ENDBRANCH   8  11
TORSDOF 2
