REMARK  2 active torsions:
REMARK  status: ('A' for Active; 'I' for Inactive)
REMARK       I    between atoms: N_2  and  C_1 
REMARK       I    between atoms: N_3  and  C_1 
REMARK    1  A    between atoms: C_8  and  N_2 
REMARK    2  A    between atoms: C_9  and  N_3 
ROOT
ATOM      1  C   UNL d   1       1.132   0.032  -0.044  0.00  0.00     0.325 C 
ATOM      2  N   UNL d   1       0.534  -0.638  -1.101  0.00  0.00    -0.309 N 
ATOM      3  N   UNL d   1       0.233   0.824   0.653  0.00  0.00    -0.309 N 
ATOM      4  O   UNL d   1       2.328  -0.040   0.218  0.00  0.00    -0.247 OA
ATOM      5  H   UNL d   1      -0.392  -0.344  -1.372  0.00  0.00     0.170 HD
ATOM      6  H   UNL d   1      -0.692   0.927   0.268  0.00  0.00     0.170 HD
ENDROOT
BRANCH   2   7
ATOM      7  C   UNL d   1       1.212  -1.501  -1.996  0.00  0.00     0.037 A 
ATOM      8  C   UNL d   1       2.473  -2.045  -1.715  0.00  0.00     0.039 A 
ATOM      9  C   UNL d   1       3.106  -2.808  -2.677  0.00  0.00    -0.021 A 
ATOM     10  C   UNL d   1       4.413  -3.494  -2.612  0.00  0.00     0.068 C 
ATOM     11  C   UNL d   1       2.499  -3.071  -3.889  0.00  0.00     0.075 A 
ATOM     12  C   UNL d   1       4.571  -3.831  -4.094  0.00  0.00     0.180 C 
ATOM     13  O   UNL d   1       3.265  -3.841  -4.724  0.00  0.00    -0.350 OA
ATOM     14  C   UNL d   1       1.236  -2.602  -4.181  0.00  0.00     0.039 A 
ATOM     15  C   UNL d   1       0.588  -1.810  -3.221  0.00  0.00     0.032 A 
ENDBRANCH   2   7
BRANCH   3  16
ATOM     16  C   UNL d   1       0.569   1.675   1.734  0.00  0.00     0.037 A 
ATOM     17  C   UNL d   1       1.784   1.585   2.425  0.00  0.00     0.039 A 
ATOM     18  C   UNL d   1       2.071   2.514   3.410  0.00  0.00    -0.021 A 
ATOM     19  C   UNL d   1       3.314   2.691   4.186  0.00  0.00     0.068 C 
ATOM     20  C   UNL d   1       1.172   3.512   3.727  0.00  0.00     0.075 A 
ATOM     21  C   UNL d   1       2.815   3.715   5.204  0.00  0.00     0.180 C 
ATOM     22  O   UNL d   1       1.631   4.373   4.688  0.00  0.00    -0.350 OA
ATOM     23  C   UNL d   1      -0.048   3.614   3.093  0.00  0.00     0.039 A 
ATOM     24  C   UNL d   1      -0.355   2.676   2.097  0.00  0.00     0.032 A 
ENDBRANCH   3  16
TORSDOF 2
