REMARK  5 active torsions:
REMARK  status: ('A' for Active; 'I' for Inactive)
REMARK    1  A    between atoms: N_4  and  C_3 
REMARK       I    between atoms: C_5  and  N_4 
REMARK       I    between atoms: N_11  and  C_5 
REMARK    2  A    between atoms: C_10  and  C_6 
REMARK    3  A    between atoms: C_7  and  C_10 
REMARK    4  A    between atoms: C_18  and  N_11 
REMARK    5  A    between atoms: C_21  and  C_15 
ROOT
ATOM      1  N   UNL d   1       4.233   3.414   0.679  0.00  0.00    -0.339 N 
ATOM      2  HN  UNL d   1       5.065   2.829   0.601  1.00  0.00     0.168 HD
ATOM      3  C   UNL d   1       2.969   3.003   0.360  0.00  0.00     0.116 C 
ATOM      4  C   UNL d   1       4.241   4.652   1.096  0.00  0.00     0.056 C 
ATOM      5  S   UNL d   1       2.731   5.461   0.984  0.00  0.00    -0.085 SA
ATOM      6  C   UNL d   1       1.989   3.954   0.555  0.00  0.00     0.100 C 
ENDROOT
BRANCH   3   7
ATOM      7  N   UNL d   1       2.805   1.684  -0.001  0.00  0.00    -0.294 N 
ATOM      8  C   UNL d   1       3.903   0.961  -0.446  0.00  0.00     0.326 C 
ATOM      9  N   UNL d   1       3.802  -0.383  -0.160  0.00  0.00    -0.309 N 
ATOM     10  O   UNL d   1       4.865   1.470  -1.017  0.00  0.00    -0.247 OA
ATOM     11  H   UNL d   1       2.898  -0.738   0.118  0.00  0.00     0.170 HD
ATOM     12  H   UNL d   1       1.880   1.300  -0.058  0.00  0.00     0.172 HD
BRANCH   9  13
ATOM     13  C   UNL d   1       4.871  -1.313  -0.189  0.00  0.00     0.036 A 
ATOM     14  C   UNL d   1       6.211  -0.936  -0.350  0.00  0.00     0.030 A 
ATOM     15  C   UNL d   1       7.235  -1.887  -0.353  0.00  0.00     0.010 A 
ATOM     16  C   UNL d   1       6.952  -3.251  -0.214  0.00  0.00    -0.055 A 
ATOM     17  C   UNL d   1       5.609  -3.625  -0.033  0.00  0.00     0.010 A 
ATOM     18  C   UNL d   1       4.587  -2.669  -0.019  0.00  0.00     0.030 A 
BRANCH  16  19
ATOM     19  C   UNL d   1       8.052  -4.296  -0.192  0.00  0.00     0.010 C 
ATOM     20  C   UNL d   1       9.120  -4.083  -1.272  0.00  0.00     0.015 C 
ATOM     21  C   UNL d   1       8.704  -4.352   1.192  0.00  0.00     0.015 C 
ENDBRANCH  16  19
ENDBRANCH   9  13
ENDBRANCH   3   7
BRANCH   4  22
ATOM     22  C   UNL d   1       5.499   5.281   1.586  0.00  0.00     0.107 C 
BRANCH  22  23
ATOM     23  C   UNL d   1       5.976   4.961   3.004  0.00  0.00    -0.009 A 
ATOM     24  C   UNL d   1       5.171   4.549   4.091  0.00  0.00     0.042 A 
ATOM     25 CL   UNL d   1       3.511   4.082   3.998  0.00  0.00    -0.084 Cl
ATOM     26  C   UNL d   1       5.692   4.471   5.393  0.00  0.00     0.024 A 
ATOM     27  C   UNL d   1       7.020   4.758   5.651  0.00  0.00     0.003 A 
ATOM     28  C   UNL d   1       7.858   5.096   4.597  0.00  0.00     0.024 A 
ATOM     29  C   UNL d   1       7.343   5.198   3.297  0.00  0.00     0.042 A 
ATOM     30 CL   UNL d   1       8.496   5.643   2.077  0.00  0.00    -0.084 Cl
ENDBRANCH  22  23
ENDBRANCH   4  22
TORSDOF 5
