REMARK  4 active torsions:
REMARK  status: ('A' for Active; 'I' for Inactive)
REMARK    1  A    between atoms: C_14  and  C_5 
REMARK    2  A    between atoms: O_18  and  N_15 
REMARK    3  A    between atoms: C_17  and  O_18 
REMARK    4  A    between atoms: C_19  and  C_17 
ROOT
ATOM      1  C   UNL d   1       5.327  -0.553   0.030  0.00  0.00     0.095 A 
ATOM      2  C   UNL d   1       5.812  -1.905   0.039  0.00  0.00     0.080 A 
ATOM      3  N   UNL d   1       4.040  -0.266  -0.006  0.00  0.00    -0.347 N 
ATOM      4  HN  UNL d   1       3.293  -0.960  -0.028  1.00  0.00     0.167 HD
ATOM      5  C   UNL d   1       3.837   1.117  -0.008  0.00  0.00     0.064 A 
ATOM      6  N   UNL d   1       7.099  -3.989   0.402  0.00  0.00    -0.269 N 
ATOM      7  HN  UNL d   1       7.768  -4.715   0.660  1.00  0.00     0.195 HD
ATOM      8  C   UNL d   1       5.264  -3.059  -0.516  0.00  0.00     0.043 A 
ATOM      9  S   UNL d   1       6.370   0.815   0.033  0.00  0.00    -0.080 SA
ATOM     10  N   UNL d   1       6.007  -4.219  -0.302  0.00  0.00    -0.298 N 
ATOM     11  HN  UNL d   1       5.737  -5.140  -0.649  1.00  0.00     0.187 HD
ATOM     12  S   UNL d   1       7.267  -2.386   0.825  0.00  0.00     0.006 SA
ATOM     13  C   UNL d   1       5.010   1.852  -0.000  0.00  0.00     0.083 A 
ATOM     14  C   UNL d   1       4.023  -3.206  -1.318  0.00  0.00     0.071 C 
ENDROOT
BRANCH   5  15
ATOM     15  C   UNL d   1       2.488   1.700  -0.024  0.00  0.00     0.056 C 
ATOM     16  N   UNL d   1       2.412   2.999  -0.037  0.00  0.00    -0.260 N 
ATOM     17  HN  UNL d   1       3.228   3.609  -0.030  1.00  0.00     0.194 HD
ATOM     18  C   UNL d   1       1.281   0.797  -0.022  0.00  0.00     0.072 C 
BRANCH  16  19
ATOM     19  O   UNL d   1       1.079   3.478  -0.062  0.00  0.00    -0.195 OA
BRANCH  19  20
ATOM     20  C   UNL d   1       1.102   4.849  -0.040  0.00  0.00     0.315 C 
ATOM     21  O   UNL d   1       2.096   5.563   0.032  0.00  0.00    -0.257 OA
BRANCH  20  22
ATOM     22  C   UNL d   1      -0.268   5.432  -0.133  0.00  0.00     0.041 A 
ATOM     23  C   UNL d   1      -0.373   6.835  -0.184  0.00  0.00     0.019 A 
ATOM     24  C   UNL d   1      -1.618   7.460  -0.286  0.00  0.00     0.025 A 
ATOM     25  C   UNL d   1      -2.773   6.686  -0.337  0.00  0.00     0.034 A 
ATOM     26  C   UNL d   1      -2.689   5.294  -0.280  0.00  0.00     0.025 A 
ATOM     27 CL   UNL d   1      -4.307   7.451  -0.475  0.00  0.00    -0.084 Cl
ATOM     28  C   UNL d   1      -1.439   4.663  -0.177  0.00  0.00     0.019 A 
ENDBRANCH  20  22
ENDBRANCH  19  20
ENDBRANCH  16  19
ENDBRANCH   5  15
TORSDOF 4
