REMARK  4 active torsions:
REMARK  status: ('A' for Active; 'I' for Inactive)
REMARK       I    between atoms: N_3  and  C_1 
REMARK       I    between atoms: N_4  and  C_1 
REMARK       I    between atoms: C_2  and  N_5 
REMARK    1  A    between atoms: O_7  and  C_2 
REMARK    2  A    between atoms: C_6  and  N_3 
REMARK    3  A    between atoms: C_16  and  O_7 
REMARK    4  A    between atoms: C_20  and  C_15 
ROOT
ATOM      1  C   UNL d   1       1.042   0.050   0.656  0.00  0.00     0.301 C 
ATOM      2  C   UNL d   1      -0.875  -4.952  -0.565  0.00  0.00     0.363 C 
ATOM      3  N   UNL d   1       0.392   1.151   0.120  0.00  0.00    -0.209 NA
ATOM      4  N   UNL d   1       0.420  -1.168   0.407  0.00  0.00    -0.335 N 
ATOM      5  N   UNL d   1      -0.129  -3.786  -0.594  0.00  0.00    -0.325 N 
ATOM      6  O   UNL d   1       2.074   0.128   1.320  0.00  0.00    -0.254 OA
ATOM      7  O   UNL d   1      -1.881  -5.129  -1.230  0.00  0.00    -0.238 OA
ATOM      8  C   UNL d   1       0.900  -2.358   1.127  0.00  0.00     0.147 C 
ATOM      9  C   UNL d   1      -0.750  -1.393  -0.464  0.00  0.00     0.147 C 
ATOM     10  C   UNL d   1       1.087  -3.558   0.190  0.00  0.00     0.148 C 
ATOM     11  C   UNL d   1      -0.571  -2.628  -1.369  0.00  0.00     0.148 C 
ATOM     12  H   UNL d   1      -0.593   1.081   0.322  0.00  0.00     0.138 HD
ENDROOT
BRANCH   3  13
ATOM     13  C   UNL d   1       0.937   2.442   0.346  0.00  0.00     0.029 A 
ATOM     14  C   UNL d   1       0.410   3.247   1.384  0.00  0.00    -0.040 A 
ATOM     15  C   UNL d   1       0.999   4.496   1.650  0.00  0.00     0.008 A 
ATOM     16  C   UNL d   1      -0.698   2.823   2.311  0.00  0.00     0.050 C 
ATOM     17  C   UNL d   1       2.074   4.952   0.900  0.00  0.00     0.001 A 
ATOM     18  C   UNL d   1       2.560   4.176  -0.146  0.00  0.00     0.009 A 
ATOM     19  C   UNL d   1       1.993   2.923  -0.463  0.00  0.00    -0.036 A 
BRANCH  19  20
ATOM     20  C   UNL d   1       2.610   2.201  -1.646  0.00  0.00     0.036 C 
ATOM     21  C   UNL d   1       1.695   1.377  -2.543  0.00  0.00     0.010 C 
ENDBRANCH  19  20
ENDBRANCH   3  13
BRANCH   2  22
ATOM     22  O   UNL d   1      -0.350  -5.867   0.292  0.00  0.00    -0.294 OA
BRANCH  22  23
ATOM     23  C   UNL d   1      -0.891  -7.211   0.405  0.00  0.00     0.061 C 
ATOM     24  C   UNL d   1      -0.796  -7.959  -0.930  0.00  0.00     0.046 C 
ATOM     25  C   UNL d   1       0.020  -7.902   1.435  0.00  0.00     0.046 C 
ATOM     26  C   UNL d   1      -2.324  -7.215   0.948  0.00  0.00     0.046 C 
ENDBRANCH  22  23
ENDBRANCH   2  22
TORSDOF 4
