REMARK  5 active torsions:
REMARK  status: ('A' for Active; 'I' for Inactive)
REMARK    1  A    between atoms: C_10  and  C_1 
REMARK    2  A    between atoms: S_2  and  C_3 
REMARK    3  A    between atoms: O_14  and  S_2 
REMARK    4  A    between atoms: C_11  and  C_8 
REMARK    5  A    between atoms: C_20  and  O_14 
ROOT
ATOM      1  C   UNL d   1       4.342   3.331   0.240  0.00  0.00     0.128 A 
ATOM      2  S   UNL d   1       2.983   2.834   1.150  0.00  0.00    -0.074 SA
ATOM      3  C   UNL d   1       2.595   1.597   0.036  0.00  0.00     0.034 A 
ATOM      4  C   UNL d   1       4.528   2.524  -0.868  0.00  0.00     0.035 A 
ATOM      5  C   UNL d   1       3.517   1.528  -0.989  0.00  0.00     0.023 A 
ENDROOT
BRANCH   1   6
ATOM      6  S   UNL d   1       5.223   4.775   0.800  0.00  0.00     0.309 S 
ATOM      7  O   UNL d   1       5.931   5.226  -0.382  0.00  0.00    -0.192 OA
ATOM      8  O   UNL d   1       4.265   5.613   1.491  0.00  0.00    -0.192 OA
BRANCH   6   9
ATOM      9  O   UNL d   1       6.284   4.132   1.864  0.00  0.00    -0.229 OA
BRANCH   9  10
ATOM     10  C   UNL d   1       7.141   4.946   2.569  0.00  0.00     0.089 A 
ATOM     11  C   UNL d   1       7.593   4.458   3.800  0.00  0.00     0.040 A 
ATOM     12  C   UNL d   1       8.448   5.233   4.595  0.00  0.00     0.026 A 
ATOM     13  C   UNL d   1       8.863   6.489   4.152  0.00  0.00     0.034 A 
ATOM     14  C   UNL d   1       8.444   6.963   2.914  0.00  0.00     0.026 A 
ATOM     15 CL   UNL d   1       9.892   7.451   5.135  0.00  0.00    -0.084 Cl
ATOM     16  C   UNL d   1       7.592   6.191   2.120  0.00  0.00     0.040 A 
ENDBRANCH   9  10
ENDBRANCH   6   9
ENDBRANCH   1   6
BRANCH   3  17
ATOM     17  C   UNL d   1       1.407   0.689   0.147  0.00  0.00     0.067 A 
ATOM     18  C   UNL d   1       0.374   0.757   1.101  0.00  0.00     0.068 A 
ATOM     19  C   UNL d   1      -0.482  -0.292   0.810  0.00  0.00     0.136 A 
ATOM     20  N   UNL d   1       0.086  -0.936  -0.256  0.00  0.00    -0.292 N 
ATOM     21  N   UNL d   1       1.209  -0.329  -0.698  0.00  0.00    -0.297 N 
ATOM     22  C   UNL d   1      -0.286  -2.162  -0.925  0.00  0.00     0.178 C 
ATOM     23  HN  UNL d   1       1.781  -0.590  -1.501  1.00  0.00     0.187 HD
BRANCH  19  24
ATOM     24  C   UNL d   1      -1.731  -0.676   1.499  0.00  0.00     0.434 C 
ATOM     25  F   UNL d   1      -2.400  -1.700   0.921  0.00  0.00    -0.165 F 
ATOM     26  F   UNL d   1      -1.485  -1.047   2.781  0.00  0.00    -0.165 F 
ATOM     27  F   UNL d   1      -2.598   0.366   1.554  0.00  0.00    -0.165 F 
ENDBRANCH  19  24
ENDBRANCH   3  17
TORSDOF 5
