REMARK  4 active torsions:
REMARK  status: ('A' for Active; 'I' for Inactive)
REMARK    1  A    between atoms: S_13  and  C_6 
REMARK    2  A    between atoms: C_12  and  N_15 
REMARK    3  A    between atoms: C_23  and  S_13 
REMARK    4  A    between atoms: C_14  and  C_23 
REMARK       I    between atoms: N_15  and  C_14 
ROOT
ATOM      1  S   UNL d   1      -0.885  -2.878  -0.617  0.00  0.00    -0.102 SA
ENDROOT
BRANCH   1   2
ATOM      2  C   UNL d   1      -1.291  -1.162  -0.629  0.00  0.00     0.087 A 
ATOM      3  C   UNL d   1      -0.419  -0.230  -1.186  0.00  0.00     0.075 A 
ATOM      4  C   UNL d   1      -0.829   1.089  -1.109  0.00  0.00     0.186 A 
ATOM      5  C   UNL d   1       0.835  -0.162  -1.850  0.00  0.00     0.046 A 
ATOM      6  O   UNL d   1       0.120   1.883  -1.674  0.00  0.00    -0.218 OA
ATOM      7  N   UNL d   1      -1.963   1.559  -0.572  0.00  0.00    -0.330 N 
ATOM      8  N   UNL d   1       1.167   1.105  -2.138  0.00  0.00    -0.263 N 
ATOM      9  HN  UNL d   1       2.015   1.429  -2.602  1.00  0.00     0.194 HD
ATOM     10  C   UNL d   1      -2.720   0.575  -0.078  0.00  0.00     0.183 A 
ATOM     11  HN  UNL d   1      -2.217   2.546  -0.543  1.00  0.00     0.168 HD
ATOM     12  N   UNL d   1      -2.451  -0.744  -0.071  0.00  0.00    -0.346 N 
ATOM     13  HN  UNL d   1      -3.103  -1.409   0.344  1.00  0.00     0.167 HD
ATOM     14  C   UNL d   1       1.766  -1.251  -2.231  0.00  0.00     0.071 C 
ENDBRANCH   1   2
BRANCH   1  15
ATOM     15  C   UNL d   1      -2.473  -3.601  -0.084  0.00  0.00     0.184 C 
BRANCH  15  16
ATOM     16  C   UNL d   1      -2.477  -5.109  -0.319  0.00  0.00     0.231 C 
ATOM     17  N   UNL d   1      -3.223  -5.804   0.632  0.00  0.00    -0.326 N 
ATOM     18  H   UNL d   1      -3.763  -5.254   1.289  0.00  0.00     0.169 HD
ATOM     19  O   UNL d   1      -1.933  -5.620  -1.293  0.00  0.00    -0.272 OA
BRANCH  17  20
ATOM     20  C   UNL d   1      -3.418  -7.205   0.679  0.00  0.00     0.037 A 
ATOM     21  C   UNL d   1      -2.671  -8.118  -0.071  0.00  0.00     0.053 A 
ATOM     22  C   UNL d   1      -2.942  -9.486   0.007  0.00  0.00     0.037 A 
ATOM     23 CL   UNL d   1      -2.013 -10.595  -0.926  0.00  0.00    -0.084 Cl
ATOM     24  C   UNL d   1      -3.956  -9.966   0.830  0.00  0.00     0.048 A 
ATOM     25  C   UNL d   1      -4.686  -9.062   1.592  0.00  0.00     0.037 A 
ATOM     26  C   UNL d   1      -4.416  -7.690   1.532  0.00  0.00     0.053 A 
ATOM     27 CL   UNL d   1      -5.947  -9.635   2.615  0.00  0.00    -0.084 Cl
ENDBRANCH  17  20
ENDBRANCH  15  16
ENDBRANCH   1  15
TORSDOF 4
