REMARK  1 active torsions:
REMARK  status: ('A' for Active; 'I' for Inactive)
REMARK    1  A    between atoms: S_6  and  C_1 
ROOT
ATOM      1  C   UNL d   1       1.889   0.869  -0.164  0.00  0.00     0.087 A 
ATOM      2  C   UNL d   1       0.528   0.646  -0.054  0.00  0.00     0.044 A 
ATOM      3  S   UNL d   1       2.779  -0.592  -0.174  0.00  0.00    -0.068 SA
ATOM      4  C   UNL d   1       0.231  -0.775  -0.014  0.00  0.00    -0.015 A 
ATOM      5  C   UNL d   1       1.376  -1.550  -0.042  0.00  0.00     0.093 A 
ATOM      6  C   UNL d   1      -0.542   1.647   0.061  0.00  0.00     0.162 C 
ATOM      7  C   UNL d   1       1.419  -2.980   0.047  0.00  0.00     0.107 C 
ATOM      8  N   UNL d   1       1.411  -4.135   0.127  0.00  0.00    -0.191 NA
ATOM      9  O   UNL d   1      -0.334   2.856   0.029  0.00  0.00    -0.292 OA
ATOM     10  C   UNL d   1      -1.182  -1.283   0.100  0.00  0.00     0.042 C 
ATOM     11  C   UNL d   1      -1.942   1.115   0.328  0.00  0.00     0.084 C 
ATOM     12  C   UNL d   1      -2.185  -0.225  -0.363  0.00  0.00     0.012 C 
ENDROOT
BRANCH   1  13
ATOM     13  S   UNL d   1       2.697   2.427  -0.158  0.00  0.00     0.053 S 
ATOM     14  O   UNL d   1       4.171   2.160  -0.257  0.00  0.00    -0.253 OA
ATOM     15  C   UNL d   1       2.164   3.072  -1.760  0.00  0.00     0.133 C 
ENDBRANCH   1  13
TORSDOF 1
