REMARK  5 active torsions:
REMARK  status: ('A' for Active; 'I' for Inactive)
REMARK    1  A    between atoms: C_7  and  C_1 
REMARK    2  A    between atoms: C_14  and  C_6 
REMARK    3  A    between atoms: C_8  and  O_12 
REMARK       I    between atoms: N_11  and  C_8 
REMARK    4  A    between atoms: O_12  and  N_9 
REMARK    5  A    between atoms: C_15  and  N_11 
ROOT
ATOM      1  C   UNL d   1      -1.392   2.179  -0.263  0.00  0.00     0.065 C 
ATOM      2  N   UNL d   1      -0.873   3.373  -0.408  0.00  0.00    -0.258 N 
ATOM      3  HN  UNL d   1      -1.391   4.225  -0.624  1.00  0.00     0.194 HD
ATOM      4  C   UNL d   1      -0.547   0.945   0.015  0.00  0.00     0.073 C 
ENDROOT
BRANCH   1   5
ATOM      5  C   UNL d   1      -2.822   2.013  -0.349  0.00  0.00     0.125 A 
ATOM      6  C   UNL d   1      -3.859   2.898  -0.528  0.00  0.00     0.073 A 
ATOM      7  C   UNL d   1      -5.042   2.110  -0.471  0.00  0.00     0.068 A 
ATOM      8  N   UNL d   1      -4.724   0.820  -0.284  0.00  0.00    -0.260 N 
ATOM      9  O   UNL d   1      -3.350   0.764  -0.216  0.00  0.00    -0.235 OA
ATOM     10  HN  UNL d   1      -5.372   0.037  -0.206  1.00  0.00     0.195 HD
BRANCH   7  11
ATOM     11  C   UNL d   1      -6.429   2.560  -0.565  0.00  0.00    -0.007 A 
ATOM     12  C   UNL d   1      -6.755   3.719  -1.284  0.00  0.00     0.014 A 
ATOM     13  C   UNL d   1      -8.075   4.173  -1.338  0.00  0.00     0.001 A 
ATOM     14  C   UNL d   1      -9.082   3.474  -0.675  0.00  0.00     0.000 A 
ATOM     15  C   UNL d   1      -8.775   2.313   0.030  0.00  0.00     0.001 A 
ATOM     16  C   UNL d   1      -7.455   1.855   0.081  0.00  0.00     0.014 A 
ENDBRANCH   7  11
ENDBRANCH   1   5
BRANCH   2  17
ATOM     17  O   UNL d   1       0.526   3.281  -0.217  0.00  0.00    -0.181 OA
BRANCH  17  18
ATOM     18  C   UNL d   1       1.218   4.470  -0.326  0.00  0.00     0.387 C 
ATOM     19  N   UNL d   1       0.476   5.542  -0.764  0.00  0.00    -0.301 N 
ATOM     20  H   UNL d   1      -0.494   5.303  -0.935  0.00  0.00     0.171 HD
ATOM     21  O   UNL d   1       2.414   4.480  -0.049  0.00  0.00    -0.236 OA
BRANCH  19  22
ATOM     22  C   UNL d   1       0.921   6.866  -0.964  0.00  0.00     0.037 A 
ATOM     23  C   UNL d   1       2.236   7.282  -0.722  0.00  0.00     0.031 A 
ATOM     24  C   UNL d   1       2.615   8.619  -0.896  0.00  0.00     0.026 A 
ATOM     25  C   UNL d   1       1.680   9.551  -1.324  0.00  0.00     0.034 A 
ATOM     26  C   UNL d   1       0.373   9.154  -1.595  0.00  0.00     0.026 A 
ATOM     27 CL   UNL d   1       2.138  11.200  -1.508  0.00  0.00    -0.084 Cl
ATOM     28  C   UNL d   1      -0.005   7.815  -1.416  0.00  0.00     0.031 A 
ENDBRANCH  19  22
ENDBRANCH  17  18
ENDBRANCH   2  17
TORSDOF 5
