REMARK  1 active torsions:
REMARK  status: ('A' for Active; 'I' for Inactive)
REMARK    1  A    between atoms: C_14  and  C_10 
ROOT
ATOM      1  N   UNL d   1       0.272   2.748   0.067  0.00  0.00    -0.070 N 
ATOM      2  C   UNL d   1       1.472   2.024   0.045  0.00  0.00     0.704 A 
ATOM      3  C   UNL d   1       0.290   4.140   0.143  0.00  0.00     0.148 A 
ATOM      4  N   UNL d   1      -0.974   2.221   0.007  0.00  0.00    -0.281 N 
ATOM      5  HN  UNL d   1      -1.239   1.238  -0.056  1.00  0.00     0.188 HD
ATOM      6  N   UNL d   1       2.594   2.812   0.106  0.00  0.00    -0.176 N 
ATOM      7  N   UNL d   1       1.452   4.878   0.194  0.00  0.00    -0.336 N 
ATOM      8  HN  UNL d   1       1.454   5.897   0.252  1.00  0.00     0.168 HD
ATOM      9  C   UNL d   1      -1.033   4.505   0.137  0.00  0.00     0.078 A 
ATOM     10  C   UNL d   1      -1.780   3.294   0.051  0.00  0.00     0.038 A 
ATOM     11  C   UNL d   1       2.550   4.176   0.164  0.00  0.00     0.202 A 
ATOM     12  N   UNL d   1       1.626   0.727  -0.040  0.00  0.00    -0.222 N 
ATOM     13  HN  UNL d   1       0.913   0.004  -0.125  1.00  0.00     0.177 HD
ATOM     14  C   UNL d   1       3.748   1.980  -0.070  0.00  0.00     0.168 C 
ATOM     15  C   UNL d   1       3.118   0.574   0.021  0.00  0.00     0.159 C 
ENDROOT
BRANCH  10  16
ATOM     16  C   UNL d   1      -3.298   3.180  -0.004  0.00  0.00    -0.007 C 
ATOM     17  C   UNL d   1      -3.791   1.719  -0.009  0.00  0.00     0.021 C 
ATOM     18  C   UNL d   1      -3.921   3.883   1.221  0.00  0.00     0.021 C 
ATOM     19  C   UNL d   1      -3.821   3.862  -1.287  0.00  0.00     0.021 C 
ENDBRANCH  10  16
TORSDOF 1
