REMARK  4 active torsions:
REMARK  status: ('A' for Active; 'I' for Inactive)
REMARK    1  A    between atoms: C_5  and  C_1 
REMARK    2  A    between atoms: S_4  and  C_5 
REMARK    3  A    between atoms: C_15  and  S_4 
REMARK    4  A    between atoms: C_9  and  C_15 
ROOT
ATOM      1  S   UNL d   1      -1.803   3.142  -0.190  0.00  0.00    -0.160 SA
ENDROOT
BRANCH   1   2
ATOM      2  C   UNL d   1      -0.168   2.361  -0.014  0.00  0.00     0.117 C 
BRANCH   2   3
ATOM      3  C   UNL d   1      -0.284   0.864  -0.137  0.00  0.00     0.011 A 
ATOM      4  C   UNL d   1      -0.129   0.270  -1.397  0.00  0.00     0.125 A 
ATOM      5  F   UNL d   1       0.185   1.030  -2.457  0.00  0.00    -0.205 F 
ATOM      6  C   UNL d   1      -0.292  -1.099  -1.593  0.00  0.00     0.043 A 
ATOM      7  C   UNL d   1      -0.623  -1.915  -0.515  0.00  0.00     0.005 A 
ATOM      8  C   UNL d   1      -0.777  -1.352   0.751  0.00  0.00     0.024 A 
ATOM      9  C   UNL d   1      -0.610   0.027   0.940  0.00  0.00     0.044 A 
ATOM     10 CL   UNL d   1      -0.824   0.640   2.542  0.00  0.00    -0.084 Cl
ENDBRANCH   2   3
ENDBRANCH   1   2
BRANCH   1  11
ATOM     11  C   UNL d   1      -1.335   4.878   0.089  0.00  0.00     0.112 C 
BRANCH  11  12
ATOM     12  C   UNL d   1      -2.544   5.771  -0.063  0.00  0.00    -0.049 A 
ATOM     13  C   UNL d   1      -3.386   6.023   1.032  0.00  0.00     0.009 A 
ATOM     14  C   UNL d   1      -4.549   6.781   0.872  0.00  0.00     0.024 A 
ATOM     15  C   UNL d   1      -4.878   7.288  -0.383  0.00  0.00     0.034 A 
ATOM     16  C   UNL d   1      -4.050   7.054  -1.478  0.00  0.00     0.024 A 
ATOM     17 CL   UNL d   1      -6.325   8.197  -0.586  0.00  0.00    -0.084 Cl
ATOM     18  C   UNL d   1      -2.886   6.296  -1.319  0.00  0.00     0.009 A 
ENDBRANCH  11  12
ENDBRANCH   1  11
TORSDOF 4
