REMARK  5 active torsions:
REMARK  status: ('A' for Active; 'I' for Inactive)
REMARK    1  A    between atoms: N_2  and  C_1 
REMARK    2  A    between atoms: O_18  and  C_1 
REMARK       I    between atoms: C_6  and  N_2 
REMARK    3  A    between atoms: C_5  and  C_6 
REMARK    4  A    between atoms: C_8  and  C_7 
REMARK    5  A    between atoms: O_23  and  C_14 
ROOT
ATOM      1  N   UNL d   1      -2.668  -0.165  -1.321  0.00  0.00    -0.312 N 
ATOM      2  C   UNL d   1      -3.839  -0.860  -1.266  0.00  0.00     0.256 C 
ATOM      3  O   UNL d   1      -4.740  -0.687  -2.074  0.00  0.00    -0.267 OA
ATOM      4  H   UNL d   1      -1.926  -0.280  -0.653  0.00  0.00     0.166 HD
ENDROOT
BRANCH   1   5
ATOM      5  C   UNL d   1      -2.406   0.895  -2.244  0.00  0.00     0.269 C 
ATOM      6  C   UNL d   1      -2.295   0.536  -3.741  0.00  0.00     0.224 C 
ATOM      7  C   UNL d   1      -2.814   1.677  -4.504  0.00  0.00     0.029 A 
ATOM      8  O   UNL d   1      -1.713  -0.409  -4.247  0.00  0.00    -0.286 OA
ATOM      9  C   UNL d   1      -2.631   1.944  -5.851  0.00  0.00     0.016 A 
ATOM     10  C   UNL d   1      -3.406   2.601  -3.649  0.00  0.00     0.029 A 
ATOM     11  C   UNL d   1      -3.053   3.188  -6.327  0.00  0.00     0.001 A 
ATOM     12  C   UNL d   1      -3.660   4.122  -5.465  0.00  0.00     0.001 A 
ATOM     13  C   UNL d   1      -3.852   3.828  -4.110  0.00  0.00     0.016 A 
ATOM     14  C   UNL d   1      -3.336   2.131  -2.260  0.00  0.00     0.224 C 
ATOM     15  O   UNL d   1      -3.865   2.710  -1.328  0.00  0.00    -0.286 OA
BRANCH   5  16
ATOM     16  O   UNL d   1      -1.114   1.327  -1.808  0.00  0.00    -0.358 OA
ATOM     17  H   UNL d   1      -0.544   1.433  -2.589  0.00  0.00     0.213 HD
ENDBRANCH   5  16
ENDBRANCH   1   5
BRANCH   2  18
ATOM     18  C   UNL d   1      -3.940  -1.921  -0.216  0.00  0.00     0.062 A 
ATOM     19  C   UNL d   1      -3.395  -1.895   1.076  0.00  0.00     0.069 A 
ATOM     20  C   UNL d   1      -3.498  -3.060   1.869  0.00  0.00     0.073 A 
ATOM     21  C   UNL d   1      -4.175  -4.162   1.387  0.00  0.00     0.142 A 
ATOM     22  N   UNL d   1      -4.759  -4.191   0.177  0.00  0.00    -0.346 N 
ATOM     23  C   UNL d   1      -4.629  -3.076  -0.591  0.00  0.00     0.108 A 
ATOM     24  HN  UNL d   1      -5.274  -5.009  -0.149  1.00  0.00     0.167 HD
BRANCH  19  25
ATOM     25  C   UNL d   1      -2.712  -0.726   1.726  0.00  0.00     0.418 C 
ATOM     26  F   UNL d   1      -2.838   0.459   1.086  0.00  0.00    -0.166 F 
ATOM     27  F   UNL d   1      -3.166  -0.503   2.992  0.00  0.00    -0.166 F 
ATOM     28  F   UNL d   1      -1.372  -0.941   1.849  0.00  0.00    -0.166 F 
ENDBRANCH  19  25
BRANCH  21  29
ATOM     29  O   UNL d   1      -4.217  -5.259   2.220  0.00  0.00    -0.341 OA
ATOM     30  C   UNL d   1      -5.022  -6.320   1.720  0.00  0.00     0.211 C 
ENDBRANCH  21  29
ENDBRANCH   2  18
TORSDOF 5
