REMARK  6 active torsions:
REMARK  status: ('A' for Active; 'I' for Inactive)
REMARK    1  A    between atoms: C_2  and  S_1 
REMARK    2  A    between atoms: N_6  and  S_1 
REMARK    3  A    between atoms: C_14  and  C_4 
REMARK    4  A    between atoms: C_5  and  N_12 
REMARK    5  A    between atoms: C_11  and  C_13 
REMARK    6  A    between atoms: O_30  and  C_14 
ROOT
ATOM      1  N   UNL d   1       0.532   0.213  -1.729  0.00  0.00    -0.204 NA
ATOM      2  N   UNL d   1       0.637   0.948  -4.662  0.00  0.00    -0.216 N 
ATOM      3  C   UNL d   1       0.989   1.545  -2.270  0.00  0.00     0.128 C 
ATOM      4  C   UNL d   1       0.289   1.885  -3.597  0.00  0.00     0.157 C 
ATOM      5  C   UNL d   1       0.178  -1.315  -3.723  0.00  0.00     0.036 C 
ATOM      6  C   UNL d   1       1.090  -0.911  -2.575  0.00  0.00     0.109 C 
ATOM      7  C   UNL d   1      -0.147  -0.266  -4.782  0.00  0.00     0.142 C 
ENDROOT
BRANCH   1   8
ATOM      8  S   UNL d   1       0.957  -0.046  -0.082  0.00  0.00     0.259 S 
ATOM      9  O   UNL d   1       0.135  -1.122   0.427  0.00  0.00    -0.204 OA
ATOM     10  O   UNL d   1       2.403  -0.107  -0.020  0.00  0.00    -0.204 OA
BRANCH   8  11
ATOM     11  C   UNL d   1       0.543   1.364   0.930  0.00  0.00     0.146 A 
ATOM     12  N   UNL d   1      -0.732   1.855   1.161  0.00  0.00    -0.336 N 
ATOM     13  C   UNL d   1      -0.686   2.918   2.062  0.00  0.00     0.111 A 
ATOM     14  C   UNL d   1      -1.962   1.341   0.590  0.00  0.00     0.157 C 
ATOM     15  C   UNL d   1       0.649   3.097   2.390  0.00  0.00     0.039 A 
ATOM     16  C   UNL d   1       1.404   2.143   1.690  0.00  0.00     0.046 A 
BRANCH  13  17
ATOM     17  C   UNL d   1      -1.825   3.669   2.564  0.00  0.00     0.309 C 
ATOM     18  O   UNL d   1      -2.996   3.492   2.249  0.00  0.00    -0.258 OA
BRANCH  17  19
ATOM     19  O   UNL d   1      -1.395   4.617   3.446  0.00  0.00    -0.321 OA
ATOM     20  C   UNL d   1      -2.425   5.420   4.021  0.00  0.00     0.213 C 
ENDBRANCH  17  19
ENDBRANCH  13  17
ENDBRANCH   8  11
ENDBRANCH   1   8
BRANCH   2  21
ATOM     21  C   UNL d   1       1.688   1.209  -5.505  0.00  0.00     0.680 A 
ATOM     22  N   UNL d   1       2.356   2.364  -5.357  0.00  0.00    -0.186 N 
ATOM     23  C   UNL d   1       3.345   2.669  -6.239  0.00  0.00     0.133 A 
ATOM     24  HN  UNL d   1       2.126   3.003  -4.596  1.00  0.00     0.184 HD
ATOM     25  C   UNL d   1       3.694   1.813  -7.264  0.00  0.00     0.052 A 
ATOM     26  C   UNL d   1       2.985   0.643  -7.324  0.00  0.00     0.108 A 
ATOM     27  N   UNL d   1       1.999   0.328  -6.466  0.00  0.00    -0.202 N 
ATOM     28  HN  UNL d   1       1.502  -0.559  -6.543  1.00  0.00     0.183 HD
BRANCH  23  29
ATOM     29  C   UNL d   1       4.075   3.994  -6.107  0.00  0.00     0.433 C 
ATOM     30  F   UNL d   1       3.655   4.766  -5.066  0.00  0.00    -0.165 F 
ATOM     31  F   UNL d   1       5.420   3.832  -5.932  0.00  0.00    -0.165 F 
ATOM     32  F   UNL d   1       3.947   4.771  -7.223  0.00  0.00    -0.165 F 
ENDBRANCH  23  29
ENDBRANCH   2  21
TORSDOF 6
