REMARK  4 active torsions:
REMARK  status: ('A' for Active; 'I' for Inactive)
REMARK    1  A    between atoms: C_3  and  S_1 
REMARK    2  A    between atoms: N_5  and  S_1 
REMARK    3  A    between atoms: C_2  and  N_5 
REMARK    4  A    between atoms: O_25  and  C_20 
ROOT
ATOM      1  N   UNL d   1       0.766   0.761   1.203  0.00  0.00    -0.164 NA
ATOM      2  H   UNL d   1       1.407   0.213   0.626  0.00  0.00     0.147 HD
ENDROOT
BRANCH   1   3
ATOM      3  C   UNL d   1       0.919   0.384   2.534  0.00  0.00     0.124 A 
ATOM      4  N   UNL d   1       2.135  -0.010   2.905  0.00  0.00    -0.286 N 
ATOM      5  N   UNL d   1       1.989  -0.283   4.213  0.00  0.00    -0.294 N 
ATOM      6  HN  UNL d   1       2.976  -0.086   2.333  1.00  0.00     0.188 HD
ATOM      7  C   UNL d   1       3.131  -0.720   4.983  0.00  0.00     0.178 C 
ATOM      8  C   UNL d   1       0.704  -0.150   4.675  0.00  0.00     0.066 A 
ATOM      9  C   UNL d   1      -0.054   0.288   3.578  0.00  0.00     0.066 A 
ATOM     10  C   UNL d   1       0.158  -0.405   5.944  0.00  0.00     0.032 A 
ATOM     11  C   UNL d   1      -1.453   0.444   3.778  0.00  0.00     0.084 A 
ATOM     12  C   UNL d   1      -2.004   0.181   5.048  0.00  0.00     0.038 A 
ATOM     13  C   UNL d   1      -1.212  -0.224   6.114  0.00  0.00     0.005 A 
BRANCH  11  14
ATOM     14  O   UNL d   1      -2.426   0.651   2.809  0.00  0.00    -0.355 OA
ATOM     15  C   UNL d   1      -2.192   1.741   1.935  0.00  0.00     0.210 C 
ENDBRANCH  11  14
ENDBRANCH   1   3
BRANCH   1  16
ATOM     16  S   UNL d   1       1.025   2.405   0.849  0.00  0.00     0.249 S 
ATOM     17  O   UNL d   1       0.318   2.708  -0.378  0.00  0.00    -0.205 OA
ATOM     18  O   UNL d   1       0.787   3.201   2.038  0.00  0.00    -0.205 OA
BRANCH  16  19
ATOM     19  C   UNL d   1       2.730   2.536   0.475  0.00  0.00     0.105 A 
ATOM     20  C   UNL d   1       3.355   1.770  -0.520  0.00  0.00     0.108 A 
ATOM     21  C   UNL d   1       4.751   1.992  -0.884  0.00  0.00     0.086 A 
ATOM     22  N   UNL d   1       2.884   0.771  -1.278  0.00  0.00    -0.238 N 
ATOM     23  N   UNL d   1       5.071   1.141  -1.865  0.00  0.00    -0.239 N 
ATOM     24  C   UNL d   1       5.553   2.967  -0.259  0.00  0.00     0.034 A 
ATOM     25  O   UNL d   1       3.927   0.402  -2.112  0.00  0.00    -0.156 OA
ATOM     26  HN  UNL d   1       5.972   1.054  -2.334  1.00  0.00     0.197 HD
ATOM     27  C   UNL d   1       4.906   3.705   0.750  0.00  0.00     0.004 A 
ATOM     28  C   UNL d   1       3.548   3.501   1.105  0.00  0.00     0.027 A 
ATOM     29  HN  UNL d   1       1.948   0.365  -1.247  1.00  0.00     0.197 HD
ENDBRANCH  16  19
ENDBRANCH   1  16
TORSDOF 4
