REMARK  6 active torsions:
REMARK  status: ('A' for Active; 'I' for Inactive)
REMARK    1  A    between atoms: C_6  and  C_1 
REMARK    2  A    between atoms: C_8  and  C_2 
REMARK    3  A    between atoms: C_9  and  N_3 
REMARK       I    between atoms: N_13  and  C_8 
REMARK    4  A    between atoms: C_22  and  N_13 
REMARK    5  A    between atoms: C_19  and  C_21 
REMARK    6  A    between atoms: C_21  and  C_22 
ROOT
ATOM      1  C   UNL d   1       1.018  -0.846  -0.006  0.00  0.00     0.157 C 
ATOM      2  C   UNL d   1      -0.318  -1.240  -0.019  0.00  0.00     0.082 C 
ATOM      3  N   UNL d   1       1.028   0.531   0.079  0.00  0.00    -0.251 N 
ATOM      4  N   UNL d   1      -0.223   1.004   0.339  0.00  0.00    -0.303 N 
ATOM      5  HN  UNL d   1      -0.487   1.955   0.593  1.00  0.00     0.186 HD
ATOM      6  C   UNL d   1      -1.027  -0.049   0.189  0.00  0.00     0.127 C 
ENDROOT
BRANCH   2   7
ATOM      7  C   UNL d   1      -0.804  -2.599  -0.189  0.00  0.00     0.255 C 
ATOM      8  O   UNL d   1      -0.171  -3.428  -0.832  0.00  0.00    -0.268 OA
ATOM      9  N   UNL d   1      -1.990  -2.879   0.445  0.00  0.00    -0.356 N 
ATOM     10  H   UNL d   1      -2.392  -2.211   1.090  0.00  0.00     0.162 HD
BRANCH   9  11
ATOM     11  C   UNL d   1      -2.540  -4.226   0.465  0.00  0.00     0.129 C 
BRANCH  11  12
ATOM     12  C   UNL d   1      -1.978  -5.087   1.601  0.00  0.00     0.076 C 
BRANCH  12  13
ATOM     13  C   UNL d   1      -2.450  -4.630   2.960  0.00  0.00     0.010 A 
ATOM     14  N   UNL d   1      -3.791  -4.553   3.152  0.00  0.00    -0.369 N 
ATOM     15  C   UNL d   1      -4.226  -4.188   4.377  0.00  0.00     0.088 A 
ATOM     16  HN  UNL d   1      -4.446  -4.765   2.399  1.00  0.00     0.165 HD
ATOM     17  C   UNL d   1      -3.388  -3.885   5.434  0.00  0.00     0.017 A 
ATOM     18  C   UNL d   1      -2.016  -3.967   5.224  0.00  0.00     0.003 A 
ATOM     19  C   UNL d   1      -1.538  -4.350   3.972  0.00  0.00     0.025 A 
ENDBRANCH  12  13
ENDBRANCH  11  12
ENDBRANCH   9  11
ENDBRANCH   2   7
BRANCH   1  20
ATOM     20  C   UNL d   1       2.232  -1.675   0.037  0.00  0.00     0.435 C 
ATOM     21  F   UNL d   1       2.006  -2.910   0.550  0.00  0.00    -0.165 F 
ATOM     22  F   UNL d   1       2.785  -1.845  -1.188  0.00  0.00    -0.165 F 
ATOM     23  F   UNL d   1       3.187  -1.132   0.835  0.00  0.00    -0.165 F 
ENDBRANCH   1  20
BRANCH   3  24
ATOM     24  C   UNL d   1       2.095   1.472  -0.062  0.00  0.00     0.057 A 
ATOM     25  C   UNL d   1       3.237   1.196  -0.825  0.00  0.00     0.033 A 
ATOM     26  C   UNL d   1       4.263   2.145  -0.928  0.00  0.00     0.026 A 
ATOM     27  C   UNL d   1       4.148   3.372  -0.280  0.00  0.00     0.034 A 
ATOM     28  C   UNL d   1       3.006   3.670   0.458  0.00  0.00     0.026 A 
ATOM     29 CL   UNL d   1       5.417   4.526  -0.403  0.00  0.00    -0.084 Cl
ATOM     30  C   UNL d   1       1.976   2.729   0.555  0.00  0.00     0.033 A 
ENDBRANCH   3  24
TORSDOF 6
