REMARK  4 active torsions:
REMARK  status: ('A' for Active; 'I' for Inactive)
REMARK    1  A    between atoms: N_5  and  C_1 
REMARK    2  A    between atoms: C_12  and  N_2 
REMARK    3  A    between atoms: C_10  and  N_5 
REMARK    4  A    between atoms: N_13  and  C_10 
ROOT
ATOM      1  C   UNL d   1       0.913  -0.843  -0.097  0.00  0.00     0.150 A 
ATOM      2  N   UNL d   1       0.953   0.554   0.057  0.00  0.00    -0.239 N 
ATOM      3  N   UNL d   1      -0.284   1.089   0.265  0.00  0.00    -0.302 N 
ATOM      4  HN  UNL d   1      -0.519   2.059   0.476  1.00  0.00     0.186 HD
ATOM      5  C   UNL d   1      -0.437  -1.154  -0.057  0.00  0.00     0.107 A 
ATOM      6  C   UNL d   1      -1.114   0.058   0.131  0.00  0.00     0.134 A 
ATOM      7  C   UNL d   1      -1.038  -2.439  -0.119  0.00  0.00     0.105 C 
ATOM      8  N   UNL d   1      -1.544  -3.484  -0.183  0.00  0.00    -0.191 NA
ENDROOT
BRANCH   1   9
ATOM      9  N   UNL d   1       2.070  -1.570  -0.115  0.00  0.00    -0.336 N 
ATOM     10  HN  UNL d   1       2.872  -1.268   0.438  1.00  0.00     0.168 HD
BRANCH   9  11
ATOM     11  C   UNL d   1       2.147  -2.639  -0.834  0.00  0.00     0.179 C 
BRANCH  11  12
ATOM     12  N   UNL d   1       3.262  -3.434  -0.960  0.00  0.00    -0.386 N 
ATOM     13  C   UNL d   1       4.514  -3.129  -0.281  0.00  0.00     0.149 C 
ATOM     14  C   UNL d   1       3.240  -4.674  -1.716  0.00  0.00     0.149 C 
ENDBRANCH  11  12
ENDBRANCH   9  11
ENDBRANCH   1   9
BRANCH   2  15
ATOM     15  C   UNL d   1       2.088   1.413   0.004  0.00  0.00     0.058 A 
ATOM     16  C   UNL d   1       3.204   1.073  -0.773  0.00  0.00     0.033 A 
ATOM     17  C   UNL d   1       4.298   1.937  -0.842  0.00  0.00     0.026 A 
ATOM     18  C   UNL d   1       4.288   3.126  -0.118  0.00  0.00     0.034 A 
ATOM     19  C   UNL d   1       3.190   3.465   0.672  0.00  0.00     0.026 A 
ATOM     20 CL   UNL d   1       5.640   4.184  -0.208  0.00  0.00    -0.084 Cl
ATOM     21  C   UNL d   1       2.076   2.621   0.716  0.00  0.00     0.033 A 
ENDBRANCH   2  15
TORSDOF 4
