REMARK  1 active torsions:
REMARK  status: ('A' for Active; 'I' for Inactive)
REMARK    1  A    between atoms: C_7  and  C_4 
ROOT
ATOM      1  C   UNL d   1      -1.257  -1.521  -0.042  0.00  0.00     0.045 A 
ATOM      2  C   UNL d   1      -0.256  -0.392  -0.084  0.00  0.00     0.257 A 
ATOM      3  N   UNL d   1      -1.028   0.765  -0.068  0.00  0.00    -0.322 N 
ATOM      4  C   UNL d   1      -1.012  -2.838  -0.008  0.00  0.00     0.031 C 
ATOM      5  C   UNL d   1      -2.590  -0.915  -0.021  0.00  0.00     0.008 A 
ATOM      6  C   UNL d   1      -2.389   0.469  -0.030  0.00  0.00     0.046 A 
ATOM      7  C   UNL d   1      -3.865  -1.448  -0.001  0.00  0.00     0.033 A 
ATOM      8  O   UNL d   1       0.956  -0.459  -0.136  0.00  0.00    -0.267 OA
ATOM      9  C   UNL d   1      -3.438   1.366  -0.010  0.00  0.00     0.032 A 
ATOM     10  C   UNL d   1      -4.938  -0.554   0.016  0.00  0.00     0.011 A 
ATOM     11  C   UNL d   1      -4.733   0.837   0.014  0.00  0.00     0.021 A 
ATOM     12 BR   UNL d   1      -6.703  -1.236   0.036  0.00  0.00    -0.051 Br
ATOM     13  H   UNL d   1      -0.621   1.685  -0.086  0.00  0.00     0.169 HD
ENDROOT
BRANCH   4  14
ATOM     14  C   UNL d   1       0.326  -3.434  -0.009  0.00  0.00    -0.013 A 
ATOM     15  C   UNL d   1       1.036  -3.706   1.172  0.00  0.00     0.045 A 
ATOM     16  C   UNL d   1       2.319  -4.254   1.116  0.00  0.00     0.048 A 
ATOM     17 CL   UNL d   1       0.353  -3.401   2.732  0.00  0.00    -0.083 Cl
ATOM     18  C   UNL d   1       2.892  -4.536  -0.122  0.00  0.00     0.035 A 
ATOM     19  C   UNL d   1       2.193  -4.289  -1.302  0.00  0.00     0.024 A 
ATOM     20 CL   UNL d   1       4.478  -5.198  -0.197  0.00  0.00    -0.084 Cl
ATOM     21  C   UNL d   1       0.911  -3.738  -1.246  0.00  0.00     0.015 A 
ENDBRANCH   4  14
TORSDOF 1
