REMARK  3 active torsions:
REMARK  status: ('A' for Active; 'I' for Inactive)
REMARK    1  A    between atoms: C_8  and  C_2 
REMARK    2  A    between atoms: N_10  and  C_4 
REMARK    3  A    between atoms: S_9  and  C_5 
ROOT
ATOM      1  C   UNL d   1      -0.604   0.352  -0.018  0.00  0.00     0.096 A 
ATOM      2  C   UNL d   1       1.242  -1.087  -0.006  0.00  0.00     0.079 A 
ATOM      3  S   UNL d   1       1.941   0.481   0.054  0.00  0.00    -0.076 SA
ATOM      4  C   UNL d   1      -0.138  -1.008  -0.006  0.00  0.00     0.069 A 
ATOM      5  C   UNL d   1       0.429   1.273   0.016  0.00  0.00     0.064 A 
ATOM      6  C   UNL d   1      -1.990   0.727  -0.039  0.00  0.00     0.103 C 
ATOM      7  N   UNL d   1      -3.123   0.976  -0.050  0.00  0.00    -0.191 NA
ENDROOT
BRANCH   4   8
ATOM      8  N   UNL d   1      -0.979  -2.074   0.017  0.00  0.00    -0.397 N 
ATOM      9  H   UNL d   1      -0.688  -3.003   0.308  0.00  0.00     0.156 HD
ATOM     10  H   UNL d   1      -1.988  -1.958   0.115  0.00  0.00     0.156 HD
ENDBRANCH   4   8
BRANCH   5  11
ATOM     11  S   UNL d   1       0.233   3.033   0.036  0.00  0.00    -0.126 SA
ATOM     12  C   UNL d   1       1.917   3.681   0.063  0.00  0.00     0.096 C 
ENDBRANCH   5  11
BRANCH   2  13
ATOM     13  C   UNL d   1       2.163  -2.217  -0.050  0.00  0.00     0.164 C 
ATOM     14  O   UNL d   1       3.298  -2.183   0.435  0.00  0.00    -0.292 OA
ATOM     15  C   UNL d   1       1.716  -3.491  -0.725  0.00  0.00     0.097 C 
ENDBRANCH   2  13
TORSDOF 3
