REMARK  5 active torsions:
REMARK  status: ('A' for Active; 'I' for Inactive)
REMARK    1  A    between atoms: C_10  and  N_1 
REMARK    2  A    between atoms: C_7  and  C_2 
REMARK    3  A    between atoms: O_9  and  C_7 
REMARK    4  A    between atoms: C_12  and  O_9 
REMARK    5  A    between atoms: C_11  and  C_10 
ROOT
ATOM      1  N   UNL d   1       0.267  -0.225   0.567  0.00  0.00    -0.306 N 
ATOM      2  C   UNL d   1       0.859   0.626  -0.299  0.00  0.00     0.130 A 
ATOM      3  N   UNL d   1       0.305   0.660  -1.484  0.00  0.00    -0.284 N 
ATOM      4  HN  UNL d   1       0.596   1.204  -2.296  1.00  0.00     0.188 HD
ATOM      5  C   UNL d   1      -0.825  -0.720  -0.111  0.00  0.00     0.194 A 
ATOM      6  N   UNL d   1      -0.747  -0.196  -1.388  0.00  0.00    -0.275 N 
ATOM      7  S   UNL d   1      -2.051  -1.716   0.390  0.00  0.00    -0.039 SA
ATOM      8  H   UNL d   1      -1.406  -0.337  -2.146  0.00  0.00     0.189 HD
ENDROOT
BRANCH   2   9
ATOM      9  C   UNL d   1       2.037   1.547   0.018  0.00  0.00     0.194 C 
ATOM     10  C   UNL d   1       3.352   0.778   0.021  0.00  0.00     0.048 C 
BRANCH   9  11
ATOM     11  O   UNL d   1       1.928   2.224   1.270  0.00  0.00    -0.339 OA
BRANCH  11  12
ATOM     12  C   UNL d   1       1.219   3.393   1.276  0.00  0.00     0.070 A 
ATOM     13  C   UNL d   1       0.108   3.666   0.474  0.00  0.00     0.038 A 
ATOM     14  C   UNL d   1      -0.547   4.895   0.576  0.00  0.00     0.026 A 
ATOM     15  C   UNL d   1      -0.095   5.851   1.483  0.00  0.00     0.034 A 
ATOM     16  C   UNL d   1       0.998   5.579   2.302  0.00  0.00     0.026 A 
ATOM     17 CL   UNL d   1      -0.895   7.368   1.592  0.00  0.00    -0.084 Cl
ATOM     18  C   UNL d   1       1.647   4.346   2.204  0.00  0.00     0.038 A 
ENDBRANCH  11  12
ENDBRANCH   9  11
ENDBRANCH   2   9
BRANCH   1  19
ATOM     19  C   UNL d   1       0.636  -0.545   1.940  0.00  0.00     0.159 C 
BRANCH  19  20
ATOM     20  C   UNL d   1       1.379  -1.853   2.047  0.00  0.00    -0.017 C 
ATOM     21  C   UNL d   1       1.730  -2.701   1.069  0.00  0.00     0.008 C 
ENDBRANCH  19  20
ENDBRANCH   1  19
TORSDOF 5
