REMARK  3 active torsions:
REMARK  status: ('A' for Active; 'I' for Inactive)
REMARK    1  A    between atoms: C_7  and  C_2 
REMARK    2  A    between atoms: C_9  and  C_6 
REMARK    3  A    between atoms: C_14  and  C_9 
ROOT
ATOM      1  C   UNL d   1       4.370   1.624  -0.015  0.00  0.00     0.096 C 
ATOM      2  C   UNL d   1       3.918   0.356  -0.072  0.00  0.00     0.046 C 
ATOM      3  C   UNL d   1       5.754   1.934  -0.036  0.00  0.00     0.103 C 
ATOM      4  N   UNL d   1       6.883   2.203  -0.039  0.00  0.00    -0.191 NA
ENDROOT
BRANCH   1   5
ATOM      5  C   UNL d   1       3.352   2.727   0.043  0.00  0.00     0.202 C 
ATOM      6  O   UNL d   1       2.199   2.544  -0.341  0.00  0.00    -0.286 OA
BRANCH   5   7
ATOM      7  C   UNL d   1       3.730   4.082   0.552  0.00  0.00     0.016 A 
ATOM      8  C   UNL d   1       3.107   5.207  -0.013  0.00  0.00     0.017 A 
ATOM      9  C   UNL d   1       3.438   6.496   0.423  0.00  0.00     0.025 A 
ATOM     10  C   UNL d   1       4.383   6.666   1.432  0.00  0.00     0.034 A 
ATOM     11  C   UNL d   1       4.981   5.557   2.026  0.00  0.00     0.025 A 
ATOM     12 CL   UNL d   1       4.807   8.248   1.958  0.00  0.00    -0.084 Cl
ATOM     13  C   UNL d   1       4.641   4.266   1.602  0.00  0.00     0.017 A 
ENDBRANCH   5   7
ENDBRANCH   1   5
BRANCH   2  14
ATOM     14  C   UNL d   1       4.793  -0.776  -0.011  0.00  0.00     0.014 A 
ATOM     15  S   UNL d   1       5.210  -1.370   1.579  0.00  0.00    -0.082 SA
ATOM     16  C   UNL d   1       6.103  -2.606   0.912  0.00  0.00     0.057 A 
ATOM     17  C   UNL d   1       6.088  -2.627  -0.429  0.00  0.00     0.002 A 
ATOM     18  S   UNL d   1       6.998  -3.833   1.604  0.00  0.00    -0.093 SA
ATOM     19  C   UNL d   1       5.401  -1.534  -1.025  0.00  0.00    -0.032 A 
ATOM     20  C   UNL d   1       6.758  -3.742  -0.998  0.00  0.00    -0.043 A 
ATOM     21  C   UNL d   1       5.337  -1.219  -2.483  0.00  0.00     0.050 C 
ATOM     22  C   UNL d   1       6.840  -4.160  -2.426  0.00  0.00     0.049 C 
ATOM     23  C   UNL d   1       7.348  -4.469   0.036  0.00  0.00     0.058 A 
ENDBRANCH   2  14
TORSDOF 3
