REMARK  5 active torsions:
REMARK  status: ('A' for Active; 'I' for Inactive)
REMARK    1  A    between atoms: S_8  and  C_1 
REMARK    2  A    between atoms: C_11  and  S_8 
REMARK    3  A    between atoms: N_13  and  C_15 
REMARK    4  A    between atoms: O_20  and  N_13 
REMARK    5  A    between atoms: N_17  and  C_16 
ROOT
ATOM      1  C   UNL d   1       4.674   1.774  -0.200  0.00  0.00     0.034 A 
ATOM      2  C   UNL d   1       4.423   2.546   0.960  0.00  0.00     0.050 A 
ATOM      3  C   UNL d   1       5.440   2.305  -1.252  0.00  0.00     0.021 A 
ATOM      4  C   UNL d   1       4.920   3.860   0.994  0.00  0.00     0.031 A 
ATOM      5  C   UNL d   1       5.926   3.609  -1.186  0.00  0.00     0.002 A 
ATOM      6  C   UNL d   1       5.657   4.388  -0.069  0.00  0.00     0.002 A 
ENDROOT
BRANCH   1   7
ATOM      7  S   UNL d   1       4.064   0.086  -0.333  0.00  0.00    -0.063 SA
BRANCH   7   8
ATOM      8  C   UNL d   1       3.122   0.262  -1.804  0.00  0.00     0.118 A 
ATOM      9  N   UNL d   1       3.517  -0.301  -2.921  0.00  0.00    -0.342 N 
ATOM     10  C   UNL d   1       2.603  -0.043  -3.937  0.00  0.00     0.072 A 
ATOM     11  HN  UNL d   1       4.371  -0.848  -3.029  1.00  0.00     0.167 HD
ATOM     12  C   UNL d   1       2.649  -0.467  -5.285  0.00  0.00     0.063 A 
ATOM     13  C   UNL d   1       1.507   0.737  -3.552  0.00  0.00     0.037 A 
ATOM     14  C   UNL d   1       1.656  -0.130  -6.202  0.00  0.00     0.050 A 
ATOM     15 CL   UNL d   1       3.995  -1.421  -5.737  0.00  0.00    -0.082 Cl
ATOM     16  C   UNL d   1       0.588   0.648  -5.778  0.00  0.00     0.037 A 
ATOM     17  C   UNL d   1       0.490   1.097  -4.456  0.00  0.00     0.045 A 
ATOM     18 CL   UNL d   1      -0.646   1.074  -6.900  0.00  0.00    -0.084 Cl
ATOM     19  S   UNL d   1       1.649   1.128  -1.879  0.00  0.00    -0.063 SA
ENDBRANCH   7   8
ENDBRANCH   1   7
BRANCH   2  20
ATOM     20  N   UNL d   1       3.733   1.984   2.052  0.00  0.00    -0.350 N 
ATOM     21  C   UNL d   1       3.674   2.425   3.337  0.00  0.00     0.204 C 
ATOM     22  H   UNL d   1       3.310   1.079   1.883  0.00  0.00     0.166 HD
BRANCH  21  23
ATOM     23  N   UNL d   1       3.038   1.817   4.286  0.00  0.00    -0.265 N 
ATOM     24  HN  UNL d   1       2.502   0.955   4.185  1.00  0.00     0.194 HD
BRANCH  23  25
ATOM     25  O   UNL d   1       3.206   2.541   5.476  0.00  0.00    -0.289 OA
ATOM     26  H   UNL d   1       2.703   2.006   6.119  0.00  0.00     0.244 HD
ENDBRANCH  23  25
ENDBRANCH  21  23
ENDBRANCH   2  20
TORSDOF 5
