REMARK  3 active torsions:
REMARK  status: ('A' for Active; 'I' for Inactive)
REMARK    1  A    between atoms: C_7  and  C_1 
REMARK    2  A    between atoms: N_13  and  C_8 
REMARK    3  A    between atoms: S_14  and  C_9 
ROOT
ATOM      1  C   UNL d   1      -0.117   1.340  -0.244  0.00  0.00     0.165 A 
ATOM      2  C   UNL d   1       0.316  -0.700  -0.322  0.00  0.00     0.126 A 
ATOM      3  N   UNL d   1      -0.711   0.198  -0.371  0.00  0.00    -0.330 N 
ATOM      4  HN  UNL d   1      -1.708   0.013  -0.483  1.00  0.00     0.168 HD
ATOM      5  O   UNL d   1       1.232   1.332  -0.169  0.00  0.00    -0.255 OA
ATOM      6  C   UNL d   1       1.614   0.021  -0.246  0.00  0.00     0.318 A 
ATOM      7  C   UNL d   1       0.202  -2.030  -0.195  0.00  0.00     0.120 C 
ATOM      8  O   UNL d   1       2.747  -0.422  -0.205  0.00  0.00    -0.257 OA
ENDROOT
BRANCH   1   9
ATOM      9  C   UNL d   1      -0.841   2.598  -0.025  0.00  0.00     0.049 A 
ATOM     10  C   UNL d   1      -0.394   3.883  -0.320  0.00  0.00     0.083 A 
ATOM     11  N   UNL d   1      -1.139   4.979  -0.007  0.00  0.00    -0.360 N 
ATOM     12  C   UNL d   1      -2.336   4.804   0.597  0.00  0.00     0.089 A 
ATOM     13  HN  UNL d   1      -0.800   5.917  -0.225  1.00  0.00     0.166 HD
ATOM     14  C   UNL d   1      -2.863   3.569   0.901  0.00  0.00     0.018 A 
ATOM     15  C   UNL d   1      -2.104   2.453   0.580  0.00  0.00     0.020 A 
BRANCH  10  16
ATOM     16  S   UNL d   1       1.142   4.221  -1.171  0.00  0.00    -0.116 SA
ATOM     17  C   UNL d   1       1.127   6.036  -1.195  0.00  0.00     0.097 C 
ENDBRANCH  10  16
ENDBRANCH   1   9
BRANCH   7  18
ATOM     18  N   UNL d   1      -0.922  -2.857  -0.121  0.00  0.00    -0.396 N 
ATOM     19  C   UNL d   1      -2.308  -2.401  -0.246  0.00  0.00     0.148 C 
ATOM     20  C   UNL d   1      -0.807  -4.287   0.167  0.00  0.00     0.148 C 
ENDBRANCH   7  18
TORSDOF 3
