REMARK  4 active torsions:
REMARK  status: ('A' for Active; 'I' for Inactive)
REMARK    1  A    between atoms: S_4  and  C_2 
REMARK    2  A    between atoms: N_16  and  C_3 
REMARK    3  A    between atoms: C_13  and  S_4 
REMARK    4  A    between atoms: C_17  and  C_11 
ROOT
ATOM      1  N   UNL d   1      -0.255  -0.656   0.072  0.00  0.00    -0.227 N 
ATOM      2  C   UNL d   1       2.106  -0.805   0.054  0.00  0.00     0.119 A 
ATOM      3  C   UNL d   1       0.923  -1.453   0.045  0.00  0.00     0.125 A 
ATOM      4  C   UNL d   1      -0.194   0.736   0.094  0.00  0.00     0.130 A 
ATOM      5  N   UNL d   1      -1.540  -1.103   0.037  0.00  0.00    -0.290 N 
ATOM      6  HN  UNL d   1      -1.858  -2.072   0.027  1.00  0.00     0.187 HD
ATOM      7  C   UNL d   1      -1.497   1.170   0.054  0.00  0.00     0.082 A 
ATOM      8  N   UNL d   1       0.989   1.415   0.130  0.00  0.00    -0.349 N 
ATOM      9  HN  UNL d   1       1.031   2.433   0.173  1.00  0.00     0.167 HD
ATOM     10  C   UNL d   1      -2.301   0.003   0.020  0.00  0.00     0.062 A 
ATOM     11  C   UNL d   1       2.060   0.678   0.106  0.00  0.00     0.117 A 
ENDROOT
BRANCH   2  12
ATOM     12  S   UNL d   1       3.621  -1.605  -0.023  0.00  0.00     0.211 S 
ATOM     13  O   UNL d   1       3.490  -2.886  -0.701  0.00  0.00    -0.217 OA
ATOM     14  O   UNL d   1       4.635  -0.669  -0.474  0.00  0.00    -0.217 OA
BRANCH  12  15
ATOM     15  C   UNL d   1       3.996  -1.958   1.689  0.00  0.00     0.064 A 
ATOM     16  C   UNL d   1       3.564  -3.160   2.261  0.00  0.00     0.025 A 
ATOM     17  C   UNL d   1       3.896  -3.451   3.587  0.00  0.00     0.025 A 
ATOM     18  C   UNL d   1       4.664  -2.551   4.327  0.00  0.00     0.034 A 
ATOM     19  C   UNL d   1       5.118  -1.366   3.748  0.00  0.00     0.025 A 
ATOM     20 CL   UNL d   1       5.061  -2.908   5.962  0.00  0.00    -0.084 Cl
ATOM     21  C   UNL d   1       4.791  -1.068   2.422  0.00  0.00     0.025 A 
ENDBRANCH  12  15
ENDBRANCH   2  12
BRANCH   3  22
ATOM     22  N   UNL d   1       0.731  -2.836  -0.015  0.00  0.00    -0.286 NA
ATOM     23  H   UNL d   1       1.411  -3.319  -0.612  0.00  0.00     0.125 HD
ATOM     24  H   UNL d   1      -0.235  -3.056  -0.290  0.00  0.00     0.125 HD
ENDBRANCH   3  22
BRANCH  10  25
ATOM     25  C   UNL d   1      -3.764  -0.074  -0.029  0.00  0.00    -0.008 A 
ATOM     26  C   UNL d   1      -4.438  -1.156   0.555  0.00  0.00     0.014 A 
ATOM     27  C   UNL d   1      -5.833  -1.233   0.515  0.00  0.00     0.001 A 
ATOM     28  C   UNL d   1      -6.569  -0.233  -0.116  0.00  0.00     0.000 A 
ATOM     29  C   UNL d   1      -5.913   0.846  -0.705  0.00  0.00     0.001 A 
ATOM     30  C   UNL d   1      -4.517   0.927  -0.660  0.00  0.00     0.014 A 
ENDBRANCH  10  25
TORSDOF 4
