REMARK  2 active torsions:
REMARK  status: ('A' for Active; 'I' for Inactive)
REMARK    1  A    between atoms: N_4  and  N_1 
REMARK    2  A    between atoms: C_11  and  C_10 
ROOT
ATOM      1  N   UNL d   1       1.939   0.063  -0.105  0.00  0.00    -0.182 N 
ATOM      2  C   UNL d   1       1.144   1.190  -0.063  0.00  0.00     0.280 A 
ATOM      3  C   UNL d   1       1.189  -1.098  -0.061  0.00  0.00     0.280 A 
ATOM      4  C   UNL d   1      -0.210  -0.672  -0.009  0.00  0.00     0.050 A 
ATOM      5  C   UNL d   1      -0.233   0.708  -0.021  0.00  0.00     0.050 A 
ATOM      6  O   UNL d   1       1.408   2.379  -0.056  0.00  0.00    -0.265 OA
ATOM      7  O   UNL d   1       1.524  -2.271  -0.070  0.00  0.00    -0.265 OA
ATOM      8  C   UNL d   1      -1.376  -1.417   0.024  0.00  0.00     0.018 A 
ATOM      9  C   UNL d   1      -1.415   1.426  -0.013  0.00  0.00     0.018 A 
ATOM     10  C   UNL d   1      -2.605   0.697   0.009  0.00  0.00     0.001 A 
ATOM     11  C   UNL d   1      -2.587  -0.713   0.031  0.00  0.00     0.001 A 
ENDROOT
BRANCH   1  12
ATOM     12  N   UNL d   1       3.305  -0.008  -0.202  0.00  0.00    -0.299 N 
ATOM     13  C   UNL d   1       4.008   1.074  -0.275  0.00  0.00     0.119 C 
ATOM     14  HN  UNL d   1       3.767  -0.918  -0.216  1.00  0.00     0.186 HD
BRANCH  13  15
ATOM     15  C   UNL d   1       5.482   1.021  -0.399  0.00  0.00    -0.019 A 
ATOM     16  C   UNL d   1       6.147  -0.208  -0.456  0.00  0.00     0.014 A 
ATOM     17  C   UNL d   1       7.537  -0.241  -0.584  0.00  0.00     0.024 A 
ATOM     18  C   UNL d   1       8.256   0.951  -0.650  0.00  0.00     0.034 A 
ATOM     19  C   UNL d   1       7.598   2.180  -0.590  0.00  0.00     0.024 A 
ATOM     20 CL   UNL d   1       9.968   0.906  -0.812  0.00  0.00    -0.084 Cl
ATOM     21  C   UNL d   1       6.205   2.218  -0.466  0.00  0.00     0.014 A 
ENDBRANCH  13  15
ENDBRANCH   1  12
TORSDOF 2
