REMARK  3 active torsions:
REMARK  status: ('A' for Active; 'I' for Inactive)
REMARK       I    between atoms: C_2  and  N_4 
REMARK    1  A    between atoms: C_7  and  C_2 
REMARK    2  A    between atoms: N_4  and  C_8 
REMARK    3  A    between atoms: O_17  and  C_14 
ROOT
ATOM      1  C   UNL d   1      -3.161  -2.674   1.211  0.00  0.00     0.252 C 
ATOM      2  N   UNL d   1      -2.782  -1.369   0.958  0.00  0.00    -0.351 N 
ATOM      3  O   UNL d   1      -4.261  -2.989   1.643  0.00  0.00    -0.268 OA
ATOM      4  H   UNL d   1      -1.796  -1.186   0.811  0.00  0.00     0.163 HD
ENDROOT
BRANCH   1   5
ATOM      5  C   UNL d   1      -2.119  -3.712   0.984  0.00  0.00     0.032 A 
ATOM      6  C   UNL d   1      -2.109  -4.838   1.815  0.00  0.00     0.020 A 
ATOM      7  C   UNL d   1      -1.110  -5.808   1.676  0.00  0.00     0.038 A 
ATOM      8  C   UNL d   1      -0.126  -5.660   0.698  0.00  0.00     0.068 A 
ATOM      9  C   UNL d   1      -0.182  -4.577  -0.181  0.00  0.00     0.038 A 
ATOM     10  C   UNL d   1      -1.170  -3.597  -0.037  0.00  0.00     0.020 A 
BRANCH   8  11
ATOM     11  O   UNL d   1       0.896  -6.545   0.486  0.00  0.00    -0.356 OA
ATOM     12  C   UNL d   1       1.429  -7.136   1.669  0.00  0.00     0.210 C 
ENDBRANCH   8  11
ENDBRANCH   1   5
BRANCH   2  13
ATOM     13  C   UNL d   1      -3.654  -0.219   1.160  0.00  0.00     0.099 C 
ATOM     14  C   UNL d   1      -4.059   0.019   2.611  0.00  0.00     0.165 C 
ATOM     15  S   UNL d   1      -5.354   1.236   2.489  0.00  0.00     0.146 S 
ATOM     16  O   UNL d   1      -4.737   2.550   2.522  0.00  0.00    -0.228 OA
ATOM     17  O   UNL d   1      -6.437   0.876   3.375  0.00  0.00    -0.228 OA
ATOM     18  C   UNL d   1      -5.824   0.891   0.801  0.00  0.00     0.142 C 
ATOM     19  C   UNL d   1      -4.956  -0.277   0.348  0.00  0.00     0.041 C 
ENDBRANCH   2  13
TORSDOF 3
