REMARK  6 active torsions:
REMARK  status: ('A' for Active; 'I' for Inactive)
REMARK    1  A    between atoms: C_2  and  S_1 
REMARK    2  A    between atoms: C_5  and  S_1 
REMARK    3  A    between atoms: C_3  and  C_2 
REMARK       I    between atoms: N_9  and  C_3 
REMARK    4  A    between atoms: C_4  and  O_8 
REMARK    5  A    between atoms: C_10  and  C_4 
REMARK    6  A    between atoms: O_8  and  N_9 
ROOT
ATOM      1  C   UNL d   1       1.024  -1.930   1.969  0.00  0.00     0.255 C 
ATOM      2  N   UNL d   1       1.996  -2.541   1.222  0.00  0.00    -0.225 N 
ATOM      3  O   UNL d   1       0.516  -2.459   2.960  0.00  0.00    -0.270 OA
ATOM      4  H   UNL d   1       2.629  -2.080   0.562  0.00  0.00     0.198 HD
ENDROOT
BRANCH   1   5
ATOM      5  C   UNL d   1       0.619  -0.539   1.586  0.00  0.00     0.250 C 
BRANCH   5   6
ATOM      6  S   UNL d   1       0.376  -0.339  -0.145  0.00  0.00     0.184 S 
ATOM      7  O   UNL d   1       1.664  -0.554  -0.783  0.00  0.00    -0.222 OA
ATOM      8  O   UNL d   1      -0.355   0.894  -0.362  0.00  0.00    -0.222 OA
BRANCH   6   9
ATOM      9  C   UNL d   1      -0.698  -1.665  -0.637  0.00  0.00     0.059 A 
ATOM     10  C   UNL d   1      -2.015  -1.688  -0.170  0.00  0.00     0.025 A 
ATOM     11  C   UNL d   1      -2.840  -2.763  -0.508  0.00  0.00     0.025 A 
ATOM     12  C   UNL d   1      -2.348  -3.792  -1.313  0.00  0.00     0.034 A 
ATOM     13  C   UNL d   1      -1.045  -3.745  -1.808  0.00  0.00     0.025 A 
ATOM     14 CL   UNL d   1      -3.356  -5.133  -1.696  0.00  0.00    -0.084 Cl
ATOM     15  C   UNL d   1      -0.214  -2.674  -1.476  0.00  0.00     0.025 A 
ENDBRANCH   6   9
ENDBRANCH   5   6
ENDBRANCH   1   5
BRANCH   2  16
ATOM     16  O   UNL d   1       2.389  -3.815   1.702  0.00  0.00    -0.192 OA
BRANCH  16  17
ATOM     17  C   UNL d   1       3.641  -4.165   1.297  0.00  0.00     0.315 C 
ATOM     18  O   UNL d   1       4.349  -3.488   0.569  0.00  0.00    -0.257 OA
BRANCH  17  19
ATOM     19  C   UNL d   1       4.020  -5.495   1.853  0.00  0.00     0.041 A 
ATOM     20  C   UNL d   1       5.243  -6.058   1.458  0.00  0.00     0.019 A 
ATOM     21  C   UNL d   1       5.644  -7.303   1.957  0.00  0.00     0.025 A 
ATOM     22  C   UNL d   1       4.824  -7.987   2.852  0.00  0.00     0.034 A 
ATOM     23  C   UNL d   1       3.607  -7.439   3.253  0.00  0.00     0.025 A 
ATOM     24 CL   UNL d   1       5.317  -9.516   3.468  0.00  0.00    -0.084 Cl
ATOM     25  C   UNL d   1       3.204  -6.194   2.756  0.00  0.00     0.019 A 
ENDBRANCH  17  19
ENDBRANCH  16  17
ENDBRANCH   2  16
TORSDOF 6
