REMARK  2 active torsions:
REMARK  status: ('A' for Active; 'I' for Inactive)
REMARK    1  A    between atoms: C_5  and  N_1 
REMARK    2  A    between atoms: S_9  and  C_2 
ROOT
ATOM      1  N   UNL d   1      -0.292  -1.138   0.009  0.00  0.00    -0.300 N 
ATOM      2  C   UNL d   1       0.902  -0.604   0.483  0.00  0.00     0.148 A 
ATOM      3  N   UNL d   1       0.911   0.710   0.447  0.00  0.00    -0.345 N 
ATOM      4  HN  UNL d   1       1.659   1.331   0.754  1.00  0.00     0.167 HD
ATOM      5  C   UNL d   1      -1.050  -0.042  -0.361  0.00  0.00     0.116 A 
ATOM      6  C   UNL d   1      -0.292   1.067  -0.086  0.00  0.00     0.108 A 
ENDROOT
BRANCH   1   7
ATOM      7  C   UNL d   1      -0.735  -2.492  -0.019  0.00  0.00     0.062 A 
ATOM      8  C   UNL d   1      -1.466  -3.022  -1.097  0.00  0.00     0.061 A 
ATOM      9 CL   UNL d   1      -1.763  -2.182  -2.580  0.00  0.00    -0.082 Cl
ATOM     10  C   UNL d   1      -1.904  -4.353  -1.052  0.00  0.00     0.026 A 
ATOM     11  C   UNL d   1      -1.618  -5.161   0.048  0.00  0.00     0.002 A 
ATOM     12  C   UNL d   1      -0.898  -4.641   1.118  0.00  0.00     0.002 A 
ATOM     13  C   UNL d   1      -0.466  -3.313   1.092  0.00  0.00     0.032 A 
ENDBRANCH   1   7
BRANCH   2  14
ATOM     14  S   UNL d   1       2.321  -1.515   0.912  0.00  0.00    -0.106 SA
ATOM     15  H   UNL d   1       2.023  -2.676   0.314  0.00  0.00     0.110 HD
ENDBRANCH   2  14
TORSDOF 2
