REMARK  2 active torsions:
REMARK  status: ('A' for Active; 'I' for Inactive)
REMARK    1  A    between atoms: C_13  and  N_1 
REMARK    2  A    between atoms: C_6  and  C_13 
ROOT
ATOM      1  N   UNL d   1      -0.200  -1.093  -0.060  0.00  0.00    -0.288 N 
ATOM      2  N   UNL d   1       1.072  -0.625  -0.058  0.00  0.00    -0.301 N 
ATOM      3  HN  UNL d   1       1.936  -1.167  -0.064  1.00  0.00     0.187 HD
ATOM      4  C   UNL d   1      -1.144  -0.089  -0.025  0.00  0.00     0.044 A 
ATOM      5  C   UNL d   1      -0.415   1.078  -0.021  0.00  0.00     0.058 A 
ATOM      6  C   UNL d   1       0.942   0.708  -0.046  0.00  0.00     0.041 A 
ATOM      7 BR   UNL d   1      -1.064   2.834   0.028  0.00  0.00    -0.047 Br
ATOM      8  C   UNL d   1      -2.614  -0.298  -0.005  0.00  0.00     0.071 C 
ATOM      9  C   UNL d   1       2.144   1.576  -0.042  0.00  0.00     0.071 C 
ENDROOT
BRANCH   1  10
ATOM     10  C   UNL d   1      -0.407  -2.534   0.010  0.00  0.00     0.227 C 
BRANCH  10  11
ATOM     11  C   UNL d   1      -0.557  -3.112  -1.343  0.00  0.00     0.130 A 
ATOM     12  N   UNL d   1      -1.571  -2.763  -2.197  0.00  0.00    -0.269 N 
ATOM     13  N   UNL d   1      -1.403  -3.483  -3.297  0.00  0.00    -0.005 NA
ATOM     14  HN  UNL d   1      -2.309  -2.082  -2.021  1.00  0.00     0.185 HD
ATOM     15  N   UNL d   1      -0.318  -4.228  -3.053  0.00  0.00    -0.225 N 
ATOM     16  N   UNL d   1       0.228  -4.088  -1.835  0.00  0.00    -0.274 N 
ATOM     17  H   UNL d   1       0.066  -4.861  -3.751  0.00  0.00     0.205 HD
ATOM     18  HN  UNL d   1       1.011  -4.580  -1.405  1.00  0.00     0.189 HD
ENDBRANCH  10  11
ENDBRANCH   1  10
TORSDOF 2
