REMARK  6 active torsions:
REMARK  status: ('A' for Active; 'I' for Inactive)
REMARK    1  A    between atoms: N_4  and  C_1 
REMARK    2  A    between atoms: C_2  and  N_3 
REMARK       I    between atoms: N_3  and  C_6 
REMARK       I    between atoms: C_5  and  N_4 
REMARK    3  A    between atoms: C_24  and  C_5 
REMARK    4  A    between atoms: C_6  and  C_23 
REMARK    5  A    between atoms: C_23  and  C_25 
REMARK    6  A    between atoms: C_25  and  C_24 
ROOT
ATOM      1  C   UNL d   1      -2.478  -6.317   0.050  0.00  0.00     0.019 C 
ENDROOT
BRANCH   1   2
ATOM      2  C   UNL d   1      -2.686  -7.835   0.013  0.00  0.00     0.103 C 
BRANCH   2   3
ATOM      3  C   UNL d   1      -4.154  -8.186  -0.116  0.00  0.00     0.222 C 
ATOM      4  N   UNL d   1      -4.569  -9.460  -0.373  0.00  0.00    -0.327 N 
ATOM      5  H   UNL d   1      -5.569  -9.461  -0.558  0.00  0.00     0.169 HD
ATOM      6  O   UNL d   1      -5.029  -7.321  -0.049  0.00  0.00    -0.273 OA
BRANCH   4   7
ATOM      7  C   UNL d   1      -3.905 -10.688  -0.525  0.00  0.00     0.037 A 
ATOM      8  C   UNL d   1      -2.611 -10.959  -0.085  0.00  0.00     0.053 A 
ATOM      9  C   UNL d   1      -2.023 -12.201  -0.347  0.00  0.00     0.037 A 
ATOM     10 CL   UNL d   1      -0.413 -12.502   0.185  0.00  0.00    -0.084 Cl
ATOM     11  C   UNL d   1      -2.715 -13.191  -1.034  0.00  0.00     0.048 A 
ATOM     12  C   UNL d   1      -4.022 -12.941  -1.430  0.00  0.00     0.037 A 
ATOM     13  C   UNL d   1      -4.622 -11.707  -1.167  0.00  0.00     0.053 A 
ATOM     14 CL   UNL d   1      -4.904 -14.155  -2.272  0.00  0.00    -0.084 Cl
ENDBRANCH   4   7
ENDBRANCH   2   3
ENDBRANCH   1   2
BRANCH   1  15
ATOM     15  C   UNL d   1      -1.009  -5.926   0.173  0.00  0.00     0.103 C 
BRANCH  15  16
ATOM     16  C   UNL d   1      -0.900  -4.448   0.502  0.00  0.00     0.222 C 
ATOM     17  N   UNL d   1      -1.023  -3.626  -0.602  0.00  0.00    -0.327 N 
ATOM     18  H   UNL d   1      -1.190  -4.081  -1.491  0.00  0.00     0.169 HD
ATOM     19  O   UNL d   1      -0.767  -4.090   1.670  0.00  0.00    -0.273 OA
BRANCH  17  20
ATOM     20  C   UNL d   1      -1.057  -2.213  -0.604  0.00  0.00     0.037 A 
ATOM     21  C   UNL d   1      -0.788  -1.430   0.522  0.00  0.00     0.053 A 
ATOM     22  C   UNL d   1      -0.887  -0.037   0.453  0.00  0.00     0.037 A 
ATOM     23 CL   UNL d   1      -0.558   0.910   1.854  0.00  0.00    -0.084 Cl
ATOM     24  C   UNL d   1      -1.251   0.594  -0.729  0.00  0.00     0.048 A 
ATOM     25  C   UNL d   1      -1.502  -0.181  -1.855  0.00  0.00     0.037 A 
ATOM     26  C   UNL d   1      -1.399  -1.574  -1.803  0.00  0.00     0.053 A 
ATOM     27 CL   UNL d   1      -1.960   0.584  -3.329  0.00  0.00    -0.084 Cl
ENDBRANCH  17  20
ENDBRANCH  15  16
ENDBRANCH   1  15
TORSDOF 6
