REMARK  8 active torsions:
REMARK  status: ('A' for Active; 'I' for Inactive)
REMARK    1  A    between atoms: N_2  and  C_1 
REMARK    2  A    between atoms: C_3  and  C_1 
REMARK    3  A    between atoms: N_4  and  C_1 
REMARK    4  A    between atoms: C_6  and  C_1 
REMARK       I    between atoms: C_5  and  N_2 
REMARK    5  A    between atoms: C_8  and  N_4 
REMARK    6  A    between atoms: C_7  and  C_5 
REMARK    7  A    between atoms: O_21  and  C_6 
REMARK    8  A    between atoms: C_25  and  O_21 
ROOT
ATOM      1  C   UNL d   1       1.030  -0.052  -0.035  0.00  0.00     0.281 C 
ENDROOT
BRANCH   1   2
ATOM      2  N   UNL d   1       0.516   1.294  -0.265  0.00  0.00    -0.317 N 
ATOM      3  C   UNL d   1       0.733   2.002  -1.413  0.00  0.00     0.277 C 
ATOM      4  O   UNL d   1       1.321   1.518  -2.374  0.00  0.00    -0.265 OA
ATOM      5  H   UNL d   1       0.233   1.803   0.560  0.00  0.00     0.165 HD
BRANCH   3   6
ATOM      6  C   UNL d   1       0.236   3.361  -1.362  0.00  0.00     0.142 A 
ATOM      7  O   UNL d   1      -0.553   3.751  -0.309  0.00  0.00    -0.317 OA
ATOM      8  C   UNL d   1      -0.911   5.041  -0.530  0.00  0.00     0.143 A 
ATOM      9  C   UNL d   1      -0.345   5.505  -1.694  0.00  0.00     0.027 A 
ATOM     10  C   UNL d   1       0.394   4.423  -2.231  0.00  0.00     0.045 A 
ENDBRANCH   3   6
ENDBRANCH   1   2
BRANCH   1  11
ATOM     11  C   UNL d   1       0.633  -1.085  -1.161  0.00  0.00     0.436 C 
ATOM     12  F   UNL d   1      -0.319  -0.611  -2.002  0.00  0.00    -0.166 F 
ATOM     13  F   UNL d   1       1.668  -1.502  -1.930  0.00  0.00    -0.166 F 
ATOM     14  F   UNL d   1       0.099  -2.211  -0.602  0.00  0.00    -0.166 F 
ENDBRANCH   1  11
BRANCH   1  15
ATOM     15  N   UNL d   1       0.405  -0.440   1.287  0.00  0.00    -0.236 NA
ATOM     16  H   UNL d   1       0.556  -1.437   1.449  0.00  0.00     0.132 HD
BRANCH  15  17
ATOM     17  C   UNL d   1       0.815   0.265   2.427  0.00  0.00     0.083 A 
ATOM     18  N   UNL d   1       1.609   1.342   2.285  0.00  0.00    -0.357 N 
ATOM     19  C   UNL d   1       1.916   2.062   3.384  0.00  0.00     0.090 A 
ATOM     20  HN  UNL d   1       1.971   1.607   1.369  1.00  0.00     0.166 HD
ATOM     21  C   UNL d   1       1.430   1.781   4.645  0.00  0.00     0.024 A 
ATOM     22  C   UNL d   1       0.582   0.686   4.794  0.00  0.00    -0.058 A 
ATOM     23  C   UNL d   1       0.288  -0.089   3.666  0.00  0.00     0.049 A 
ATOM     24  C   UNL d   1      -0.006   0.374   6.135  0.00  0.00     0.048 C 
ENDBRANCH  15  17
ENDBRANCH   1  15
BRANCH   1  25
ATOM     25  C   UNL d   1       2.574  -0.212   0.058  0.00  0.00     0.312 C 
ATOM     26  O   UNL d   1       3.123  -1.250   0.441  0.00  0.00    -0.260 OA
BRANCH  25  27
ATOM     27  O   UNL d   1       3.241   0.889  -0.385  0.00  0.00    -0.319 OA
BRANCH  27  28
ATOM     28  C   UNL d   1       4.662   0.763  -0.540  0.00  0.00     0.174 C 
ATOM     29  C   UNL d   1       4.971   0.155  -1.896  0.00  0.00     0.034 C 
ENDBRANCH  27  28
ENDBRANCH  25  27
ENDBRANCH   1  25
TORSDOF 8
