REMARK  4 active torsions:
REMARK  status: ('A' for Active; 'I' for Inactive)
REMARK    1  A    between atoms: C_3  and  C_1 
REMARK    2  A    between atoms: O_9  and  C_2 
REMARK       I    between atoms: N_6  and  C_3 
REMARK    3  A    between atoms: C_18  and  N_6 
REMARK    4  A    between atoms: C_8  and  O_9 
ROOT
ATOM      1  C   UNL d   1      -0.046   1.161  -0.055  0.00  0.00     0.146 A 
ATOM      2  C   UNL d   1      -0.112  -1.036  -0.124  0.00  0.00     0.191 A 
ATOM      3  O   UNL d   1      -0.895   0.087  -0.133  0.00  0.00    -0.282 OA
ATOM      4  C   UNL d   1       1.259   0.715   0.055  0.00  0.00     0.048 A 
ATOM      5  C   UNL d   1       1.215  -0.693   0.034  0.00  0.00     0.067 A 
ENDROOT
BRANCH   1   6
ATOM      6  C   UNL d   1      -0.529   2.528  -0.114  0.00  0.00     0.280 C 
ATOM      7  N   UNL d   1      -1.909   2.677  -0.083  0.00  0.00    -0.321 N 
ATOM      8  H   UNL d   1      -2.442   1.829   0.069  0.00  0.00     0.169 HD
ATOM      9  O   UNL d   1       0.265   3.461  -0.163  0.00  0.00    -0.265 OA
BRANCH   7  10
ATOM     10  C   UNL d   1      -2.613   3.907  -0.128  0.00  0.00     0.037 A 
ATOM     11  C   UNL d   1      -2.017   5.123  -0.461  0.00  0.00     0.046 A 
ATOM     12  C   UNL d   1      -2.787   6.276  -0.447  0.00  0.00     0.090 A 
ATOM     13  N   UNL d   1      -4.097   6.296  -0.131  0.00  0.00    -0.375 N 
ATOM     14  C   UNL d   1      -4.659   5.110   0.172  0.00  0.00     0.090 A 
ATOM     15  HN  UNL d   1      -4.634   7.164  -0.122  1.00  0.00     0.164 HD
ATOM     16  C   UNL d   1      -3.973   3.902   0.177  0.00  0.00     0.046 A 
ENDBRANCH   7  10
ENDBRANCH   1   6
BRANCH   2  17
ATOM     17  O   UNL d   1      -0.780  -2.178  -0.275  0.00  0.00    -0.288 OA
BRANCH  17  18
ATOM     18  C   UNL d   1      -0.158  -3.285  -0.812  0.00  0.00     0.081 A 
ATOM     19  C   UNL d   1      -0.478  -4.530  -0.270  0.00  0.00     0.061 A 
ATOM     20  C   UNL d   1       0.079  -5.687  -0.821  0.00  0.00     0.038 A 
ATOM     21 CL   UNL d   1      -0.322  -7.226  -0.161  0.00  0.00    -0.084 Cl
ATOM     22  C   UNL d   1       0.949  -5.614  -1.907  0.00  0.00     0.048 A 
ATOM     23  C   UNL d   1       1.254  -4.369  -2.448  0.00  0.00     0.038 A 
ATOM     24  C   UNL d   1       0.696  -3.206  -1.918  0.00  0.00     0.061 A 
ATOM     25 CL   UNL d   1       2.321  -4.261  -3.794  0.00  0.00    -0.084 Cl
ENDBRANCH  17  18
ENDBRANCH   2  17
TORSDOF 4
