REMARK  4 active torsions:
REMARK  status: ('A' for Active; 'I' for Inactive)
REMARK    1  A    between atoms: C_4  and  S_1 
REMARK    2  A    between atoms: N_6  and  S_1 
REMARK    3  A    between atoms: C_5  and  C_16 
REMARK    4  A    between atoms: N_10  and  N_6 
ROOT
ATOM      1  N   UNL d   1       0.404   1.249  -0.661  0.00  0.00    -0.223 N 
ATOM      2  H   UNL d   1      -0.268   1.064  -1.408  0.00  0.00     0.200 HD
ENDROOT
BRANCH   1   3
ATOM      3  S   UNL d   1       1.052  -0.108   0.131  0.00  0.00     0.276 S 
ATOM      4  O   UNL d   1       2.390  -0.324  -0.375  0.00  0.00    -0.199 OA
ATOM      5  O   UNL d   1       0.801   0.037   1.548  0.00  0.00    -0.199 OA
BRANCH   3   6
ATOM      6  C   UNL d   1       0.030  -1.429  -0.466  0.00  0.00     0.083 A 
ATOM      7  C   UNL d   1       0.453  -2.185  -1.565  0.00  0.00     0.052 A 
ATOM      8  C   UNL d   1      -0.300  -3.290  -1.959  0.00  0.00     0.074 A 
ATOM      9 CL   UNL d   1       0.222  -4.229  -3.304  0.00  0.00    -0.081 Cl
ATOM     10  C   UNL d   1      -1.456  -3.634  -1.258  0.00  0.00     0.138 A 
ATOM     11  C   UNL d   1      -1.875  -2.881  -0.163  0.00  0.00     0.045 A 
ATOM     12  F   UNL d   1      -2.183  -4.702  -1.618  0.00  0.00    -0.204 F 
ATOM     13  C   UNL d   1      -1.128  -1.775   0.242  0.00  0.00     0.028 A 
ENDBRANCH   3   6
ENDBRANCH   1   3
BRANCH   1  14
ATOM     14  N   UNL d   1       1.030   2.574  -0.671  0.00  0.00    -0.300 N 
ATOM     15  C   UNL d   1       1.958   2.802   0.206  0.00  0.00     0.139 C 
ATOM     16  HN  UNL d   1       0.747   3.288  -1.343  1.00  0.00     0.186 HD
BRANCH  15  17
ATOM     17  C   UNL d   1       2.629   4.083   0.231  0.00  0.00     0.074 A 
ATOM     18  N   UNL d   1       3.633   4.287   1.097  0.00  0.00    -0.260 N 
ATOM     19  O   UNL d   1       4.084   5.571   0.867  0.00  0.00    -0.242 OA
ATOM     20  HN  UNL d   1       3.991   3.626   1.787  1.00  0.00     0.195 HD
ATOM     21  C   UNL d   1       3.349   6.138  -0.125  0.00  0.00     0.074 A 
ATOM     22  C   UNL d   1       2.405   5.240  -0.557  0.00  0.00     0.067 A 
ATOM     23  C   UNL d   1       3.721   7.513  -0.498  0.00  0.00     0.079 C 
ENDBRANCH  15  17
ENDBRANCH   1  14
TORSDOF 4
