REMARK  4 active torsions:
REMARK  status: ('A' for Active; 'I' for Inactive)
REMARK    1  A    between atoms: C_10  and  C_2 
REMARK    2  A    between atoms: S_16  and  C_3 
REMARK    3  A    between atoms: N_6  and  C_10 
REMARK    4  A    between atoms: O_18  and  C_11 
ROOT
ATOM      1  N   UNL d   1       4.140  -0.342  -1.470  0.00  0.00    -0.318 N 
ATOM      2  C   UNL d   1       3.673  -0.813  -0.260  0.00  0.00     0.118 A 
ATOM      3  C   UNL d   1       5.444   0.012  -1.244  0.00  0.00     0.159 A 
ATOM      4  N   UNL d   1       4.637  -0.704   0.636  0.00  0.00    -0.285 N 
ATOM      5  HN  UNL d   1       4.569  -0.962   1.621  1.00  0.00     0.188 HD
ATOM      6  N   UNL d   1       5.745  -0.184   0.017  0.00  0.00    -0.278 N 
ATOM      7  HN  UNL d   1       6.643   0.014   0.459  1.00  0.00     0.189 HD
ATOM      8  C   UNL d   1       3.406  -0.213  -2.702  0.00  0.00     0.160 C 
ENDROOT
BRANCH   2   9
ATOM      9  C   UNL d   1       2.293  -1.298   0.030  0.00  0.00     0.210 C 
BRANCH   9  10
ATOM     10  N   UNL d   1       2.197  -2.755  -0.082  0.00  0.00    -0.315 N 
ATOM     11  C   UNL d   1       1.751  -3.302  -1.288  0.00  0.00     0.281 A 
ATOM     12  C   UNL d   1       1.516  -4.807  -1.301  0.00  0.00     0.136 A 
ATOM     13  O   UNL d   1       1.549  -2.603  -2.280  0.00  0.00    -0.265 OA
ATOM     14  C   UNL d   1       1.808  -5.494  -0.188  0.00  0.00     0.044 A 
ATOM     15  C   UNL d   1       2.340  -4.861   0.990  0.00  0.00     0.020 A 
ATOM     16  C   UNL d   1       2.510  -3.537   1.015  0.00  0.00     0.095 A 
BRANCH  12  17
ATOM     17  O   UNL d   1       0.998  -5.517  -2.377  0.00  0.00    -0.351 OA
ATOM     18  C   UNL d   1       0.617  -4.787  -3.534  0.00  0.00     0.210 C 
ENDBRANCH  12  17
ENDBRANCH   9  10
ENDBRANCH   2   9
BRANCH   3  19
ATOM     19  S   UNL d   1       6.539   0.636  -2.427  0.00  0.00    -0.105 SA
ATOM     20  H   UNL d   1       5.873   0.339  -3.549  0.00  0.00     0.110 HD
ENDBRANCH   3  19
TORSDOF 4
