REMARK  3 active torsions:
REMARK  status: ('A' for Active; 'I' for Inactive)
REMARK    1  A    between atoms: C_2  and  S_1 
REMARK    2  A    between atoms: O_8  and  S_1 
REMARK    3  A    between atoms: C_9  and  O_8 
ROOT
ATOM      1  S   UNL d   1       1.116   0.140  -0.123  0.00  0.00     0.304 S 
ATOM      2  O   UNL d   1       1.767  -1.146   0.055  0.00  0.00    -0.193 OA
ATOM      3  O   UNL d   1       1.860   1.204  -0.768  0.00  0.00    -0.193 OA
ENDROOT
BRANCH   1   4
ATOM      4  C   UNL d   1       0.542   0.698   1.526  0.00  0.00     0.099 C 
ATOM      5  C   UNL d   1       0.015  -0.269   2.435  0.00  0.00    -0.031 C 
ATOM      6  C   UNL d   1      -0.281   0.126   3.770  0.00  0.00    -0.048 C 
ATOM      7  C   UNL d   1      -0.199  -1.719   2.061  0.00  0.00     0.050 C 
ATOM      8  C   UNL d   1      -0.675  -0.883   4.835  0.00  0.00     0.049 C 
ATOM      9  C   UNL d   1      -0.201   1.492   4.147  0.00  0.00    -0.049 C 
ATOM     10  C   UNL d   1       0.175   2.468   3.195  0.00  0.00    -0.048 C 
ATOM     11  C   UNL d   1      -0.506   1.876   5.583  0.00  0.00     0.049 C 
ATOM     12  C   UNL d   1       0.664   2.065   1.920  0.00  0.00    -0.031 C 
ATOM     13  C   UNL d   1       0.093   3.934   3.571  0.00  0.00     0.049 C 
ATOM     14  C   UNL d   1       1.298   3.115   1.034  0.00  0.00     0.050 C 
ENDBRANCH   1   4
BRANCH   1  15
ATOM     15  O   UNL d   1      -0.268  -0.083  -0.978  0.00  0.00    -0.229 OA
BRANCH  15  16
ATOM     16  C   UNL d   1      -0.259  -0.040  -2.354  0.00  0.00     0.092 A 
ATOM     17  C   UNL d   1       0.850  -0.344  -3.153  0.00  0.00     0.062 A 
ATOM     18  C   UNL d   1       0.771  -0.217  -4.539  0.00  0.00     0.038 A 
ATOM     19 CL   UNL d   1       2.159  -0.538  -5.505  0.00  0.00    -0.084 Cl
ATOM     20  C   UNL d   1      -0.415   0.181  -5.151  0.00  0.00     0.048 A 
ATOM     21  C   UNL d   1      -1.528   0.441  -4.361  0.00  0.00     0.038 A 
ATOM     22  C   UNL d   1      -1.462   0.331  -2.970  0.00  0.00     0.062 A 
ATOM     23 CL   UNL d   1      -3.004   0.920  -5.108  0.00  0.00    -0.084 Cl
ENDBRANCH  15  16
ENDBRANCH   1  15
TORSDOF 3
