REMARK  4 active torsions:
REMARK  status: ('A' for Active; 'I' for Inactive)
REMARK    1  A    between atoms: C_5  and  C_2 
REMARK    2  A    between atoms: C_8  and  C_3 
REMARK    3  A    between atoms: C_4  and  C_8 
REMARK    4  A    between atoms: N_16  and  C_9 
ROOT
ATOM      1  O   UNL d   1      -0.958   0.043   0.015  0.00  0.00    -0.306 OA
ATOM      2  C   UNL d   1      -0.073   1.092  -0.012  0.00  0.00     0.086 A 
ATOM      3  C   UNL d   1      -0.227  -1.121   0.030  0.00  0.00     0.126 A 
ATOM      4  C   UNL d   1       1.217   0.601   0.007  0.00  0.00     0.041 A 
ATOM      5  C   UNL d   1       1.119  -0.808   0.029  0.00  0.00     0.044 A 
ENDROOT
BRANCH   2   6
ATOM      6  C   UNL d   1      -0.634   2.442  -0.094  0.00  0.00     0.001 A 
ATOM      7  C   UNL d   1      -2.018   2.666  -0.069  0.00  0.00     0.038 A 
ATOM      8  C   UNL d   1      -2.532   3.958  -0.214  0.00  0.00     0.036 A 
ATOM      9 CL   UNL d   1      -4.236   4.202  -0.206  0.00  0.00    -0.084 Cl
ATOM     10  C   UNL d   1      -1.686   5.050  -0.380  0.00  0.00     0.047 A 
ATOM     11  C   UNL d   1      -0.313   4.840  -0.385  0.00  0.00     0.036 A 
ATOM     12  C   UNL d   1       0.213   3.554  -0.239  0.00  0.00     0.038 A 
ATOM     13 CL   UNL d   1       0.752   6.178  -0.591  0.00  0.00    -0.084 Cl
ENDBRANCH   2   6
BRANCH   3  14
ATOM     14  C   UNL d   1      -0.867  -2.428   0.032  0.00  0.00     0.206 C 
ATOM     15  O   UNL d   1      -0.205  -3.468   0.022  0.00  0.00    -0.285 OA
BRANCH  14  16
ATOM     16  C   UNL d   1      -2.358  -2.491   0.042  0.00  0.00     0.074 C 
ATOM     17  C   UNL d   1      -2.993  -3.676   0.025  0.00  0.00     0.088 C 
BRANCH  17  18
ATOM     18  N   UNL d   1      -4.354  -3.965   0.033  0.00  0.00    -0.398 N 
ATOM     19  C   UNL d   1      -5.411  -2.958   0.073  0.00  0.00     0.148 C 
ATOM     20  C   UNL d   1      -4.850  -5.342  -0.001  0.00  0.00     0.148 C 
ENDBRANCH  17  18
ENDBRANCH  14  16
ENDBRANCH   3  14
TORSDOF 4
