REMARK  4 active torsions:
REMARK  status: ('A' for Active; 'I' for Inactive)
REMARK    1  A    between atoms: C_4  and  C_1 
REMARK    2  A    between atoms: O_10  and  C_3 
REMARK    3  A    between atoms: O_11  and  C_4 
REMARK    4  A    between atoms: O_12  and  C_6 
ROOT
ATOM      1  C   UNL d   1       0.196   1.286  -0.000  0.00  0.00     0.064 A 
ATOM      2  C   UNL d   1      -0.512   0.063   0.063  0.00  0.00     0.086 A 
ATOM      3  C   UNL d   1       0.209  -1.152   0.027  0.00  0.00     0.124 A 
ATOM      4  C   UNL d   1       1.598   1.291  -0.032  0.00  0.00     0.022 A 
ATOM      5  C   UNL d   1       1.631  -1.116  -0.019  0.00  0.00     0.103 A 
ATOM      6  C   UNL d   1       2.313   0.100  -0.038  0.00  0.00     0.041 A 
ATOM      7 CL   UNL d   1      -2.233   0.116   0.292  0.00  0.00    -0.080 Cl
ENDROOT
BRANCH   1   8
ATOM      8  C   UNL d   1      -0.429   2.634   0.021  0.00  0.00     0.294 C 
ATOM      9  O   UNL d   1       0.081   3.587   0.597  0.00  0.00    -0.259 OA
BRANCH   8  10
ATOM     10  O   UNL d   1      -1.532   2.683  -0.760  0.00  0.00    -0.322 OA
ATOM     11  C   UNL d   1      -2.205   3.943  -0.756  0.00  0.00     0.213 C 
ENDBRANCH   8  10
ENDBRANCH   1   8
BRANCH   3  12
ATOM     12  O   UNL d   1      -0.259  -2.445   0.054  0.00  0.00    -0.351 OA
ATOM     13  C   UNL d   1      -1.632  -2.774   0.034  0.00  0.00     0.210 C 
ENDBRANCH   3  12
BRANCH   5  14
ATOM     14  O   UNL d   1       2.265  -2.339  -0.033  0.00  0.00    -0.353 OA
ATOM     15  C   UNL d   1       3.685  -2.364  -0.025  0.00  0.00     0.210 C 
ENDBRANCH   5  14
TORSDOF 4
