REMARK  3 active torsions:
REMARK  status: ('A' for Active; 'I' for Inactive)
REMARK    1  A    between atoms: C_7  and  C_1 
REMARK    2  A    between atoms: S_9  and  C_7 
REMARK    3  A    between atoms: C_12  and  S_9 
ROOT
ATOM      1  C   UNL d   1       0.564   1.686   0.050  0.00  0.00    -0.011 A 
ATOM      2  C   UNL d   1       0.692   1.016  -1.182  0.00  0.00     0.087 A 
ATOM      3  C   UNL d   1       0.896  -0.371  -1.235  0.00  0.00     0.003 A 
ATOM      4  O   UNL d   1       0.586   1.764  -2.326  0.00  0.00    -0.325 OA
ATOM      5  C   UNL d   1       1.015  -1.098  -0.049  0.00  0.00     0.054 A 
ATOM      6  C   UNL d   1       0.682   0.932   1.232  0.00  0.00     0.053 A 
ATOM      7  C   UNL d   1       0.906  -0.442   1.171  0.00  0.00     0.117 A 
ATOM      8  O   UNL d   1       0.495  -0.246  -3.602  0.00  0.00    -0.362 OA
ATOM      9  C   UNL d   1       1.023   1.069  -3.494  0.00  0.00     0.345 C 
ATOM     10  C   UNL d   1       1.023  -1.058  -2.561  0.00  0.00     0.212 C 
ATOM     11  F   UNL d   1       1.017  -1.143   2.305  0.00  0.00    -0.206 F 
ENDROOT
BRANCH   1  12
ATOM     12  C   UNL d   1       0.336   3.183   0.121  0.00  0.00     0.121 C 
BRANCH  12  13
ATOM     13  S   UNL d   1       1.926   4.089   0.158  0.00  0.00    -0.125 SA
BRANCH  13  14
ATOM     14  C   UNL d   1       1.447   5.810   0.290  0.00  0.00     0.000 A 
ATOM     15  C   UNL d   1       2.347   6.668   0.938  0.00  0.00     0.019 A 
ATOM     16  C   UNL d   1       2.093   8.040   1.046  0.00  0.00     0.008 A 
ATOM     17  C   UNL d   1       0.932   8.589   0.496  0.00  0.00    -0.062 A 
ATOM     18  C   UNL d   1       0.034   7.740  -0.159  0.00  0.00     0.008 A 
ATOM     19  C   UNL d   1       0.676  10.064   0.602  0.00  0.00     0.048 C 
ATOM     20  C   UNL d   1       0.289   6.363  -0.265  0.00  0.00     0.019 A 
ENDBRANCH  13  14
ENDBRANCH  12  13
ENDBRANCH   1  12
TORSDOF 3
