REMARK  7 active torsions:
REMARK  status: ('A' for Active; 'I' for Inactive)
REMARK    1  A    between atoms: C_4  and  S_1 
REMARK    2  A    between atoms: C_6  and  S_1 
REMARK       I    between atoms: C_2  and  N_3 
REMARK    3  A    between atoms: C_7  and  C_2 
REMARK    4  A    between atoms: N_3  and  C_5 
REMARK    5  A    between atoms: C_17  and  C_6 
REMARK    6  A    between atoms: C_11  and  S_16 
REMARK    7  A    between atoms: S_16  and  C_17 
ROOT
ATOM      1  C   UNL d   1       0.233  -3.733   4.421  0.00  0.00     0.051 C 
ATOM      2  C   UNL d   1       1.346  -2.932   4.789  0.00  0.00     0.027 C 
ATOM      3  C   UNL d   1       0.134  -5.031   4.949  0.00  0.00     0.031 C 
ATOM      4  C   UNL d   1       2.178  -3.354   5.843  0.00  0.00     0.021 C 
ATOM      5  C   UNL d   1       1.029  -5.472   5.931  0.00  0.00     0.002 C 
ATOM      6  C   UNL d   1       2.010  -4.614   6.422  0.00  0.00     0.002 C 
ENDROOT
BRANCH   2   7
ATOM      7  S   UNL d   1       2.214  -1.937   3.526  0.00  0.00    -0.127 SA
BRANCH   7   8
ATOM      8  C   UNL d   1       1.983  -0.183   3.975  0.00  0.00     0.095 C 
BRANCH   8   9
ATOM      9  C   UNL d   1       2.481   0.284   5.327  0.00  0.00     0.156 C 
BRANCH   9  10
ATOM     10  S   UNL d   1       2.303   2.067   5.455  0.00  0.00     0.176 S 
ATOM     11  O   UNL d   1       2.709   2.470   6.792  0.00  0.00    -0.223 OA
ATOM     12  O   UNL d   1       2.918   2.672   4.293  0.00  0.00    -0.223 OA
BRANCH  10  13
ATOM     13  C   UNL d   1       0.552   2.367   5.357  0.00  0.00     0.059 A 
ATOM     14  C   UNL d   1      -0.276   1.847   6.356  0.00  0.00     0.025 A 
ATOM     15  C   UNL d   1      -1.653   2.061   6.289  0.00  0.00     0.025 A 
ATOM     16  C   UNL d   1      -2.188   2.812   5.239  0.00  0.00     0.034 A 
ATOM     17  C   UNL d   1      -1.360   3.340   4.248  0.00  0.00     0.025 A 
ATOM     18 CL   UNL d   1      -3.889   3.060   5.155  0.00  0.00    -0.084 Cl
ATOM     19  C   UNL d   1       0.021   3.123   4.304  0.00  0.00     0.025 A 
ENDBRANCH  10  13
ENDBRANCH   9  10
ENDBRANCH   8   9
ENDBRANCH   7   8
ENDBRANCH   2   7
BRANCH   1  20
ATOM     20  N   UNL d   1      -0.825  -3.303   3.560  0.00  0.00    -0.322 N 
ATOM     21  C   UNL d   1      -1.328  -2.007   3.635  0.00  0.00     0.256 C 
ATOM     22  O   UNL d   1      -0.909  -1.167   4.429  0.00  0.00    -0.267 OA
ATOM     23  H   UNL d   1      -1.455  -4.018   3.226  0.00  0.00     0.169 HD
BRANCH  21  24
ATOM     24  C   UNL d   1      -2.505  -1.622   2.780  0.00  0.00     0.032 A 
ATOM     25  C   UNL d   1      -3.047  -0.341   3.015  0.00  0.00     0.018 A 
ATOM     26  C   UNL d   1      -4.104   0.163   2.257  0.00  0.00     0.025 A 
ATOM     27  C   UNL d   1      -4.647  -0.617   1.245  0.00  0.00     0.034 A 
ATOM     28  C   UNL d   1      -4.147  -1.898   1.006  0.00  0.00     0.025 A 
ATOM     29 CL   UNL d   1      -5.926   0.012   0.283  0.00  0.00    -0.084 Cl
ATOM     30  C   UNL d   1      -3.075  -2.406   1.769  0.00  0.00     0.018 A 
ENDBRANCH  21  24
ENDBRANCH   1  20
TORSDOF 7
