REMARK  6 active torsions:
REMARK  status: ('A' for Active; 'I' for Inactive)
REMARK    1  A    between atoms: S_11  and  C_1 
REMARK    2  A    between atoms: C_9  and  C_8 
REMARK    3  A    between atoms: C_12  and  C_9 
REMARK    4  A    between atoms: C_10  and  S_11 
REMARK    5  A    between atoms: O_23  and  C_17 
REMARK    6  A    between atoms: C_24  and  O_23 
ROOT
ATOM      1  C   UNL d   1      -2.047  -0.888   0.041  0.00  0.00     0.117 A 
ATOM      2  N   UNL d   1      -0.993  -1.669   0.041  0.00  0.00    -0.344 N 
ATOM      3  HN  UNL d   1      -1.018  -2.688   0.052  1.00  0.00     0.167 HD
ATOM      4  S   UNL d   1      -1.728   0.798   0.002  0.00  0.00    -0.063 SA
ATOM      5  C   UNL d   1      -0.034   0.480   0.005  0.00  0.00     0.036 A 
ATOM      6  C   UNL d   1       0.158  -0.902   0.023  0.00  0.00     0.050 A 
ATOM      7  C   UNL d   1       1.048   1.381  -0.011  0.00  0.00     0.058 A 
ATOM      8  C   UNL d   1       1.474  -1.399   0.021  0.00  0.00     0.034 A 
ATOM      9  C   UNL d   1       2.353   0.866  -0.010  0.00  0.00     0.070 A 
ATOM     10  C   UNL d   1       2.558  -0.513   0.005  0.00  0.00     0.039 A 
ENDROOT
BRANCH   1  11
ATOM     11  S   UNL d   1      -3.691  -1.514   0.028  0.00  0.00    -0.077 SA
BRANCH  11  12
ATOM     12  C   UNL d   1      -3.447  -3.050   0.804  0.00  0.00     0.056 C 
ATOM     13  C   UNL d   1      -4.482  -3.880   1.001  0.00  0.00     0.063 C 
BRANCH  13  14
ATOM     14  C   UNL d   1      -4.274  -5.179   1.694  0.00  0.00     0.182 C 
ATOM     15  O   UNL d   1      -3.167  -5.696   1.786  0.00  0.00    -0.288 OA
BRANCH  14  16
ATOM     16  C   UNL d   1      -5.470  -5.861   2.265  0.00  0.00     0.014 A 
ATOM     17  C   UNL d   1      -5.454  -7.258   2.379  0.00  0.00     0.017 A 
ATOM     18  C   UNL d   1      -6.535  -7.934   2.953  0.00  0.00     0.020 A 
ATOM     19  C   UNL d   1      -7.630  -7.212   3.424  0.00  0.00     0.011 A 
ATOM     20  C   UNL d   1      -7.656  -5.821   3.321  0.00  0.00     0.020 A 
ATOM     21 BR   UNL d   1      -9.080  -8.118   4.228  0.00  0.00    -0.051 Br
ATOM     22  C   UNL d   1      -6.575  -5.144   2.744  0.00  0.00     0.017 A 
ENDBRANCH  14  16
ENDBRANCH  13  14
ENDBRANCH  11  12
ENDBRANCH   1  11
BRANCH   9  23
ATOM     23  O   UNL d   1       3.345   1.814  -0.023  0.00  0.00    -0.351 OA
BRANCH  23  24
ATOM     24  C   UNL d   1       4.691   1.334  -0.011  0.00  0.00     0.171 C 
ATOM     25  C   UNL d   1       5.638   2.521  -0.018  0.00  0.00     0.034 C 
ENDBRANCH  23  24
ENDBRANCH   9  23
TORSDOF 6
