REMARK  8 active torsions:
REMARK  status: ('A' for Active; 'I' for Inactive)
REMARK    1  A    between atoms: C_2  and  C_1 
REMARK       I    between atoms: N_3  and  C_2 
REMARK       I    between atoms: C_5  and  N_3 
REMARK    2  A    between atoms: C_12  and  C_4 
REMARK       I    between atoms: N_13  and  C_5 
REMARK    3  A    between atoms: O_23  and  C_6 
REMARK    4  A    between atoms: O_24  and  C_7 
REMARK    5  A    between atoms: O_25  and  C_8 
REMARK    6  A    between atoms: C_9  and  N_13 
REMARK    7  A    between atoms: O_26  and  C_12 
REMARK    8  A    between atoms: O_27  and  C_15 
ROOT
ATOM      1  C   UNL d   1       4.966  -4.201  -2.630  0.00  0.00     0.265 C 
ATOM      2  N   UNL d   1       3.591  -4.319  -2.547  0.00  0.00    -0.275 N 
ATOM      3  C   UNL d   1       2.669  -3.394  -2.089  0.00  0.00     0.327 C 
ATOM      4  N   UNL d   1       3.144  -2.462  -1.196  0.00  0.00    -0.306 N 
ATOM      5  O   UNL d   1       5.590  -3.485  -1.847  0.00  0.00    -0.267 OA
ATOM      6  O   UNL d   1       1.543  -3.495  -2.565  0.00  0.00    -0.247 OA
ATOM      7  H   UNL d   1       3.151  -4.956  -3.191  0.00  0.00     0.173 HD
ATOM      8  H   UNL d   1       4.130  -2.586  -0.978  0.00  0.00     0.171 HD
ENDROOT
BRANCH   4   9
ATOM      9  C   UNL d   1       2.550  -1.235  -0.773  0.00  0.00     0.071 C 
ATOM     10  C   UNL d   1       1.262  -0.773  -1.089  0.00  0.00     0.114 C 
ATOM     11  C   UNL d   1       0.948   0.598  -0.967  0.00  0.00     0.108 C 
ATOM     12  C   UNL d   1       1.799   1.463  -0.267  0.00  0.00     0.087 C 
ATOM     13  C   UNL d   1       3.002   0.961   0.228  0.00  0.00     0.040 C 
ATOM     14  C   UNL d   1       3.389  -0.359  -0.062  0.00  0.00     0.035 C 
BRANCH  10  15
ATOM     15  O   UNL d   1       0.255  -1.615  -1.478  0.00  0.00    -0.352 OA
ATOM     16  C   UNL d   1      -0.239  -2.328  -0.336  0.00  0.00     0.210 C 
ENDBRANCH  10  15
BRANCH  11  17
ATOM     17  C   UNL d   1      -0.137   1.175  -1.790  0.00  0.00     0.298 C 
ATOM     18  O   UNL d   1       0.078   2.022  -2.646  0.00  0.00    -0.259 OA
BRANCH  17  19
ATOM     19  O   UNL d   1      -1.339   0.618  -1.505  0.00  0.00    -0.322 OA
ATOM     20  C   UNL d   1      -2.373   0.978  -2.428  0.00  0.00     0.213 C 
ENDBRANCH  17  19
ENDBRANCH  11  17
BRANCH  12  21
ATOM     21  O   UNL d   1       1.460   2.788  -0.192  0.00  0.00    -0.355 OA
ATOM     22  C   UNL d   1       1.643   3.416   1.071  0.00  0.00     0.210 C 
ENDBRANCH  12  21
ENDBRANCH   4   9
BRANCH   1  23
ATOM     23  C   UNL d   1       5.674  -5.058  -3.662  0.00  0.00     0.102 A 
ATOM     24  C   UNL d   1       6.904  -4.596  -4.195  0.00  0.00     0.108 A 
ATOM     25  C   UNL d   1       7.670  -5.437  -5.020  0.00  0.00     0.070 A 
ATOM     26 CL   UNL d   1       9.246  -5.016  -5.595  0.00  0.00    -0.081 Cl
ATOM     27  C   UNL d   1       7.208  -6.706  -5.353  0.00  0.00     0.053 A 
ATOM     28  C   UNL d   1       5.977  -7.154  -4.876  0.00  0.00     0.070 A 
ATOM     29  C   UNL d   1       5.170  -6.321  -4.074  0.00  0.00     0.108 A 
ATOM     30 CL   UNL d   1       5.604  -8.807  -5.235  0.00  0.00    -0.081 Cl
BRANCH  24  31
ATOM     31  O   UNL d   1       7.356  -3.353  -3.828  0.00  0.00    -0.353 OA
ATOM     32  C   UNL d   1       7.566  -2.449  -4.913  0.00  0.00     0.210 C 
ENDBRANCH  24  31
BRANCH  29  33
ATOM     33  O   UNL d   1       3.938  -6.701  -3.592  0.00  0.00    -0.353 OA
ATOM     34  C   UNL d   1       3.045  -7.312  -4.531  0.00  0.00     0.210 C 
ENDBRANCH  29  33
ENDBRANCH   1  23
TORSDOF 8
