REMARK  5 active torsions:
REMARK  status: ('A' for Active; 'I' for Inactive)
REMARK    1  A    between atoms: N_2  and  S_1 
REMARK    2  A    between atoms: C_9  and  S_1 
REMARK    3  A    between atoms: C_3  and  N_2 
REMARK    4  A    between atoms: C_7  and  O_13 
REMARK    5  A    between atoms: O_13  and  C_19 
ROOT
ATOM      1  S   UNL d   1       1.160   0.092   0.057  0.00  0.00     0.247 S 
ATOM      2  O   UNL d   1       0.632   1.367   0.493  0.00  0.00    -0.205 OA
ATOM      3  O   UNL d   1       0.969  -1.091   0.872  0.00  0.00    -0.205 OA
ENDROOT
BRANCH   1   4
ATOM      4  N   UNL d   1       2.803   0.344  -0.194  0.00  0.00    -0.165 NA
ATOM      5  H   UNL d   1       3.092   1.126   0.390  0.00  0.00     0.147 HD
BRANCH   4   6
ATOM      6  C   UNL d   1       3.636  -0.770  -0.204  0.00  0.00     0.117 A 
ATOM      7  N   UNL d   1       3.890  -1.454  -1.319  0.00  0.00    -0.249 N 
ATOM      8  O   UNL d   1       4.789  -2.442  -0.955  0.00  0.00    -0.241 OA
ATOM      9  HN  UNL d   1       3.504  -1.284  -2.248  1.00  0.00     0.196 HD
ATOM     10  C   UNL d   1       5.054  -2.341   0.375  0.00  0.00     0.075 A 
ATOM     11  C   UNL d   1       4.349  -1.283   0.897  0.00  0.00     0.079 A 
ATOM     12  C   UNL d   1       5.990  -3.334   0.933  0.00  0.00     0.079 C 
ENDBRANCH   4   6
ENDBRANCH   1   4
BRANCH   1  13
ATOM     13  C   UNL d   1       0.536  -0.225  -1.570  0.00  0.00     0.075 A 
ATOM     14  C   UNL d   1       0.512  -1.540  -2.036  0.00  0.00     0.027 A 
ATOM     15  C   UNL d   1      -0.002  -1.826  -3.299  0.00  0.00     0.038 A 
ATOM     16  C   UNL d   1      -0.552  -0.810  -4.080  0.00  0.00     0.078 A 
ATOM     17  C   UNL d   1      -0.516   0.510  -3.608  0.00  0.00     0.038 A 
ATOM     18  C   UNL d   1       0.019   0.807  -2.352  0.00  0.00     0.027 A 
BRANCH  16  19
ATOM     19  O   UNL d   1      -1.107  -0.961  -5.314  0.00  0.00    -0.255 OA
BRANCH  19  20
ATOM     20  C   UNL d   1      -1.702  -2.199  -5.683  0.00  0.00     0.530 C 
ATOM     21  F   UNL d   1      -1.845  -3.078  -4.668  0.00  0.00    -0.144 F 
ATOM     22  F   UNL d   1      -2.934  -1.945  -6.176  0.00  0.00    -0.144 F 
ATOM     23  F   UNL d   1      -0.970  -2.777  -6.660  0.00  0.00    -0.144 F 
ENDBRANCH  19  20
ENDBRANCH  16  19
ENDBRANCH   1  13
TORSDOF 5
