REMARK  4 active torsions:
REMARK  status: ('A' for Active; 'I' for Inactive)
REMARK       I    between atoms: N_3  and  C_1 
REMARK    1  A    between atoms: C_6  and  C_1 
REMARK    2  A    between atoms: C_2  and  C_8 
REMARK       I    between atoms: N_7  and  C_2 
REMARK    3  A    between atoms: C_8  and  N_3 
REMARK    4  A    between atoms: N_9  and  N_7 
ROOT
ATOM      1  C   UNL d   1       1.069  -0.088   0.007  0.00  0.00     0.252 C 
ATOM      2  N   UNL d   1       0.452  -1.318   0.084  0.00  0.00    -0.348 N 
ATOM      3  O   UNL d   1       0.432   0.954  -0.113  0.00  0.00    -0.268 OA
ATOM      4  H   UNL d   1       0.972  -2.184   0.011  0.00  0.00     0.163 HD
ENDROOT
BRANCH   2   5
ATOM      5  C   UNL d   1      -0.997  -1.377  -0.011  0.00  0.00     0.227 C 
BRANCH   5   6
ATOM      6  C   UNL d   1      -1.560  -2.796  -0.040  0.00  0.00     0.249 C 
ATOM      7  O   UNL d   1      -0.858  -3.806  -0.064  0.00  0.00    -0.270 OA
ATOM      8  N   UNL d   1      -2.954  -2.820  -0.079  0.00  0.00    -0.293 N 
ATOM      9  H   UNL d   1      -3.483  -1.970   0.115  0.00  0.00     0.183 HD
BRANCH   8  10
ATOM     10  N   UNL d   1      -3.638  -4.055  -0.056  0.00  0.00    -0.247 NA
ATOM     11  H   UNL d   1      -2.932  -4.795   0.063  0.00  0.00     0.143 HD
ATOM     12  H   UNL d   1      -4.026  -4.224  -0.988  0.00  0.00     0.143 HD
ENDBRANCH   8  10
ENDBRANCH   5   6
ENDBRANCH   2   5
BRANCH   1  13
ATOM     13  C   UNL d   1       2.556  -0.038   0.048  0.00  0.00     0.032 A 
ATOM     14  C   UNL d   1       3.190   1.055  -0.562  0.00  0.00     0.017 A 
ATOM     15  C   UNL d   1       4.578   1.195  -0.502  0.00  0.00     0.001 A 
ATOM     16  C   UNL d   1       5.339   0.250   0.181  0.00  0.00     0.000 A 
ATOM     17  C   UNL d   1       4.715  -0.838   0.795  0.00  0.00     0.001 A 
ATOM     18  C   UNL d   1       3.325  -0.989   0.728  0.00  0.00     0.017 A 
ENDBRANCH   1  13
TORSDOF 4
