REMARK  7 active torsions:
REMARK  status: ('A' for Active; 'I' for Inactive)
REMARK    1  A    between atoms: N_5  and  C_1 
REMARK    2  A    between atoms: C_3  and  C_2 
REMARK       I    between atoms: N_6  and  C_3 
REMARK    3  A    between atoms: O_19  and  C_4 
REMARK       I    between atoms: C_8  and  N_6 
REMARK       I    between atoms: N_12  and  C_8 
REMARK    4  A    between atoms: O_21  and  C_9 
REMARK    5  A    between atoms: C_10  and  N_12 
REMARK    6  A    between atoms: O_22  and  C_16 
REMARK    7  A    between atoms: O_23  and  C_17 
ROOT
ATOM      1  C   UNL d   1       2.950  -2.128  -1.429  0.00  0.00     0.244 C 
ATOM      2  N   UNL d   1       4.313  -2.091  -1.708  0.00  0.00    -0.175 NA
ATOM      3  C   UNL d   1       5.258  -1.210  -1.197  0.00  0.00     0.305 C 
ATOM      4  N   UNL d   1       6.276  -0.985  -2.134  0.00  0.00    -0.308 N 
ATOM      5  O   UNL d   1       2.144  -2.209  -2.362  0.00  0.00    -0.273 OA
ATOM      6  O   UNL d   1       5.319  -0.826  -0.035  0.00  0.00    -0.253 OA
ATOM      7  H   UNL d   1       4.414  -2.144  -2.718  0.00  0.00     0.141 HD
ATOM      8  H   UNL d   1       6.856  -1.804  -2.282  0.00  0.00     0.170 HD
ENDROOT
BRANCH   1   9
ATOM      9  C   UNL d   1       2.429  -2.121  -0.039  0.00  0.00     0.097 C 
ATOM     10  C   UNL d   1       1.780  -3.282   0.432  0.00  0.00     0.119 C 
ATOM     11  C   UNL d   1       1.295  -3.293   1.739  0.00  0.00     0.138 C 
ATOM     12  C   UNL d   1       1.404  -2.171   2.559  0.00  0.00     0.061 C 
ATOM     13  C   UNL d   1       1.953  -0.983   2.054  0.00  0.00     0.048 C 
ATOM     14  C   UNL d   1       2.415  -0.926   0.724  0.00  0.00     0.103 C 
ATOM     15 BR   UNL d   1       1.938   0.441   3.316  0.00  0.00    -0.048 Br
BRANCH  10  16
ATOM     16  O   UNL d   1       1.611  -4.355  -0.403  0.00  0.00    -0.352 OA
ATOM     17  C   UNL d   1       0.268  -4.419  -0.907  0.00  0.00     0.210 C 
ENDBRANCH  10  16
BRANCH  11  18
ATOM     18  N   UNL d   1       0.607  -4.452   2.274  0.00  0.00    -0.113 N 
ATOM     19  O   UNL d   1       1.214  -5.529   2.286  0.00  0.00    -0.532 OA
ATOM     20  O   UNL d   1      -0.540  -4.267   2.705  0.00  0.00    -0.532 OA
ENDBRANCH  11  18
BRANCH  14  21
ATOM     21  O   UNL d   1       2.744   0.171  -0.023  0.00  0.00    -0.353 OA
ATOM     22  C   UNL d   1       3.101   1.404   0.570  0.00  0.00     0.210 C 
ENDBRANCH  14  21
ENDBRANCH   1   9
BRANCH   4  23
ATOM     23  C   UNL d   1       7.018   0.229  -2.090  0.00  0.00     0.103 C 
ATOM     24  C   UNL d   1       8.415   0.212  -2.121  0.00  0.00     0.097 C 
ATOM     25  C   UNL d   1       9.146   1.403  -2.003  0.00  0.00     0.039 C 
ATOM     26  C   UNL d   1       8.481   2.625  -1.870  0.00  0.00     0.006 C 
ATOM     27  C   UNL d   1       7.090   2.665  -1.950  0.00  0.00     0.039 C 
ATOM     28  C   UNL d   1       6.376   1.475  -2.114  0.00  0.00     0.097 C 
BRANCH  24  29
ATOM     29  O   UNL d   1       9.071  -0.952  -2.431  0.00  0.00    -0.354 OA
ATOM     30  C   UNL d   1       9.619  -1.577  -1.275  0.00  0.00     0.210 C 
ENDBRANCH  24  29
BRANCH  28  31
ATOM     31  O   UNL d   1       5.051   1.587  -2.472  0.00  0.00    -0.354 OA
ATOM     32  C   UNL d   1       4.940   1.361  -3.887  0.00  0.00     0.210 C 
ENDBRANCH  28  31
ENDBRANCH   4  23
TORSDOF 7
