REMARK  3 active torsions:
REMARK  status: ('A' for Active; 'I' for Inactive)
REMARK    1  A    between atoms: O_4  and  C_3 
REMARK    2  A    between atoms: C_5  and  O_4 
REMARK    3  A    between atoms: N_11  and  C_8 
ROOT
ATOM      1  N   UNL d   1      -1.188   1.299   0.709  0.00  0.00    -0.345 N 
ATOM      2  HN  UNL d   1      -1.769   2.002   1.164  1.00  0.00     0.167 HD
ATOM      3  C   UNL d   1      -1.723   0.270   0.016  0.00  0.00     0.148 A 
ATOM      4  C   UNL d   1       0.163   1.343   0.764  0.00  0.00     0.113 A 
ATOM      5  C   UNL d   1       1.016   0.365   0.254  0.00  0.00     0.021 A 
ATOM      6  C   UNL d   1      -0.974  -0.758  -0.535  0.00  0.00     0.058 A 
ATOM      7  C   UNL d   1       0.415  -0.692  -0.428  0.00  0.00     0.029 A 
ENDROOT
BRANCH   3   8
ATOM      8  O   UNL d   1      -3.097   0.213  -0.181  0.00  0.00    -0.291 OA
BRANCH   8   9
ATOM      9  C   UNL d   1      -3.773   1.412  -0.223  0.00  0.00     0.116 A 
ATOM     10  C   UNL d   1      -3.325   2.534  -0.927  0.00  0.00     0.150 A 
ATOM     11  F   UNL d   1      -2.203   2.494  -1.659  0.00  0.00    -0.203 F 
ATOM     12  C   UNL d   1      -4.055   3.721  -0.909  0.00  0.00     0.045 A 
ATOM     13  C   UNL d   1      -5.268   3.777  -0.227  0.00  0.00     0.003 A 
ATOM     14  C   UNL d   1      -5.754   2.642   0.426  0.00  0.00     0.003 A 
ATOM     15  C   UNL d   1      -5.007   1.459   0.427  0.00  0.00     0.040 A 
ENDBRANCH   8   9
ENDBRANCH   3   8
BRANCH   5  16
ATOM     16  N   UNL d   1       2.402   0.548   0.199  0.00  0.00    -0.302 NA
ATOM     17  H   UNL d   1       2.774   1.157   0.922  0.00  0.00     0.124 HD
ATOM     18  H   UNL d   1       2.934  -0.311   0.103  0.00  0.00     0.124 HD
ENDBRANCH   5  16
TORSDOF 3
