REMARK  5 active torsions:
REMARK  status: ('A' for Active; 'I' for Inactive)
REMARK       I    between atoms: N_2  and  C_1 
REMARK    1  A    between atoms: C_3  and  C_1 
REMARK    2  A    between atoms: C_9  and  N_2 
REMARK    3  A    between atoms: O_13  and  C_4 
REMARK    4  A    between atoms: O_15  and  C_5 
REMARK    5  A    between atoms: O_14  and  C_6 
ROOT
ATOM      1  C   UNL d   1       0.198  -0.489  -1.137  0.00  0.00     0.037 A 
ATOM      2  C   UNL d   1      -1.156  -1.445  -3.384  0.00  0.00     0.135 A 
ATOM      3  C   UNL d   1      -1.606  -0.277  -2.719  0.00  0.00     0.105 A 
ATOM      4  C   UNL d   1      -0.023  -2.137  -2.903  0.00  0.00     0.105 A 
ATOM      5  C   UNL d   1       0.653  -1.638  -1.787  0.00  0.00     0.057 A 
ATOM      6  C   UNL d   1      -0.939   0.181  -1.580  0.00  0.00     0.057 A 
ENDROOT
BRANCH   1   7
ATOM      7  C   UNL d   1       0.935   0.024   0.044  0.00  0.00     0.257 C 
ATOM      8  N   UNL d   1       2.300   0.061  -0.145  0.00  0.00    -0.309 N 
ATOM      9  H   UNL d   1       2.644   0.108  -1.094  0.00  0.00     0.170 HD
ATOM     10  O   UNL d   1       0.317   0.426   1.013  0.00  0.00    -0.267 OA
BRANCH   8  11
ATOM     11  C   UNL d   1       3.191   0.603   0.773  0.00  0.00     0.107 A 
ATOM     12  N   UNL d   1       4.192   1.311   0.209  0.00  0.00    -0.352 N 
ATOM     13  C   UNL d   1       5.037   1.942   1.048  0.00  0.00     0.089 A 
ATOM     14  HN  UNL d   1       4.304   1.367  -0.804  1.00  0.00     0.166 HD
ATOM     15  C   UNL d   1       4.984   1.826   2.426  0.00  0.00     0.017 A 
ATOM     16  C   UNL d   1       3.996   1.019   2.980  0.00  0.00     0.005 A 
ATOM     17  C   UNL d   1       3.068   0.411   2.141  0.00  0.00     0.048 A 
ENDBRANCH   8  11
ENDBRANCH   1   7
BRANCH   4  18
ATOM     18  O   UNL d   1       0.356  -3.293  -3.532  0.00  0.00    -0.353 OA
ATOM     19  C   UNL d   1       1.502  -3.981  -3.043  0.00  0.00     0.210 C 
ENDBRANCH   4  18
BRANCH   3  20
ATOM     20  O   UNL d   1      -2.713   0.350  -3.242  0.00  0.00    -0.353 OA
ATOM     21  C   UNL d   1      -2.881   1.723  -2.902  0.00  0.00     0.210 C 
ENDBRANCH   3  20
BRANCH   2  22
ATOM     22  O   UNL d   1      -1.935  -1.845  -4.447  0.00  0.00    -0.351 OA
ATOM     23  C   UNL d   1      -1.271  -2.461  -5.543  0.00  0.00     0.210 C 
ENDBRANCH   2  22
TORSDOF 5
