REMARK  4 active torsions:
REMARK  status: ('A' for Active; 'I' for Inactive)
REMARK    1  A    between atoms: C_6  and  N_1 
REMARK    2  A    between atoms: C_2  and  N_5 
REMARK    3  A    between atoms: S_22  and  C_2 
REMARK    4  A    between atoms: N_7  and  C_9 
ROOT
ATOM      1  C   UNL d   1      -2.850   4.118  -8.113  0.00  0.00     0.151 C 
ATOM      2  N   UNL d   1      -3.612   4.901  -7.417  0.00  0.00    -0.274 N 
ATOM      3  HN  UNL d   1      -4.625   4.843  -7.524  1.00  0.00     0.180 HD
ATOM      4  C   UNL d   1      -3.088   5.783  -6.560  0.00  0.00     0.183 C 
ATOM      5  N   UNL d   1      -2.650   6.548  -5.811  0.00  0.00    -0.172 NA
ENDROOT
BRANCH   1   6
ATOM      6  N   UNL d   1      -3.349   3.315  -9.112  0.00  0.00    -0.358 N 
ATOM      7  C   UNL d   1      -3.611   1.881  -8.908  0.00  0.00     0.145 C 
ATOM      8  C   UNL d   1      -3.357   1.118 -10.229  0.00  0.00     0.144 C 
ATOM      9  N   UNL d   1      -4.092   1.744 -11.344  0.00  0.00    -0.364 N 
ATOM     10  C   UNL d   1      -3.928   3.194 -11.496  0.00  0.00     0.144 C 
ATOM     11  C   UNL d   1      -4.216   3.897 -10.149  0.00  0.00     0.145 C 
BRANCH   9  12
ATOM     12  C   UNL d   1      -4.696   0.951 -12.286  0.00  0.00     0.103 A 
ATOM     13  C   UNL d   1      -4.735   1.303 -13.637  0.00  0.00     0.051 A 
ATOM     14  C   UNL d   1      -5.410   0.501 -14.560  0.00  0.00     0.041 A 
ATOM     15  C   UNL d   1      -6.055  -0.641 -14.100  0.00  0.00     0.118 A 
ATOM     16  C   UNL d   1      -5.982  -0.943 -12.754  0.00  0.00     0.125 A 
ATOM     17  N   UNL d   1      -5.304  -0.179 -11.857  0.00  0.00    -0.350 N 
ATOM     18  HN  UNL d   1      -5.254  -0.454 -10.876  1.00  0.00     0.166 HD
BRANCH  15  19
ATOM     19  N   UNL d   1      -6.790  -1.509 -15.007  0.00  0.00    -0.114 N 
ATOM     20  O   UNL d   1      -7.351  -2.503 -14.526  0.00  0.00    -0.532 OA
ATOM     21  O   UNL d   1      -6.811  -1.200 -16.206  0.00  0.00    -0.532 OA
ENDBRANCH  15  19
ENDBRANCH   9  12
ENDBRANCH   1   6
BRANCH   1  22
ATOM     22  S   UNL d   1      -1.085   4.091  -8.079  0.00  0.00    -0.098 SA
ATOM     23  C   UNL d   1      -0.750   3.476  -6.420  0.00  0.00     0.099 C 
ENDBRANCH   1  22
TORSDOF 4
