REMARK  18 active torsions:
REMARK  status: ('A' for Active; 'I' for Inactive)
REMARK    1  A    between atoms: C_10  and  S_1 
REMARK    2  A    between atoms: C_11  and  S_1 
REMARK    3  A    between atoms: C_6  and  C_2 
REMARK    4  A    between atoms: C_7  and  C_2 
REMARK    5  A    between atoms: C_8  and  C_3 
REMARK    6  A    between atoms: C_9  and  C_3 
REMARK    7  A    between atoms: C_4  and  N_14 
REMARK    8  A    between atoms: C_5  and  N_15 
REMARK    9  A    between atoms: O_27  and  C_6 
REMARK   10  A    between atoms: O_29  and  C_7 
REMARK   11  A    between atoms: O_26  and  C_8 
REMARK   12  A    between atoms: O_28  and  C_9 
REMARK   13  A    between atoms: N_14  and  C_24 
REMARK   14  A    between atoms: N_15  and  C_25 
REMARK   15  A    between atoms: C_36  and  O_26 
REMARK   16  A    between atoms: C_35  and  O_27 
REMARK   17  A    between atoms: C_37  and  O_28 
REMARK   18  A    between atoms: C_34  and  O_29 
ROOT
ATOM      1  S   UNL d   1       0.882   0.079  -0.085  0.00  0.00     0.206 S 
ATOM      2  O   UNL d   1       0.126   0.998  -0.925  0.00  0.00    -0.217 OA
ATOM      3  O   UNL d   1       2.337   0.128  -0.093  0.00  0.00    -0.217 OA
ENDROOT
BRANCH   1   4
ATOM      4  C   UNL d   1       0.394  -1.553  -0.573  0.00  0.00     0.064 A 
ATOM      5  C   UNL d   1      -0.960  -1.902  -0.583  0.00  0.00     0.026 A 
ATOM      6  C   UNL d   1      -1.345  -3.177  -1.020  0.00  0.00     0.031 A 
ATOM      7  C   UNL d   1      -0.395  -4.113  -1.457  0.00  0.00     0.032 A 
ATOM      8  C   UNL d   1       0.958  -3.741  -1.429  0.00  0.00     0.031 A 
ATOM      9  C   UNL d   1       1.357  -2.470  -1.001  0.00  0.00     0.026 A 
BRANCH   7  10
ATOM     10  N   UNL d   1      -0.822  -5.404  -1.815  0.00  0.00    -0.365 N 
ATOM     11  H   UNL d   1      -1.795  -5.496  -2.118  0.00  0.00     0.165 HD
BRANCH  10  12
ATOM     12  C   UNL d   1      -0.075  -6.561  -1.817  0.00  0.00     0.112 C 
ATOM     13  C   UNL d   1      -0.396  -7.804  -2.222  0.00  0.00     0.129 C 
BRANCH  13  14
ATOM     14  C   UNL d   1      -1.736  -8.092  -2.779  0.00  0.00     0.300 C 
ATOM     15  O   UNL d   1      -2.725  -7.395  -2.589  0.00  0.00    -0.259 OA
BRANCH  14  16
ATOM     16  O   UNL d   1      -1.721  -9.245  -3.495  0.00  0.00    -0.318 OA
BRANCH  16  17
ATOM     17  C   UNL d   1      -2.966  -9.948  -3.600  0.00  0.00     0.174 C 
ATOM     18  C   UNL d   1      -3.164 -10.778  -2.340  0.00  0.00     0.034 C 
ENDBRANCH  16  17
ENDBRANCH  14  16
ENDBRANCH  13  14
BRANCH  13  19
ATOM     19  C   UNL d   1       0.671  -8.823  -2.074  0.00  0.00     0.300 C 
ATOM     20  O   UNL d   1       1.865  -8.561  -2.018  0.00  0.00    -0.259 OA
BRANCH  19  21
ATOM     21  O   UNL d   1       0.154 -10.076  -2.044  0.00  0.00    -0.318 OA
BRANCH  21  22
ATOM     22  C   UNL d   1       1.050 -11.122  -2.442  0.00  0.00     0.174 C 
ATOM     23  C   UNL d   1       1.091 -11.176  -3.962  0.00  0.00     0.034 C 
ENDBRANCH  21  22
ENDBRANCH  19  21
ENDBRANCH  13  19
ENDBRANCH  10  12
ENDBRANCH   7  10
ENDBRANCH   1   4
BRANCH   1  24
ATOM     24  C   UNL d   1       0.370   0.342   1.597  0.00  0.00     0.064 A 
ATOM     25  C   UNL d   1       1.243   0.065   2.647  0.00  0.00     0.026 A 
ATOM     26  C   UNL d   1       0.850   0.339   3.963  0.00  0.00     0.031 A 
ATOM     27  C   UNL d   1      -0.406   0.897   4.244  0.00  0.00     0.032 A 
ATOM     28  C   UNL d   1      -1.263   1.171   3.169  0.00  0.00     0.031 A 
ATOM     29  C   UNL d   1      -0.877   0.914   1.849  0.00  0.00     0.026 A 
BRANCH  27  30
ATOM     30  N   UNL d   1      -0.790   1.077   5.585  0.00  0.00    -0.365 N 
ATOM     31  H   UNL d   1      -0.034   1.167   6.268  0.00  0.00     0.165 HD
BRANCH  30  32
ATOM     32  C   UNL d   1      -2.070   1.159   6.085  0.00  0.00     0.112 C 
ATOM     33  C   UNL d   1      -2.499   1.417   7.335  0.00  0.00     0.129 C 
BRANCH  33  34
ATOM     34  C   UNL d   1      -1.528   1.677   8.420  0.00  0.00     0.300 C 
ATOM     35  O   UNL d   1      -0.354   1.330   8.389  0.00  0.00    -0.259 OA
BRANCH  34  36
ATOM     36  O   UNL d   1      -2.123   2.319   9.455  0.00  0.00    -0.318 OA
BRANCH  36  37
ATOM     37  C   UNL d   1      -1.519   2.145  10.743  0.00  0.00     0.174 C 
ATOM     38  C   UNL d   1      -1.997   0.825  11.331  0.00  0.00     0.034 C 
ENDBRANCH  36  37
ENDBRANCH  34  36
ENDBRANCH  33  34
BRANCH  33  39
ATOM     39  C   UNL d   1      -3.970   1.427   7.524  0.00  0.00     0.300 C 
ATOM     40  O   UNL d   1      -4.775   1.619   6.622  0.00  0.00    -0.259 OA
BRANCH  39  41
ATOM     41  O   UNL d   1      -4.298   1.230   8.824  0.00  0.00    -0.318 OA
BRANCH  41  42
ATOM     42  C   UNL d   1      -5.577   1.742   9.223  0.00  0.00     0.174 C 
ATOM     43  C   UNL d   1      -5.445   3.234   9.488  0.00  0.00     0.034 C 
ENDBRANCH  41  42
ENDBRANCH  39  41
ENDBRANCH  33  39
ENDBRANCH  30  32
ENDBRANCH  27  30
ENDBRANCH   1  24
TORSDOF 18
