REMARK  3 active torsions:
REMARK  status: ('A' for Active; 'I' for Inactive)
REMARK    1  A    between atoms: C_11  and  C_5 
REMARK    2  A    between atoms: S_13  and  C_7 
REMARK    3  A    between atoms: S_12  and  C_8 
ROOT
ATOM      1  N   UNL d   1       1.483   1.193   0.014  0.00  0.00    -0.335 N 
ATOM      2  HN  UNL d   1       1.994   2.075   0.030  1.00  0.00     0.168 HD
ATOM      3  N   UNL d   1       1.508  -1.164  -0.036  0.00  0.00    -0.335 N 
ATOM      4  HN  UNL d   1       2.039  -2.034  -0.057  1.00  0.00     0.168 HD
ATOM      5  C   UNL d   1       2.126   0.021  -0.014  0.00  0.00     0.117 A 
ATOM      6  C   UNL d   1      -0.594  -0.012  -0.002  0.00  0.00     0.111 A 
ATOM      7  C   UNL d   1       0.159  -1.173  -0.029  0.00  0.00     0.094 A 
ATOM      8  C   UNL d   1       0.133   1.168   0.020  0.00  0.00     0.094 A 
ATOM      9  C   UNL d   1      -2.021  -0.030   0.004  0.00  0.00     0.105 C 
ATOM     10  N   UNL d   1      -3.183  -0.045   0.010  0.00  0.00    -0.191 NA
ENDROOT
BRANCH   8  11
ATOM     11  S   UNL d   1      -0.662   2.779   0.055  0.00  0.00    -0.115 SA
ATOM     12  C   UNL d   1       0.781   3.882   0.067  0.00  0.00     0.097 C 
ENDBRANCH   8  11
BRANCH   7  13
ATOM     13  S   UNL d   1      -0.588  -2.806  -0.057  0.00  0.00    -0.115 SA
ATOM     14  C   UNL d   1       0.890  -3.863  -0.115  0.00  0.00     0.097 C 
ENDBRANCH   7  13
BRANCH   5  15
ATOM     15  C   UNL d   1       3.599   0.031  -0.031  0.00  0.00     0.008 A 
ATOM     16  C   UNL d   1       4.338  -1.168  -0.069  0.00  0.00     0.015 A 
ATOM     17  C   UNL d   1       5.734  -1.164  -0.096  0.00  0.00     0.001 A 
ATOM     18  C   UNL d   1       6.426   0.043  -0.083  0.00  0.00     0.000 A 
ATOM     19  C   UNL d   1       5.724   1.243  -0.041  0.00  0.00     0.001 A 
ATOM     20  C   UNL d   1       4.327   1.236  -0.015  0.00  0.00     0.015 A 
ENDBRANCH   5  15
TORSDOF 3
