REMARK  5 active torsions:
REMARK  status: ('A' for Active; 'I' for Inactive)
REMARK    1  A    between atoms: C_7  and  C_1 
REMARK    2  A    between atoms: C_8  and  N_2 
REMARK    3  A    between atoms: C_9  and  C_6 
REMARK       I    between atoms: N_11  and  C_7 
REMARK    4  A    between atoms: C_13  and  C_8 
REMARK    5  A    between atoms: N_12  and  N_11 
ROOT
ATOM      1  C   UNL d   1      -0.599  -1.134   0.267  0.00  0.00     0.122 A 
ATOM      2  N   UNL d   1       0.706  -0.720   0.119  0.00  0.00    -0.282 N 
ATOM      3  N   UNL d   1       0.838   0.632   0.061  0.00  0.00    -0.301 N 
ATOM      4  HN  UNL d   1       1.702   1.173   0.032  1.00  0.00     0.187 HD
ATOM      5  C   UNL d   1      -1.340   0.036   0.158  0.00  0.00     0.064 A 
ATOM      6  C   UNL d   1      -0.412   1.094   0.053  0.00  0.00     0.036 A 
ENDROOT
BRANCH   1   7
ATOM      7  C   UNL d   1      -1.055  -2.492   0.470  0.00  0.00     0.283 C 
ATOM      8  O   UNL d   1      -0.318  -3.479   0.474  0.00  0.00    -0.265 OA
ATOM      9  N   UNL d   1      -2.429  -2.610   0.697  0.00  0.00    -0.288 N 
ATOM     10  H   UNL d   1      -2.988  -1.775   0.847  0.00  0.00     0.183 HD
BRANCH   9  11
ATOM     11  N   UNL d   1      -3.000  -3.855   1.045  0.00  0.00    -0.247 NA
ATOM     12  H   UNL d   1      -2.245  -4.553   1.019  0.00  0.00     0.143 HD
ATOM     13  H   UNL d   1      -3.640  -4.133   0.297  0.00  0.00     0.143 HD
ENDBRANCH   9  11
ENDBRANCH   1   7
BRANCH   2  14
ATOM     14  C   UNL d   1       1.927  -1.522   0.052  0.00  0.00     0.188 C 
BRANCH  14  15
ATOM     15  C   UNL d   1       2.267  -1.918  -1.366  0.00  0.00    -0.038 A 
ATOM     16  C   UNL d   1       2.525  -0.942  -2.345  0.00  0.00     0.009 A 
ATOM     17  C   UNL d   1       2.814  -1.308  -3.660  0.00  0.00     0.001 A 
ATOM     18  C   UNL d   1       2.866  -2.655  -4.011  0.00  0.00     0.000 A 
ATOM     19  C   UNL d   1       2.642  -3.634  -3.045  0.00  0.00     0.001 A 
ATOM     20  C   UNL d   1       2.344  -3.269  -1.730  0.00  0.00     0.009 A 
ENDBRANCH  14  15
ENDBRANCH   2  14
BRANCH   6  21
ATOM     21  C   UNL d   1      -0.734   2.576  -0.014  0.00  0.00    -0.007 C 
ATOM     22  C   UNL d   1      -1.448   2.999   1.287  0.00  0.00     0.021 C 
ATOM     23  C   UNL d   1       0.532   3.443  -0.174  0.00  0.00     0.021 C 
ATOM     24  C   UNL d   1      -1.665   2.866  -1.210  0.00  0.00     0.021 C 
ENDBRANCH   6  21
TORSDOF 5
