REMARK  3 active torsions:
REMARK  status: ('A' for Active; 'I' for Inactive)
REMARK    1  A    between atoms: N_4  and  C_3 
REMARK    2  A    between atoms: C_12  and  C_7 
REMARK    3  A    between atoms: C_15  and  C_8 
ROOT
ATOM      1  N   UNL d   1       1.416  -0.529   0.244  0.00  0.00    -0.319 N 
ATOM      2  HN  UNL d   1       2.321  -0.891   0.543  1.00  0.00     0.169 HD
ATOM      3  C   UNL d   1       0.327  -1.237   0.032  0.00  0.00     0.188 A 
ATOM      4  C   UNL d   1       1.106   0.815  -0.017  0.00  0.00     0.123 A 
ATOM      5  N   UNL d   1      -0.163   1.125  -0.328  0.00  0.00    -0.309 N 
ATOM      6  HN  UNL d   1      -0.533   2.061  -0.497  1.00  0.00     0.176 HD
ATOM      7  S   UNL d   1      -1.024  -0.305  -0.387  0.00  0.00     0.026 SA
ENDROOT
BRANCH   3   8
ATOM      8  N   UNL d   1       0.258  -2.625   0.098  0.00  0.00    -0.243 N 
ATOM      9  N   UNL d   1      -0.867  -3.284  -0.283  0.00  0.00    -0.288 N 
ATOM     10  C   UNL d   1      -0.549  -4.595  -0.213  0.00  0.00     0.134 A 
ATOM     11  HN  UNL d   1      -1.759  -2.877  -0.563  1.00  0.00     0.187 HD
ATOM     12  C   UNL d   1       0.768  -4.767   0.286  0.00  0.00     0.055 A 
ATOM     13  C   UNL d   1       1.253  -3.497   0.475  0.00  0.00     0.121 A 
BRANCH  10  14
ATOM     14  C   UNL d   1      -1.489  -5.696  -0.633  0.00  0.00     0.434 C 
ATOM     15  F   UNL d   1      -2.688  -5.246  -1.085  0.00  0.00    -0.165 F 
ATOM     16  F   UNL d   1      -0.952  -6.449  -1.630  0.00  0.00    -0.165 F 
ATOM     17  F   UNL d   1      -1.750  -6.548   0.395  0.00  0.00    -0.165 F 
ENDBRANCH  10  14
ENDBRANCH   3   8
BRANCH   4  18
ATOM     18  C   UNL d   1       2.169   1.827  -0.001  0.00  0.00     0.009 A 
ATOM     19  C   UNL d   1       3.493   1.463   0.287  0.00  0.00     0.015 A 
ATOM     20  C   UNL d   1       4.520   2.410   0.246  0.00  0.00     0.001 A 
ATOM     21  C   UNL d   1       4.235   3.734  -0.081  0.00  0.00     0.000 A 
ATOM     22  C   UNL d   1       2.924   4.115  -0.357  0.00  0.00     0.001 A 
ATOM     23  C   UNL d   1       1.897   3.168  -0.316  0.00  0.00     0.015 A 
ENDBRANCH   4  18
TORSDOF 3
