REMARK  4 active torsions:
REMARK  status: ('A' for Active; 'I' for Inactive)
REMARK    1  A    between atoms: C_3  and  C_1 
REMARK       I    between atoms: N_5  and  C_3 
REMARK    2  A    between atoms: C_9  and  N_6 
REMARK    3  A    between atoms: C_15  and  C_9 
REMARK    4  A    between atoms: C_16  and  C_9 
ROOT
ATOM      1  C   UNL d   1       3.533  -1.392  -0.069  0.00  0.00     0.260 C 
ATOM      2  N   UNL d   1       3.798  -2.773   0.012  0.00  0.00    -0.344 N 
ATOM      3  N   UNL d   1       4.451  -5.666   0.287  0.00  0.00     0.105 N 
ATOM      4  C   UNL d   1       3.140  -3.794  -0.806  0.00  0.00     0.156 C 
ATOM      5  C   UNL d   1       5.015  -3.199   0.716  0.00  0.00     0.156 C 
ATOM      6  O   UNL d   1       4.136  -0.612   0.672  0.00  0.00    -0.267 OA
ATOM      7  C   UNL d   1       3.129  -5.183  -0.161  0.00  0.00     0.293 C 
ATOM      8  C   UNL d   1       4.956  -4.649   1.250  0.00  0.00     0.293 C 
ENDROOT
BRANCH   3   9
ATOM      9  C   UNL d   1       5.421  -5.913  -0.826  0.00  0.00     0.289 C 
BRANCH   9  10
ATOM     10  C   UNL d   1       6.746  -6.484  -0.300  0.00  0.00    -0.021 A 
ATOM     11  C   UNL d   1       6.781  -7.686   0.420  0.00  0.00     0.010 A 
ATOM     12  C   UNL d   1       7.991  -8.190   0.905  0.00  0.00     0.001 A 
ATOM     13  C   UNL d   1       9.176  -7.495   0.682  0.00  0.00     0.000 A 
ATOM     14  C   UNL d   1       9.156  -6.295  -0.025  0.00  0.00     0.001 A 
ATOM     15  C   UNL d   1       7.949  -5.791  -0.517  0.00  0.00     0.010 A 
ENDBRANCH   9  10
BRANCH   9  16
ATOM     16  C   UNL d   1       4.896  -6.787  -1.979  0.00  0.00    -0.021 A 
ATOM     17  C   UNL d   1       5.340  -6.535  -3.291  0.00  0.00     0.010 A 
ATOM     18  C   UNL d   1       4.863  -7.284  -4.368  0.00  0.00     0.001 A 
ATOM     19  C   UNL d   1       3.936  -8.301  -4.154  0.00  0.00     0.000 A 
ATOM     20  C   UNL d   1       3.511  -8.590  -2.860  0.00  0.00     0.001 A 
ATOM     21  C   UNL d   1       4.004  -7.854  -1.779  0.00  0.00     0.010 A 
ENDBRANCH   9  16
ENDBRANCH   3   9
BRANCH   1  22
ATOM     22  C   UNL d   1       2.549  -0.915  -1.042  0.00  0.00     0.074 A 
ATOM     23  S   UNL d   1       1.564   0.434  -0.653  0.00  0.00    -0.084 SA
ATOM     24  C   UNL d   1       0.700   0.353  -2.142  0.00  0.00     0.016 A 
ATOM     25  C   UNL d   1      -0.355   1.182  -2.574  0.00  0.00     0.019 A 
ATOM     26  C   UNL d   1       1.175  -0.683  -2.944  0.00  0.00    -0.018 A 
ATOM     27  C   UNL d   1      -0.950   0.928  -3.814  0.00  0.00     0.001 A 
ATOM     28  C   UNL d   1      -0.513  -0.122  -4.609  0.00  0.00     0.001 A 
ATOM     29  C   UNL d   1       0.548  -0.924  -4.188  0.00  0.00     0.013 A 
ATOM     30  C   UNL d   1       2.287  -1.340  -2.329  0.00  0.00     0.037 A 
ENDBRANCH   1  22
TORSDOF 4
