REMARK  5 active torsions:
REMARK  status: ('A' for Active; 'I' for Inactive)
REMARK    1  A    between atoms: C_4  and  C_1 
REMARK    2  A    between atoms: N_2  and  C_3 
REMARK    3  A    between atoms: O_15  and  C_4 
REMARK    4  A    between atoms: C_5  and  C_7 
REMARK    5  A    between atoms: C_18  and  O_15 
ROOT
ATOM      1  C   UNL d   1      -0.408   1.219  -0.194  0.00  0.00     0.134 C 
ATOM      2  C   UNL d   1       0.495   0.946   0.763  0.00  0.00     0.115 C 
ATOM      3  C   UNL d   1      -1.068   2.472  -0.263  0.00  0.00     0.107 C 
ATOM      4  N   UNL d   1      -1.624   3.493  -0.319  0.00  0.00    -0.191 NA
ENDROOT
BRANCH   1   5
ATOM      5  C   UNL d   1      -0.709   0.157  -1.182  0.00  0.00     0.305 C 
ATOM      6  O   UNL d   1      -0.123  -0.914  -1.248  0.00  0.00    -0.258 OA
BRANCH   5   7
ATOM      7  O   UNL d   1      -1.686   0.571  -2.029  0.00  0.00    -0.317 OA
BRANCH   7   8
ATOM      8  C   UNL d   1      -1.881  -0.225  -3.206  0.00  0.00     0.174 C 
ATOM      9  C   UNL d   1      -0.907   0.245  -4.271  0.00  0.00     0.034 C 
ENDBRANCH   7   8
ENDBRANCH   5   7
ENDBRANCH   1   5
BRANCH   2  10
ATOM     10  N   UNL d   1       0.959   1.782   1.767  0.00  0.00    -0.379 N 
ATOM     11  C   UNL d   1       2.097   2.729   1.581  0.00  0.00     0.123 C 
ATOM     12  C   UNL d   1       3.046   2.355   2.729  0.00  0.00     0.032 C 
ATOM     13  C   UNL d   1       2.075   2.083   3.862  0.00  0.00     0.022 C 
ATOM     14  C   UNL d   1       0.942   1.333   3.174  0.00  0.00     0.123 C 
BRANCH  11  15
ATOM     15  C   UNL d   1       2.821   2.776   0.254  0.00  0.00     0.005 A 
ATOM     16  S   UNL d   1       2.852   4.250  -0.632  0.00  0.00    -0.104 SA
ATOM     17  C   UNL d   1       3.828   3.577  -1.861  0.00  0.00     0.050 A 
ATOM     18  C   UNL d   1       4.119   2.254  -1.621  0.00  0.00     0.008 A 
ATOM     19  C   UNL d   1       3.536   1.790  -0.404  0.00  0.00     0.017 A 
ENDBRANCH  11  15
ENDBRANCH   2  10
TORSDOF 5
