REMARK  3 active torsions:
REMARK  status: ('A' for Active; 'I' for Inactive)
REMARK    1  A    between atoms: C_2  and  C_1 
REMARK       I    between atoms: N_3  and  C_1 
REMARK    2  A    between atoms: C_5  and  N_3 
REMARK    3  A    between atoms: N_10  and  C_7 
ROOT
ATOM      1  C   UNL d   1       1.112   1.689  -0.863  0.00  0.00     0.254 C 
ATOM      2  N   UNL d   1       0.175   1.012  -0.125  0.00  0.00    -0.344 N 
ATOM      3  O   UNL d   1       0.827   2.562  -1.674  0.00  0.00    -0.268 OA
ATOM      4  H   UNL d   1       0.492   0.267   0.496  0.00  0.00     0.163 HD
ENDROOT
BRANCH   1   5
ATOM      5  C   UNL d   1       2.529   1.258  -0.654  0.00  0.00     0.052 A 
ATOM      6  C   UNL d   1       3.025   0.790   0.581  0.00  0.00     0.021 A 
ATOM      7  C   UNL d   1       4.324   0.255   0.612  0.00  0.00     0.024 A 
ATOM      8  C   UNL d   1       5.153   0.297  -0.511  0.00  0.00     0.002 A 
ATOM      9  C   UNL d   1       4.688   0.853  -1.698  0.00  0.00     0.001 A 
ATOM     10  C   UNL d   1       3.378   1.328  -1.772  0.00  0.00     0.019 A 
BRANCH   6  11
ATOM     11  N   UNL d   1       2.226   0.632   1.730  0.00  0.00    -0.302 NA
ATOM     12  H   UNL d   1       1.474   1.319   1.812  0.00  0.00     0.124 HD
ATOM     13  H   UNL d   1       2.755   0.585   2.596  0.00  0.00     0.124 HD
ENDBRANCH   6  11
ENDBRANCH   1   5
BRANCH   2  14
ATOM     14  C   UNL d   1      -1.262   1.285  -0.164  0.00  0.00     0.177 C 
ATOM     15  C   UNL d   1      -1.798   0.904   1.231  0.00  0.00     0.240 C 
ATOM     16  N   UNL d   1      -3.135   0.965   1.478  0.00  0.00    -0.359 N 
ATOM     17  O   UNL d   1      -1.053   0.560   2.154  0.00  0.00    -0.271 OA
ATOM     18  C   UNL d   1      -4.162   1.523   0.628  0.00  0.00     0.122 C 
ATOM     19  H   UNL d   1      -3.374   0.733   2.435  0.00  0.00     0.162 HD
ATOM     20  C   UNL d   1      -4.376   0.722  -0.646  0.00  0.00     0.020 C 
ATOM     21  C   UNL d   1      -3.296   0.969  -1.695  0.00  0.00     0.004 C 
ATOM     22  C   UNL d   1      -1.908   0.476  -1.292  0.00  0.00     0.035 C 
ENDBRANCH   2  14
TORSDOF 3
