REMARK  5 active torsions:
REMARK  status: ('A' for Active; 'I' for Inactive)
REMARK    1  A    between atoms: C_2  and  C_1 
REMARK       I    between atoms: N_3  and  C_2 
REMARK    2  A    between atoms: C_9  and  N_3 
REMARK    3  A    between atoms: N_14  and  C_4 
REMARK    4  A    between atoms: O_6  and  C_11 
REMARK    5  A    between atoms: C_8  and  O_6 
ROOT
ATOM      1  C   UNL d   1       3.015   0.140   1.666  0.00  0.00     0.127 C 
ATOM      2  C   UNL d   1       2.227   0.490   2.700  0.00  0.00     0.113 C 
ATOM      3  C   UNL d   1       4.420   0.039   1.795  0.00  0.00     0.106 C 
ATOM      4  N   UNL d   1       5.572  -0.109   1.875  0.00  0.00    -0.191 NA
ENDROOT
BRANCH   1   5
ATOM      5  C   UNL d   1       2.341  -0.277   0.393  0.00  0.00     0.268 C 
ATOM      6  N   UNL d   1       3.115  -1.076  -0.438  0.00  0.00    -0.320 N 
ATOM      7  H   UNL d   1       3.923  -1.529  -0.028  0.00  0.00     0.169 HD
ATOM      8  O   UNL d   1       1.161  -0.001   0.197  0.00  0.00    -0.266 OA
BRANCH   6   9
ATOM      9  C   UNL d   1       2.574  -1.714  -1.578  0.00  0.00     0.069 A 
ATOM     10  C   UNL d   1       1.762  -1.082  -2.533  0.00  0.00     0.102 A 
ATOM     11  C   UNL d   1       1.121  -1.848  -3.514  0.00  0.00     0.039 A 
ATOM     12  C   UNL d   1       1.334  -3.224  -3.587  0.00  0.00     0.003 A 
ATOM     13  C   UNL d   1       2.217  -3.836  -2.701  0.00  0.00     0.002 A 
ATOM     14  C   UNL d   1       2.853  -3.081  -1.714  0.00  0.00     0.032 A 
BRANCH  10  15
ATOM     15  O   UNL d   1       1.487   0.265  -2.571  0.00  0.00    -0.307 OA
BRANCH  15  16
ATOM     16  C   UNL d   1       2.507   1.190  -2.665  0.00  0.00     0.098 A 
ATOM     17  C   UNL d   1       2.173   2.525  -2.374  0.00  0.00     0.069 A 
ATOM     18  C   UNL d   1       3.132   3.538  -2.450  0.00  0.00     0.050 A 
ATOM     19 CL   UNL d   1       0.565   2.974  -1.923  0.00  0.00    -0.081 Cl
ATOM     20  C   UNL d   1       4.433   3.223  -2.824  0.00  0.00     0.035 A 
ATOM     21  C   UNL d   1       4.780   1.909  -3.134  0.00  0.00     0.026 A 
ATOM     22 CL   UNL d   1       5.620   4.465  -2.916  0.00  0.00    -0.084 Cl
ATOM     23  C   UNL d   1       3.816   0.896  -3.069  0.00  0.00     0.041 A 
ENDBRANCH  15  16
ENDBRANCH  10  15
ENDBRANCH   6   9
ENDBRANCH   1   5
BRANCH   2  24
ATOM     24  N   UNL d   1       2.547   0.890   3.993  0.00  0.00    -0.397 N 
ATOM     25  C   UNL d   1       3.662   1.776   4.324  0.00  0.00     0.148 C 
ATOM     26  C   UNL d   1       1.734   0.479   5.138  0.00  0.00     0.148 C 
ENDBRANCH   2  24
TORSDOF 5
