REMARK  7 active torsions:
REMARK  status: ('A' for Active; 'I' for Inactive)
REMARK    1  A    between atoms: C_11  and  C_1 
REMARK    2  A    between atoms: S_2  and  N_7 
REMARK    3  A    between atoms: C_8  and  S_2 
REMARK    4  A    between atoms: N_7  and  C_3 
REMARK    5  A    between atoms: C_19  and  C_5 
REMARK    6  A    between atoms: C_9  and  C_12 
REMARK    7  A    between atoms: C_10  and  C_13 
REMARK       I    between atoms: N_29  and  C_11 
ROOT
ATOM      1  N   UNL d   1       2.393   1.734  -0.006  0.00  0.00    -0.279 N 
ATOM      2  H   UNL d   1       2.958   1.775   0.843  0.00  0.00     0.179 HD
ENDROOT
BRANCH   1   3
ATOM      3  S   UNL d   1       3.381   1.965  -1.353  0.00  0.00     0.263 S 
ATOM      4  O   UNL d   1       4.557   2.666  -0.880  0.00  0.00    -0.200 OA
ATOM      5  O   UNL d   1       3.505   0.714  -2.070  0.00  0.00    -0.200 OA
BRANCH   3   6
ATOM      6  C   UNL d   1       2.451   3.100  -2.363  0.00  0.00     0.081 A 
ATOM      7  C   UNL d   1       2.517   4.477  -2.120  0.00  0.00     0.041 A 
ATOM      8  C   UNL d   1       1.860   5.374  -2.978  0.00  0.00     0.050 A 
ATOM      9  C   UNL d   1       1.145   4.865  -4.079  0.00  0.00     0.032 A 
ATOM     10  C   UNL d   1       1.095   3.485  -4.344  0.00  0.00     0.050 A 
ATOM     11  C   UNL d   1       1.751   2.605  -3.471  0.00  0.00     0.041 A 
BRANCH   8  12
ATOM     12  C   UNL d   1       1.935   6.870  -2.769  0.00  0.00     0.417 C 
ATOM     13  F   UNL d   1       2.693   7.240  -1.701  0.00  0.00    -0.166 F 
ATOM     14  F   UNL d   1       2.473   7.508  -3.847  0.00  0.00    -0.166 F 
ATOM     15  F   UNL d   1       0.710   7.434  -2.579  0.00  0.00    -0.166 F 
ENDBRANCH   8  12
BRANCH  10  16
ATOM     16  C   UNL d   1       0.372   2.977  -5.570  0.00  0.00     0.417 C 
ATOM     17  F   UNL d   1       0.490   1.633  -5.753  0.00  0.00    -0.166 F 
ATOM     18  F   UNL d   1      -0.964   3.235  -5.529  0.00  0.00    -0.166 F 
ATOM     19  F   UNL d   1       0.832   3.553  -6.715  0.00  0.00    -0.166 F 
ENDBRANCH  10  16
ENDBRANCH   3   6
ENDBRANCH   1   3
BRANCH   1  20
ATOM     20  C   UNL d   1       1.297   0.856  -0.027  0.00  0.00     0.066 A 
ATOM     21  C   UNL d   1      -0.030   1.246   0.025  0.00  0.00     0.100 A 
ATOM     22  S   UNL d   1      -1.074  -0.109  -0.023  0.00  0.00    -0.082 SA
ATOM     23  C   UNL d   1       0.218  -1.234   0.008  0.00  0.00     0.018 A 
ATOM     24  C   UNL d   1       1.431  -0.570  -0.018  0.00  0.00     0.051 A 
BRANCH  21  25
ATOM     25  C   UNL d   1      -0.573   2.594   0.111  0.00  0.00     0.258 C 
ATOM     26  O   UNL d   1       0.098   3.623   0.096  0.00  0.00    -0.267 OA
ATOM     27  N   UNL d   1      -1.932   2.703   0.234  0.00  0.00    -0.365 N 
ATOM     28  H   UNL d   1      -2.533   1.892   0.283  0.00  0.00     0.159 HD
ATOM     29  H   UNL d   1      -2.330   3.626   0.339  0.00  0.00     0.159 HD
ENDBRANCH  21  25
BRANCH  23  30
ATOM     30  C   UNL d   1      -0.074  -2.680   0.018  0.00  0.00    -0.019 A 
ATOM     31  C   UNL d   1       0.751  -3.579  -0.674  0.00  0.00     0.014 A 
ATOM     32  C   UNL d   1       0.461  -4.950  -0.698  0.00  0.00     0.024 A 
ATOM     33  C   UNL d   1      -0.659  -5.436  -0.028  0.00  0.00     0.034 A 
ATOM     34  C   UNL d   1      -1.484  -4.567   0.676  0.00  0.00     0.024 A 
ATOM     35 CL   UNL d   1      -1.028  -7.115  -0.072  0.00  0.00    -0.084 Cl
ATOM     36  C   UNL d   1      -1.188  -3.200   0.704  0.00  0.00     0.014 A 
ENDBRANCH  23  30
ENDBRANCH   1  20
TORSDOF 7
