REMARK  2 active torsions:
REMARK  status: ('A' for Active; 'I' for Inactive)
REMARK    1  A    between atoms: N_9  and  C_3 
REMARK    2  A    between atoms: C_14  and  N_9 
ROOT
ATOM      1  C   UNL d   1       0.133  -0.714   0.178  0.00  0.00     0.075 A 
ATOM      2  S   UNL d   1      -1.427  -1.377   0.488  0.00  0.00    -0.095 SA
ATOM      3  C   UNL d   1       1.360  -1.362  -0.016  0.00  0.00     0.121 A 
ATOM      4  C   UNL d   1       0.065   0.672   0.068  0.00  0.00     0.060 A 
ATOM      5  C   UNL d   1      -1.278   1.175   0.166  0.00  0.00    -0.027 A 
ATOM      6  C   UNL d   1      -2.177   0.152   0.394  0.00  0.00     0.059 A 
ATOM      7  N   UNL d   1       2.438  -0.591  -0.268  0.00  0.00    -0.338 N 
ATOM      8  HN  UNL d   1       3.350  -1.015  -0.439  1.00  0.00     0.168 HD
ATOM      9  N   UNL d   1       1.164   1.437  -0.147  0.00  0.00    -0.351 N 
ATOM     10  HN  UNL d   1       1.131   2.455  -0.196  1.00  0.00     0.166 HD
ATOM     11  C   UNL d   1       2.293   0.739  -0.290  0.00  0.00     0.182 A 
ATOM     12  C   UNL d   1      -1.659   2.607   0.004  0.00  0.00     0.051 C 
ENDROOT
BRANCH   3  13
ATOM     13  N   UNL d   1       1.468  -2.744  -0.006  0.00  0.00    -0.371 N 
ATOM     14  H   UNL d   1       1.025  -3.200   0.777  0.00  0.00     0.161 HD
BRANCH  13  15
ATOM     15  C   UNL d   1       2.624  -3.378  -0.626  0.00  0.00     0.075 C 
ATOM     16  C   UNL d   1       3.802  -3.470   0.334  0.00  0.00     0.031 C 
ATOM     17  C   UNL d   1       2.200  -4.774  -1.084  0.00  0.00     0.031 C 
ENDBRANCH  13  15
ENDBRANCH   3  13
TORSDOF 2
