REMARK  3 active torsions:
REMARK  status: ('A' for Active; 'I' for Inactive)
REMARK    1  A    between atoms: C_8  and  C_14 
REMARK    2  A    between atoms: C_11  and  C_8 
REMARK    3  A    between atoms: C_14  and  N_9 
ROOT
ATOM      1  C   UNL d   1       2.861  -0.906   0.202  0.00  0.00     0.148 A 
ATOM      2  N   UNL d   1       1.799  -1.229  -0.511  0.00  0.00    -0.335 N 
ATOM      3  HN  UNL d   1       1.755  -2.029  -1.142  1.00  0.00     0.168 HD
ATOM      4  S   UNL d   1       2.635   0.524   1.154  0.00  0.00    -0.052 SA
ATOM      5  N   UNL d   1       4.019  -1.617   0.165  0.00  0.00    -0.358 N 
ATOM      6  C   UNL d   1       0.754  -0.353  -0.300  0.00  0.00     0.053 A 
ATOM      7  C   UNL d   1       1.026   0.693   0.579  0.00  0.00     0.035 A 
ATOM      8  N   UNL d   1       5.674  -4.003   0.714  0.00  0.00     0.099 N 
ATOM      9  C   UNL d   1      -0.523  -0.435  -0.890  0.00  0.00     0.054 A 
ATOM     10  C   UNL d   1       4.224  -2.623  -0.881  0.00  0.00     0.155 C 
ATOM     11  C   UNL d   1       5.073  -1.532   1.176  0.00  0.00     0.155 C 
ATOM     12  C   UNL d   1       0.071   1.677   0.886  0.00  0.00     0.023 A 
ATOM     13  C   UNL d   1      -1.481   0.533  -0.583  0.00  0.00     0.036 A 
ATOM     14  C   UNL d   1       5.421  -2.944   1.726  0.00  0.00     0.292 C 
ATOM     15  C   UNL d   1       4.540  -3.994  -0.249  0.00  0.00     0.292 C 
ATOM     16  C   UNL d   1      -1.190   1.578   0.288  0.00  0.00     0.025 A 
ATOM     17 CL   UNL d   1      -3.046   0.431  -1.295  0.00  0.00    -0.084 Cl
ENDROOT
BRANCH   8  18
ATOM     18  C   UNL d   1       6.986  -3.794   0.069  0.00  0.00     0.356 C 
BRANCH  18  19
ATOM     19  C   UNL d   1       7.265  -4.801  -1.044  0.00  0.00     0.187 C 
ATOM     20  O   UNL d   1       7.277  -4.435  -2.222  0.00  0.00    -0.290 OA
BRANCH  19  21
ATOM     21  C   UNL d   1       7.542  -6.235  -0.723  0.00  0.00     0.014 A 
ATOM     22  C   UNL d   1       7.896  -7.091  -1.776  0.00  0.00     0.054 A 
ATOM     23  C   UNL d   1       8.141  -8.447  -1.541  0.00  0.00     0.102 A 
ATOM     24  O   UNL d   1       8.360  -9.207  -2.664  0.00  0.00    -0.348 OA
ATOM     25  C   UNL d   1       8.129  -8.943  -0.231  0.00  0.00     0.102 A 
ATOM     26  C   UNL d   1       7.707 -10.479  -2.587  0.00  0.00     0.178 C 
ATOM     27  C   UNL d   1       8.602 -11.503  -1.911  0.00  0.00     0.053 C 
ATOM     28  C   UNL d   1       9.349 -10.898  -0.734  0.00  0.00     0.178 C 
ATOM     29  O   UNL d   1       8.447 -10.223   0.147  0.00  0.00    -0.348 OA
ATOM     30  C   UNL d   1       7.737  -8.102   0.812  0.00  0.00     0.040 A 
ATOM     31  C   UNL d   1       7.436  -6.756   0.571  0.00  0.00     0.018 A 
ENDBRANCH  19  21
ENDBRANCH  18  19
ENDBRANCH   8  18
TORSDOF 3
