REMARK  6 active torsions:
REMARK  status: ('A' for Active; 'I' for Inactive)
REMARK    1  A    between atoms: C_3  and  C_1 
REMARK    2  A    between atoms: C_2  and  C_4 
REMARK    3  A    between atoms: C_8  and  C_10 
REMARK    4  A    between atoms: S_12  and  C_9 
REMARK    5  A    between atoms: C_10  and  C_14 
REMARK    6  A    between atoms: C_14  and  S_12 
ROOT
ATOM      1  C   UNL d   1       0.179  -6.668  -0.145  0.00  0.00     0.164 C 
ENDROOT
BRANCH   1   2
ATOM      2  C   UNL d   1      -0.327  -8.093  -0.129  0.00  0.00     0.169 C 
ATOM      3  O   UNL d   1      -0.270  -8.789   0.886  0.00  0.00    -0.291 OA
BRANCH   2   4
ATOM      4  C   UNL d   1      -0.867  -8.699  -1.383  0.00  0.00     0.011 A 
ATOM      5  C   UNL d   1      -1.475  -7.936  -2.387  0.00  0.00     0.031 A 
ATOM      6  C   UNL d   1      -2.048  -8.560  -3.511  0.00  0.00     0.048 A 
ATOM      7  C   UNL d   1      -1.963  -9.956  -3.635  0.00  0.00     0.016 A 
ATOM      8  C   UNL d   1      -1.336 -10.717  -2.649  0.00  0.00     0.002 A 
ATOM      9  C   UNL d   1      -0.802 -10.092  -1.522  0.00  0.00     0.015 A 
BRANCH   6  10
ATOM     10  C   UNL d   1      -2.789  -7.759  -4.554  0.00  0.00     0.417 C 
ATOM     11  F   UNL d   1      -2.787  -6.418  -4.312  0.00  0.00    -0.166 F 
ATOM     12  F   UNL d   1      -2.269  -7.914  -5.802  0.00  0.00    -0.166 F 
ATOM     13  F   UNL d   1      -4.100  -8.118  -4.646  0.00  0.00    -0.166 F 
ENDBRANCH   6  10
ENDBRANCH   2   4
ENDBRANCH   1   2
BRANCH   1  14
ATOM     14  S   UNL d   1      -1.141  -5.503   0.314  0.00  0.00    -0.104 SA
BRANCH  14  15
ATOM     15  C   UNL d   1      -0.261  -3.966   0.105  0.00  0.00     0.069 A 
ATOM     16  C   UNL d   1      -0.926  -2.761   0.292  0.00  0.00     0.038 A 
ATOM     17  C   UNL d   1      -0.229  -1.569   0.083  0.00  0.00     0.020 A 
ATOM     18  C   UNL d   1       1.113  -1.609  -0.304  0.00  0.00     0.063 A 
ATOM     19  C   UNL d   1       1.695  -2.858  -0.446  0.00  0.00     0.105 A 
ATOM     20  N   UNL d   1       1.040  -4.025  -0.257  0.00  0.00    -0.360 N 
ATOM     21  HN  UNL d   1       1.511  -4.920  -0.384  1.00  0.00     0.166 HD
BRANCH  18  22
ATOM     22  C   UNL d   1       1.902  -0.365  -0.577  0.00  0.00     0.418 C 
ATOM     23  F   UNL d   1       3.184  -0.610  -0.969  0.00  0.00    -0.166 F 
ATOM     24  F   UNL d   1       1.992   0.448   0.509  0.00  0.00    -0.166 F 
ATOM     25  F   UNL d   1       1.350   0.389  -1.567  0.00  0.00    -0.166 F 
ENDBRANCH  18  22
ENDBRANCH  14  15
ENDBRANCH   1  14
TORSDOF 6
