REMARK  7 active torsions:
REMARK  status: ('A' for Active; 'I' for Inactive)
REMARK    1  A    between atoms: C_7  and  C_1 
REMARK       I    between atoms: C_8  and  N_9 
REMARK    2  A    between atoms: C_23  and  C_8 
REMARK    3  A    between atoms: N_9  and  C_17 
REMARK    4  A    between atoms: C_10  and  C_24 
REMARK    5  A    between atoms: O_19  and  C_10 
REMARK    6  A    between atoms: C_25  and  C_23 
REMARK    7  A    between atoms: C_24  and  C_25 
ROOT
ATOM      1  C   UNL d   1      -3.900  -0.785   0.002  0.00  0.00    -0.002 A 
ATOM      2  C   UNL d   1      -4.655  -0.283  -1.072  0.00  0.00     0.016 A 
ATOM      3  C   UNL d   1      -4.573  -1.562   0.952  0.00  0.00     0.016 A 
ATOM      4  C   UNL d   1      -6.696  -1.274  -0.193  0.00  0.00     0.034 A 
ATOM      5  C   UNL d   1      -6.036  -0.531  -1.175  0.00  0.00     0.030 A 
ATOM      6  C   UNL d   1      -5.944  -1.807   0.852  0.00  0.00     0.030 A 
ENDROOT
BRANCH   1   7
ATOM      7  C   UNL d   1      -2.455  -0.486   0.102  0.00  0.00     0.085 A 
ATOM      8  N   UNL d   1      -1.772   0.211  -0.786  0.00  0.00    -0.349 N 
ATOM      9  C   UNL d   1      -0.445   0.323  -0.398  0.00  0.00     0.050 A 
ATOM     10  HN  UNL d   1      -2.165   0.612  -1.638  1.00  0.00     0.166 HD
ATOM     11  C   UNL d   1       0.572   0.998  -1.101  0.00  0.00     0.031 A 
ATOM     12  C   UNL d   1      -0.118  -0.299   0.804  0.00  0.00     0.034 A 
ATOM     13  C   UNL d   1       1.874   1.029  -0.583  0.00  0.00     0.009 A 
ATOM     14  C   UNL d   1       2.184   0.399   0.625  0.00  0.00    -0.061 A 
ATOM     15  C   UNL d   1       1.182  -0.277   1.335  0.00  0.00     0.028 A 
ATOM     16  C   UNL d   1       3.586   0.449   1.159  0.00  0.00     0.048 C 
ATOM     17  S   UNL d   1      -1.522  -1.036   1.447  0.00  0.00    -0.070 SA
ENDBRANCH   1   7
BRANCH   4  18
ATOM     18  N   UNL d   1      -8.093  -1.456  -0.293  0.00  0.00    -0.327 N 
ATOM     19  C   UNL d   1      -8.913  -1.913   0.726  0.00  0.00     0.222 C 
ATOM     20  O   UNL d   1      -8.574  -2.168   1.879  0.00  0.00    -0.273 OA
ATOM     21  H   UNL d   1      -8.543  -1.074  -1.121  0.00  0.00     0.169 HD
BRANCH  19  22
ATOM     22  C   UNL d   1     -10.372  -2.029   0.341  0.00  0.00     0.103 C 
BRANCH  22  23
ATOM     23  C   UNL d   1     -11.227  -1.095   1.204  0.00  0.00     0.019 C 
BRANCH  23  24
ATOM     24  C   UNL d   1     -10.913   0.386   1.004  0.00  0.00     0.110 C 
BRANCH  24  25
ATOM     25  C   UNL d   1     -11.187   0.806  -0.413  0.00  0.00     0.139 C 
ATOM     26  O   UNL d   1     -10.365   0.696  -1.317  0.00  0.00    -0.650 OA
BRANCH  25  27
ATOM     27  O   UNL d   1     -12.449   1.234  -0.621  0.00  0.00    -0.776 OA
ATOM     28  H   UNL d   1     -13.005   1.236   0.182  0.00  0.00     0.167 HD
ENDBRANCH  25  27
ENDBRANCH  24  25
ENDBRANCH  23  24
ENDBRANCH  22  23
ENDBRANCH  19  22
ENDBRANCH   4  18
TORSDOF 7
