REMARK  3 active torsions:
REMARK  status: ('A' for Active; 'I' for Inactive)
REMARK    1  A    between atoms: C_3  and  C_1 
REMARK    2  A    between atoms: C_14  and  C_2 
REMARK    3  A    between atoms: O_17  and  C_14 
ROOT
ATOM      1  C   UNL d   1       0.676  -1.292   0.006  0.00  0.00     0.089 A 
ATOM      2  C   UNL d   1      -0.723  -1.332   0.066  0.00  0.00     0.092 A 
ATOM      3  N   UNL d   1       0.985   0.047  -0.106  0.00  0.00    -0.294 N 
ATOM      4  N   UNL d   1      -0.087   0.854  -0.079  0.00  0.00    -0.302 N 
ATOM      5  HN  UNL d   1      -0.099   1.874  -0.109  1.00  0.00     0.186 HD
ATOM      6  C   UNL d   1      -1.132   0.031  -0.005  0.00  0.00     0.040 A 
ATOM      7  C   UNL d   1       2.265   0.690  -0.300  0.00  0.00     0.178 C 
ATOM      8  C   UNL d   1      -2.494   0.629   0.019  0.00  0.00     0.071 C 
ENDROOT
BRANCH   1   9
ATOM      9  C   UNL d   1       1.635  -2.372  -0.039  0.00  0.00     0.076 A 
ATOM     10  C   UNL d   1       2.872  -2.565   0.575  0.00  0.00     0.043 A 
ATOM     11  N   UNL d   1       3.513  -3.759   0.247  0.00  0.00    -0.298 N 
ATOM     12  C   UNL d   1       3.615  -1.679   1.508  0.00  0.00     0.071 C 
ATOM     13  N   UNL d   1       2.810  -4.489  -0.595  0.00  0.00    -0.269 N 
ATOM     14  HN  UNL d   1       4.422  -4.036   0.617  1.00  0.00     0.187 HD
ATOM     15  S   UNL d   1       1.379  -3.765  -1.036  0.00  0.00     0.006 SA
ATOM     16  HN  UNL d   1       3.111  -5.401  -0.939  1.00  0.00     0.195 HD
ENDBRANCH   1   9
BRANCH   2  17
ATOM     17  C   UNL d   1      -1.566  -2.514   0.174  0.00  0.00     0.297 C 
ATOM     18  O   UNL d   1      -1.238  -3.516   0.789  0.00  0.00    -0.259 OA
BRANCH  17  19
ATOM     19  O   UNL d   1      -2.733  -2.385  -0.520  0.00  0.00    -0.322 OA
ATOM     20  C   UNL d   1      -3.557  -3.551  -0.516  0.00  0.00     0.213 C 
ENDBRANCH  17  19
ENDBRANCH   2  17
TORSDOF 3
