REMARK  3 active torsions:
REMARK  status: ('A' for Active; 'I' for Inactive)
REMARK    1  A    between atoms: C_8  and  C_7 
REMARK    2  A    between atoms: O_14  and  C_9 
REMARK    3  A    between atoms: O_15  and  C_13 
ROOT
ATOM      1  C   UNL d   1       1.248   0.063  -0.810  0.00  0.00     0.101 C 
ATOM      2  N   UNL d   1      -0.828  -1.121  -1.096  0.00  0.00    -0.275 N 
ATOM      3  N   UNL d   1      -0.709   1.105  -1.723  0.00  0.00    -0.275 N 
ATOM      4  C   UNL d   1       0.477  -1.202  -0.698  0.00  0.00     0.265 C 
ATOM      5  C   UNL d   1       0.632   1.226  -1.493  0.00  0.00     0.265 C 
ATOM      6  C   UNL d   1      -1.468  -0.003  -1.516  0.00  0.00     0.329 C 
ATOM      7  C   UNL d   1       2.433   0.093  -0.182  0.00  0.00     0.037 C 
ATOM      8  O   UNL d   1       1.243   2.218  -1.865  0.00  0.00    -0.267 OA
ATOM      9  O   UNL d   1       0.937  -2.239  -0.232  0.00  0.00    -0.267 OA
ATOM     10  O   UNL d   1      -2.677   0.005  -1.712  0.00  0.00    -0.246 OA
ATOM     11  H   UNL d   1      -1.395  -1.942  -0.947  0.00  0.00     0.173 HD
ATOM     12  H   UNL d   1      -1.171   1.906  -2.131  0.00  0.00     0.173 HD
ENDROOT
BRANCH   7  13
ATOM     13  C   UNL d   1       3.279   1.273   0.041  0.00  0.00     0.001 A 
ATOM     14  C   UNL d   1       3.123   2.152   1.142  0.00  0.00     0.111 A 
ATOM     15  C   UNL d   1       3.960   3.285   1.229  0.00  0.00     0.102 A 
ATOM     16  C   UNL d   1       4.928   3.512   0.238  0.00  0.00     0.040 A 
ATOM     17  C   UNL d   1       5.075   2.647  -0.840  0.00  0.00     0.004 A 
ATOM     18  C   UNL d   1       4.256   1.528  -0.935  0.00  0.00     0.014 A 
BRANCH  14  19
ATOM     19  O   UNL d   1       2.113   2.041   2.064  0.00  0.00    -0.352 OA
ATOM     20  C   UNL d   1       1.823   0.764   2.617  0.00  0.00     0.210 C 
ENDBRANCH  14  19
BRANCH  15  21
ATOM     21  O   UNL d   1       3.979   4.272   2.182  0.00  0.00    -0.353 OA
ATOM     22  C   UNL d   1       3.104   4.184   3.295  0.00  0.00     0.210 C 
ENDBRANCH  15  21
ENDBRANCH   7  13
TORSDOF 3
