REMARK  6 active torsions:
REMARK  status: ('A' for Active; 'I' for Inactive)
REMARK    1  A    between atoms: C_2  and  C_1 
REMARK       I    between atoms: N_4  and  C_2 
REMARK    2  A    between atoms: C_3  and  C_9 
REMARK    3  A    between atoms: C_11  and  N_4 
REMARK    4  A    between atoms: O_8  and  C_5 
REMARK    5  A    between atoms: C_9  and  O_8 
REMARK    6  A    between atoms: O_23  and  C_15 
ROOT
ATOM      1  C   UNL d   1       1.459  -0.244  -0.117  0.00  0.00     0.068 A 
ATOM      2  C   UNL d   1       0.653  -1.392  -0.009  0.00  0.00     0.085 A 
ATOM      3  C   UNL d   1       0.840   1.018  -0.212  0.00  0.00     0.056 A 
ATOM      4  C   UNL d   1      -0.744  -1.241   0.027  0.00  0.00     0.040 A 
ATOM      5  C   UNL d   1      -0.549   1.151  -0.159  0.00  0.00     0.069 A 
ATOM      6  C   UNL d   1      -1.345   0.018  -0.053  0.00  0.00     0.039 A 
ENDROOT
BRANCH   1   7
ATOM      7  C   UNL d   1       2.939  -0.262   0.066  0.00  0.00     0.259 C 
ATOM      8  N   UNL d   1       3.669   0.649  -0.683  0.00  0.00    -0.323 N 
ATOM      9  H   UNL d   1       3.159   1.254  -1.314  0.00  0.00     0.169 HD
ATOM     10  O   UNL d   1       3.405  -1.035   0.896  0.00  0.00    -0.267 OA
BRANCH   8  11
ATOM     11  C   UNL d   1       5.057   0.907  -0.575  0.00  0.00     0.035 A 
ATOM     12  C   UNL d   1       5.944   0.115   0.160  0.00  0.00     0.031 A 
ATOM     13  C   UNL d   1       7.296   0.463   0.266  0.00  0.00     0.026 A 
ATOM     14  C   UNL d   1       7.769   1.610  -0.361  0.00  0.00     0.034 A 
ATOM     15  C   UNL d   1       6.906   2.399  -1.116  0.00  0.00     0.026 A 
ATOM     16 CL   UNL d   1       9.421   2.058  -0.198  0.00  0.00    -0.084 Cl
ATOM     17  C   UNL d   1       5.556   2.042  -1.229  0.00  0.00     0.031 A 
ENDBRANCH   8  11
ENDBRANCH   1   7
BRANCH   2  18
ATOM     18  O   UNL d   1       1.032  -2.699   0.147  0.00  0.00    -0.341 OA
BRANCH  18  19
ATOM     19  C   UNL d   1       2.162  -3.172  -0.598  0.00  0.00     0.293 C 
BRANCH  19  20
ATOM     20  C   UNL d   1       1.964  -4.614  -1.065  0.00  0.00     0.408 C 
ATOM     21  F   UNL d   1       0.722  -5.085  -0.820  0.00  0.00    -0.169 F 
ATOM     22  F   UNL d   1       2.172  -4.715  -2.401  0.00  0.00    -0.169 F 
ATOM     23  F   UNL d   1       2.842  -5.452  -0.464  0.00  0.00    -0.169 F 
ENDBRANCH  19  20
ENDBRANCH  18  19
ENDBRANCH   2  18
BRANCH   5  24
ATOM     24  O   UNL d   1      -1.016   2.435  -0.216  0.00  0.00    -0.356 OA
ATOM     25  C   UNL d   1      -2.200   2.679   0.541  0.00  0.00     0.210 C 
ENDBRANCH   5  24
TORSDOF 6
