REMARK  2 active torsions:
REMARK  status: ('A' for Active; 'I' for Inactive)
REMARK    1  A    between atoms: C_7  and  C_1 
REMARK    2  A    between atoms: O_13  and  C_4 
ROOT
ATOM      1  C   UNL d   1      -0.645   1.087  -0.001  0.00  0.00     0.192 A 
ATOM      2  N   UNL d   1      -1.347  -0.066   0.003  0.00  0.00    -0.319 N 
ATOM      3  HN  UNL d   1      -2.367  -0.082   0.006  1.00  0.00     0.169 HD
ATOM      4  C   UNL d   1      -0.617  -1.184   0.004  0.00  0.00     0.149 A 
ATOM      5  N   UNL d   1       0.711   1.127  -0.006  0.00  0.00    -0.342 N 
ATOM      6  HN  UNL d   1       1.203   2.020  -0.010  1.00  0.00     0.167 HD
ATOM      7  C   UNL d   1       0.761  -1.269   0.001  0.00  0.00     0.011 A 
ATOM      8  C   UNL d   1       1.401  -0.042  -0.006  0.00  0.00     0.017 A 
ATOM      9  C   UNL d   1       1.421  -2.609   0.004  0.00  0.00     0.055 C 
ATOM     10  C   UNL d   1       2.890   0.139  -0.011  0.00  0.00     0.069 C 
ENDROOT
BRANCH   1  11
ATOM     11  C   UNL d   1      -1.407   2.419   0.005  0.00  0.00     0.449 C 
ATOM     12  F   UNL d   1      -2.768   2.275   0.010  0.00  0.00    -0.163 F 
ATOM     13  F   UNL d   1      -1.125   3.195   1.095  0.00  0.00    -0.163 F 
ATOM     14  F   UNL d   1      -1.134   3.199  -1.084  0.00  0.00    -0.163 F 
ENDBRANCH   1  11
BRANCH   4  15
ATOM     15  O   UNL d   1      -1.378  -2.311   0.008  0.00  0.00    -0.346 OA
ATOM     16  H   UNL d   1      -2.273  -1.928   0.009  0.00  0.00     0.219 HD
ENDBRANCH   4  15
TORSDOF 2
