REMARK  6 active torsions:
REMARK  status: ('A' for Active; 'I' for Inactive)
REMARK    1  A    between atoms: C_3  and  S_1 
REMARK    2  A    between atoms: C_7  and  S_1 
REMARK    3  A    between atoms: C_2  and  C_4 
REMARK    4  A    between atoms: C_18  and  C_7 
REMARK    5  A    between atoms: C_11  and  O_19 
REMARK    6  A    between atoms: O_19  and  C_18 
ROOT
ATOM      1  C   UNL d   1       0.251  -0.337   1.720  0.00  0.00     0.128 A 
ATOM      2  C   UNL d   1      -0.978  -0.760   4.114  0.00  0.00     0.063 A 
ATOM      3  N   UNL d   1      -0.490   0.680   2.228  0.00  0.00    -0.356 N 
ATOM      4  HN  UNL d   1      -0.595   1.570   1.740  1.00  0.00     0.166 HD
ATOM      5  C   UNL d   1      -1.083   0.441   3.420  0.00  0.00     0.105 A 
ATOM      6  C   UNL d   1      -0.188  -1.775   3.553  0.00  0.00     0.020 A 
ATOM      7  C   UNL d   1       0.445  -1.565   2.332  0.00  0.00     0.042 A 
ENDROOT
BRANCH   1   8
ATOM      8  S   UNL d   1       0.970  -0.028   0.120  0.00  0.00     0.193 S 
ATOM      9  O   UNL d   1       0.359  -0.974  -0.796  0.00  0.00    -0.221 OA
ATOM     10  O   UNL d   1       2.410  -0.004   0.321  0.00  0.00    -0.221 OA
BRANCH   8  11
ATOM     11  C   UNL d   1       0.424   1.605  -0.327  0.00  0.00     0.174 C 
BRANCH  11  12
ATOM     12  C   UNL d   1       0.921   1.993  -1.708  0.00  0.00     0.194 C 
BRANCH  12  13
ATOM     13  O   UNL d   1       2.354   2.082  -1.776  0.00  0.00    -0.321 OA
BRANCH  13  14
ATOM     14  C   UNL d   1       2.922   3.168  -1.191  0.00  0.00     0.254 C 
ATOM     15  O   UNL d   1       2.304   4.081  -0.664  0.00  0.00    -0.266 OA
ATOM     16  C   UNL d   1       4.415   3.087  -1.246  0.00  0.00     0.126 C 
ENDBRANCH  13  14
ENDBRANCH  12  13
ENDBRANCH  11  12
ENDBRANCH   8  11
ENDBRANCH   1   8
BRANCH   2  17
ATOM     17  C   UNL d   1      -1.711  -0.962   5.407  0.00  0.00     0.418 C 
ATOM     18  F   UNL d   1      -2.414   0.132   5.809  0.00  0.00    -0.166 F 
ATOM     19  F   UNL d   1      -2.613  -1.978   5.335  0.00  0.00    -0.166 F 
ATOM     20  F   UNL d   1      -0.879  -1.272   6.438  0.00  0.00    -0.166 F 
ENDBRANCH   2  17
TORSDOF 6
