REMARK  4 active torsions:
REMARK  status: ('A' for Active; 'I' for Inactive)
REMARK    1  A    between atoms: N_11  and  C_5 
REMARK       I    between atoms: C_12  and  N_11 
REMARK    2  A    between atoms: C_18  and  C_12 
REMARK    3  A    between atoms: C_13  and  O_19 
REMARK    4  A    between atoms: O_19  and  C_27 
ROOT
ATOM      1  C   UNL d   1       1.311  -0.694  -0.058  0.00  0.00     0.091 A 
ATOM      2  C   UNL d   1       0.683   0.531  -0.179  0.00  0.00     0.063 A 
ATOM      3  N   UNL d   1       2.638  -0.941   0.036  0.00  0.00    -0.330 N 
ATOM      4  HN  UNL d   1       2.988  -1.839   0.370  1.00  0.00     0.168 HD
ATOM      5  C   UNL d   1       3.446   0.009  -0.317  0.00  0.00     0.155 C 
ATOM      6  C   UNL d   1       1.453   1.742  -0.318  0.00  0.00     0.230 C 
ATOM      7  S   UNL d   1       3.024   1.535  -1.028  0.00  0.00    -0.011 SA
ATOM      8  C   UNL d   1      -0.738   0.425  -0.106  0.00  0.00    -0.024 A 
ATOM      9  C   UNL d   1      -1.146  -0.887   0.015  0.00  0.00     0.020 A 
ATOM     10  S   UNL d   1       0.165  -1.968   0.071  0.00  0.00    -0.074 SA
ATOM     11  N   UNL d   1      -3.492  -0.217   0.462  0.00  0.00     0.089 N 
ATOM     12  C   UNL d   1      -2.584  -1.325   0.073  0.00  0.00     0.318 C 
ATOM     13  C   UNL d   1      -1.735   1.548  -0.115  0.00  0.00     0.071 C 
ATOM     14  O   UNL d   1       1.021   2.852  -0.041  0.00  0.00    -0.279 OA
ATOM     15  C   UNL d   1      -3.174   1.015  -0.296  0.00  0.00     0.277 C 
ATOM     16  C   UNL d   1      -3.465   0.013   1.907  0.00  0.00     0.310 C 
ENDROOT
BRANCH   5  17
ATOM     17  N   UNL d   1       4.787  -0.253  -0.098  0.00  0.00    -0.303 N 
ATOM     18  C   UNL d   1       5.908   0.557  -0.267  0.00  0.00     0.257 C 
ATOM     19  O   UNL d   1       5.930   1.655  -0.808  0.00  0.00    -0.267 OA
ATOM     20  H   UNL d   1       4.925  -1.176   0.286  0.00  0.00     0.171 HD
BRANCH  18  21
ATOM     21  C   UNL d   1       7.193   0.000   0.222  0.00  0.00     0.032 A 
ATOM     22  C   UNL d   1       8.363   0.354  -0.463  0.00  0.00     0.020 A 
ATOM     23  C   UNL d   1       9.611  -0.111  -0.033  0.00  0.00     0.038 A 
ATOM     24  C   UNL d   1       9.700  -0.902   1.110  0.00  0.00     0.078 A 
ATOM     25  C   UNL d   1       8.527  -1.262   1.787  0.00  0.00     0.038 A 
ATOM     26  C   UNL d   1       7.277  -0.809   1.357  0.00  0.00     0.020 A 
BRANCH  24  27
ATOM     27  O   UNL d   1      10.840  -1.377   1.686  0.00  0.00    -0.255 OA
BRANCH  27  28
ATOM     28  C   UNL d   1      12.090  -0.865   1.254  0.00  0.00     0.530 C 
ATOM     29  F   UNL d   1      12.059   0.468   1.045  0.00  0.00    -0.144 F 
ATOM     30  F   UNL d   1      13.005  -1.110   2.219  0.00  0.00    -0.144 F 
ATOM     31  F   UNL d   1      12.486  -1.489   0.125  0.00  0.00    -0.144 F 
ENDBRANCH  27  28
ENDBRANCH  24  27
ENDBRANCH  18  21
ENDBRANCH   5  17
TORSDOF 4
