REMARK  4 active torsions:
REMARK  status: ('A' for Active; 'I' for Inactive)
REMARK    1  A    between atoms: C_4  and  C_1 
REMARK    2  A    between atoms: C_7  and  C_1 
REMARK    3  A    between atoms: C_2  and  C_3 
REMARK       I    between atoms: N_14  and  C_4 
REMARK    4  A    between atoms: N_8  and  C_7 
ROOT
ATOM      1  C   UNL d   1       0.920   0.042   0.044  0.00  0.00     0.095 C 
ATOM      2  C   UNL d   1       0.203   0.825  -0.783  0.00  0.00     0.046 C 
ENDROOT
BRANCH   1   3
ATOM      3  C   UNL d   1       0.191  -0.843   0.994  0.00  0.00     0.258 C 
ATOM      4  O   UNL d   1      -1.034  -0.889   1.047  0.00  0.00    -0.267 OA
ATOM      5  N   UNL d   1       0.940  -1.612   1.832  0.00  0.00    -0.365 N 
ATOM      6  H   UNL d   1       1.951  -1.643   1.864  0.00  0.00     0.159 HD
ATOM      7  H   UNL d   1       0.439  -2.207   2.481  0.00  0.00     0.159 HD
ENDBRANCH   1   3
BRANCH   1   8
ATOM      8  C   UNL d   1       2.441   0.042   0.044  0.00  0.00    -0.031 C 
BRANCH   8   9
ATOM      9  N   UNL d   1       3.701   0.042   0.044  0.00  0.00    -0.365 N 
ATOM     10  HN2 UNL d   1       2.681   0.042   0.044  1.00  0.00     0.165 HD
ATOM     11  HN1 UNL d   1       4.721   0.042   0.044  1.00  0.00     0.165 HD
ENDBRANCH   8   9
ENDBRANCH   1   8
BRANCH   2  12
ATOM     12  C   UNL d   1       0.812   1.725  -1.700  0.00  0.00     0.007 A 
ATOM     13  C   UNL d   1       1.190   3.042  -1.500  0.00  0.00     0.038 A 
ATOM     14  C   UNL d   1       1.756   3.614  -2.666  0.00  0.00     0.018 A 
ATOM     15 BR   UNL d   1       2.367   5.398  -2.706  0.00  0.00    -0.051 Br
ATOM     16  C   UNL d   1       1.803   2.749  -3.728  0.00  0.00     0.069 A 
ATOM     17  S   UNL d   1       1.140   1.226  -3.314  0.00  0.00    -0.101 SA
ENDBRANCH   2  12
TORSDOF 4
