REMARK  6 active torsions:
REMARK  status: ('A' for Active; 'I' for Inactive)
REMARK    1  A    between atoms: N_2  and  S_1 
REMARK    2  A    between atoms: C_11  and  S_1 
REMARK    3  A    between atoms: C_3  and  C_10 
REMARK    4  A    between atoms: S_20  and  C_4 
REMARK    5  A    between atoms: C_15  and  C_6 
REMARK    6  A    between atoms: O_26  and  C_15 
ROOT
ATOM      1  N   UNL d   1       0.586  -0.409  -2.595  0.00  0.00    -0.188 N 
ATOM      2  N   UNL d   1      -0.040   0.177  -3.653  0.00  0.00    -0.284 N 
ATOM      3  HN  UNL d   1      -0.634  -0.266  -4.354  1.00  0.00     0.188 HD
ATOM      4  C   UNL d   1       0.305   1.468  -3.563  0.00  0.00     0.063 A 
ATOM      5  C   UNL d   1       1.198   1.696  -2.488  0.00  0.00     0.052 A 
ATOM      6  C   UNL d   1       1.399   0.464  -1.915  0.00  0.00     0.131 A 
ENDROOT
BRANCH   4   7
ATOM      7  C   UNL d   1      -0.228   2.526  -4.454  0.00  0.00     0.023 A 
ATOM      8  C   UNL d   1      -1.525   2.581  -4.943  0.00  0.00     0.054 A 
ATOM      9  S   UNL d   1      -1.798   3.987  -5.869  0.00  0.00    -0.076 SA
ATOM     10  C   UNL d   1      -0.189   4.531  -5.703  0.00  0.00     0.088 A 
ATOM     11  C   UNL d   1       0.576   3.644  -4.941  0.00  0.00    -0.024 A 
ATOM     12  C   UNL d   1       2.046   3.852  -4.707  0.00  0.00     0.050 C 
BRANCH   8  13
ATOM     13  S   UNL d   1      -2.858   1.438  -4.752  0.00  0.00    -0.126 SA
ATOM     14  C   UNL d   1      -3.412   1.835  -3.082  0.00  0.00     0.096 C 
ENDBRANCH   8  13
BRANCH  10  15
ATOM     15  C   UNL d   1       0.249   5.781  -6.325  0.00  0.00     0.300 C 
ATOM     16  O   UNL d   1       1.356   6.289  -6.182  0.00  0.00    -0.259 OA
BRANCH  15  17
ATOM     17  O   UNL d   1      -0.730   6.327  -7.108  0.00  0.00    -0.322 OA
ATOM     18  C   UNL d   1      -0.352   7.532  -7.775  0.00  0.00     0.213 C 
ENDBRANCH  15  17
ENDBRANCH  10  15
ENDBRANCH   4   7
BRANCH   1  19
ATOM     19  S   UNL d   1       0.332  -2.029  -2.043  0.00  0.00     0.285 S 
ATOM     20  O   UNL d   1      -1.103  -2.149  -1.872  0.00  0.00    -0.198 OA
ATOM     21  O   UNL d   1       1.249  -2.240  -0.936  0.00  0.00    -0.198 OA
BRANCH  19  22
ATOM     22  C   UNL d   1       0.832  -3.105  -3.341  0.00  0.00     0.120 A 
ATOM     23  C   UNL d   1       1.949  -2.800  -4.105  0.00  0.00     0.142 A 
ATOM     24  C   UNL d   1       2.388  -3.685  -5.083  0.00  0.00     0.086 A 
ATOM     25  F   UNL d   1       2.651  -1.678  -3.893  0.00  0.00    -0.204 F 
ATOM     26  C   UNL d   1       1.701  -4.876  -5.279  0.00  0.00     0.119 A 
ATOM     27  C   UNL d   1       0.580  -5.196  -4.516  0.00  0.00     0.044 A 
ATOM     28  F   UNL d   1       2.132  -5.741  -6.208  0.00  0.00    -0.206 F 
ATOM     29  C   UNL d   1       0.140  -4.306  -3.537  0.00  0.00     0.031 A 
ENDBRANCH  19  22
ENDBRANCH   1  19
TORSDOF 6
