REMARK  3 active torsions:
REMARK  status: ('A' for Active; 'I' for Inactive)
REMARK    1  A    between atoms: C_3  and  C_1 
REMARK    2  A    between atoms: C_8  and  C_2 
REMARK    3  A    between atoms: O_19  and  C_14 
ROOT
ATOM      1  C   UNL d   1       1.150   0.425  -0.075  0.00  0.00     0.036 C 
ATOM      2  C   UNL d   1       0.216   1.399  -0.085  0.00  0.00     0.055 C 
ATOM      3  C   UNL d   1       0.495   2.798  -0.021  0.00  0.00     0.100 C 
ATOM      4  N   UNL d   1       0.727   3.931   0.061  0.00  0.00    -0.191 NA
ENDROOT
BRANCH   2   5
ATOM      5  C   UNL d   1      -1.197   0.975  -0.142  0.00  0.00    -0.015 A 
ATOM      6  C   UNL d   1      -1.917   0.766   1.044  0.00  0.00     0.015 A 
ATOM      7  C   UNL d   1      -3.234   0.306   0.996  0.00  0.00     0.037 A 
ATOM      8  C   UNL d   1      -3.832   0.053  -0.233  0.00  0.00     0.065 A 
ATOM      9  C   UNL d   1      -3.141   0.273  -1.420  0.00  0.00     0.037 A 
ATOM     10  C   UNL d   1      -1.822   0.735  -1.375  0.00  0.00     0.015 A 
BRANCH   8  11
ATOM     11  O   UNL d   1      -5.109  -0.423  -0.230  0.00  0.00    -0.361 OA
ATOM     12  H   UNL d   1      -5.376  -0.611  -1.145  0.00  0.00     0.217 HD
ENDBRANCH   8  11
ENDBRANCH   2   5
BRANCH   1  13
ATOM     13  C   UNL d   1       2.630   0.511   0.027  0.00  0.00    -0.013 A 
ATOM     14  C   UNL d   1       3.471  -0.453  -0.575  0.00  0.00     0.045 A 
ATOM     15  C   UNL d   1       4.861  -0.416  -0.404  0.00  0.00     0.048 A 
ATOM     16 CL   UNL d   1       2.848  -1.738  -1.560  0.00  0.00    -0.083 Cl
ATOM     17  C   UNL d   1       5.434   0.585   0.371  0.00  0.00     0.035 A 
ATOM     18  C   UNL d   1       4.631   1.540   0.983  0.00  0.00     0.024 A 
ATOM     19 CL   UNL d   1       7.139   0.633   0.589  0.00  0.00    -0.084 Cl
ATOM     20  C   UNL d   1       3.241   1.493   0.825  0.00  0.00     0.015 A 
ENDBRANCH   1  13
TORSDOF 3
