REMARK  7 active torsions:
REMARK  status: ('A' for Active; 'I' for Inactive)
REMARK    1  A    between atoms: C_6  and  C_1 
REMARK    2  A    between atoms: C_7  and  C_2 
REMARK    3  A    between atoms: N_9  and  C_3 
REMARK    4  A    between atoms: O_14  and  C_6 
REMARK    5  A    between atoms: O_15  and  C_7 
REMARK    6  A    between atoms: C_16  and  N_8 
REMARK    7  A    between atoms: C_12  and  C_16 
ROOT
ATOM      1  C   UNL d   1      -0.256   0.973   0.056  0.00  0.00     0.109 A 
ATOM      2  C   UNL d   1      -0.689  -1.366   0.067  0.00  0.00     0.100 A 
ATOM      3  C   UNL d   1      -1.222  -0.013   0.055  0.00  0.00     0.068 A 
ATOM      4  C   UNL d   1       0.707  -1.340   0.024  0.00  0.00     0.089 A 
ATOM      5  S   UNL d   1       1.300   0.278   0.079  0.00  0.00    -0.063 SA
ATOM      6  N   UNL d   1       1.669  -2.307  -0.038  0.00  0.00    -0.380 N 
ATOM      7  H   UNL d   1       2.640  -2.013   0.022  0.00  0.00     0.160 HD
ENDROOT
BRANCH   6   8
ATOM      8  C   UNL d   1       1.459  -3.644  -0.548  0.00  0.00     0.147 C 
BRANCH   8   9
ATOM      9  C   UNL d   1       2.766  -4.196  -1.037  0.00  0.00    -0.018 C 
ATOM     10  C   UNL d   1       3.266  -5.375  -0.640  0.00  0.00     0.008 C 
ENDBRANCH   8   9
ENDBRANCH   6   8
BRANCH   2  11
ATOM     11  C   UNL d   1      -1.510  -2.585   0.154  0.00  0.00     0.298 C 
ATOM     12  O   UNL d   1      -1.094  -3.693   0.471  0.00  0.00    -0.259 OA
BRANCH  11  13
ATOM     13  O   UNL d   1      -2.833  -2.377  -0.151  0.00  0.00    -0.322 OA
ATOM     14  C   UNL d   1      -3.641  -3.552  -0.057  0.00  0.00     0.213 C 
ENDBRANCH  11  13
ENDBRANCH   2  11
BRANCH   1  15
ATOM     15  C   UNL d   1      -0.359   2.426   0.055  0.00  0.00     0.302 C 
ATOM     16  O   UNL d   1       0.575   3.224   0.086  0.00  0.00    -0.259 OA
BRANCH  15  17
ATOM     17  O   UNL d   1      -1.672   2.817   0.006  0.00  0.00    -0.322 OA
ATOM     18  C   UNL d   1      -1.871   4.232   0.017  0.00  0.00     0.213 C 
ENDBRANCH  15  17
ENDBRANCH   1  15
BRANCH   3  19
ATOM     19  N   UNL d   1      -2.547   0.265   0.071  0.00  0.00    -0.397 N 
ATOM     20  H   UNL d   1      -3.249  -0.461  -0.071  0.00  0.00     0.156 HD
ATOM     21  H   UNL d   1      -2.899   1.215  -0.042  0.00  0.00     0.156 HD
ENDBRANCH   3  19
TORSDOF 7
