REMARK  2 active torsions:
REMARK  status: ('A' for Active; 'I' for Inactive)
REMARK    1  A    between atoms: C_2  and  S_1 
REMARK    2  A    between atoms: N_9  and  S_1 
ROOT
ATOM      1  C   UNL d   1       0.514  -0.580   1.661  0.00  0.00     0.116 A 
ATOM      2  S   UNL d   1       0.006   0.557   2.839  0.00  0.00    -0.070 SA
ATOM      3  C   UNL d   1      -0.276  -0.668   3.973  0.00  0.00     0.052 A 
ATOM      4  C   UNL d   1       0.458  -1.874   2.148  0.00  0.00     0.034 A 
ATOM      5  C   UNL d   1       0.000  -1.925   3.498  0.00  0.00     0.028 A 
ATOM      6 BR   UNL d   1      -0.895  -0.330   5.708  0.00  0.00    -0.043 Br
ENDROOT
BRANCH   1   7
ATOM      7  S   UNL d   1       1.027   0.090   0.105  0.00  0.00     0.245 S 
ATOM      8  O   UNL d   1      -0.058   0.922  -0.363  0.00  0.00    -0.206 OA
ATOM      9  O   UNL d   1       1.538  -1.022  -0.660  0.00  0.00    -0.206 OA
BRANCH   7  10
ATOM     10  N   UNL d   1       2.321   1.121   0.401  0.00  0.00    -0.225 NA
ATOM     11  H   UNL d   1       1.982   2.007   0.777  0.00  0.00     0.136 HD
ATOM     12  H   UNL d   1       2.849   1.252  -0.463  0.00  0.00     0.136 HD
ENDBRANCH   7  10
ENDBRANCH   1   7
TORSDOF 2
