REMARK  3 active torsions:
REMARK  status: ('A' for Active; 'I' for Inactive)
REMARK    1  A    between atoms: C_2  and  C_1 
REMARK       I    between atoms: N_6  and  C_2 
REMARK    2  A    between atoms: O_4  and  C_3 
REMARK    3  A    between atoms: C_7  and  O_4 
ROOT
ATOM      1  C   UNL d   1       1.313   0.118   0.102  0.00  0.00     0.065 A 
ATOM      2  C   UNL d   1       0.642  -1.120   0.047  0.00  0.00     0.085 A 
ATOM      3  C   UNL d   1       0.579   1.307  -0.058  0.00  0.00     0.020 A 
ATOM      4  C   UNL d   1      -0.749  -1.140  -0.128  0.00  0.00     0.038 A 
ATOM      5  C   UNL d   1      -0.802   1.274  -0.244  0.00  0.00     0.001 A 
ATOM      6  C   UNL d   1      -1.465   0.052  -0.271  0.00  0.00     0.003 A 
ENDROOT
BRANCH   1   7
ATOM      7  C   UNL d   1       2.783   0.275   0.330  0.00  0.00     0.252 C 
ATOM      8  O   UNL d   1       3.346   1.355   0.180  0.00  0.00    -0.268 OA
ATOM      9  N   UNL d   1       3.497  -0.814   0.735  0.00  0.00    -0.366 N 
ATOM     10  H   UNL d   1       3.066  -1.726   0.812  0.00  0.00     0.159 HD
ATOM     11  H   UNL d   1       4.493  -0.717   0.871  0.00  0.00     0.159 HD
ENDBRANCH   1   7
BRANCH   2  12
ATOM     12  O   UNL d   1       1.393  -2.267   0.176  0.00  0.00    -0.345 OA
BRANCH  12  13
ATOM     13  C   UNL d   1       0.820  -3.556  -0.132  0.00  0.00     0.129 C 
ATOM     14  C   UNL d   1       1.842  -4.715  -0.115  0.00  0.00     0.032 C 
ATOM     15  C   UNL d   1       1.740  -4.825  -1.639  0.00  0.00     0.005 C 
ATOM     16  C   UNL d   1       0.535  -3.878  -1.616  0.00  0.00     0.032 C 
ENDBRANCH  12  13
ENDBRANCH   2  12
TORSDOF 3
