REMARK  4 active torsions:
REMARK  status: ('A' for Active; 'I' for Inactive)
REMARK    1  A    between atoms: C_3  and  C_1 
REMARK    2  A    between atoms: C_2  and  C_10 
REMARK    3  A    between atoms: C_7  and  C_3 
REMARK    4  A    between atoms: C_14  and  C_5 
ROOT
ATOM      1  C   UNL d   1       0.876   0.179   1.073  0.00  0.00     0.096 C 
ATOM      2  C   UNL d   1       0.232  -0.937   0.646  0.00  0.00     0.038 C 
ATOM      3  C   UNL d   1       0.151   1.292   1.597  0.00  0.00     0.103 C 
ATOM      4  N   UNL d   1      -0.421   2.204   2.019  0.00  0.00    -0.191 NA
ENDROOT
BRANCH   1   5
ATOM      5  C   UNL d   1       2.388   0.202   1.049  0.00  0.00     0.202 C 
ATOM      6  O   UNL d   1       3.048  -0.836   1.044  0.00  0.00    -0.286 OA
BRANCH   5   7
ATOM      7  C   UNL d   1       3.114   1.511   1.028  0.00  0.00     0.016 A 
ATOM      8  C   UNL d   1       2.602   2.627   0.353  0.00  0.00     0.031 A 
ATOM      9  C   UNL d   1       3.303   3.846   0.323  0.00  0.00     0.048 A 
ATOM     10  C   UNL d   1       4.534   3.940   0.986  0.00  0.00     0.016 A 
ATOM     11  C   UNL d   1       5.058   2.833   1.657  0.00  0.00     0.002 A 
ATOM     12  C   UNL d   1       4.361   1.619   1.662  0.00  0.00     0.015 A 
BRANCH   9  13
ATOM     13  C   UNL d   1       2.732   5.038  -0.410  0.00  0.00     0.417 C 
ATOM     14  F   UNL d   1       1.526   4.782  -0.991  0.00  0.00    -0.166 F 
ATOM     15  F   UNL d   1       2.538   6.110   0.404  0.00  0.00    -0.166 F 
ATOM     16  F   UNL d   1       3.542   5.467  -1.416  0.00  0.00    -0.166 F 
ENDBRANCH   9  13
ENDBRANCH   5   7
ENDBRANCH   1   5
BRANCH   2  17
ATOM     17  C   UNL d   1      -1.234  -1.061   0.597  0.00  0.00    -0.034 A 
ATOM     18  C   UNL d   1      -1.940  -1.478   1.731  0.00  0.00     0.021 A 
ATOM     19  C   UNL d   1      -3.342  -1.557   1.719  0.00  0.00    -0.024 A 
ATOM     20  C   UNL d   1      -4.077  -2.040   2.934  0.00  0.00     0.044 C 
ATOM     21  C   UNL d   1      -4.039  -1.159   0.576  0.00  0.00     0.076 A 
ATOM     22  C   UNL d   1      -5.501  -2.435   2.564  0.00  0.00     0.042 C 
ATOM     23  C   UNL d   1      -6.154  -1.365   1.676  0.00  0.00     0.061 C 
ATOM     24  O   UNL d   1      -5.401  -1.145   0.471  0.00  0.00    -0.340 OA
ATOM     25  C   UNL d   1      -7.528  -1.866   1.208  0.00  0.00     0.046 C 
ATOM     26  C   UNL d   1      -6.341  -0.026   2.406  0.00  0.00     0.046 C 
ATOM     27  C   UNL d   1      -3.345  -0.764  -0.566  0.00  0.00     0.038 A 
ATOM     28  C   UNL d   1      -1.948  -0.731  -0.566  0.00  0.00     0.014 A 
ENDBRANCH   2  17
TORSDOF 4
