REMARK  2 active torsions:
REMARK  status: ('A' for Active; 'I' for Inactive)
REMARK    1  A    between atoms: S_10  and  C_2 
REMARK    2  A    between atoms: C_6  and  C_3 
REMARK       I    between atoms: N_11  and  C_6 
ROOT
ATOM      1  C   UNL d   1      -0.697  -0.089  -0.026  0.00  0.00     0.069 A 
ATOM      2  C   UNL d   1       0.224   0.940  -0.028  0.00  0.00     0.062 A 
ATOM      3  C   UNL d   1       1.313  -1.293  -0.032  0.00  0.00     0.075 A 
ATOM      4  S   UNL d   1       1.832   0.336  -0.037  0.00  0.00    -0.076 SA
ATOM      5  C   UNL d   1      -0.068  -1.369  -0.042  0.00  0.00     0.049 A 
ATOM      6  C   UNL d   1      -2.117   0.085   0.007  0.00  0.00     0.101 C 
ATOM      7  N   UNL d   1      -3.271   0.213   0.013  0.00  0.00    -0.191 NA
ENDROOT
BRANCH   2   8
ATOM      8  S   UNL d   1      -0.065   2.678   0.050  0.00  0.00    -0.126 SA
ATOM      9  C   UNL d   1      -0.949   2.979  -1.498  0.00  0.00     0.096 C 
ENDBRANCH   2   8
BRANCH   3  10
ATOM     10  C   UNL d   1       2.229  -2.427  -0.011  0.00  0.00     0.258 C 
ATOM     11  O   UNL d   1       1.826  -3.587  -0.020  0.00  0.00    -0.267 OA
ATOM     12  N   UNL d   1       3.574  -2.126   0.025  0.00  0.00    -0.361 N 
ATOM     13  C   UNL d   1       4.598  -3.142   0.062  0.00  0.00     0.149 C 
ATOM     14  H   UNL d   1       3.850  -1.153   0.037  0.00  0.00     0.162 HD
ENDBRANCH   3  10
TORSDOF 2
