REMARK  6 active torsions:
REMARK  status: ('A' for Active; 'I' for Inactive)
REMARK    1  A    between atoms: C_6  and  C_1 
REMARK    2  A    between atoms: C_4  and  C_11 
REMARK    3  A    between atoms: N_12  and  C_4 
REMARK    4  A    between atoms: O_15  and  N_7 
REMARK    5  A    between atoms: C_11  and  O_13 
REMARK    6  A    between atoms: O_13  and  C_14 
ROOT
ATOM      1  C   UNL d   1       3.329 -13.744   5.408  0.00  0.00    -0.003 A 
ATOM      2  C   UNL d   1       3.479 -12.372   5.642  0.00  0.00     0.017 A 
ATOM      3  C   UNL d   1       2.595 -14.166   4.294  0.00  0.00     0.017 A 
ATOM      4  C   UNL d   1       2.201 -11.860   3.644  0.00  0.00     0.069 A 
ATOM      5  C   UNL d   1       2.050 -13.228   3.410  0.00  0.00     0.037 A 
ATOM      6  C   UNL d   1       2.917 -11.435   4.764  0.00  0.00     0.037 A 
ENDROOT
BRANCH   4   7
ATOM      7  O   UNL d   1       1.656 -11.039   2.695  0.00  0.00    -0.344 OA
BRANCH   7   8
ATOM      8  C   UNL d   1       1.263  -9.744   3.146  0.00  0.00     0.247 C 
BRANCH   8   9
ATOM      9  C   UNL d   1       0.652  -8.957   1.980  0.00  0.00     0.099 C 
ATOM     10  N   UNL d   1       0.732  -7.657   2.022  0.00  0.00    -0.260 N 
ATOM     11  HN  UNL d   1       1.155  -7.127   2.784  1.00  0.00     0.195 HD
BRANCH  10  12
ATOM     12  O   UNL d   1       0.153  -7.087   0.876  0.00  0.00    -0.289 OA
ATOM     13  H   UNL d   1       0.226  -6.133   1.065  0.00  0.00     0.244 HD
ENDBRANCH  10  12
BRANCH   9  14
ATOM     14  N   UNL d   1       0.055  -9.651   0.956  0.00  0.00    -0.289 NA
ATOM     15  H   UNL d   1       0.459 -10.566   0.779  0.00  0.00     0.125 HD
ATOM     16  H   UNL d   1      -0.049  -9.071   0.130  0.00  0.00     0.125 HD
ENDBRANCH   9  14
ENDBRANCH   8   9
ENDBRANCH   7   8
ENDBRANCH   4   7
BRANCH   1  17
ATOM     17  C   UNL d   1       3.922 -14.768   6.298  0.00  0.00     0.076 C 
ATOM     18  N   UNL d   1       3.457 -15.974   6.398  0.00  0.00    -0.383 N 
ATOM     19  C   UNL d   1       4.242 -16.728   7.397  0.00  0.00     0.131 C 
ATOM     20  HN  UNL d   1       2.670 -16.346   5.867  1.00  0.00     0.160 HD
ATOM     21  C   UNL d   1       5.646 -16.159   7.489  0.00  0.00     0.100 C 
ATOM     22  S   UNL d   1       5.368 -14.400   7.218  0.00  0.00    -0.110 SA
ENDBRANCH   1  17
TORSDOF 6
