REMARK  3 active torsions:
REMARK  status: ('A' for Active; 'I' for Inactive)
REMARK    1  A    between atoms: C_2  and  C_1 
REMARK       I    between atoms: N_5  and  C_2 
REMARK    2  A    between atoms: C_6  and  N_5 
REMARK    3  A    between atoms: C_16  and  C_7 
ROOT
ATOM      1  C   UNL d   1       0.944   0.074  -0.062  0.00  0.00     0.113 C 
ATOM      2  C   UNL d   1       0.219  -0.847   0.607  0.00  0.00     0.039 C 
ATOM      3  C   UNL d   1       0.336   1.120  -0.811  0.00  0.00     0.105 C 
ATOM      4  N   UNL d   1      -0.133   2.004  -1.394  0.00  0.00    -0.191 NA
ENDROOT
BRANCH   1   5
ATOM      5  C   UNL d   1       2.441  -0.065   0.021  0.00  0.00     0.266 C 
ATOM      6  N   UNL d   1       3.189   0.892  -0.649  0.00  0.00    -0.320 N 
ATOM      7  H   UNL d   1       2.717   1.720  -0.996  0.00  0.00     0.169 HD
ATOM      8  O   UNL d   1       2.923  -0.948   0.727  0.00  0.00    -0.267 OA
BRANCH   6   9
ATOM      9  C   UNL d   1       4.609   0.954  -0.626  0.00  0.00     0.077 A 
ATOM     10  C   UNL d   1       5.458  -0.155  -0.460  0.00  0.00     0.184 A 
ATOM     11  C   UNL d   1       6.833   0.014  -0.332  0.00  0.00     0.195 A 
ATOM     12  F   UNL d   1       4.984  -1.409  -0.516  0.00  0.00    -0.200 F 
ATOM     13  F   UNL d   1       7.630  -1.051  -0.159  0.00  0.00    -0.199 F 
ATOM     14  C   UNL d   1       7.384   1.285  -0.399  0.00  0.00     0.158 A 
ATOM     15  C   UNL d   1       6.574   2.390  -0.635  0.00  0.00     0.048 A 
ATOM     16  F   UNL d   1       8.704   1.458  -0.254  0.00  0.00    -0.203 F 
ATOM     17  C   UNL d   1       5.190   2.224  -0.764  0.00  0.00     0.036 A 
ENDBRANCH   6   9
ENDBRANCH   1   5
BRANCH   2  18
ATOM     18  C   UNL d   1      -1.243  -0.933   0.599  0.00  0.00    -0.035 A 
ATOM     19  C   UNL d   1      -1.844  -1.989  -0.095  0.00  0.00     0.013 A 
ATOM     20  C   UNL d   1      -3.233  -2.090  -0.155  0.00  0.00     0.024 A 
ATOM     21  C   UNL d   1      -4.024  -1.138   0.484  0.00  0.00     0.034 A 
ATOM     22  C   UNL d   1      -3.436  -0.090   1.189  0.00  0.00     0.024 A 
ATOM     23 CL   UNL d   1      -5.738  -1.258   0.402  0.00  0.00    -0.084 Cl
ATOM     24  C   UNL d   1      -2.043   0.011   1.251  0.00  0.00     0.013 A 
ENDBRANCH   2  18
TORSDOF 3
