REMARK  3 active torsions:
REMARK  status: ('A' for Active; 'I' for Inactive)
REMARK    1  A    between atoms: C_4  and  C_1 
REMARK       I    between atoms: N_5  and  C_1 
REMARK    2  A    between atoms: C_3  and  C_4 
REMARK    3  A    between atoms: O_8  and  C_7 
ROOT
ATOM      1  C   UNL d   1      -1.251  -0.285   1.075  0.00  0.00    -0.047 A 
ATOM      2  C   UNL d   1      -1.980  -1.485   1.000  0.00  0.00     0.044 A 
ATOM      3  C   UNL d   1      -3.373  -1.465   0.892  0.00  0.00     0.068 A 
ATOM      4  C   UNL d   1      -3.324   0.959   0.890  0.00  0.00     0.003 A 
ATOM      5  C   UNL d   1      -1.935   0.936   1.009  0.00  0.00     0.007 A 
ATOM      6  C   UNL d   1      -4.037  -0.237   0.837  0.00  0.00     0.037 A 
ENDROOT
BRANCH   1   7
ATOM      7  C   UNL d   1       0.251  -0.316   1.219  0.00  0.00     0.141 C 
BRANCH   7   8
ATOM      8  C   UNL d   1       0.974  -0.331  -0.112  0.00  0.00     0.219 C 
ATOM      9  O   UNL d   1       1.225  -1.356  -0.737  0.00  0.00    -0.273 OA
ATOM     10  N   UNL d   1       1.356   0.890  -0.589  0.00  0.00    -0.370 N 
ATOM     11  H   UNL d   1       1.786   0.915  -1.504  0.00  0.00     0.159 HD
ATOM     12  H   UNL d   1       1.037   1.758  -0.183  0.00  0.00     0.159 HD
ENDBRANCH   7   8
ENDBRANCH   1   7
BRANCH   3  13
ATOM     13  O   UNL d   1      -4.194  -2.558   0.836  0.00  0.00    -0.356 OA
ATOM     14  C   UNL d   1      -3.568  -3.834   0.894  0.00  0.00     0.210 C 
ENDBRANCH   3  13
TORSDOF 3
