REMARK  4 active torsions:
REMARK  status: ('A' for Active; 'I' for Inactive)
REMARK    1  A    between atoms: S_11  and  C_3 
REMARK    2  A    between atoms: C_16  and  C_4 
REMARK    3  A    between atoms: C_8  and  C_12 
REMARK    4  A    between atoms: C_12  and  S_11 
ROOT
ATOM      1  N   UNL d   1      -0.726   1.171   0.001  0.00  0.00    -0.335 N 
ATOM      2  HN  UNL d   1      -1.243   2.051   0.011  1.00  0.00     0.168 HD
ATOM      3  C   UNL d   1      -1.359  -0.027   0.019  0.00  0.00     0.094 A 
ATOM      4  C   UNL d   1       0.626   1.143  -0.032  0.00  0.00     0.116 A 
ATOM      5  C   UNL d   1      -0.674  -1.239  -0.015  0.00  0.00     0.100 A 
ATOM      6  N   UNL d   1       1.356   0.009  -0.055  0.00  0.00    -0.344 N 
ATOM      7  HN  UNL d   1       2.376   0.043  -0.080  1.00  0.00     0.167 HD
ATOM      8  C   UNL d   1       0.705  -1.169  -0.045  0.00  0.00     0.030 A 
ATOM      9  C   UNL d   1      -1.334  -2.504  -0.006  0.00  0.00     0.104 C 
ATOM     10  N   UNL d   1      -1.825  -3.558  -0.007  0.00  0.00    -0.191 NA
ATOM     11  C   UNL d   1       1.575  -2.398  -0.033  0.00  0.00     0.070 C 
ENDROOT
BRANCH   3  12
ATOM     12  S   UNL d   1      -3.140  -0.041   0.302  0.00  0.00    -0.106 SA
BRANCH  12  13
ATOM     13  C   UNL d   1      -3.759   1.399  -0.637  0.00  0.00     0.124 C 
BRANCH  13  14
ATOM     14  C   UNL d   1      -5.271   1.329  -0.753  0.00  0.00     0.012 A 
ATOM     15  C   UNL d   1      -5.845   0.699  -1.867  0.00  0.00     0.125 A 
ATOM     16  F   UNL d   1      -5.053   0.207  -2.833  0.00  0.00    -0.205 F 
ATOM     17  C   UNL d   1      -7.226   0.553  -2.014  0.00  0.00     0.043 A 
ATOM     18  C   UNL d   1      -8.081   1.040  -1.033  0.00  0.00     0.005 A 
ATOM     19  C   UNL d   1      -7.543   1.669   0.089  0.00  0.00     0.024 A 
ATOM     20  C   UNL d   1      -6.152   1.810   0.230  0.00  0.00     0.044 A 
ATOM     21 CL   UNL d   1      -5.582   2.591   1.662  0.00  0.00    -0.084 Cl
ENDBRANCH  13  14
ENDBRANCH  12  13
ENDBRANCH   3  12
BRANCH   4  22
ATOM     22  C   UNL d   1       1.394   2.411  -0.016  0.00  0.00     0.008 A 
ATOM     23  C   UNL d   1       0.762   3.665   0.026  0.00  0.00     0.015 A 
ATOM     24  C   UNL d   1       1.501   4.856   0.034  0.00  0.00     0.001 A 
ATOM     25  C   UNL d   1       2.894   4.821   0.003  0.00  0.00     0.000 A 
ATOM     26  C   UNL d   1       3.549   3.598  -0.032  0.00  0.00     0.001 A 
ATOM     27  C   UNL d   1       2.808   2.412  -0.040  0.00  0.00     0.015 A 
ENDBRANCH   4  22
TORSDOF 4
