REMARK  9 active torsions:
REMARK  status: ('A' for Active; 'I' for Inactive)
REMARK    1  A    between atoms: C_4  and  C_1 
REMARK    2  A    between atoms: C_2  and  C_8 
REMARK    3  A    between atoms: C_9  and  C_3 
REMARK    4  A    between atoms: C_6  and  C_4 
REMARK    5  A    between atoms: C_11  and  C_19 
REMARK    6  A    between atoms: O_20  and  C_11 
REMARK    7  A    between atoms: O_13  and  C_12 
REMARK    8  A    between atoms: C_19  and  O_13 
REMARK    9  A    between atoms: C_26  and  O_20 
ROOT
ATOM      1  C   UNL d   1      -0.745  -0.320  -0.527  0.00  0.00     0.096 C 
ATOM      2  C   UNL d   1       0.406   0.232  -0.966  0.00  0.00     0.041 C 
ATOM      3  C   UNL d   1      -1.178  -0.004   0.795  0.00  0.00     0.103 C 
ATOM      4  N   UNL d   1      -1.558   0.308   1.846  0.00  0.00    -0.191 NA
ENDROOT
BRANCH   1   5
ATOM      5  C   UNL d   1      -1.547  -1.265  -1.371  0.00  0.00     0.202 C 
ATOM      6  O   UNL d   1      -1.053  -1.884  -2.311  0.00  0.00    -0.286 OA
BRANCH   5   7
ATOM      7  C   UNL d   1      -2.982  -1.541  -1.061  0.00  0.00     0.016 A 
ATOM      8  C   UNL d   1      -3.887  -0.570  -0.610  0.00  0.00     0.031 A 
ATOM      9  C   UNL d   1      -5.235  -0.906  -0.374  0.00  0.00     0.048 A 
ATOM     10  C   UNL d   1      -5.670  -2.217  -0.630  0.00  0.00     0.016 A 
ATOM     11  C   UNL d   1      -4.780  -3.178  -1.104  0.00  0.00     0.002 A 
ATOM     12  C   UNL d   1      -3.445  -2.841  -1.316  0.00  0.00     0.015 A 
BRANCH   9  13
ATOM     13  C   UNL d   1      -6.225   0.113   0.138  0.00  0.00     0.417 C 
ATOM     14  F   UNL d   1      -5.678   1.337   0.370  0.00  0.00    -0.166 F 
ATOM     15  F   UNL d   1      -7.250   0.322  -0.734  0.00  0.00    -0.166 F 
ATOM     16  F   UNL d   1      -6.806  -0.269   1.310  0.00  0.00    -0.166 F 
ENDBRANCH   9  13
ENDBRANCH   5   7
ENDBRANCH   1   5
BRANCH   2  17
ATOM     17  C   UNL d   1       1.019   0.111  -2.298  0.00  0.00    -0.001 A 
ATOM     18  C   UNL d   1       1.980  -0.869  -2.607  0.00  0.00     0.079 A 
ATOM     19  C   UNL d   1       2.587  -0.857  -3.872  0.00  0.00     0.037 A 
ATOM     20  C   UNL d   1       2.200   0.070  -4.840  0.00  0.00     0.003 A 
ATOM     21  C   UNL d   1       1.215   1.008  -4.551  0.00  0.00     0.001 A 
ATOM     22  C   UNL d   1       0.636   1.036  -3.282  0.00  0.00     0.014 A 
BRANCH  18  23
ATOM     23  O   UNL d   1       2.286  -1.795  -1.634  0.00  0.00    -0.341 OA
BRANCH  23  24
ATOM     24  C   UNL d   1       2.742  -3.045  -2.143  0.00  0.00     0.286 C 
BRANCH  24  25
ATOM     25  C   UNL d   1       2.625  -4.205  -1.163  0.00  0.00     0.283 C 
ATOM     26  O   UNL d   1       2.256  -4.144   0.000  0.00  0.00    -0.263 OA
BRANCH  25  27
ATOM     27  O   UNL d   1       3.011  -5.350  -1.810  0.00  0.00    -0.320 OA
BRANCH  27  28
ATOM     28  C   UNL d   1       2.940  -6.569  -1.056  0.00  0.00     0.174 C 
ATOM     29  C   UNL d   1       1.534  -7.137  -1.109  0.00  0.00     0.034 C 
ENDBRANCH  27  28
ENDBRANCH  25  27
ENDBRANCH  24  25
ENDBRANCH  23  24
ENDBRANCH  18  23
ENDBRANCH   2  17
TORSDOF 9
