REMARK  7 active torsions:
REMARK  status: ('A' for Active; 'I' for Inactive)
REMARK    1  A    between atoms: C_2  and  S_1 
REMARK    2  A    between atoms: N_17  and  S_1 
REMARK    3  A    between atoms: C_4  and  C_15 
REMARK    4  A    between atoms: C_14  and  C_8 
REMARK    5  A    between atoms: C_21  and  C_10 
REMARK       I    between atoms: C_15  and  N_20 
REMARK    6  A    between atoms: N_20  and  N_17 
REMARK    7  A    between atoms: O_31  and  C_21 
ROOT
ATOM      1  C   UNL d   1       0.428  -1.845   3.657  0.00  0.00     0.288 C 
ATOM      2  N   UNL d   1       1.021  -1.450   2.477  0.00  0.00    -0.255 N 
ATOM      3  O   UNL d   1      -0.603  -1.343   4.100  0.00  0.00    -0.264 OA
ATOM      4  H   UNL d   1       1.885  -1.891   2.159  0.00  0.00     0.191 HD
ENDROOT
BRANCH   1   5
ATOM      5  C   UNL d   1       1.114  -2.964   4.299  0.00  0.00     0.120 A 
ATOM      6  N   UNL d   1       2.211  -3.616   3.755  0.00  0.00    -0.335 N 
ATOM      7  C   UNL d   1       2.480  -4.615   4.579  0.00  0.00     0.134 A 
ATOM      8  HN  UNL d   1       2.707  -3.375   2.896  1.00  0.00     0.168 HD
ATOM      9  C   UNL d   1       3.458  -5.656   4.564  0.00  0.00     0.079 A 
ATOM     10  N   UNL d   1       1.589  -4.630   5.648  0.00  0.00    -0.314 N 
ATOM     11  C   UNL d   1       3.465  -6.599   5.528  0.00  0.00     0.045 A 
ATOM     12 CL   UNL d   1       4.619  -5.689   3.292  0.00  0.00    -0.080 Cl
ATOM     13  C   UNL d   1       2.489  -6.597   6.625  0.00  0.00     0.065 A 
ATOM     14  C   UNL d   1       1.585  -5.594   6.650  0.00  0.00     0.114 A 
ATOM     15  C   UNL d   1       0.747  -3.566   5.485  0.00  0.00     0.133 A 
BRANCH  13  16
ATOM     16  C   UNL d   1       2.510  -7.689   7.657  0.00  0.00     0.418 C 
ATOM     17  F   UNL d   1       3.486  -8.605   7.443  0.00  0.00    -0.166 F 
ATOM     18  F   UNL d   1       2.700  -7.189   8.903  0.00  0.00    -0.166 F 
ATOM     19  F   UNL d   1       1.333  -8.366   7.681  0.00  0.00    -0.166 F 
ENDBRANCH  13  16
ENDBRANCH   1   5
BRANCH   2  20
ATOM     20  N   UNL d   1       0.349  -0.489   1.630  0.00  0.00    -0.219 N 
ATOM     21  H   UNL d   1      -0.563  -0.109   1.907  0.00  0.00     0.200 HD
BRANCH  20  22
ATOM     22  S   UNL d   1       0.913  -0.124   0.095  0.00  0.00     0.292 S 
ATOM     23  O   UNL d   1      -0.062   0.721  -0.556  0.00  0.00    -0.197 OA
ATOM     24  O   UNL d   1       2.317   0.214   0.183  0.00  0.00    -0.197 OA
BRANCH  22  25
ATOM     25  C   UNL d   1       0.892  -1.643  -0.839  0.00  0.00     0.153 A 
ATOM     26  N   UNL d   1       1.390  -1.759  -2.129  0.00  0.00    -0.336 N 
ATOM     27  C   UNL d   1       1.335  -3.084  -2.549  0.00  0.00     0.111 A 
ATOM     28  C   UNL d   1       1.907  -0.668  -2.937  0.00  0.00     0.157 C 
ATOM     29  C   UNL d   1       0.712  -3.790  -1.531  0.00  0.00     0.039 A 
ATOM     30  C   UNL d   1       0.429  -2.899  -0.482  0.00  0.00     0.046 A 
BRANCH  27  31
ATOM     31  C   UNL d   1       1.837  -3.601  -3.811  0.00  0.00     0.309 C 
ATOM     32  O   UNL d   1       2.400  -2.953  -4.682  0.00  0.00    -0.258 OA
BRANCH  31  33
ATOM     33  O   UNL d   1       1.586  -4.940  -3.882  0.00  0.00    -0.321 OA
ATOM     34  C   UNL d   1       2.027  -5.568  -5.085  0.00  0.00     0.213 C 
ENDBRANCH  31  33
ENDBRANCH  27  31
ENDBRANCH  22  25
ENDBRANCH  20  22
ENDBRANCH   2  20
TORSDOF 7
