REMARK  8 active torsions:
REMARK  status: ('A' for Active; 'I' for Inactive)
REMARK    1  A    between atoms: C_2  and  C_1 
REMARK    2  A    between atoms: N_3  and  C_1 
REMARK    3  A    between atoms: C_4  and  C_1 
REMARK    4  A    between atoms: N_5  and  C_1 
REMARK       I    between atoms: C_6  and  N_3 
REMARK    5  A    between atoms: O_13  and  C_4 
REMARK    6  A    between atoms: C_12  and  N_5 
REMARK    7  A    between atoms: C_20  and  C_6 
REMARK    8  A    between atoms: C_21  and  O_13 
ROOT
ATOM      1  C   UNL d   1       0.944  -0.016   0.025  0.00  0.00     0.296 C 
ENDROOT
BRANCH   1   2
ATOM      2  C   UNL d   1       0.209   1.191  -0.671  0.00  0.00     0.442 C 
ATOM      3  F   UNL d   1      -0.325   0.834  -1.871  0.00  0.00    -0.166 F 
ATOM      4  F   UNL d   1      -0.801   1.720   0.062  0.00  0.00    -0.166 F 
ATOM      5  F   UNL d   1       1.060   2.219  -0.936  0.00  0.00    -0.166 F 
ENDBRANCH   1   2
BRANCH   1   6
ATOM      6  N   UNL d   1       0.587  -1.352  -0.425  0.00  0.00    -0.319 N 
ATOM      7  C   UNL d   1      -0.715  -1.762  -0.477  0.00  0.00     0.219 C 
ATOM      8  O   UNL d   1      -1.649  -1.012  -0.232  0.00  0.00    -0.274 OA
ATOM      9  H   UNL d   1       1.354  -1.987  -0.576  0.00  0.00     0.165 HD
BRANCH   7  10
ATOM     10  C   UNL d   1      -0.898  -3.212  -0.855  0.00  0.00     0.098 C 
ATOM     11  C   UNL d   1      -0.564  -3.443  -2.316  0.00  0.00     0.014 C 
ENDBRANCH   7  10
ENDBRANCH   1   6
BRANCH   1  12
ATOM     12  C   UNL d   1       0.599   0.110   1.544  0.00  0.00     0.318 C 
ATOM     13  O   UNL d   1       0.166  -0.794   2.240  0.00  0.00    -0.260 OA
BRANCH  12  14
ATOM     14  O   UNL d   1       0.983   1.327   2.046  0.00  0.00    -0.318 OA
BRANCH  14  15
ATOM     15  C   UNL d   1       0.607   1.571   3.412  0.00  0.00     0.174 C 
ATOM     16  C   UNL d   1       1.575   0.908   4.374  0.00  0.00     0.034 C 
ENDBRANCH  14  15
ENDBRANCH  12  14
ENDBRANCH   1  12
BRANCH   1  17
ATOM     17  N   UNL d   1       2.430  -0.087  -0.093  0.00  0.00    -0.348 N 
ATOM     18  H   UNL d   1       2.918  -0.071   0.799  0.00  0.00     0.163 HD
BRANCH  17  19
ATOM     19  C   UNL d   1       3.203   0.140  -1.213  0.00  0.00     0.030 A 
ATOM     20  C   UNL d   1       2.706   0.160  -2.520  0.00  0.00     0.031 A 
ATOM     21  C   UNL d   1       3.542   0.416  -3.614  0.00  0.00     0.026 A 
ATOM     22  C   UNL d   1       4.901   0.635  -3.415  0.00  0.00     0.034 A 
ATOM     23  C   UNL d   1       5.429   0.588  -2.131  0.00  0.00     0.026 A 
ATOM     24 CL   UNL d   1       5.925   0.965  -4.755  0.00  0.00    -0.084 Cl
ATOM     25  C   UNL d   1       4.584   0.337  -1.044  0.00  0.00     0.031 A 
ENDBRANCH  17  19
ENDBRANCH   1  17
TORSDOF 8
