REMARK  8 active torsions:
REMARK  status: ('A' for Active; 'I' for Inactive)
REMARK    1  A    between atoms: C_10  and  C_1 
REMARK    2  A    between atoms: S_2  and  C_8 
REMARK    3  A    between atoms: N_12  and  S_2 
REMARK    4  A    between atoms: C_11  and  C_7 
REMARK    5  A    between atoms: C_15  and  N_12 
REMARK    6  A    between atoms: C_18  and  C_15 
REMARK    7  A    between atoms: O_24  and  C_18 
REMARK    8  A    between atoms: C_25  and  O_24 
ROOT
ATOM      1  C   UNL d   1       4.314   3.375   0.149  0.00  0.00     0.116 A 
ATOM      2  S   UNL d   1       2.859   3.005   0.973  0.00  0.00    -0.075 SA
ATOM      3  C   UNL d   1       2.507   1.707  -0.083  0.00  0.00     0.034 A 
ATOM      4  C   UNL d   1       4.477   2.580  -0.968  0.00  0.00     0.034 A 
ATOM      5  C   UNL d   1       3.440   1.611  -1.096  0.00  0.00     0.023 A 
ENDROOT
BRANCH   1   6
ATOM      6  S   UNL d   1       5.325   4.655   0.859  0.00  0.00     0.248 S 
ATOM      7  O   UNL d   1       5.535   4.278   2.235  0.00  0.00    -0.205 OA
ATOM      8  O   UNL d   1       6.426   4.823  -0.066  0.00  0.00    -0.205 OA
BRANCH   6   9
ATOM      9  N   UNL d   1       4.445   6.077   0.869  0.00  0.00    -0.206 NA
ATOM     10  H   UNL d   1       4.599   6.617   1.725  0.00  0.00     0.140 HD
BRANCH   9  11
ATOM     11  C   UNL d   1       4.466   6.886  -0.366  0.00  0.00     0.215 C 
BRANCH  11  12
ATOM     12  C   UNL d   1       3.521   8.057  -0.192  0.00  0.00     0.272 C 
ATOM     13  O   UNL d   1       3.232   8.558   0.888  0.00  0.00    -0.264 OA
BRANCH  12  14
ATOM     14  O   UNL d   1       3.031   8.448  -1.402  0.00  0.00    -0.321 OA
BRANCH  14  15
ATOM     15  C   UNL d   1       1.905   9.336  -1.348  0.00  0.00     0.174 C 
ATOM     16  C   UNL d   1       0.640   8.502  -1.252  0.00  0.00     0.034 C 
ENDBRANCH  14  15
ENDBRANCH  12  14
ENDBRANCH  11  12
ENDBRANCH   9  11
ENDBRANCH   6   9
ENDBRANCH   1   6
BRANCH   3  17
ATOM     17  C   UNL d   1       1.347   0.767   0.070  0.00  0.00     0.067 A 
ATOM     18  C   UNL d   1       0.325   0.823   1.037  0.00  0.00     0.068 A 
ATOM     19  C   UNL d   1      -0.488  -0.273   0.793  0.00  0.00     0.136 A 
ATOM     20  N   UNL d   1       0.093  -0.925  -0.260  0.00  0.00    -0.292 N 
ATOM     21  N   UNL d   1       1.183  -0.286  -0.737  0.00  0.00    -0.297 N 
ATOM     22  C   UNL d   1      -0.244  -2.177  -0.898  0.00  0.00     0.178 C 
ATOM     23  HN  UNL d   1       1.756  -0.550  -1.538  1.00  0.00     0.187 HD
BRANCH  19  24
ATOM     24  C   UNL d   1      -1.710  -0.691   1.510  0.00  0.00     0.434 C 
ATOM     25  F   UNL d   1      -2.357  -1.741   0.953  0.00  0.00    -0.165 F 
ATOM     26  F   UNL d   1      -1.433  -1.041   2.791  0.00  0.00    -0.165 F 
ATOM     27  F   UNL d   1      -2.611   0.323   1.570  0.00  0.00    -0.165 F 
ENDBRANCH  19  24
ENDBRANCH   3  17
TORSDOF 8
