REMARK  2 active torsions:
REMARK  status: ('A' for Active; 'I' for Inactive)
REMARK    1  A    between atoms: C_8  and  C_1 
REMARK    2  A    between atoms: C_7  and  C_2 
ROOT
ATOM      1  C   UNL d   1       2.346   0.738   0.014  0.00  0.00     0.097 A 
ATOM      2  C   UNL d   1       2.374  -0.659   0.052  0.00  0.00     0.097 A 
ATOM      3  N   UNL d   1       1.168   1.423  -0.026  0.00  0.00    -0.350 N 
ATOM      4  HN  UNL d   1       1.146   2.443  -0.041  1.00  0.00     0.166 HD
ATOM      5  N   UNL d   1       1.229  -1.397  -0.013  0.00  0.00    -0.350 N 
ATOM      6  HN  UNL d   1       1.252  -2.417  -0.035  1.00  0.00     0.166 HD
ATOM      7  C   UNL d   1       0.035   0.696  -0.044  0.00  0.00     0.059 A 
ATOM      8  C   UNL d   1       0.067  -0.720  -0.046  0.00  0.00     0.059 A 
ATOM      9  C   UNL d   1      -1.192   1.344  -0.045  0.00  0.00     0.032 A 
ATOM     10  C   UNL d   1      -1.134  -1.420  -0.058  0.00  0.00     0.032 A 
ATOM     11  C   UNL d   1      -2.393   0.631  -0.044  0.00  0.00     0.002 A 
ATOM     12  C   UNL d   1      -2.364  -0.758  -0.051  0.00  0.00     0.002 A 
ENDROOT
BRANCH   1  13
ATOM     13  C   UNL d   1       3.516   1.604   0.038  0.00  0.00     0.104 A 
ATOM     14  O   UNL d   1       4.634   1.165  -0.616  0.00  0.00    -0.320 OA
ATOM     15  C   UNL d   1       5.615   2.076  -0.394  0.00  0.00     0.142 A 
ATOM     16  C   UNL d   1       5.133   3.132   0.340  0.00  0.00     0.027 A 
ATOM     17  C   UNL d   1       3.768   2.847   0.589  0.00  0.00     0.041 A 
ENDBRANCH   1  13
BRANCH   2  18
ATOM     18  C   UNL d   1       3.568  -1.470   0.250  0.00  0.00     0.104 A 
ATOM     19  O   UNL d   1       4.514  -0.967   1.100  0.00  0.00    -0.320 OA
ATOM     20  C   UNL d   1       5.541  -1.852   1.138  0.00  0.00     0.142 A 
ATOM     21  C   UNL d   1       5.251  -2.953   0.369  0.00  0.00     0.027 A 
ATOM     22  C   UNL d   1       3.968  -2.719  -0.187  0.00  0.00     0.041 A 
ENDBRANCH   2  18
TORSDOF 2
