REMARK  2 active torsions:
REMARK  status: ('A' for Active; 'I' for Inactive)
REMARK    1  A    between atoms: C_2  and  C_1 
REMARK    2  A    between atoms: S_14  and  C_6 
ROOT
ATOM      1  C   UNL d   1      -0.163  -1.447  -0.173  0.00  0.00     0.143 A 
ATOM      2  N   UNL d   1      -0.995  -0.479  -0.696  0.00  0.00    -0.315 N 
ATOM      3  N   UNL d   1       0.934  -0.861   0.273  0.00  0.00    -0.282 N 
ATOM      4  HN  UNL d   1       1.712  -1.329   0.738  1.00  0.00     0.188 HD
ATOM      5  C   UNL d   1      -0.296   0.698  -0.588  0.00  0.00     0.159 A 
ATOM      6  N   UNL d   1       0.850   0.482   0.005  0.00  0.00    -0.278 N 
ATOM      7  HN  UNL d   1       1.555   1.185   0.227  1.00  0.00     0.189 HD
ATOM      8  C   UNL d   1      -2.338  -0.628  -1.190  0.00  0.00     0.160 C 
ENDROOT
BRANCH   1   9
ATOM      9  C   UNL d   1      -0.381  -2.862  -0.072  0.00  0.00     0.074 A 
ATOM     10  C   UNL d   1      -0.001  -3.721   0.954  0.00  0.00     0.027 A 
ATOM     11  N   UNL d   1      -0.363  -5.051   0.768  0.00  0.00    -0.357 N 
ATOM     12  C   UNL d   1       0.726  -3.397   2.213  0.00  0.00     0.070 C 
ATOM     13  C   UNL d   1      -0.942  -5.210  -0.400  0.00  0.00     0.048 A 
ATOM     14  HN  UNL d   1      -0.202  -5.798   1.444  1.00  0.00     0.166 HD
ATOM     15  S   UNL d   1      -1.077  -3.787  -1.345  0.00  0.00    -0.071 SA
ATOM     16  C   UNL d   1      -1.446  -6.512  -0.908  0.00  0.00     0.076 C 
ENDBRANCH   1   9
BRANCH   5  17
ATOM     17  S   UNL d   1      -0.834   2.245  -1.144  0.00  0.00    -0.105 SA
ATOM     18  H   UNL d   1      -1.997   1.915  -1.717  0.00  0.00     0.110 HD
ENDBRANCH   5  17
TORSDOF 2
