REMARK  5 active torsions:
REMARK  status: ('A' for Active; 'I' for Inactive)
REMARK    1  A    between atoms: N_2  and  S_1 
REMARK    2  A    between atoms: C_3  and  S_1 
REMARK    3  A    between atoms: C_6  and  N_5 
REMARK    4  A    between atoms: O_22  and  C_12 
REMARK    5  A    between atoms: O_23  and  C_19 
ROOT
ATOM      1  N   UNL d   1       0.525  -1.022   0.988  0.00  0.00    -0.203 NA
ATOM      2  N   UNL d   1       1.290  -3.790   0.714  0.00  0.00    -0.378 N 
ATOM      3  C   UNL d   1       1.556  -1.631   1.895  0.00  0.00     0.127 C 
ATOM      4  C   UNL d   1      -0.432  -2.069   0.511  0.00  0.00     0.127 C 
ATOM      5  C   UNL d   1       0.305  -3.207  -0.211  0.00  0.00     0.138 C 
ATOM      6  C   UNL d   1       2.286  -2.822   1.224  0.00  0.00     0.138 C 
ENDROOT
BRANCH   1   7
ATOM      7  S   UNL d   1       1.106   0.032  -0.213  0.00  0.00     0.243 S 
ATOM      8  O   UNL d   1       0.118   0.141  -1.261  0.00  0.00    -0.206 OA
ATOM      9  O   UNL d   1       2.482  -0.303  -0.505  0.00  0.00    -0.206 OA
BRANCH   7  10
ATOM     10  C   UNL d   1       1.094   1.584   0.646  0.00  0.00     0.077 A 
ATOM     11  C   UNL d   1       2.276   2.314   0.803  0.00  0.00     0.064 A 
ATOM     12  C   UNL d   1       2.250   3.575   1.417  0.00  0.00     0.102 A 
ATOM     13  C   UNL d   1       1.019   4.081   1.884  0.00  0.00     0.101 A 
ATOM     14  C   UNL d   1      -0.153   3.324   1.718  0.00  0.00     0.041 A 
ATOM     15  C   UNL d   1      -0.124   2.081   1.098  0.00  0.00     0.028 A 
BRANCH  12  16
ATOM     16  O   UNL d   1       3.369   4.348   1.569  0.00  0.00    -0.353 OA
ATOM     17  C   UNL d   1       4.615   3.847   1.101  0.00  0.00     0.210 C 
ENDBRANCH  12  16
BRANCH  13  18
ATOM     18  O   UNL d   1       0.763   5.271   2.514  0.00  0.00    -0.353 OA
ATOM     19  C   UNL d   1       1.833   6.170   2.753  0.00  0.00     0.210 C 
ENDBRANCH  13  18
ENDBRANCH   7  10
ENDBRANCH   1   7
BRANCH   2  20
ATOM     20  C   UNL d   1       1.643  -5.137   0.617  0.00  0.00     0.043 A 
ATOM     21  C   UNL d   1       1.420  -5.991  -0.509  0.00  0.00     0.018 A 
ATOM     22  C   UNL d   1       1.732  -7.354  -0.414  0.00  0.00     0.044 A 
ATOM     23  C   UNL d   1       0.927  -5.803  -1.842  0.00  0.00     0.033 A 
ATOM     24  N   UNL d   1       1.413  -7.940  -1.621  0.00  0.00    -0.365 N 
ATOM     25  C   UNL d   1       2.258  -7.947   0.735  0.00  0.00     0.030 A 
ATOM     26  C   UNL d   1       0.924  -7.015  -2.491  0.00  0.00     0.089 A 
ATOM     27  H   UNL d   1       1.535  -8.924  -1.823  0.00  0.00     0.165 HD
ATOM     28  C   UNL d   1       2.487  -7.125   1.829  0.00  0.00     0.005 A 
ATOM     29  C   UNL d   1       2.187  -5.767   1.768  0.00  0.00     0.030 A 
ENDBRANCH   2  20
TORSDOF 5
