REMARK  1 active torsions:
REMARK  status: ('A' for Active; 'I' for Inactive)
REMARK    1  A    between atoms: C_13  and  C_6 
ROOT
ATOM      1  C   UNL d   1       2.048   1.450   0.100  0.00  0.00     0.030 C 
ATOM      2  N   UNL d   1       0.960   1.480  -0.582  0.00  0.00    -0.357 N 
ATOM      3  HN  UNL d   1       0.923   2.209  -1.296  1.00  0.00     0.166 HD
ATOM      4  C   UNL d   1       2.563   0.472   1.095  0.00  0.00     0.079 C 
ATOM      5  S   UNL d   1       0.581  -1.444   1.324  0.00  0.00    -0.117 SA
ATOM      6  C   UNL d   1       2.238  -0.977   0.801  0.00  0.00     0.097 C 
ATOM      7  C   UNL d   1       2.905   2.644   0.132  0.00  0.00     0.020 A 
ATOM      8  C   UNL d   1      -0.190   0.673  -0.505  0.00  0.00     0.049 A 
ATOM      9  C   UNL d   1       2.205   1.148   2.413  0.00  0.00     0.188 C 
ATOM     10  C   UNL d   1      -0.467  -0.501   0.223  0.00  0.00     0.028 A 
ATOM     11  O   UNL d   1       2.957   2.383   2.575  0.00  0.00    -0.349 OA
ATOM     12  C   UNL d   1       3.330   3.028   1.415  0.00  0.00     0.081 A 
ATOM     13  C   UNL d   1       3.378   3.268  -1.018  0.00  0.00     0.016 A 
ATOM     14  C   UNL d   1      -1.263   1.256  -1.220  0.00  0.00     0.031 A 
ATOM     15  C   UNL d   1      -1.778  -1.041   0.180  0.00  0.00     0.021 A 
ATOM     16  C   UNL d   1       4.243   4.068   1.543  0.00  0.00     0.037 A 
ATOM     17  C   UNL d   1       4.321   4.287  -0.878  0.00  0.00     0.001 A 
ATOM     18  C   UNL d   1      -2.555   0.727  -1.231  0.00  0.00     0.002 A 
ATOM     19  C   UNL d   1      -2.812  -0.435  -0.531  0.00  0.00     0.002 A 
ATOM     20  C   UNL d   1       4.749   4.685   0.396  0.00  0.00     0.003 A 
ENDROOT
BRANCH   6  21
ATOM     21  C   UNL d   1       3.360  -1.811   1.445  0.00  0.00    -0.043 A 
ATOM     22  C   UNL d   1       4.572  -1.962   0.735  0.00  0.00     0.011 A 
ATOM     23  C   UNL d   1       5.709  -2.482   1.357  0.00  0.00     0.043 A 
ATOM     24  C   UNL d   1       5.639  -2.878   2.685  0.00  0.00     0.116 A 
ATOM     25  C   UNL d   1       4.452  -2.779   3.397  0.00  0.00     0.043 A 
ATOM     26  F   UNL d   1       6.739  -3.338   3.295  0.00  0.00    -0.206 F 
ATOM     27  C   UNL d   1       3.316  -2.245   2.783  0.00  0.00     0.011 A 
ENDBRANCH   6  21
TORSDOF 1
