REMARK  7 active torsions:
REMARK  status: ('A' for Active; 'I' for Inactive)
REMARK    1  A    between atoms: C_3  and  N_1 
REMARK    2  A    between atoms: S_13  and  C_2 
REMARK    3  A    between atoms: N_8  and  C_4 
REMARK    4  A    between atoms: O_28  and  C_7 
REMARK    5  A    between atoms: C_12  and  C_9 
REMARK    6  A    between atoms: C_15  and  S_13 
REMARK    7  A    between atoms: C_14  and  C_17 
ROOT
ATOM      1  N   UNL d   1      -0.110  -1.266   0.178  0.00  0.00    -0.254 N 
ATOM      2  C   UNL d   1       1.141  -0.701  -0.025  0.00  0.00     0.174 A 
ATOM      3  N   UNL d   1       1.038   0.589  -0.251  0.00  0.00    -0.276 N 
ATOM      4  HN  UNL d   1       1.813   1.232  -0.415  1.00  0.00     0.189 HD
ATOM      5  C   UNL d   1      -0.965  -0.170   0.046  0.00  0.00     0.245 A 
ATOM      6  N   UNL d   1      -0.290   0.918  -0.228  0.00  0.00    -0.263 N 
ATOM      7  HN  UNL d   1      -0.684   1.845  -0.393  1.00  0.00     0.190 HD
ENDROOT
BRANCH   2   8
ATOM      8  S   UNL d   1       2.634  -1.556  -0.136  0.00  0.00    -0.050 SA
BRANCH   8   9
ATOM      9  C   UNL d   1       2.997  -1.612  -1.882  0.00  0.00     0.041 A 
ATOM     10  C   UNL d   1       4.228  -2.113  -2.345  0.00  0.00     0.120 A 
ATOM     11  C   UNL d   1       4.582  -2.123  -3.701  0.00  0.00     0.053 A 
ATOM     12  C   UNL d   1       3.681  -1.643  -4.657  0.00  0.00     0.050 A 
ATOM     13  C   UNL d   1       2.433  -1.178  -4.223  0.00  0.00     0.017 A 
ATOM     14  C   UNL d   1       2.101  -1.158  -2.861  0.00  0.00     0.022 A 
BRANCH  10  15
ATOM     15  N   UNL d   1       5.205  -2.675  -1.426  0.00  0.00    -0.114 N 
ATOM     16  O   UNL d   1       4.897  -3.723  -0.846  0.00  0.00    -0.532 OA
ATOM     17  O   UNL d   1       6.294  -2.094  -1.347  0.00  0.00    -0.532 OA
ENDBRANCH  10  15
BRANCH  12  18
ATOM     18  C   UNL d   1       4.030  -1.611  -6.127  0.00  0.00     0.417 C 
ATOM     19  F   UNL d   1       5.288  -2.057  -6.392  0.00  0.00    -0.166 F 
ATOM     20  F   UNL d   1       3.192  -2.382  -6.872  0.00  0.00    -0.166 F 
ATOM     21  F   UNL d   1       3.955  -0.357  -6.648  0.00  0.00    -0.166 F 
ENDBRANCH  12  18
ENDBRANCH   8   9
ENDBRANCH   2   8
BRANCH   1  22
ATOM     22  C   UNL d   1      -0.510  -2.636   0.265  0.00  0.00     0.060 A 
ATOM     23  C   UNL d   1       0.115  -3.609   1.076  0.00  0.00     0.075 A 
ATOM     24  C   UNL d   1      -0.332  -4.949   0.978  0.00  0.00     0.018 A 
ATOM     25  C   UNL d   1      -1.412  -5.308   0.175  0.00  0.00     0.001 A 
ATOM     26  C   UNL d   1      -2.063  -4.338  -0.570  0.00  0.00     0.002 A 
ATOM     27  C   UNL d   1      -1.608  -3.019  -0.542  0.00  0.00     0.031 A 
BRANCH  23  28
ATOM     28  C   UNL d   1       1.155  -3.358   2.151  0.00  0.00     0.419 C 
ATOM     29  F   UNL d   1       1.251  -2.056   2.527  0.00  0.00    -0.166 F 
ATOM     30  F   UNL d   1       0.871  -4.037   3.301  0.00  0.00    -0.166 F 
ATOM     31  F   UNL d   1       2.397  -3.770   1.791  0.00  0.00    -0.166 F 
ENDBRANCH  23  28
ENDBRANCH   1  22
BRANCH   5  32
ATOM     32  O   UNL d   1      -2.284  -0.166   0.197  0.00  0.00    -0.331 OA
ATOM     33  H   UNL d   1      -2.546  -0.950   0.706  0.00  0.00     0.221 HD
ENDBRANCH   5  32
TORSDOF 7
