REMARK  5 active torsions:
REMARK  status: ('A' for Active; 'I' for Inactive)
REMARK    1  A    between atoms: C_3  and  S_1 
REMARK    2  A    between atoms: N_6  and  S_1 
REMARK    3  A    between atoms: C_2  and  C_14 
REMARK    4  A    between atoms: C_14  and  N_6 
REMARK    5  A    between atoms: N_8  and  C_9 
REMARK       I    between atoms: C_13  and  N_8 
ROOT
ATOM      1  S   UNL d   1       1.035  -0.007   0.036  0.00  0.00     0.259 S 
ATOM      2  O   UNL d   1       0.657  -0.318  -1.325  0.00  0.00    -0.201 OA
ATOM      3  O   UNL d   1       2.396  -0.142   0.502  0.00  0.00    -0.201 OA
ENDROOT
BRANCH   1   4
ATOM      4  C   UNL d   1      -0.001  -1.024   1.069  0.00  0.00     0.081 A 
ATOM      5  C   UNL d   1       0.575  -1.933   1.959  0.00  0.00     0.051 A 
ATOM      6  C   UNL d   1      -0.243  -2.861   2.617  0.00  0.00     0.062 A 
ATOM      7 CL   UNL d   1       0.516  -4.011   3.666  0.00  0.00    -0.082 Cl
ATOM      8  C   UNL d   1      -1.639  -2.886   2.410  0.00  0.00     0.056 A 
ATOM      9  C   UNL d   1      -2.194  -1.946   1.535  0.00  0.00     0.033 A 
ATOM     10  C   UNL d   1      -1.381  -1.026   0.859  0.00  0.00     0.027 A 
BRANCH   8  11
ATOM     11  N   UNL d   1      -2.410  -3.881   3.069  0.00  0.00    -0.326 N 
ATOM     12  C   UNL d   1      -3.777  -4.071   3.000  0.00  0.00     0.218 C 
ATOM     13  O   UNL d   1      -4.579  -3.377   2.382  0.00  0.00    -0.274 OA
ATOM     14  C   UNL d   1      -4.265  -5.252   3.804  0.00  0.00     0.117 C 
ATOM     15  H   UNL d   1      -1.874  -4.526   3.641  0.00  0.00     0.169 HD
ENDBRANCH   8  11
ENDBRANCH   1   4
BRANCH   1  16
ATOM     16  N   UNL d   1       0.532   1.562   0.340  0.00  0.00    -0.311 N 
ATOM     17  H   UNL d   1      -0.467   1.700   0.190  0.00  0.00     0.172 HD
BRANCH  16  18
ATOM     18  C   UNL d   1       1.045   2.234   1.538  0.00  0.00     0.173 C 
BRANCH  18  19
ATOM     19  C   UNL d   1       0.448   3.620   1.667  0.00  0.00    -0.003 A 
ATOM     20  C   UNL d   1      -0.915   3.790   1.964  0.00  0.00     0.088 A 
ATOM     21  C   UNL d   1      -1.490   5.066   2.025  0.00  0.00     0.003 A 
ATOM     22  O   UNL d   1      -1.664   2.655   2.149  0.00  0.00    -0.325 OA
ATOM     23  C   UNL d   1      -2.953   5.212   2.314  0.00  0.00     0.212 C 
ATOM     24  C   UNL d   1      -0.683   6.193   1.832  0.00  0.00     0.054 A 
ATOM     25  O   UNL d   1      -3.633   3.988   2.060  0.00  0.00    -0.362 OA
ATOM     26  C   UNL d   1      -2.954   2.919   2.702  0.00  0.00     0.345 C 
ATOM     27  C   UNL d   1       0.667   6.030   1.550  0.00  0.00     0.117 A 
ATOM     28  C   UNL d   1       1.237   4.762   1.456  0.00  0.00     0.054 A 
ATOM     29  F   UNL d   1       1.433   7.112   1.357  0.00  0.00    -0.206 F 
ENDBRANCH  18  19
ENDBRANCH  16  18
ENDBRANCH   1  16
TORSDOF 5
