REMARK  5 active torsions:
REMARK  status: ('A' for Active; 'I' for Inactive)
REMARK       I    between atoms: N_2  and  C_1 
REMARK    1  A    between atoms: O_8  and  C_1 
REMARK    2  A    between atoms: C_3  and  C_9 
REMARK       I    between atoms: N_4  and  C_3 
REMARK    3  A    between atoms: C_5  and  N_4 
REMARK    4  A    between atoms: C_19  and  O_8 
REMARK    5  A    between atoms: C_22  and  C_19 
ROOT
ATOM      1  C   UNL d   1       0.808   0.035   0.136  0.00  0.00     0.363 C 
ATOM      2  N   UNL d   1       0.266   0.361  -1.097  0.00  0.00    -0.328 N 
ATOM      3  C   UNL d   1      -1.677  -0.196  -3.172  0.00  0.00     0.081 C 
ATOM      4  O   UNL d   1       1.681  -0.816   0.281  0.00  0.00    -0.238 OA
ATOM      5  C   UNL d   1       0.688  -0.370  -2.282  0.00  0.00     0.129 C 
ATOM      6  C   UNL d   1      -0.844   1.294  -1.289  0.00  0.00     0.129 C 
ATOM      7  C   UNL d   1      -2.054   0.561  -1.875  0.00  0.00     0.034 C 
ATOM      8  C   UNL d   1      -0.490  -1.124  -2.887  0.00  0.00     0.034 C 
ENDROOT
BRANCH   3   9
ATOM      9  C   UNL d   1      -1.520   0.819  -4.315  0.00  0.00     0.226 C 
ATOM     10  N   UNL d   1      -0.657   0.474  -5.342  0.00  0.00    -0.324 N 
ATOM     11  H   UNL d   1      -0.399  -0.501  -5.423  0.00  0.00     0.169 HD
ATOM     12  O   UNL d   1      -2.255   1.810  -4.340  0.00  0.00    -0.273 OA
BRANCH  10  13
ATOM     13  C   UNL d   1      -0.418   1.281  -6.483  0.00  0.00     0.073 A 
ATOM     14  C   UNL d   1      -0.572   2.679  -6.512  0.00  0.00     0.145 A 
ATOM     15  C   UNL d   1      -0.476   3.394  -7.702  0.00  0.00     0.086 A 
ATOM     16  F   UNL d   1      -0.736   3.388  -5.388  0.00  0.00    -0.204 F 
ATOM     17  C   UNL d   1      -0.169   2.717  -8.871  0.00  0.00     0.119 A 
ATOM     18  C   UNL d   1       0.086   1.351  -8.858  0.00  0.00     0.044 A 
ATOM     19  F   UNL d   1      -0.101   3.392 -10.025  0.00  0.00    -0.206 F 
ATOM     20  C   UNL d   1      -0.026   0.632  -7.662  0.00  0.00     0.036 A 
ENDBRANCH  10  13
ENDBRANCH   3   9
BRANCH   1  21
ATOM     21  O   UNL d   1       0.231   0.705   1.168  0.00  0.00    -0.299 OA
BRANCH  21  22
ATOM     22  C   UNL d   1       0.501   0.174   2.470  0.00  0.00     0.219 C 
BRANCH  22  23
ATOM     23  C   UNL d   1       1.405   1.067   3.282  0.00  0.00    -0.034 A 
ATOM     24  C   UNL d   1       0.870   2.064   4.109  0.00  0.00     0.009 A 
ATOM     25  C   UNL d   1       1.702   2.828   4.930  0.00  0.00     0.001 A 
ATOM     26  C   UNL d   1       3.078   2.612   4.922  0.00  0.00     0.000 A 
ATOM     27  C   UNL d   1       3.626   1.644   4.084  0.00  0.00     0.001 A 
ATOM     28  C   UNL d   1       2.795   0.879   3.261  0.00  0.00     0.009 A 
ENDBRANCH  22  23
ENDBRANCH  21  22
ENDBRANCH   1  21
TORSDOF 5
