REMARK  4 active torsions:
REMARK  status: ('A' for Active; 'I' for Inactive)
REMARK    1  A    between atoms: C_2  and  S_1 
REMARK    2  A    between atoms: C_5  and  S_1 
REMARK    3  A    between atoms: C_4  and  C_2 
REMARK    4  A    between atoms: C_3  and  C_6 
ROOT
ATOM      1  C   UNL d   1       0.634  -1.013   1.363  0.00  0.00     0.059 A 
ATOM      2  C   UNL d   1       0.019  -2.747   3.479  0.00  0.00     0.048 A 
ATOM      3  C   UNL d   1       0.714  -2.395   1.169  0.00  0.00     0.024 A 
ATOM      4  C   UNL d   1       0.231  -0.490   2.595  0.00  0.00     0.024 A 
ATOM      5  C   UNL d   1      -0.075  -1.357   3.648  0.00  0.00     0.017 A 
ATOM      6  C   UNL d   1       0.399  -3.257   2.224  0.00  0.00     0.017 A 
ENDROOT
BRANCH   1   7
ATOM      7  S   UNL d   1       1.174   0.091   0.074  0.00  0.00     0.181 S 
ATOM      8  O   UNL d   1       0.867   1.442   0.515  0.00  0.00    -0.222 OA
ATOM      9  O   UNL d   1       2.534  -0.299  -0.243  0.00  0.00    -0.222 OA
BRANCH   7  10
ATOM     10  C   UNL d   1       0.124  -0.261  -1.312  0.00  0.00     0.214 C 
BRANCH  10  11
ATOM     11  C   UNL d   1       0.476   0.649  -2.459  0.00  0.00     0.085 C 
ATOM     12  S   UNL d   1       1.052   0.075  -3.916  0.00  0.00    -0.065 SA
ATOM     13  N   UNL d   1       0.215   1.982  -2.318  0.00  0.00    -0.393 N 
ATOM     14  H   UNL d   1       0.106   2.408  -1.397  0.00  0.00     0.156 HD
ATOM     15  H   UNL d   1       0.510   2.609  -3.060  0.00  0.00     0.156 HD
ENDBRANCH  10  11
ENDBRANCH   7  10
ENDBRANCH   1   7
BRANCH   2  16
ATOM     16  C   UNL d   1      -0.245  -3.691   4.631  0.00  0.00     0.417 C 
ATOM     17  F   UNL d   1      -0.540  -3.056   5.799  0.00  0.00    -0.166 F 
ATOM     18  F   UNL d   1      -1.289  -4.529   4.386  0.00  0.00    -0.166 F 
ATOM     19  F   UNL d   1       0.823  -4.491   4.901  0.00  0.00    -0.166 F 
ENDBRANCH   2  16
TORSDOF 4
