REMARK  3 active torsions:
REMARK  status: ('A' for Active; 'I' for Inactive)
REMARK    1  A    between atoms: C_2  and  C_1 
REMARK    2  A    between atoms: C_3  and  C_5 
REMARK       I    between atoms: C_5  and  N_6 
REMARK    3  A    between atoms: N_6  and  C_13 
ROOT
ATOM      1  C   UNL d   1       5.193  -1.092  -0.040  0.00  0.00     0.254 C 
ATOM      2  N   UNL d   1       4.380  -0.205  -0.720  0.00  0.00    -0.325 N 
ATOM      3  O   UNL d   1       6.390  -0.914   0.203  0.00  0.00    -0.270 OA
ATOM      4  H   UNL d   1       3.382  -0.371  -0.648  0.00  0.00     0.169 HD
ENDROOT
BRANCH   2   5
ATOM      5  C   UNL d   1       4.803   0.896  -1.495  0.00  0.00     0.035 A 
ATOM      6  C   UNL d   1       6.137   1.120  -1.855  0.00  0.00     0.047 A 
ATOM      7  C   UNL d   1       6.519   2.177  -2.713  0.00  0.00     0.067 A 
ATOM      8  C   UNL d   1       5.525   3.055  -3.162  0.00  0.00     0.026 A 
ATOM      9  C   UNL d   1       4.189   2.843  -2.803  0.00  0.00     0.022 A 
ATOM     10 BR   UNL d   1       5.881   4.568  -4.251  0.00  0.00    -0.050 Br
ATOM     11  C   UNL d   1       3.830   1.765  -1.987  0.00  0.00     0.031 A 
BRANCH   7  12
ATOM     12  C   UNL d   1       7.983   2.291  -3.063  0.00  0.00     0.418 C 
ATOM     13  F   UNL d   1       8.255   2.901  -4.248  0.00  0.00    -0.166 F 
ATOM     14  F   UNL d   1       8.690   2.970  -2.118  0.00  0.00    -0.166 F 
ATOM     15  F   UNL d   1       8.586   1.068  -3.162  0.00  0.00    -0.166 F 
ENDBRANCH   7  12
ENDBRANCH   2   5
BRANCH   1  16
ATOM     16  C   UNL d   1       4.537  -2.435   0.304  0.00  0.00     0.245 C 
ATOM     17  O   UNL d   1       3.301  -2.337   1.014  0.00  0.00    -0.331 OA
ATOM     18  C   UNL d   1       2.264  -3.011   0.429  0.00  0.00     0.103 A 
ATOM     19  C   UNL d   1       1.209  -3.421   1.239  0.00  0.00     0.040 A 
ATOM     20  C   UNL d   1       2.231  -3.285  -0.939  0.00  0.00     0.102 A 
ATOM     21  C   UNL d   1       0.126  -4.101   0.673  0.00  0.00     0.003 A 
ATOM     22  C   UNL d   1       0.076  -4.322  -0.706  0.00  0.00     0.003 A 
ATOM     23  C   UNL d   1       1.126  -3.898  -1.520  0.00  0.00     0.039 A 
ATOM     24  O   UNL d   1       3.304  -2.994  -1.739  0.00  0.00    -0.345 OA
ATOM     25  C   UNL d   1       4.488  -3.273  -0.978  0.00  0.00     0.218 C 
ENDBRANCH   1  16
TORSDOF 3
