REMARK  9 active torsions:
REMARK  status: ('A' for Active; 'I' for Inactive)
REMARK    1  A    between atoms: N_2  and  C_1 
REMARK       I    between atoms: C_3  and  N_2 
REMARK       I    between atoms: N_13  and  C_3 
REMARK    2  A    between atoms: C_6  and  C_7 
REMARK    3  A    between atoms: C_8  and  C_17 
REMARK    4  A    between atoms: C_9  and  C_18 
REMARK    5  A    between atoms: O_16  and  C_12 
REMARK    6  A    between atoms: C_29  and  N_13 
REMARK    7  A    between atoms: C_17  and  O_16 
REMARK    8  A    between atoms: C_18  and  O_28 
REMARK    9  A    between atoms: O_28  and  C_27 
ROOT
ATOM      1  C   UNL d   1      -0.994  -0.530   0.458  0.00  0.00     0.686 A 
ATOM      2  N   UNL d   1       0.109  -1.147   0.017  0.00  0.00    -0.191 N 
ATOM      3  HN  UNL d   1       0.049  -1.914  -0.653  1.00  0.00     0.184 HD
ATOM      4  C   UNL d   1       1.301  -0.726   0.483  0.00  0.00     0.063 A 
ATOM      5  N   UNL d   1      -0.999   0.468   1.353  0.00  0.00    -0.202 N 
ATOM      6  HN  UNL d   1      -1.867   0.860   1.717  1.00  0.00     0.183 HD
ATOM      7  C   UNL d   1       1.381   0.373   1.329  0.00  0.00     0.048 A 
ATOM      8  C   UNL d   1       0.198   0.924   1.744  0.00  0.00     0.108 A 
ENDROOT
BRANCH   4   9
ATOM      9  C   UNL d   1       2.502  -1.513   0.094  0.00  0.00     0.027 A 
ATOM     10  C   UNL d   1       2.614  -2.310  -1.066  0.00  0.00     0.081 A 
ATOM     11  C   UNL d   1       3.774  -3.063  -1.319  0.00  0.00     0.040 A 
ATOM     12  C   UNL d   1       4.859  -3.034  -0.444  0.00  0.00     0.039 A 
ATOM     13  C   UNL d   1       4.776  -2.267   0.707  0.00  0.00     0.070 A 
ATOM     14  C   UNL d   1       3.614  -1.539   0.970  0.00  0.00     0.053 A 
BRANCH  10  15
ATOM     15  O   UNL d   1       1.594  -2.539  -1.960  0.00  0.00    -0.342 OA
BRANCH  15  16
ATOM     16  C   UNL d   1       1.232  -1.397  -2.750  0.00  0.00     0.293 C 
BRANCH  16  17
ATOM     17  C   UNL d   1       1.277  -1.699  -4.245  0.00  0.00     0.408 C 
ATOM     18  F   UNL d   1       1.852  -2.888  -4.529  0.00  0.00    -0.169 F 
ATOM     19  F   UNL d   1       0.032  -1.710  -4.778  0.00  0.00    -0.169 F 
ATOM     20  F   UNL d   1       1.982  -0.746  -4.901  0.00  0.00    -0.169 F 
ENDBRANCH  16  17
ENDBRANCH  15  16
ENDBRANCH  10  15
BRANCH  13  21
ATOM     21  O   UNL d   1       5.733  -2.218   1.683  0.00  0.00    -0.342 OA
BRANCH  21  22
ATOM     22  C   UNL d   1       7.084  -2.133   1.206  0.00  0.00     0.293 C 
BRANCH  22  23
ATOM     23  C   UNL d   1       7.948  -1.342   2.191  0.00  0.00     0.408 C 
ATOM     24  F   UNL d   1       7.250  -0.373   2.817  0.00  0.00    -0.169 F 
ATOM     25  F   UNL d   1       8.491  -2.145   3.128  0.00  0.00    -0.169 F 
ATOM     26  F   UNL d   1       8.969  -0.739   1.532  0.00  0.00    -0.169 F 
ENDBRANCH  22  23
ENDBRANCH  21  22
ENDBRANCH  13  21
ENDBRANCH   4   9
BRANCH   1  27
ATOM     27  N   UNL d   1      -2.188  -0.948  -0.101  0.00  0.00    -0.141 N 
ATOM     28  C   UNL d   1      -3.465  -0.625   0.258  0.00  0.00     0.339 C 
ATOM     29  N   UNL d   1      -3.604  -0.013   1.476  0.00  0.00    -0.308 N 
ATOM     30  O   UNL d   1      -4.384  -0.978  -0.477  0.00  0.00    -0.246 OA
ATOM     31  H   UNL d   1      -2.731   0.147   1.968  0.00  0.00     0.170 HD
ATOM     32  H   UNL d   1      -2.100  -1.569  -0.889  0.00  0.00     0.189 HD
BRANCH  29  33
ATOM     33  C   UNL d   1      -4.784   0.301   2.168  0.00  0.00     0.036 A 
ATOM     34  C   UNL d   1      -6.046   0.339   1.574  0.00  0.00     0.031 A 
ATOM     35  C   UNL d   1      -7.174   0.648   2.342  0.00  0.00     0.026 A 
ATOM     36  C   UNL d   1      -7.041   0.901   3.705  0.00  0.00     0.034 A 
ATOM     37  C   UNL d   1      -5.787   0.864   4.307  0.00  0.00     0.026 A 
ATOM     38 CL   UNL d   1      -8.432   1.257   4.653  0.00  0.00    -0.084 Cl
ATOM     39  C   UNL d   1      -4.659   0.579   3.535  0.00  0.00     0.031 A 
ENDBRANCH  29  33
ENDBRANCH   1  27
TORSDOF 9
