REMARK  7 active torsions:
REMARK  status: ('A' for Active; 'I' for Inactive)
REMARK    1  A    between atoms: N_9  and  C_1 
REMARK    2  A    between atoms: N_6  and  C_2 
REMARK    3  A    between atoms: C_13  and  C_3 
REMARK    4  A    between atoms: C_8  and  N_6 
REMARK    5  A    between atoms: N_11  and  C_8 
REMARK       I    between atoms: C_12  and  N_11 
REMARK    6  A    between atoms: C_20  and  C_12 
REMARK    7  A    between atoms: C_21  and  N_14 
ROOT
ATOM      1  C   UNL d   1       1.120   0.535  -0.221  0.00  0.00     0.118 A 
ATOM      2  C   UNL d   1       1.116  -0.846  -0.200  0.00  0.00     0.152 A 
ATOM      3  C   UNL d   1      -0.220   0.908  -0.484  0.00  0.00     0.062 A 
ATOM      4  N   UNL d   1      -1.001  -0.167  -0.675  0.00  0.00    -0.300 N 
ATOM      5  HN  UNL d   1      -2.003  -0.192  -0.866  1.00  0.00     0.186 HD
ATOM      6  N   UNL d   1      -0.158  -1.199  -0.557  0.00  0.00    -0.283 N 
ATOM      7  H   UNL d   1      -0.530  -2.134  -0.684  0.00  0.00     0.188 HD
ENDROOT
BRANCH   2   8
ATOM      8  N   UNL d   1       2.172  -1.676   0.167  0.00  0.00    -0.316 N 
ATOM      9  H   UNL d   1       2.940  -1.235   0.688  0.00  0.00     0.170 HD
BRANCH   8  10
ATOM     10  C   UNL d   1       2.231  -3.081  -0.062  0.00  0.00     0.180 C 
ATOM     11  S   UNL d   1       1.326  -3.983  -1.135  0.00  0.00    -0.040 SA
BRANCH  10  12
ATOM     12  N   UNL d   1       3.150  -3.732   0.721  0.00  0.00    -0.299 N 
ATOM     13  C   UNL d   1       3.796  -3.216   1.830  0.00  0.00     0.257 C 
ATOM     14  O   UNL d   1       3.985  -2.008   1.952  0.00  0.00    -0.267 OA
ATOM     15  H   UNL d   1       3.149  -4.729   0.571  0.00  0.00     0.171 HD
BRANCH  13  16
ATOM     16  C   UNL d   1       4.292  -4.196   2.852  0.00  0.00     0.032 A 
ATOM     17  C   UNL d   1       3.979  -5.565   2.826  0.00  0.00     0.017 A 
ATOM     18  C   UNL d   1       4.443  -6.418   3.832  0.00  0.00     0.001 A 
ATOM     19  C   UNL d   1       5.212  -5.915   4.878  0.00  0.00     0.000 A 
ATOM     20  C   UNL d   1       5.517  -4.558   4.922  0.00  0.00     0.001 A 
ATOM     21  C   UNL d   1       5.061  -3.703   3.915  0.00  0.00     0.017 A 
ENDBRANCH  13  16
ENDBRANCH  10  12
ENDBRANCH   8  10
ENDBRANCH   2   8
BRANCH   1  22
ATOM     22  N   UNL d   1       2.221   1.376   0.004  0.00  0.00    -0.295 N 
ATOM     23  N   UNL d   1       3.221   0.997  -0.646  0.00  0.00    -0.300 N 
ATOM     24  HN  UNL d   1       3.201   0.203  -1.285  1.00  0.00     0.187 HD
ATOM     25  HN  UNL d   1       2.208   2.191   0.617  1.00  0.00     0.187 HD
BRANCH  23  26
ATOM     26  C   UNL d   1       4.376   1.770  -0.413  0.00  0.00     0.048 A 
ATOM     27  C   UNL d   1       4.372   3.167  -0.309  0.00  0.00     0.032 A 
ATOM     28  C   UNL d   1       5.567   3.875  -0.131  0.00  0.00     0.021 A 
ATOM     29  C   UNL d   1       6.777   3.187  -0.067  0.00  0.00     0.011 A 
ATOM     30  C   UNL d   1       6.805   1.801  -0.182  0.00  0.00     0.021 A 
ATOM     31 BR   UNL d   1       8.393   4.140   0.165  0.00  0.00    -0.051 Br
ATOM     32  C   UNL d   1       5.608   1.100  -0.358  0.00  0.00     0.032 A 
ENDBRANCH  23  26
ENDBRANCH   1  22
BRANCH   3  33
ATOM     33  C   UNL d   1      -0.864   2.283  -0.573  0.00  0.00     0.040 A 
ATOM     34  C   UNL d   1      -0.150   3.420  -1.267  0.00  0.00     0.011 A 
ATOM     35  C   UNL d   1      -0.327   3.454   0.217  0.00  0.00     0.011 A 
ENDBRANCH   3  33
TORSDOF 7
