REMARK  3 active torsions:
REMARK  status: ('A' for Active; 'I' for Inactive)
REMARK    1  A    between atoms: C_6  and  C_1 
REMARK    2  A    between atoms: C_9  and  N_2 
REMARK       I    between atoms: N_8  and  C_6 
REMARK    3  A    between atoms: C_10  and  N_8 
ROOT
ATOM      1  C   UNL d   1      -0.246   1.155  -0.399  0.00  0.00     0.073 C 
ATOM      2  N   UNL d   1       0.690  -0.852  -0.153  0.00  0.00    -0.260 N 
ATOM      3  C   UNL d   1       0.915   0.512   0.035  0.00  0.00     0.048 C 
ATOM      4  N   UNL d   1      -0.380  -1.068  -0.951  0.00  0.00    -0.304 N 
ATOM      5  HN  UNL d   1      -0.662  -1.940  -1.400  1.00  0.00     0.186 HD
ATOM      6  C   UNL d   1      -0.982   0.118  -1.017  0.00  0.00     0.126 C 
ATOM      7  C   UNL d   1       2.221   1.047   0.512  0.00  0.00     0.071 C 
ENDROOT
BRANCH   1   8
ATOM      8  C   UNL d   1      -0.669   2.553  -0.341  0.00  0.00     0.255 C 
ATOM      9  N   UNL d   1       0.145   3.391   0.382  0.00  0.00    -0.352 N 
ATOM     10  H   UNL d   1       0.886   2.966   0.912  0.00  0.00     0.163 HD
ATOM     11  O   UNL d   1      -1.711   2.927  -0.864  0.00  0.00    -0.268 OA
BRANCH   9  12
ATOM     12  C   UNL d   1      -0.187   4.744   0.779  0.00  0.00     0.093 C 
ATOM     13  C   UNL d   1      -1.326   4.848   1.815  0.00  0.00     0.064 C 
ATOM     14  C   UNL d   1      -1.593   6.320   1.746  0.00  0.00    -0.050 A 
ATOM     15  C   UNL d   1      -2.180   7.127   2.704  0.00  0.00     0.007 A 
ATOM     16  C   UNL d   1      -1.150   6.845   0.521  0.00  0.00    -0.050 A 
ATOM     17  C   UNL d   1      -2.307   8.489   2.428  0.00  0.00     0.001 A 
ATOM     18  C   UNL d   1      -1.871   9.015   1.200  0.00  0.00     0.001 A 
ATOM     19  C   UNL d   1      -1.296   8.189   0.231  0.00  0.00     0.007 A 
ATOM     20  C   UNL d   1      -0.537   5.764  -0.327  0.00  0.00     0.064 C 
ENDBRANCH   9  12
ENDBRANCH   1   8
BRANCH   2  21
ATOM     21  C   UNL d   1       1.422  -1.957   0.368  0.00  0.00     0.056 A 
ATOM     22  C   UNL d   1       2.065  -1.871   1.613  0.00  0.00     0.034 A 
ATOM     23  C   UNL d   1       2.804  -2.954   2.093  0.00  0.00     0.044 A 
ATOM     24  C   UNL d   1       2.897  -4.113   1.333  0.00  0.00     0.116 A 
ATOM     25  C   UNL d   1       2.237  -4.225   0.114  0.00  0.00     0.044 A 
ATOM     26  F   UNL d   1       3.627  -5.140   1.786  0.00  0.00    -0.206 F 
ATOM     27  C   UNL d   1       1.478  -3.153  -0.363  0.00  0.00     0.034 A 
ENDBRANCH   2  21
TORSDOF 3
