REMARK  2 active torsions:
REMARK  status: ('A' for Active; 'I' for Inactive)
REMARK    1  A    between atoms: C_18  and  N_5 
REMARK    2  A    between atoms: C_16  and  C_18 
ROOT
ATOM      1  C   UNL d   1       0.747  -0.530  -0.116  0.00  0.00    -0.005 A 
ATOM      2  C   UNL d   1      -0.733  -0.529   0.123  0.00  0.00    -0.005 A 
ATOM      3  C   UNL d   1       1.326  -1.653  -0.769  0.00  0.00    -0.018 A 
ATOM      4  C   UNL d   1      -1.305  -1.645   0.794  0.00  0.00    -0.018 A 
ATOM      5  N   UNL d   1      -0.028  -3.658  -0.034  0.00  0.00     0.100 N 
ATOM      6  C   UNL d   1       1.603   0.530   0.335  0.00  0.00    -0.014 A 
ATOM      7  C   UNL d   1      -1.592   0.527  -0.329  0.00  0.00    -0.014 A 
ATOM      8  C   UNL d   1      -0.446  -2.852   1.133  0.00  0.00     0.312 C 
ATOM      9  C   UNL d   1       0.462  -2.839  -1.166  0.00  0.00     0.312 C 
ATOM     10  C   UNL d   1      -2.671  -1.666   1.090  0.00  0.00     0.011 A 
ATOM     11  C   UNL d   1       2.698  -1.683  -1.037  0.00  0.00     0.011 A 
ATOM     12  C   UNL d   1      -2.965   0.496   0.021  0.00  0.00    -0.025 A 
ATOM     13  C   UNL d   1       2.980   0.495  -0.001  0.00  0.00    -0.025 A 
ATOM     14  C   UNL d   1       3.507  -0.609  -0.681  0.00  0.00     0.013 A 
ATOM     15  C   UNL d   1      -3.484  -0.596   0.727  0.00  0.00     0.013 A 
ATOM     16  C   UNL d   1       1.163   1.632   1.112  0.00  0.00     0.013 A 
ATOM     17  C   UNL d   1      -1.160   1.620  -1.122  0.00  0.00     0.013 A 
ATOM     18  C   UNL d   1      -3.813   1.557  -0.341  0.00  0.00     0.012 A 
ATOM     19  C   UNL d   1       3.823   1.562   0.354  0.00  0.00     0.012 A 
ATOM     20  C   UNL d   1      -2.010   2.673  -1.468  0.00  0.00     0.001 A 
ATOM     21  C   UNL d   1       2.009   2.689   1.454  0.00  0.00     0.001 A 
ATOM     22  C   UNL d   1       3.338   2.661   1.060  0.00  0.00     0.001 A 
ATOM     23  C   UNL d   1      -3.336   2.647  -1.065  0.00  0.00     0.001 A 
ENDROOT
BRANCH   5  24
ATOM     24  C   UNL d   1      -1.123  -4.538  -0.471  0.00  0.00     0.299 C 
BRANCH  24  25
ATOM     25  C   UNL d   1      -0.682  -5.535  -1.506  0.00  0.00    -0.007 C 
ATOM     26  C   UNL d   1      -1.196  -5.617  -2.739  0.00  0.00     0.008 C 
ENDBRANCH  24  25
ENDBRANCH   5  24
TORSDOF 2
