REMARK  7 active torsions:
REMARK  status: ('A' for Active; 'I' for Inactive)
REMARK    1  A    between atoms: C_2  and  C_1 
REMARK    2  A    between atoms: N_4  and  C_3 
REMARK       I    between atoms: C_5  and  N_4 
REMARK    3  A    between atoms: C_15  and  C_5 
REMARK    4  A    between atoms: C_6  and  C_16 
REMARK    5  A    between atoms: O_12  and  C_6 
REMARK    6  A    between atoms: C_17  and  C_15 
REMARK    7  A    between atoms: C_16  and  C_17 
ROOT
ATOM      1  N   UNL d   1       0.818  -2.603   0.400  0.00  0.00    -0.326 N 
ATOM      2  C   UNL d   1       1.469  -2.319  -0.791  0.00  0.00     0.222 C 
ATOM      3  O   UNL d   1       1.926  -1.221  -1.098  0.00  0.00    -0.273 OA
ATOM      4  H   UNL d   1       0.852  -3.573   0.706  0.00  0.00     0.169 HD
ENDROOT
BRANCH   1   5
ATOM      5  C   UNL d   1       0.595  -1.614   1.389  0.00  0.00     0.049 A 
ATOM      6  C   UNL d   1       0.844  -1.871   2.748  0.00  0.00     0.074 A 
ATOM      7  C   UNL d   1       0.638  -0.835   3.684  0.00  0.00     0.018 A 
ATOM      8  C   UNL d   1       0.163   0.414   3.286  0.00  0.00     0.001 A 
ATOM      9  C   UNL d   1      -0.112   0.649   1.945  0.00  0.00     0.002 A 
ATOM     10  C   UNL d   1       0.108  -0.356   1.004  0.00  0.00     0.030 A 
BRANCH   6  11
ATOM     11  C   UNL d   1       1.421  -3.163   3.259  0.00  0.00     0.419 C 
ATOM     12  F   UNL d   1       1.557  -4.130   2.305  0.00  0.00    -0.166 F 
ATOM     13  F   UNL d   1       0.661  -3.723   4.241  0.00  0.00    -0.166 F 
ATOM     14  F   UNL d   1       2.663  -2.999   3.796  0.00  0.00    -0.166 F 
ENDBRANCH   6  11
ENDBRANCH   1   5
BRANCH   2  15
ATOM     15  C   UNL d   1       1.621  -3.521  -1.705  0.00  0.00     0.103 C 
BRANCH  15  16
ATOM     16  C   UNL d   1       2.955  -3.501  -2.464  0.00  0.00     0.019 C 
BRANCH  16  17
ATOM     17  C   UNL d   1       4.185  -3.586  -1.553  0.00  0.00     0.110 C 
BRANCH  17  18
ATOM     18  C   UNL d   1       4.217  -4.863  -0.753  0.00  0.00     0.139 C 
ATOM     19  O   UNL d   1       3.748  -5.931  -1.125  0.00  0.00    -0.650 OA
BRANCH  18  20
ATOM     20  O   UNL d   1       4.829  -4.728   0.444  0.00  0.00    -0.776 OA
ATOM     21  H   UNL d   1       5.172  -3.830   0.622  0.00  0.00     0.167 HD
ENDBRANCH  18  20
ENDBRANCH  17  18
ENDBRANCH  16  17
ENDBRANCH  15  16
ENDBRANCH   2  15
TORSDOF 7
