REMARK  7 active torsions:
REMARK  status: ('A' for Active; 'I' for Inactive)
REMARK    1  A    between atoms: N_5  and  C_1 
REMARK    2  A    between atoms: C_8  and  C_3 
REMARK    3  A    between atoms: C_13  and  N_4 
REMARK    4  A    between atoms: C_9  and  C_8 
REMARK    5  A    between atoms: C_10  and  C_8 
REMARK    6  A    between atoms: O_17  and  C_9 
REMARK    7  A    between atoms: C_23  and  O_17 
ROOT
ATOM      1  C   UNL d   1       2.415  -0.552  -0.168  0.00  0.00     0.179 A 
ATOM      2  C   UNL d   1       2.440   0.917  -0.131  0.00  0.00     0.286 A 
ATOM      3  C   UNL d   1       1.333  -1.347  -0.056  0.00  0.00     0.014 A 
ATOM      4  N   UNL d   1       1.187   1.531  -0.062  0.00  0.00    -0.276 N 
ATOM      5  C   UNL d   1       0.018  -0.637   0.056  0.00  0.00     0.001 A 
ATOM      6  C   UNL d   1      -0.033   0.779  -0.009  0.00  0.00     0.054 A 
ATOM      7  O   UNL d   1       3.511   1.518  -0.121  0.00  0.00    -0.265 OA
ATOM      8  C   UNL d   1      -1.292   1.410  -0.087  0.00  0.00     0.031 A 
ATOM      9  C   UNL d   1      -1.200  -1.342   0.155  0.00  0.00     0.014 A 
ATOM     10  C   UNL d   1      -2.433  -0.689   0.138  0.00  0.00     0.001 A 
ATOM     11  C   UNL d   1      -2.479   0.685  -0.012  0.00  0.00     0.002 A 
ENDROOT
BRANCH   3  12
ATOM     12  C   UNL d   1       1.399  -2.885  -0.125  0.00  0.00     0.191 C 
BRANCH  12  13
ATOM     13  C   UNL d   1       0.791  -3.568   1.095  0.00  0.00     0.274 C 
ATOM     14  O   UNL d   1       0.167  -4.621   1.063  0.00  0.00    -0.264 OA
BRANCH  13  15
ATOM     15  O   UNL d   1       1.054  -2.867   2.234  0.00  0.00    -0.321 OA
BRANCH  15  16
ATOM     16  C   UNL d   1       0.517  -3.404   3.455  0.00  0.00     0.174 C 
ATOM     17  C   UNL d   1      -0.936  -2.998   3.633  0.00  0.00     0.034 C 
ENDBRANCH  15  16
ENDBRANCH  13  15
ENDBRANCH  12  13
BRANCH  12  18
ATOM     18  C   UNL d   1       0.864  -3.373  -1.477  0.00  0.00     0.141 C 
ATOM     19  O   UNL d   1       0.477  -2.591  -2.350  0.00  0.00    -0.297 OA
ATOM     20  C   UNL d   1       0.880  -4.854  -1.764  0.00  0.00     0.092 C 
ENDBRANCH  12  18
ENDBRANCH   3  12
BRANCH   1  21
ATOM     21  N   UNL d   1       3.703  -1.157  -0.367  0.00  0.00    -0.109 N 
ATOM     22  O   UNL d   1       4.062  -1.339  -1.535  0.00  0.00    -0.532 OA
ATOM     23  O   UNL d   1       4.296  -1.554   0.645  0.00  0.00    -0.532 OA
ENDBRANCH   1  21
BRANCH   4  24
ATOM     24  C   UNL d   1       1.151   2.955   0.016  0.00  0.00     0.043 A 
ATOM     25  C   UNL d   1       1.763   3.719  -0.986  0.00  0.00     0.030 A 
ATOM     26  C   UNL d   1       1.810   5.110  -0.887  0.00  0.00     0.002 A 
ATOM     27  C   UNL d   1       1.262   5.747   0.225  0.00  0.00     0.000 A 
ATOM     28  C   UNL d   1       0.660   4.996   1.234  0.00  0.00     0.002 A 
ATOM     29  C   UNL d   1       0.601   3.604   1.131  0.00  0.00     0.030 A 
ENDBRANCH   4  24
TORSDOF 7
