REMARK  2 active torsions:
REMARK  status: ('A' for Active; 'I' for Inactive)
REMARK    1  A    between atoms: O_7  and  C_1 
REMARK    2  A    between atoms: C_10  and  O_7 
ROOT
ATOM      1  C   UNL d   1      -0.709   1.190  -0.022  0.00  0.00     0.166 C 
ATOM      2  N   UNL d   1      -0.490  -1.194  -0.502  0.00  0.00    -0.298 N 
ATOM      3  C   UNL d   1      -1.212  -0.047  -0.713  0.00  0.00     0.283 C 
ATOM      4  C   UNL d   1       0.746  -1.234   0.066  0.00  0.00     0.179 C 
ATOM      5  C   UNL d   1       0.526   1.131   0.519  0.00  0.00     0.047 C 
ATOM      6  N   UNL d   1       1.230  -0.054   0.545  0.00  0.00    -0.334 N 
ATOM      7  S   UNL d   1       1.625  -2.640   0.161  0.00  0.00    -0.040 SA
ATOM      8  O   UNL d   1      -2.187  -0.063  -1.460  0.00  0.00    -0.265 OA
ATOM      9  C   UNL d   1       1.231   2.310   1.127  0.00  0.00     0.071 C 
ATOM     10  H   UNL d   1      -0.840  -2.028  -0.948  0.00  0.00     0.171 HD
ATOM     11  H   UNL d   1       2.158  -0.077   0.959  0.00  0.00     0.168 HD
ENDROOT
BRANCH   1  12
ATOM     12  O   UNL d   1      -1.405   2.396  -0.045  0.00  0.00    -0.303 OA
BRANCH  12  13
ATOM     13  C   UNL d   1      -2.776   2.434   0.028  0.00  0.00     0.076 A 
ATOM     14  C   UNL d   1      -3.566   1.493   0.687  0.00  0.00     0.038 A 
ATOM     15  C   UNL d   1      -4.959   1.605   0.655  0.00  0.00     0.009 A 
ATOM     16  C   UNL d   1      -5.574   2.687   0.012  0.00  0.00    -0.062 A 
ATOM     17  C   UNL d   1      -4.772   3.669  -0.579  0.00  0.00     0.009 A 
ATOM     18  C   UNL d   1      -7.070   2.760  -0.063  0.00  0.00     0.048 C 
ATOM     19  C   UNL d   1      -3.381   3.543  -0.568  0.00  0.00     0.038 A 
ENDBRANCH  12  13
ENDBRANCH   1  12
TORSDOF 2
