REMARK  1 active torsions:
REMARK  status: ('A' for Active; 'I' for Inactive)
REMARK    1  A    between atoms: N_2  and  C_3 
ROOT
ATOM      1  C   UNL d   1       0.036   0.777   0.060  0.00  0.00     0.093 A 
ATOM      2  C   UNL d   1       1.243   1.512   0.005  0.00  0.00     0.060 A 
ATOM      3  C   UNL d   1      -1.257   1.400   0.018  0.00  0.00     0.103 C 
ATOM      4  N   UNL d   1      -2.305   1.900  -0.010  0.00  0.00    -0.191 NA
ATOM      5  C   UNL d   1       0.099  -0.630   0.060  0.00  0.00     0.057 A 
ATOM      6 CL   UNL d   1      -1.324  -1.619   0.108  0.00  0.00    -0.083 Cl
ATOM      7  C   UNL d   1       2.470   0.821  -0.072  0.00  0.00     0.031 A 
ATOM      8  C   UNL d   1       2.509  -0.573  -0.064  0.00  0.00     0.004 A 
ATOM      9  C   UNL d   1       1.325  -1.298   0.005  0.00  0.00     0.025 A 
ENDROOT
BRANCH   2  10
ATOM     10  N   UNL d   1       1.288   2.942   0.023  0.00  0.00    -0.331 N 
ATOM     11  C   UNL d   1       0.410   3.803   0.649  0.00  0.00     0.096 A 
ATOM     12  C   UNL d   1       0.790   5.104   0.402  0.00  0.00     0.019 A 
ATOM     13  C   UNL d   1       1.968   5.055  -0.366  0.00  0.00     0.019 A 
ATOM     14  C   UNL d   1       2.268   3.725  -0.562  0.00  0.00     0.096 A 
ENDBRANCH   2  10
TORSDOF 1
