REMARK  3 active torsions:
REMARK  status: ('A' for Active; 'I' for Inactive)
REMARK    1  A    between atoms: N_2  and  C_1 
REMARK    2  A    between atoms: N_5  and  C_3 
REMARK    3  A    between atoms: N_4  and  C_7 
ROOT
ATOM      1  C   UNL d   1      -0.951  -0.576  -1.246  0.00  0.00     0.131 A 
ATOM      2  C   UNL d   1      -1.262  -1.236  -0.041  0.00  0.00     0.064 A 
ATOM      3  C   UNL d   1      -0.437   0.734  -1.291  0.00  0.00     0.075 A 
ATOM      4  C   UNL d   1      -0.247   1.433  -0.098  0.00  0.00     0.111 A 
ATOM      5  C   UNL d   1      -1.015  -0.482   1.133  0.00  0.00     0.041 A 
ATOM      6  C   UNL d   1      -0.529   0.845   1.139  0.00  0.00    -0.027 A 
ATOM      7  C   UNL d   1      -0.377   1.520   2.474  0.00  0.00     0.050 C 
ENDROOT
BRANCH   2   8
ATOM      8  N   UNL d   1      -1.848  -2.485   0.117  0.00  0.00    -0.379 N 
ATOM      9  C   UNL d   1      -2.776  -3.083  -0.855  0.00  0.00     0.127 C 
ATOM     10  C   UNL d   1      -3.921  -3.787  -0.102  0.00  0.00    -0.001 C 
ATOM     11  C   UNL d   1      -4.872  -4.480  -1.075  0.00  0.00     0.011 C 
ATOM     12  C   UNL d   1      -3.375  -4.789   0.925  0.00  0.00     0.007 C 
ATOM     13  C   UNL d   1      -2.370  -4.114   1.858  0.00  0.00     0.020 C 
ATOM     14  C   UNL d   1      -1.251  -3.448   1.058  0.00  0.00     0.123 C 
ENDBRANCH   2   8
BRANCH   1  15
ATOM     15  N   UNL d   1      -1.119  -1.210  -2.540  0.00  0.00    -0.113 N 
ATOM     16  O   UNL d   1      -0.469  -2.240  -2.768  0.00  0.00    -0.532 OA
ATOM     17  O   UNL d   1      -1.867  -0.640  -3.346  0.00  0.00    -0.532 OA
ENDBRANCH   1  15
BRANCH   4  18
ATOM     18  N   UNL d   1       0.221   2.805  -0.207  0.00  0.00    -0.115 N 
ATOM     19  O   UNL d   1       1.308   2.981  -0.773  0.00  0.00    -0.532 OA
ATOM     20  O   UNL d   1      -0.520   3.694   0.229  0.00  0.00    -0.532 OA
ENDBRANCH   4  18
TORSDOF 3
