REMARK  4 active torsions:
REMARK  status: ('A' for Active; 'I' for Inactive)
REMARK    1  A    between atoms: N_7  and  C_1 
REMARK    2  A    between atoms: C_13  and  N_9 
REMARK    3  A    between atoms: O_11  and  C_15 
REMARK    4  A    between atoms: C_12  and  O_11 
ROOT
ATOM      1  C   UNL d   1      -2.200   4.315   0.320  0.00  0.00     0.082 A 
ATOM      2  C   UNL d   1      -1.667   5.244  -0.602  0.00  0.00     0.104 A 
ATOM      3  C   UNL d   1      -3.213   4.762   1.188  0.00  0.00     0.034 A 
ATOM      4  C   UNL d   1      -2.247   6.522  -0.721  0.00  0.00     0.040 A 
ATOM      5  C   UNL d   1      -3.712   6.064   1.131  0.00  0.00     0.002 A 
ATOM      6  C   UNL d   1      -3.244   6.938   0.159  0.00  0.00     0.003 A 
ENDROOT
BRANCH   1   7
ATOM      7  N   UNL d   1      -1.900   2.934   0.421  0.00  0.00    -0.297 N 
ATOM      8  N   UNL d   1      -0.828   2.566  -0.093  0.00  0.00    -0.296 N 
ATOM      9  HN  UNL d   1      -0.124   3.210  -0.454  1.00  0.00     0.187 HD
ATOM     10  HN  UNL d   1      -2.526   2.278   0.889  1.00  0.00     0.187 HD
BRANCH   8  11
ATOM     11  C   UNL d   1      -0.693   1.170  -0.124  0.00  0.00     0.095 A 
ATOM     12  C   UNL d   1       0.479   0.474   0.078  0.00  0.00     0.054 A 
ATOM     13  N   UNL d   1       0.149  -0.842  -0.122  0.00  0.00    -0.299 N 
ATOM     14  C   UNL d   1       1.841   0.942   0.424  0.00  0.00     0.072 C 
ATOM     15  C   UNL d   1       1.010  -2.003  -0.074  0.00  0.00     0.177 C 
ATOM     16  N   UNL d   1      -1.148  -1.035  -0.424  0.00  0.00    -0.301 N 
ATOM     17  C   UNL d   1      -1.672   0.195  -0.442  0.00  0.00     0.052 A 
ATOM     18  HN  UNL d   1      -1.624  -1.920  -0.599  1.00  0.00     0.187 HD
ATOM     19  C   UNL d   1      -3.100   0.381  -0.801  0.00  0.00     0.072 C 
ENDBRANCH   8  11
ENDBRANCH   1   7
BRANCH   2  20
ATOM     20  O   UNL d   1      -0.598   4.851  -1.385  0.00  0.00    -0.307 OA
BRANCH  20  21
ATOM     21  C   UNL d   1       0.281   5.790  -1.881  0.00  0.00     0.098 A 
ATOM     22  C   UNL d   1       0.908   6.812  -1.149  0.00  0.00     0.069 A 
ATOM     23  C   UNL d   1       1.744   7.726  -1.800  0.00  0.00     0.050 A 
ATOM     24 CL   UNL d   1       0.753   6.988   0.564  0.00  0.00    -0.081 Cl
ATOM     25  C   UNL d   1       2.020   7.571  -3.157  0.00  0.00     0.035 A 
ATOM     26  C   UNL d   1       1.476   6.506  -3.871  0.00  0.00     0.026 A 
ATOM     27 CL   UNL d   1       3.062   8.687  -3.949  0.00  0.00    -0.084 Cl
ATOM     28  C   UNL d   1       0.605   5.621  -3.234  0.00  0.00     0.041 A 
ENDBRANCH  20  21
ENDBRANCH   2  20
TORSDOF 4
