REMARK  3 active torsions:
REMARK  status: ('A' for Active; 'I' for Inactive)
REMARK    1  A    between atoms: C_2  and  C_1 
REMARK    2  A    between atoms: C_3  and  C_2 
REMARK    3  A    between atoms: C_10  and  C_4 
ROOT
ATOM      1  C   UNL d   1       0.876   0.058   0.154  0.00  0.00     0.091 C 
ATOM      2  C   UNL d   1       0.126  -0.287  -0.912  0.00  0.00     0.038 C 
ATOM      3  C   UNL d   1       0.303   0.473   1.386  0.00  0.00     0.103 C 
ATOM      4  N   UNL d   1      -0.141   0.818   2.402  0.00  0.00    -0.191 NA
ENDROOT
BRANCH   1   5
ATOM      5  C   UNL d   1       2.365   0.002  -0.004  0.00  0.00     0.174 C 
ATOM      6  O   UNL d   1       2.894  -0.376  -1.044  0.00  0.00    -0.291 OA
BRANCH   5   7
ATOM      7  C   UNL d   1       3.209   0.399   1.169  0.00  0.00     0.061 A 
ATOM      8  C   UNL d   1       4.692   0.651   1.009  0.00  0.00     0.013 A 
ATOM      9  C   UNL d   1       4.219  -0.588   1.711  0.00  0.00     0.013 A 
ENDBRANCH   5   7
ENDBRANCH   1   5
BRANCH   2  10
ATOM     10  C   UNL d   1      -1.339  -0.241  -0.950  0.00  0.00    -0.035 A 
ATOM     11  C   UNL d   1      -1.982   0.904  -1.437  0.00  0.00     0.013 A 
ATOM     12  C   UNL d   1      -3.377   0.962  -1.484  0.00  0.00     0.024 A 
ATOM     13  C   UNL d   1      -4.131  -0.124  -1.043  0.00  0.00     0.034 A 
ATOM     14  C   UNL d   1      -3.500  -1.266  -0.551  0.00  0.00     0.024 A 
ATOM     15 CL   UNL d   1      -5.848  -0.057  -1.115  0.00  0.00    -0.084 Cl
ATOM     16  C   UNL d   1      -2.104  -1.325  -0.502  0.00  0.00     0.013 A 
ENDBRANCH   2  10
TORSDOF 3
