REMARK  5 active torsions:
REMARK  status: ('A' for Active; 'I' for Inactive)
REMARK    1  A    between atoms: C_2  and  C_1 
REMARK    2  A    between atoms: C_9  and  C_1 
REMARK    3  A    between atoms: C_10  and  C_1 
REMARK    4  A    between atoms: N_11  and  C_2 
REMARK    5  A    between atoms: C_6  and  N_11 
ROOT
ATOM      1  N   UNL d   1       0.989   1.454  -2.021  0.00  0.00    -0.350 N 
ATOM      2  H   UNL d   1       1.994   1.289  -2.172  0.00  0.00     0.166 HD
ENDROOT
BRANCH   1   3
ATOM      3  C   UNL d   1       0.380   2.256  -2.920  0.00  0.00     0.128 A 
ATOM      4  N   UNL d   1       0.918   2.603  -4.094  0.00  0.00    -0.245 N 
ATOM      5  O   UNL d   1      -0.000   3.430  -4.712  0.00  0.00    -0.241 OA
ATOM      6  HN  UNL d   1       1.825   2.315  -4.461  1.00  0.00     0.196 HD
ATOM      7  C   UNL d   1      -1.069   3.605  -3.895  0.00  0.00     0.076 A 
ATOM      8  C   UNL d   1      -0.883   2.873  -2.749  0.00  0.00     0.084 A 
ATOM      9  C   UNL d   1      -2.129   4.503  -4.381  0.00  0.00     0.079 C 
ENDBRANCH   1   3
BRANCH   1  10
ATOM     10  C   UNL d   1       0.478   0.783  -0.928  0.00  0.00     0.108 C 
BRANCH  10  11
ATOM     11  C   UNL d   1       1.127  -0.003  -0.046  0.00  0.00     0.070 C 
BRANCH  11  12
ATOM     12  C   UNL d   1       0.355  -0.671   1.044  0.00  0.00     0.160 C 
ATOM     13  O   UNL d   1       0.887  -0.872   2.136  0.00  0.00    -0.293 OA
ATOM     14  C   UNL d   1      -1.070  -1.119   0.806  0.00  0.00     0.097 C 
ENDBRANCH  11  12
BRANCH  11  15
ATOM     15  C   UNL d   1       2.615  -0.152  -0.166  0.00  0.00     0.160 C 
ATOM     16  O   UNL d   1       3.265   0.595  -0.903  0.00  0.00    -0.293 OA
ATOM     17  C   UNL d   1       3.322  -1.241   0.599  0.00  0.00     0.097 C 
ENDBRANCH  11  15
ENDBRANCH  10  11
ENDBRANCH   1  10
TORSDOF 5
