REMARK  7 active torsions:
REMARK  status: ('A' for Active; 'I' for Inactive)
REMARK    1  A    between atoms: C_7  and  C_1 
REMARK       I    between atoms: C_8  and  N_9 
REMARK    2  A    between atoms: C_16  and  C_8 
REMARK    3  A    between atoms: N_9  and  C_13 
REMARK    4  A    between atoms: C_10  and  C_18 
REMARK    5  A    between atoms: O_19  and  C_10 
REMARK    6  A    between atoms: C_11  and  C_16 
REMARK    7  A    between atoms: C_18  and  C_11 
ROOT
ATOM      1  C   UNL d   1       2.306  -1.194  -0.032  0.00  0.00    -0.004 A 
ATOM      2  C   UNL d   1       2.410  -2.050  -1.144  0.00  0.00     0.043 A 
ATOM      3  C   UNL d   1       3.424  -3.003  -1.255  0.00  0.00     0.035 A 
ATOM      4  C   UNL d   1       3.260  -1.306   0.982  0.00  0.00     0.014 A 
ATOM      5  C   UNL d   1       4.284  -2.255   0.884  0.00  0.00     0.003 A 
ATOM      6  C   UNL d   1       4.374  -3.091  -0.235  0.00  0.00     0.029 A 
ENDROOT
BRANCH   3   7
ATOM      7  N   UNL d   1       3.546  -3.863  -2.370  0.00  0.00    -0.327 N 
ATOM      8  C   UNL d   1       2.555  -4.117  -3.301  0.00  0.00     0.222 C 
ATOM      9  O   UNL d   1       1.389  -3.736  -3.253  0.00  0.00    -0.273 OA
ATOM     10  H   UNL d   1       4.419  -4.385  -2.451  0.00  0.00     0.169 HD
BRANCH   8  11
ATOM     11  C   UNL d   1       3.013  -4.948  -4.487  0.00  0.00     0.112 C 
BRANCH  11  12
ATOM     12  C   UNL d   1       3.545  -4.120  -5.687  0.00  0.00    -0.030 C 
ATOM     13  C   UNL d   1       3.773  -5.091  -6.865  0.00  0.00     0.016 C 
ATOM     14  C   UNL d   1       2.495  -3.083  -6.142  0.00  0.00     0.016 C 
BRANCH  12  15
ATOM     15  C   UNL d   1       4.851  -3.359  -5.367  0.00  0.00     0.119 C 
BRANCH  15  16
ATOM     16  C   UNL d   1       5.958  -4.248  -4.858  0.00  0.00     0.140 C 
ATOM     17  O   UNL d   1       6.039  -4.618  -3.693  0.00  0.00    -0.650 OA
BRANCH  16  18
ATOM     18  O   UNL d   1       6.820  -4.653  -5.815  0.00  0.00    -0.776 OA
ATOM     19  H   UNL d   1       6.621  -4.311  -6.708  0.00  0.00     0.167 HD
ENDBRANCH  16  18
ENDBRANCH  15  16
ENDBRANCH  12  15
ENDBRANCH  11  12
ENDBRANCH   8  11
ENDBRANCH   3   7
BRANCH   1  20
ATOM     20  C   UNL d   1       1.207  -0.219  -0.004  0.00  0.00     0.077 A 
ATOM     21  C   UNL d   1       0.430   0.299   1.067  0.00  0.00     0.057 A 
ATOM     22  C   UNL d   1      -0.535   1.095   0.501  0.00  0.00     0.131 A 
ATOM     23 BR   UNL d   1       0.565  -0.075   2.897  0.00  0.00    -0.047 Br
ATOM     24  N   UNL d   1      -0.322   1.016  -0.839  0.00  0.00    -0.306 N 
ATOM     25  N   UNL d   1       0.752   0.289  -1.169  0.00  0.00    -0.297 N 
ATOM     26  C   UNL d   1      -1.151   1.576  -1.878  0.00  0.00     0.177 C 
ATOM     27  HN  UNL d   1       1.143   0.149  -2.100  1.00  0.00     0.187 HD
ENDBRANCH   1  20
TORSDOF 7
