REMARK  3 active torsions:
REMARK  status: ('A' for Active; 'I' for Inactive)
REMARK    1  A    between atoms: C_9  and  C_1 
REMARK    2  A    between atoms: N_3  and  C_2 
REMARK       I    between atoms: C_12  and  N_3 
REMARK       I    between atoms: C_13  and  N_3 
REMARK    3  A    between atoms: C_16  and  C_6 
ROOT
ATOM      1  C   UNL d   1       0.352  -4.745  -1.038  0.00  0.00     0.694 A 
ATOM      2  N   UNL d   1      -0.019  -3.452  -1.014  0.00  0.00    -0.190 N 
ATOM      3  HN  UNL d   1      -0.555  -3.044  -1.780  1.00  0.00     0.184 HD
ATOM      4  C   UNL d   1       0.340  -2.709   0.057  0.00  0.00     0.065 A 
ATOM      5  N   UNL d   1       1.137  -5.279  -0.087  0.00  0.00    -0.201 N 
ATOM      6  HN  UNL d   1       1.492  -6.231  -0.176  1.00  0.00     0.183 HD
ATOM      7  C   UNL d   1       1.043  -3.228   1.122  0.00  0.00     0.048 A 
ATOM      8  C   UNL d   1       1.443  -4.529   0.982  0.00  0.00     0.108 A 
ENDROOT
BRANCH   4   9
ATOM      9  C   UNL d   1      -0.038  -1.308   0.018  0.00  0.00     0.052 A 
ATOM     10  C   UNL d   1       0.638  -0.112   0.442  0.00  0.00     0.080 A 
ATOM     11  N   UNL d   1      -0.155   0.956   0.248  0.00  0.00    -0.259 N 
ATOM     12  O   UNL d   1      -1.313   0.490  -0.326  0.00  0.00    -0.241 OA
ATOM     13  HN  UNL d   1       0.062   1.925   0.483  1.00  0.00     0.195 HD
ATOM     14  C   UNL d   1      -1.248  -0.856  -0.472  0.00  0.00     0.087 A 
ATOM     15  C   UNL d   1      -2.436  -1.500  -1.067  0.00  0.00     0.080 C 
BRANCH  10  16
ATOM     16  C   UNL d   1       1.975   0.063   1.022  0.00  0.00    -0.007 A 
ATOM     17  C   UNL d   1       2.202   1.058   1.986  0.00  0.00     0.014 A 
ATOM     18  C   UNL d   1       3.458   1.205   2.581  0.00  0.00     0.001 A 
ATOM     19  C   UNL d   1       4.502   0.352   2.227  0.00  0.00     0.000 A 
ATOM     20  C   UNL d   1       4.300  -0.623   1.255  0.00  0.00     0.001 A 
ATOM     21  C   UNL d   1       3.052  -0.751   0.639  0.00  0.00     0.014 A 
ENDBRANCH  10  16
ENDBRANCH   4   9
BRANCH   1  22
ATOM     22  N   UNL d   1      -0.092  -5.582  -2.099  0.00  0.00    -0.083 N 
ATOM     23  C   UNL d   1      -0.666  -5.040  -3.236  0.00  0.00     0.242 C 
ATOM     24  O   UNL d   1      -1.610  -5.574  -3.828  0.00  0.00    -0.272 OA
ATOM     25  C   UNL d   1      -0.073  -3.777  -3.827  0.00  0.00     0.119 C 
ATOM     26  C   UNL d   1      -0.223  -6.937  -1.816  0.00  0.00     0.242 C 
ATOM     27  O   UNL d   1      -0.394  -7.414  -0.691  0.00  0.00    -0.272 OA
ATOM     28  C   UNL d   1      -0.201  -7.902  -2.986  0.00  0.00     0.119 C 
ENDBRANCH   1  22
TORSDOF 3
