REMARK  7 active torsions:
REMARK  status: ('A' for Active; 'I' for Inactive)
REMARK    1  A    between atoms: C_4  and  C_1 
REMARK    2  A    between atoms: O_9  and  N_2 
REMARK    3  A    between atoms: C_7  and  O_9 
REMARK    4  A    between atoms: C_12  and  C_7 
REMARK    5  A    between atoms: C_14  and  C_12 
REMARK    6  A    between atoms: C_16  and  C_14 
REMARK    7  A    between atoms: C_15  and  C_16 
ROOT
ATOM      1  N   UNL d   1       3.339   0.446   1.157  0.00  0.00    -0.261 N 
ATOM      2  HN  UNL d   1       3.889   0.392   2.014  1.00  0.00     0.194 HD
ATOM      3  C   UNL d   1       2.385   1.310   0.976  0.00  0.00     0.040 C 
ATOM      4  C   UNL d   1       1.608   1.500  -0.305  0.00  0.00     0.071 C 
ENDROOT
BRANCH   1   5
ATOM      5  O   UNL d   1       3.538  -0.406   0.058  0.00  0.00    -0.200 OA
BRANCH   5   6
ATOM      6  C   UNL d   1       4.860  -0.769   0.042  0.00  0.00     0.281 C 
ATOM      7  O   UNL d   1       5.806   0.011   0.051  0.00  0.00    -0.263 OA
BRANCH   6   8
ATOM      8  C   UNL d   1       4.983  -2.274  -0.023  0.00  0.00     0.113 C 
BRANCH   8   9
ATOM      9  C   UNL d   1       6.258  -2.731   0.688  0.00  0.00     0.010 C 
BRANCH   9  10
ATOM     10  C   UNL d   1       6.394  -4.254   0.720  0.00  0.00     0.000 C 
BRANCH  10  11
ATOM     11  C   UNL d   1       7.678  -4.668   1.443  0.00  0.00    -0.005 C 
ATOM     12  C   UNL d   1       7.845  -6.178   1.484  0.00  0.00     0.005 C 
ENDBRANCH  10  11
ENDBRANCH   9  10
ENDBRANCH   8   9
ENDBRANCH   6   8
ENDBRANCH   5   6
ENDBRANCH   1   5
BRANCH   3  13
ATOM     13  C   UNL d   1       2.060   2.152   2.129  0.00  0.00     0.005 A 
ATOM     14  C   UNL d   1       2.657   2.075   3.377  0.00  0.00     0.101 A 
ATOM     15  N   UNL d   1       2.090   3.009   4.202  0.00  0.00    -0.374 N 
ATOM     16  C   UNL d   1       1.127   3.692   3.510  0.00  0.00     0.088 A 
ATOM     17  H   UNL d   1       2.344   3.165   5.169  0.00  0.00     0.164 HD
ATOM     18  C   UNL d   1       1.084   3.188   2.230  0.00  0.00     0.032 A 
ENDBRANCH   3  13
TORSDOF 7
