REMARK  2 active torsions:
REMARK  status: ('A' for Active; 'I' for Inactive)
REMARK    1  A    between atoms: C_12  and  N_3 
REMARK    2  A    between atoms: C_8  and  C_4 
REMARK       I    between atoms: N_7  and  C_8 
REMARK       I    between atoms: C_10  and  N_7 
REMARK       I    between atoms: N_11  and  C_10 
ROOT
ATOM      1  N   UNL d   1      -0.626  -1.250   0.203  0.00  0.00    -0.272 N 
ATOM      2  HN  UNL d   1      -0.951  -2.208   0.333  1.00  0.00     0.189 HD
ATOM      3  N   UNL d   1       0.653  -0.792   0.036  0.00  0.00    -0.196 N 
ATOM      4  C   UNL d   1      -1.346  -0.110   0.150  0.00  0.00     0.141 A 
ATOM      5  N   UNL d   1       0.791   0.548  -0.100  0.00  0.00    -0.281 N 
ATOM      6  HN  UNL d   1       1.647   1.088  -0.225  1.00  0.00     0.189 HD
ATOM      7  C   UNL d   1      -0.467   0.989  -0.031  0.00  0.00     0.057 A 
ATOM      8  C   UNL d   1      -0.744   2.436  -0.189  0.00  0.00     0.072 C 
ENDROOT
BRANCH   4   9
ATOM      9  C   UNL d   1      -2.810  -0.070   0.231  0.00  0.00     0.279 C 
ATOM     10  N   UNL d   1      -3.408  -1.301   0.044  0.00  0.00    -0.274 N 
ATOM     11  C   UNL d   1      -4.688  -1.409  -0.439  0.00  0.00     0.325 C 
ATOM     12  H   UNL d   1      -2.772  -2.056  -0.147  0.00  0.00     0.173 HD
ATOM     13  N   UNL d   1      -5.106  -2.681  -0.769  0.00  0.00    -0.334 N 
ATOM     14  O   UNL d   1      -5.458  -0.456  -0.563  0.00  0.00    -0.247 OA
ATOM     15  C   UNL d   1      -4.418  -3.946  -0.581  0.00  0.00     0.127 C 
ATOM     16  C   UNL d   1      -6.473  -2.891  -1.210  0.00  0.00     0.127 C 
ATOM     17  C   UNL d   1      -5.377  -5.022  -1.086  0.00  0.00     0.022 C 
ATOM     18  C   UNL d   1      -6.472  -4.271  -1.835  0.00  0.00     0.022 C 
ATOM     19  O   UNL d   1      -3.391   0.977   0.493  0.00  0.00    -0.265 OA
ENDBRANCH   4   9
BRANCH   3  20
ATOM     20  C   UNL d   1       1.773  -1.654  -0.096  0.00  0.00     0.074 A 
ATOM     21  C   UNL d   1       1.672  -3.015   0.214  0.00  0.00     0.033 A 
ATOM     22  C   UNL d   1       2.773  -3.852   0.010  0.00  0.00     0.002 A 
ATOM     23  C   UNL d   1       3.961  -3.340  -0.516  0.00  0.00     0.000 A 
ATOM     24  C   UNL d   1       4.069  -1.982  -0.810  0.00  0.00     0.002 A 
ATOM     25  C   UNL d   1       2.984  -1.135  -0.585  0.00  0.00     0.033 A 
ENDBRANCH   3  20
TORSDOF 2
