REMARK  4 active torsions:
REMARK  status: ('A' for Active; 'I' for Inactive)
REMARK    1  A    between atoms: C_14  and  C_3 
REMARK    2  A    between atoms: C_11  and  C_4 
REMARK    3  A    between atoms: C_7  and  C_13 
REMARK    4  A    between atoms: C_8  and  C_12 
ROOT
ATOM      1  N   UNL d   1       0.973   0.321  -0.440  0.00  0.00    -0.321 N 
ATOM      2  HN  UNL d   1       1.898   0.521  -0.821  1.00  0.00     0.169 HD
ATOM      3  C   UNL d   1       0.486  -0.829  -0.037  0.00  0.00     0.178 A 
ATOM      4  C   UNL d   1      -0.070   1.190  -0.224  0.00  0.00     0.138 A 
ATOM      5  N   UNL d   1      -1.183   0.602   0.239  0.00  0.00    -0.242 N 
ATOM      6  HN  UNL d   1      -2.085   1.032   0.446  1.00  0.00     0.196 HD
ATOM      7  O   UNL d   1      -0.814  -0.744   0.371  0.00  0.00    -0.220 OA
ENDROOT
BRANCH   4   8
ATOM      8  C   UNL d   1       0.138   2.628  -0.350  0.00  0.00     0.011 A 
ATOM      9  C   UNL d   1       1.322   3.094  -0.943  0.00  0.00     0.031 A 
ATOM     10  C   UNL d   1       1.654   4.456  -0.946  0.00  0.00     0.049 A 
ATOM     11  C   UNL d   1       0.763   5.367  -0.360  0.00  0.00     0.032 A 
ATOM     12  C   UNL d   1      -0.441   4.929   0.220  0.00  0.00     0.049 A 
ATOM     13  C   UNL d   1      -0.749   3.556   0.208  0.00  0.00     0.031 A 
BRANCH  10  14
ATOM     14  C   UNL d   1       2.975   4.893  -1.534  0.00  0.00     0.417 C 
ATOM     15  F   UNL d   1       3.206   6.229  -1.417  0.00  0.00    -0.166 F 
ATOM     16  F   UNL d   1       4.033   4.277  -0.938  0.00  0.00    -0.166 F 
ATOM     17  F   UNL d   1       3.074   4.607  -2.861  0.00  0.00    -0.166 F 
ENDBRANCH  10  14
BRANCH  12  18
ATOM     18  C   UNL d   1      -1.382   5.902   0.891  0.00  0.00     0.417 C 
ATOM     19  F   UNL d   1      -0.918   7.183   0.902  0.00  0.00    -0.166 F 
ATOM     20  F   UNL d   1      -2.601   5.950   0.288  0.00  0.00    -0.166 F 
ATOM     21  F   UNL d   1      -1.617   5.581   2.193  0.00  0.00    -0.166 F 
ENDBRANCH  12  18
ENDBRANCH   4   8
BRANCH   3  22
ATOM     22  C   UNL d   1       1.221  -2.115   0.169  0.00  0.00     0.206 C 
ATOM     23  O   UNL d   1       0.343  -3.229  -0.033  0.00  0.00    -0.337 OA
ATOM     24  C   UNL d   1       0.311  -3.774  -1.287  0.00  0.00     0.076 A 
ATOM     25  C   UNL d   1      -0.618  -4.795  -1.475  0.00  0.00     0.037 A 
ATOM     26  C   UNL d   1       1.148  -3.380  -2.336  0.00  0.00    -0.025 A 
ATOM     27  C   UNL d   1      -0.746  -5.408  -2.721  0.00  0.00     0.003 A 
ATOM     28  C   UNL d   1       0.051  -4.987  -3.784  0.00  0.00     0.001 A 
ATOM     29  C   UNL d   1       0.994  -3.975  -3.594  0.00  0.00     0.010 A 
ATOM     30  C   UNL d   1       2.187  -2.319  -2.130  0.00  0.00     0.044 C 
ATOM     31  C   UNL d   1       2.508  -2.194  -0.650  0.00  0.00     0.046 C 
ENDBRANCH   3  22
TORSDOF 4
