REMARK  4 active torsions:
REMARK  status: ('A' for Active; 'I' for Inactive)
REMARK    1  A    between atoms: C_2  and  C_1 
REMARK       I    between atoms: N_6  and  C_2 
REMARK    2  A    between atoms: O_8  and  C_3 
REMARK    3  A    between atoms: O_9  and  C_4 
REMARK    4  A    between atoms: N_7  and  N_6 
ROOT
ATOM      1  C   UNL d   1       1.649  -0.483   0.167  0.00  0.00     0.099 A 
ATOM      2  C   UNL d   1       0.626  -1.427  -0.009  0.00  0.00     0.086 A 
ATOM      3  C   UNL d   1       1.330   0.882   0.288  0.00  0.00     0.086 A 
ATOM      4  C   UNL d   1      -1.014   0.387   0.058  0.00  0.00     0.005 A 
ATOM      5  C   UNL d   1      -0.702  -0.969  -0.058  0.00  0.00     0.038 A 
ATOM      6  C   UNL d   1       0.003   1.315   0.244  0.00  0.00     0.038 A 
ENDROOT
BRANCH   1   7
ATOM      7  C   UNL d   1       3.072  -0.843   0.248  0.00  0.00     0.271 C 
ATOM      8  O   UNL d   1       3.779  -0.811  -0.758  0.00  0.00    -0.266 OA
ATOM      9  N   UNL d   1       3.516  -1.213   1.507  0.00  0.00    -0.290 N 
ATOM     10  H   UNL d   1       2.891  -1.202   2.309  0.00  0.00     0.183 HD
BRANCH   9  11
ATOM     11  N   UNL d   1       4.861  -1.607   1.675  0.00  0.00    -0.247 NA
ATOM     12  H   UNL d   1       5.441  -0.828   1.342  0.00  0.00     0.143 HD
ATOM     13  H   UNL d   1       5.050  -2.340   0.982  0.00  0.00     0.143 HD
ENDBRANCH   9  11
ENDBRANCH   1   7
BRANCH   2  14
ATOM     14  O   UNL d   1       0.695  -2.789  -0.098  0.00  0.00    -0.355 OA
ATOM     15  C   UNL d   1       1.915  -3.413  -0.466  0.00  0.00     0.210 C 
ENDBRANCH   2  14
BRANCH   3  16
ATOM     16  O   UNL d   1       2.281   1.827   0.576  0.00  0.00    -0.355 OA
ATOM     17  C   UNL d   1       2.935   2.293  -0.606  0.00  0.00     0.210 C 
ENDBRANCH   3  16
TORSDOF 4
