REMARK  5 active torsions:
REMARK  status: ('A' for Active; 'I' for Inactive)
REMARK    1  A    between atoms: N_2  and  C_1 
REMARK    2  A    between atoms: N_8  and  C_1 
REMARK    3  A    between atoms: C_3  and  N_2 
REMARK       I    between atoms: C_4  and  N_7 
REMARK    4  A    between atoms: C_17  and  C_4 
REMARK    5  A    between atoms: N_7  and  N_8 
ROOT
ATOM      1  N   UNL d   1       1.808   0.674   0.601  0.00  0.00    -0.274 N 
ATOM      2  H   UNL d   1       2.485   1.264   0.124  0.00  0.00     0.189 HD
ENDROOT
BRANCH   1   3
ATOM      3  N   UNL d   1       2.123   0.417   1.941  0.00  0.00    -0.264 N 
ATOM      4  C   UNL d   1       3.275   1.011   2.425  0.00  0.00     0.270 C 
ATOM      5  O   UNL d   1       4.069   1.591   1.686  0.00  0.00    -0.266 OA
ATOM      6  H   UNL d   1       1.362   0.085   2.523  0.00  0.00     0.190 HD
BRANCH   4   7
ATOM      7  C   UNL d   1       3.498   0.984   3.895  0.00  0.00     0.036 A 
ATOM      8  C   UNL d   1       2.809   0.128   4.755  0.00  0.00     0.034 A 
ATOM      9  C   UNL d   1       3.076   0.221   6.110  0.00  0.00     0.088 A 
ATOM     10  N   UNL d   1       3.967   1.082   6.645  0.00  0.00    -0.375 N 
ATOM     11  C   UNL d   1       4.635   1.884   5.791  0.00  0.00     0.088 A 
ATOM     12  HN  UNL d   1       4.128   1.125   7.651  1.00  0.00     0.164 HD
ATOM     13  C   UNL d   1       4.441   1.870   4.423  0.00  0.00     0.034 A 
ENDBRANCH   4   7
ENDBRANCH   1   3
BRANCH   1  14
ATOM     14  C   UNL d   1       0.872  -0.050  -0.089  0.00  0.00     0.186 C 
ATOM     15  S   UNL d   1      -0.076  -1.262   0.566  0.00  0.00    -0.040 SA
BRANCH  14  16
ATOM     16  N   UNL d   1       0.686   0.297  -1.398  0.00  0.00    -0.361 N 
ATOM     17  H   UNL d   1      -0.083  -0.179  -1.858  0.00  0.00     0.162 HD
BRANCH  16  18
ATOM     18  C   UNL d   1       1.354   1.364  -2.125  0.00  0.00     0.092 C 
ATOM     19  C   UNL d   1       1.147   1.354  -3.663  0.00  0.00     0.031 C 
ATOM     20  C   UNL d   1      -0.315   1.555  -4.002  0.00  0.00    -0.024 C 
ATOM     21  C   UNL d   1       1.655   2.765  -3.990  0.00  0.00     0.019 C 
ATOM     22  C   UNL d   1      -0.634   2.814  -3.671  0.00  0.00    -0.026 C 
ATOM     23  C   UNL d   1       0.611   3.451  -3.101  0.00  0.00     0.010 C 
ATOM     24  C   UNL d   1       0.879   2.795  -1.728  0.00  0.00     0.034 C 
ENDBRANCH  16  18
ENDBRANCH  14  16
ENDBRANCH   1  14
TORSDOF 5
