REMARK  4 active torsions:
REMARK  status: ('A' for Active; 'I' for Inactive)
REMARK    1  A    between atoms: C_11  and  C_1 
REMARK    2  A    between atoms: C_13  and  C_5 
REMARK    3  A    between atoms: C_7  and  C_12 
REMARK    4  A    between atoms: N_20  and  C_10 
ROOT
ATOM      1  C   UNL d   1      -0.846   0.990   0.004  0.00  0.00     0.127 A 
ATOM      2  C   UNL d   1      -1.362  -0.282   0.070  0.00  0.00     0.074 A 
ATOM      3  N   UNL d   1       0.898  -0.420   0.020  0.00  0.00    -0.260 N 
ATOM      4  HN  UNL d   1       1.852  -0.780   0.030  1.00  0.00     0.195 HD
ATOM      5  C   UNL d   1      -0.236  -1.140   0.031  0.00  0.00     0.068 A 
ATOM      6  O   UNL d   1       0.512   0.908  -0.009  0.00  0.00    -0.235 OA
ENDROOT
BRANCH   1   7
ATOM      7  C   UNL d   1      -1.440   2.310  -0.081  0.00  0.00     0.072 A 
ATOM      8  N   UNL d   1      -2.788   2.304  -0.014  0.00  0.00    -0.331 N 
ATOM      9  C   UNL d   1      -3.400   3.479  -0.154  0.00  0.00     0.155 A 
ATOM     10  HN  UNL d   1      -3.313   1.443   0.137  1.00  0.00     0.168 HD
ATOM     11  N   UNL d   1      -2.776   4.648  -0.318  0.00  0.00    -0.343 N 
ATOM     12  C   UNL d   1      -1.433   4.612  -0.375  0.00  0.00     0.093 A 
ATOM     13  HN  UNL d   1      -3.292   5.524  -0.397  1.00  0.00     0.167 HD
ATOM     14  C   UNL d   1      -0.701   3.458  -0.260  0.00  0.00     0.049 A 
BRANCH   9  15
ATOM     15  N   UNL d   1      -4.777   3.491  -0.085  0.00  0.00    -0.274 NA
ATOM     16  H   UNL d   1      -5.104   2.705   0.455  0.00  0.00     0.127 HD
ATOM     17  H   UNL d   1      -5.093   4.410   0.193  0.00  0.00     0.127 HD
ENDBRANCH   9  15
ENDBRANCH   1   7
BRANCH   5  18
ATOM     18  C   UNL d   1      -0.225  -2.599  -0.026  0.00  0.00    -0.007 A 
ATOM     19  C   UNL d   1       0.846  -3.326   0.514  0.00  0.00     0.030 A 
ATOM     20  C   UNL d   1       0.884  -4.728   0.429  0.00  0.00     0.048 A 
ATOM     21  C   UNL d   1      -0.172  -5.399  -0.208  0.00  0.00     0.016 A 
ATOM     22  C   UNL d   1      -1.243  -4.686  -0.744  0.00  0.00     0.002 A 
ATOM     23  C   UNL d   1      -1.270  -3.293  -0.652  0.00  0.00     0.014 A 
BRANCH  20  24
ATOM     24  C   UNL d   1       2.041  -5.511   0.996  0.00  0.00     0.417 C 
ATOM     25  F   UNL d   1       2.990  -4.737   1.590  0.00  0.00    -0.166 F 
ATOM     26  F   UNL d   1       1.647  -6.408   1.942  0.00  0.00    -0.166 F 
ATOM     27  F   UNL d   1       2.693  -6.236   0.044  0.00  0.00    -0.166 F 
ENDBRANCH  20  24
ENDBRANCH   5  18
TORSDOF 4
