REMARK  5 active torsions:
REMARK  status: ('A' for Active; 'I' for Inactive)
REMARK    1  A    between atoms: C_6  and  N_1 
REMARK    2  A    between atoms: C_2  and  C_3 
REMARK    3  A    between atoms: C_8  and  S_11 
REMARK    4  A    between atoms: S_11  and  C_19 
REMARK    5  A    between atoms: C_19  and  C_20 
ROOT
ATOM      1  C   UNL d   1      -3.454  -5.858  -8.117  0.00  0.00     0.063 A 
ATOM      2  N   UNL d   1      -2.831  -4.162  -6.508  0.00  0.00    -0.360 N 
ATOM      3  HN  UNL d   1      -2.996  -3.248  -6.086  1.00  0.00     0.166 HD
ATOM      4  C   UNL d   1      -1.815  -4.950  -6.092  0.00  0.00     0.069 A 
ATOM      5  C   UNL d   1      -3.623  -4.628  -7.502  0.00  0.00     0.105 A 
ATOM      6  C   UNL d   1      -2.393  -6.653  -7.677  0.00  0.00     0.020 A 
ATOM      7  C   UNL d   1      -1.561  -6.196  -6.654  0.00  0.00     0.038 A 
ENDROOT
BRANCH   4   8
ATOM      8  S   UNL d   1      -0.773  -4.362  -4.771  0.00  0.00    -0.108 SA
BRANCH   8   9
ATOM      9  C   UNL d   1      -1.612  -2.794  -4.380  0.00  0.00     0.119 C 
BRANCH   9  10
ATOM     10  C   UNL d   1      -0.941  -2.083  -3.227  0.00  0.00    -0.048 A 
ATOM     11  C   UNL d   1       0.111  -1.183  -3.463  0.00  0.00     0.010 A 
ATOM     12  C   UNL d   1       0.743  -0.532  -2.401  0.00  0.00     0.036 A 
ATOM     13  C   UNL d   1       0.323  -0.786  -1.089  0.00  0.00     0.102 A 
ATOM     14  C   UNL d   1      -0.723  -1.683  -0.837  0.00  0.00     0.036 A 
ATOM     15  C   UNL d   1      -1.348  -2.329  -1.906  0.00  0.00     0.010 A 
BRANCH  13  16
ATOM     16  N   UNL d   1       0.988  -0.110   0.031  0.00  0.00    -0.116 N 
ATOM     17  O   UNL d   1       0.591  -0.364   1.177  0.00  0.00    -0.532 OA
ATOM     18  O   UNL d   1       1.909   0.676  -0.234  0.00  0.00    -0.532 OA
ENDBRANCH  13  16
ENDBRANCH   9  10
ENDBRANCH   8   9
ENDBRANCH   4   8
BRANCH   1  19
ATOM     19  C   UNL d   1      -4.384  -6.307  -9.202  0.00  0.00     0.418 C 
ATOM     20  F   UNL d   1      -5.364  -5.406  -9.486  0.00  0.00    -0.166 F 
ATOM     21  F   UNL d   1      -3.739  -6.540 -10.377  0.00  0.00    -0.166 F 
ATOM     22  F   UNL d   1      -5.024  -7.467  -8.890  0.00  0.00    -0.166 F 
ENDBRANCH   1  19
TORSDOF 5
