REMARK  5 active torsions:
REMARK  status: ('A' for Active; 'I' for Inactive)
REMARK       I    between atoms: N_2  and  C_1 
REMARK       I    between atoms: N_3  and  C_1 
REMARK    1  A    between atoms: N_9  and  N_5 
REMARK    2  A    between atoms: C_10  and  N_7 
REMARK    3  A    between atoms: C_11  and  N_9 
REMARK    4  A    between atoms: O_17  and  C_14 
REMARK    5  A    between atoms: O_16  and  C_15 
ROOT
ATOM      1  C   UNL d   1       0.838  -0.046  -0.156  0.00  0.00     0.279 C 
ATOM      2  N   UNL d   1       0.109   1.232   0.087  0.00  0.00    -0.076 N 
ATOM      3  N   UNL d   1       0.213  -1.266  -0.302  0.00  0.00    -0.265 N 
ATOM      4  HN  UNL d   1       0.609  -2.141   0.041  1.00  0.00     0.190 HD
ATOM      5  N   UNL d   1       2.150  -0.003  -0.139  0.00  0.00    -0.265 N 
ATOM      6  HN  UNL d   1       2.668  -0.868  -0.291  1.00  0.00     0.190 HD
ATOM      7  N   UNL d   1      -0.886  -1.195  -0.895  0.00  0.00    -0.295 N 
ATOM      8  HN  UNL d   1      -1.313  -0.323  -1.206  1.00  0.00     0.187 HD
ATOM      9  O   UNL d   1       0.582   2.286  -0.372  0.00  0.00    -0.529 OA
ATOM     10  O   UNL d   1      -0.952   1.148   0.728  0.00  0.00    -0.529 OA
ENDROOT
BRANCH   5  11
ATOM     11  N   UNL d   1       2.850   1.146   0.074  0.00  0.00    -0.295 N 
ATOM     12  H   UNL d   1       2.414   2.075   0.061  0.00  0.00     0.187 HD
BRANCH  11  13
ATOM     13  C   UNL d   1       4.183   1.107   0.530  0.00  0.00     0.081 A 
ATOM     14  C   UNL d   1       5.036   0.011   0.324  0.00  0.00     0.093 A 
ATOM     15  C   UNL d   1       6.337  -0.014   0.822  0.00  0.00     0.039 A 
ATOM     16  C   UNL d   1       6.803   1.061   1.575  0.00  0.00     0.003 A 
ATOM     17  C   UNL d   1       5.970   2.152   1.818  0.00  0.00     0.002 A 
ATOM     18  C   UNL d   1       4.672   2.176   1.295  0.00  0.00     0.034 A 
BRANCH  14  19
ATOM     19  O   UNL d   1       4.617  -1.065  -0.409  0.00  0.00    -0.358 OA
ATOM     20  H   UNL d   1       3.678  -0.852  -0.598  0.00  0.00     0.217 HD
ENDBRANCH  14  19
ENDBRANCH  11  13
ENDBRANCH   5  11
BRANCH   7  21
ATOM     21  C   UNL d   1      -1.464  -2.474  -1.083  0.00  0.00     0.081 A 
ATOM     22  C   UNL d   1      -2.856  -2.625  -0.988  0.00  0.00     0.093 A 
ATOM     23  C   UNL d   1      -3.474  -3.852  -1.231  0.00  0.00     0.039 A 
ATOM     24  C   UNL d   1      -2.700  -4.960  -1.571  0.00  0.00     0.003 A 
ATOM     25  C   UNL d   1      -1.315  -4.837  -1.667  0.00  0.00     0.002 A 
ATOM     26  C   UNL d   1      -0.704  -3.603  -1.430  0.00  0.00     0.034 A 
BRANCH  22  27
ATOM     27  O   UNL d   1      -3.672  -1.577  -0.651  0.00  0.00    -0.358 OA
ATOM     28  H   UNL d   1      -3.102  -0.818  -0.432  0.00  0.00     0.217 HD
ENDBRANCH  22  27
ENDBRANCH   7  21
TORSDOF 5
