REMARK  7 active torsions:
REMARK  status: ('A' for Active; 'I' for Inactive)
REMARK    1  A    between atoms: C_10  and  N_1 
REMARK    2  A    between atoms: S_8  and  C_2 
REMARK    3  A    between atoms: O_20  and  C_3 
REMARK    4  A    between atoms: C_19  and  S_8 
REMARK    5  A    between atoms: C_9  and  N_12 
REMARK    6  A    between atoms: C_23  and  C_10 
REMARK    7  A    between atoms: C_11  and  C_19 
REMARK       I    between atoms: N_12  and  C_11 
ROOT
ATOM      1  N   UNL d   1      -0.205  -1.377  -0.179  0.00  0.00    -0.287 N 
ATOM      2  C   UNL d   1       0.875  -0.680  -0.638  0.00  0.00     0.165 A 
ATOM      3  C   UNL d   1      -1.011  -0.429   0.397  0.00  0.00     0.240 A 
ATOM      4  N   UNL d   1       0.790   0.570  -0.250  0.00  0.00    -0.277 N 
ATOM      5  HN  UNL d   1       1.491   1.294  -0.406  1.00  0.00     0.189 HD
ATOM      6  N   UNL d   1      -0.404   0.734   0.402  0.00  0.00    -0.263 N 
ATOM      7  HN  UNL d   1      -0.755   1.598   0.815  1.00  0.00     0.190 HD
ENDROOT
BRANCH   2   8
ATOM      8  S   UNL d   1       2.063  -1.296  -1.728  0.00  0.00    -0.083 SA
BRANCH   8   9
ATOM      9  C   UNL d   1       3.311   0.017  -1.744  0.00  0.00     0.185 C 
BRANCH   9  10
ATOM     10  C   UNL d   1       3.013   1.220  -2.634  0.00  0.00     0.231 C 
ATOM     11  N   UNL d   1       1.755   1.774  -2.495  0.00  0.00    -0.326 N 
ATOM     12  H   UNL d   1       1.179   1.378  -1.755  0.00  0.00     0.169 HD
ATOM     13  O   UNL d   1       3.923   1.716  -3.301  0.00  0.00    -0.272 OA
BRANCH  11  14
ATOM     14  C   UNL d   1       1.357   3.055  -2.924  0.00  0.00     0.037 A 
ATOM     15  C   UNL d   1       1.976   3.755  -3.959  0.00  0.00     0.053 A 
ATOM     16  C   UNL d   1       1.616   5.080  -4.209  0.00  0.00     0.037 A 
ATOM     17 CL   UNL d   1       2.404   5.956  -5.465  0.00  0.00    -0.084 Cl
ATOM     18  C   UNL d   1       0.642   5.713  -3.441  0.00  0.00     0.048 A 
ATOM     19  C   UNL d   1      -0.008   4.994  -2.445  0.00  0.00     0.037 A 
ATOM     20  C   UNL d   1       0.323   3.663  -2.201  0.00  0.00     0.053 A 
ATOM     21 CL   UNL d   1      -1.198   5.766  -1.470  0.00  0.00    -0.084 Cl
ENDBRANCH  11  14
ENDBRANCH   9  10
ENDBRANCH   8   9
ENDBRANCH   2   8
BRANCH   1  22
ATOM     22  C   UNL d   1      -0.400  -2.813  -0.119  0.00  0.00     0.173 C 
BRANCH  22  23
ATOM     23  C   UNL d   1      -1.343  -3.302  -1.187  0.00  0.00    -0.040 A 
ATOM     24  C   UNL d   1      -0.908  -3.453  -2.516  0.00  0.00     0.009 A 
ATOM     25  C   UNL d   1      -1.786  -3.872  -3.507  0.00  0.00     0.001 A 
ATOM     26  C   UNL d   1      -3.111  -4.164  -3.189  0.00  0.00     0.000 A 
ATOM     27  C   UNL d   1      -3.553  -4.044  -1.874  0.00  0.00     0.001 A 
ATOM     28  C   UNL d   1      -2.673  -3.620  -0.877  0.00  0.00     0.009 A 
ENDBRANCH  22  23
ENDBRANCH   1  22
BRANCH   3  29
ATOM     29  O   UNL d   1      -2.225  -0.635   0.878  0.00  0.00    -0.331 OA
ATOM     30  H   UNL d   1      -2.715  -1.133   0.194  0.00  0.00     0.221 HD
ENDBRANCH   3  29
TORSDOF 7
