REMARK  3 active torsions:
REMARK  status: ('A' for Active; 'I' for Inactive)
REMARK    1  A    between atoms: C_9  and  C_4 
REMARK    2  A    between atoms: C_8  and  C_9 
REMARK       I    between atoms: N_10  and  C_8 
REMARK    3  A    between atoms: C_11  and  N_10 
ROOT
ATOM      1  C   UNL d   1      -0.476   3.245  -0.156  0.00  0.00     0.229 C 
ATOM      2  N   UNL d   1      -1.748   2.746   0.038  0.00  0.00    -0.324 N 
ATOM      3  O   UNL d   1       0.532   2.546  -0.283  0.00  0.00    -0.273 OA
ATOM      4  H   UNL d   1      -2.505   3.376  -0.229  0.00  0.00     0.169 HD
ENDROOT
BRANCH   1   5
ATOM      5  C   UNL d   1      -0.318   4.750  -0.264  0.00  0.00     0.182 C 
BRANCH   5   6
ATOM      6  C   UNL d   1      -1.531   5.595  -0.289  0.00  0.00     0.118 A 
ATOM      7  N   UNL d   1      -1.476   6.921   0.054  0.00  0.00    -0.270 N 
ATOM      8  N   UNL d   1      -2.686   7.417  -0.153  0.00  0.00    -0.005 NA
ATOM      9  HN  UNL d   1      -0.661   7.428   0.400  1.00  0.00     0.185 HD
ATOM     10  N   UNL d   1      -3.404   6.388  -0.614  0.00  0.00    -0.225 N 
ATOM     11  N   UNL d   1      -2.749   5.212  -0.715  0.00  0.00    -0.275 N 
ATOM     12  H   UNL d   1      -4.380   6.497  -0.875  0.00  0.00     0.205 HD
ATOM     13  HN  UNL d   1      -3.081   4.299  -1.025  1.00  0.00     0.189 HD
ENDBRANCH   5   6
ENDBRANCH   1   5
BRANCH   2  14
ATOM     14  C   UNL d   1      -2.082   1.381   0.202  0.00  0.00     0.073 A 
ATOM     15  C   UNL d   1      -1.224   0.412   0.748  0.00  0.00     0.145 A 
ATOM     16  C   UNL d   1      -1.595  -0.929   0.809  0.00  0.00     0.086 A 
ATOM     17  F   UNL d   1      -0.056   0.749   1.312  0.00  0.00    -0.204 F 
ATOM     18  C   UNL d   1      -2.846  -1.305   0.347  0.00  0.00     0.119 A 
ATOM     19  C   UNL d   1      -3.741  -0.360  -0.142  0.00  0.00     0.044 A 
ATOM     20  F   UNL d   1      -3.207  -2.594   0.390  0.00  0.00    -0.206 F 
ATOM     21  C   UNL d   1      -3.364   0.985  -0.204  0.00  0.00     0.036 A 
ENDBRANCH   2  14
TORSDOF 3
