REMARK  6 active torsions:
REMARK  status: ('A' for Active; 'I' for Inactive)
REMARK    1  A    between atoms: C_17  and  N_2 
REMARK    2  A    between atoms: C_3  and  O_8 
REMARK       I    between atoms: C_4  and  N_10 
REMARK       I    between atoms: N_6  and  C_4 
REMARK    3  A    between atoms: C_14  and  N_6 
REMARK    4  A    between atoms: O_8  and  C_15 
REMARK    5  A    between atoms: N_10  and  C_19 
REMARK    6  A    between atoms: C_19  and  C_17 
ROOT
ATOM      1  C   UNL d   1      -3.647  -3.988  -1.261  0.00  0.00     0.320 C 
ATOM      2  N   UNL d   1      -4.455  -2.872  -1.245  0.00  0.00    -0.309 N 
ATOM      3  O   UNL d   1      -4.012  -5.158  -1.314  0.00  0.00    -0.247 OA
ATOM      4  N   UNL d   1      -2.314  -3.645  -1.190  0.00  0.00    -0.341 N 
ATOM      5  H   UNL d   1      -3.990  -2.008  -1.011  0.00  0.00     0.170 HD
ATOM      6  H   UNL d   1      -2.046  -2.774  -1.622  0.00  0.00     0.164 HD
ENDROOT
BRANCH   4   7
ATOM      7  C   UNL d   1      -1.285  -4.678  -1.190  0.00  0.00     0.144 C 
BRANCH   7   8
ATOM      8  C   UNL d   1      -1.112  -5.382  -2.546  0.00  0.00     0.147 C 
BRANCH   8   9
ATOM      9  N   UNL d   1      -0.837  -4.455  -3.633  0.00  0.00    -0.331 N 
ATOM     10  C   UNL d   1       0.300  -3.653  -3.703  0.00  0.00     0.318 C 
ATOM     11  N   UNL d   1       0.326  -3.082  -4.968  0.00  0.00    -0.341 N 
ATOM     12  O   UNL d   1       1.122  -3.452  -2.829  0.00  0.00    -0.247 OA
ATOM     13  C   UNL d   1      -0.889  -3.382  -5.677  0.00  0.00     0.144 C 
ATOM     14  H   UNL d   1       0.973  -2.332  -5.169  0.00  0.00     0.164 HD
ATOM     15  C   UNL d   1      -1.405  -4.618  -4.954  0.00  0.00     0.147 C 
ENDBRANCH   8   9
ENDBRANCH   7   8
ENDBRANCH   4   7
BRANCH   2  16
ATOM     16  C   UNL d   1      -5.856  -2.826  -1.398  0.00  0.00     0.036 A 
ATOM     17  C   UNL d   1      -6.641  -3.947  -1.670  0.00  0.00     0.032 A 
ATOM     18  C   UNL d   1      -8.022  -3.825  -1.872  0.00  0.00     0.039 A 
ATOM     19  C   UNL d   1      -8.627  -2.572  -1.842  0.00  0.00     0.078 A 
ATOM     20  C   UNL d   1      -7.862  -1.456  -1.504  0.00  0.00     0.039 A 
ATOM     21  C   UNL d   1      -6.485  -1.581  -1.288  0.00  0.00     0.032 A 
BRANCH  19  22
ATOM     22  O   UNL d   1      -9.957  -2.356  -2.040  0.00  0.00    -0.255 OA
BRANCH  22  23
ATOM     23  C   UNL d   1     -10.576  -3.018  -3.139  0.00  0.00     0.530 C 
ATOM     24  F   UNL d   1      -9.766  -3.855  -3.822  0.00  0.00    -0.144 F 
ATOM     25  F   UNL d   1     -11.635  -3.725  -2.685  0.00  0.00    -0.144 F 
ATOM     26  F   UNL d   1     -11.035  -2.087  -4.006  0.00  0.00    -0.144 F 
ENDBRANCH  22  23
ENDBRANCH  19  22
ENDBRANCH   2  16
TORSDOF 6
