REMARK  3 active torsions:
REMARK  status: ('A' for Active; 'I' for Inactive)
REMARK    1  A    between atoms: C_8  and  C_6 
REMARK    2  A    between atoms: O_15  and  C_9 
REMARK    3  A    between atoms: C_17  and  O_15 
ROOT
ATOM      1  C   UNL d   1      -1.162  -0.944   0.638  0.00  0.00     0.045 A 
ATOM      2  C   UNL d   1       0.341  -0.956   0.533  0.00  0.00     0.257 A 
ATOM      3  N   UNL d   1       0.746   0.266   1.042  0.00  0.00    -0.322 N 
ATOM      4  C   UNL d   1      -1.540   0.319   1.280  0.00  0.00     0.006 A 
ATOM      5  C   UNL d   1      -0.342   1.016   1.482  0.00  0.00     0.046 A 
ATOM      6  C   UNL d   1      -1.878  -1.952   0.117  0.00  0.00     0.029 C 
ATOM      7  O   UNL d   1       1.047  -1.837   0.078  0.00  0.00    -0.267 OA
ATOM      8  C   UNL d   1      -2.738   0.868   1.698  0.00  0.00     0.015 A 
ATOM      9  C   UNL d   1      -0.295   2.270   2.059  0.00  0.00     0.030 A 
ATOM     10  C   UNL d   1      -2.715   2.135   2.295  0.00  0.00     0.001 A 
ATOM     11  C   UNL d   1      -1.506   2.833   2.466  0.00  0.00     0.002 A 
ATOM     12  H   UNL d   1       1.713   0.544   1.088  0.00  0.00     0.169 HD
ENDROOT
BRANCH   6  13
ATOM     13  C   UNL d   1      -3.335  -1.987   0.014  0.00  0.00    -0.035 A 
ATOM     14  C   UNL d   1      -3.951  -1.460  -1.126  0.00  0.00     0.014 A 
ATOM     15  C   UNL d   1      -5.344  -1.452  -1.241  0.00  0.00     0.037 A 
ATOM     16  C   UNL d   1      -6.137  -1.973  -0.217  0.00  0.00     0.068 A 
ATOM     17  C   UNL d   1      -5.518  -2.517   0.913  0.00  0.00     0.037 A 
ATOM     18  C   UNL d   1      -4.124  -2.527   1.031  0.00  0.00     0.014 A 
BRANCH  16  19
ATOM     19  O   UNL d   1      -7.506  -2.003  -0.204  0.00  0.00    -0.352 OA
BRANCH  19  20
ATOM     20  C   UNL d   1      -8.167  -1.436  -1.336  0.00  0.00     0.171 C 
ATOM     21  C   UNL d   1      -9.666  -1.542  -1.127  0.00  0.00     0.034 C 
ENDBRANCH  19  20
ENDBRANCH  16  19
ENDBRANCH   6  13
TORSDOF 3
