REMARK  4 active torsions:
REMARK  status: ('A' for Active; 'I' for Inactive)
REMARK    1  A    between atoms: C_7  and  C_1 
REMARK    2  A    between atoms: C_8  and  N_2 
REMARK    3  A    between atoms: O_10  and  C_7 
REMARK    4  A    between atoms: C_14  and  O_10 
ROOT
ATOM      1  C   UNL d   1      -0.303   1.248  -0.018  0.00  0.00     0.080 C 
ATOM      2  N   UNL d   1       0.993  -0.560  -0.079  0.00  0.00    -0.260 N 
ATOM      3  C   UNL d   1       1.022   0.830  -0.035  0.00  0.00     0.048 C 
ATOM      4  N   UNL d   1      -0.273  -1.011  -0.301  0.00  0.00    -0.304 N 
ATOM      5  HN  UNL d   1      -0.566  -1.965  -0.512  1.00  0.00     0.186 HD
ATOM      6  C   UNL d   1      -1.044   0.068  -0.183  0.00  0.00     0.127 C 
ATOM      7  C   UNL d   1       2.243   1.681  -0.062  0.00  0.00     0.071 C 
ENDROOT
BRANCH   2   8
ATOM      8  C   UNL d   1       2.049  -1.502   0.081  0.00  0.00     0.056 A 
ATOM      9  C   UNL d   1       3.203  -1.195   0.813  0.00  0.00     0.031 A 
ATOM     10  C   UNL d   1       4.232  -2.133   0.929  0.00  0.00     0.002 A 
ATOM     11  C   UNL d   1       4.107  -3.386   0.332  0.00  0.00     0.000 A 
ATOM     12  C   UNL d   1       2.946  -3.713  -0.364  0.00  0.00     0.002 A 
ATOM     13  C   UNL d   1       1.913  -2.780  -0.481  0.00  0.00     0.031 A 
ENDBRANCH   2   8
BRANCH   1  14
ATOM     14  C   UNL d   1      -0.772   2.611   0.145  0.00  0.00     0.296 C 
ATOM     15  O   UNL d   1      -0.025   3.564   0.308  0.00  0.00    -0.259 OA
BRANCH  14  16
ATOM     16  O   UNL d   1      -2.135   2.687   0.192  0.00  0.00    -0.318 OA
BRANCH  16  17
ATOM     17  C   UNL d   1      -2.641   3.912   0.739  0.00  0.00     0.174 C 
ATOM     18  C   UNL d   1      -2.702   3.764   2.249  0.00  0.00     0.034 C 
ENDBRANCH  16  17
ENDBRANCH  14  16
ENDBRANCH   1  14
TORSDOF 4
