REMARK  3 active torsions:
REMARK  status: ('A' for Active; 'I' for Inactive)
REMARK    1  A    between atoms: C_7  and  C_4 
REMARK    2  A    between atoms: O_14  and  C_9 
REMARK    3  A    between atoms: O_16  and  C_12 
ROOT
ATOM      1  C   UNL d   1      -1.187  -0.866   0.765  0.00  0.00     0.045 A 
ATOM      2  C   UNL d   1       0.319  -0.842   0.743  0.00  0.00     0.257 A 
ATOM      3  N   UNL d   1       0.657   0.439   1.148  0.00  0.00    -0.322 N 
ATOM      4  C   UNL d   1      -1.842  -1.903   0.233  0.00  0.00     0.032 C 
ATOM      5  C   UNL d   1      -1.637   0.425   1.286  0.00  0.00     0.006 A 
ATOM      6  C   UNL d   1      -0.477   1.189   1.457  0.00  0.00     0.046 A 
ATOM      7  O   UNL d   1       1.071  -1.736   0.406  0.00  0.00    -0.267 OA
ATOM      8  C   UNL d   1      -2.872   0.953   1.618  0.00  0.00     0.015 A 
ATOM      9  C   UNL d   1      -0.505   2.500   1.887  0.00  0.00     0.030 A 
ATOM     10  C   UNL d   1      -2.926   2.276   2.069  0.00  0.00     0.001 A 
ATOM     11  C   UNL d   1      -1.754   3.049   2.185  0.00  0.00     0.002 A 
ATOM     12  H   UNL d   1       1.611   0.759   1.208  0.00  0.00     0.169 HD
ENDROOT
BRANCH   4  13
ATOM     13  C   UNL d   1      -3.285  -1.962  -0.018  0.00  0.00     0.001 A 
ATOM     14  C   UNL d   1      -3.909  -1.414  -1.154  0.00  0.00     0.078 A 
ATOM     15  C   UNL d   1      -5.304  -1.462  -1.261  0.00  0.00     0.040 A 
ATOM     16  C   UNL d   1      -6.083  -2.079  -0.280  0.00  0.00     0.039 A 
ATOM     17  C   UNL d   1      -5.469  -2.651   0.830  0.00  0.00     0.069 A 
ATOM     18  C   UNL d   1      -4.081  -2.572   0.967  0.00  0.00     0.051 A 
BRANCH  14  19
ATOM     19  O   UNL d   1      -3.315  -0.737  -2.186  0.00  0.00    -0.355 OA
ATOM     20  C   UNL d   1      -2.071  -1.235  -2.662  0.00  0.00     0.210 C 
ENDBRANCH  14  19
BRANCH  17  21
ATOM     21  O   UNL d   1      -6.127  -3.268   1.858  0.00  0.00    -0.356 OA
ATOM     22  C   UNL d   1      -7.359  -3.889   1.503  0.00  0.00     0.210 C 
ENDBRANCH  17  21
ENDBRANCH   4  13
TORSDOF 3
