REMARK  5 active torsions:
REMARK  status: ('A' for Active; 'I' for Inactive)
REMARK    1  A    between atoms: C_2  and  C_1 
REMARK    2  A    between atoms: C_4  and  C_1 
REMARK    3  A    between atoms: C_3  and  C_2 
REMARK    4  A    between atoms: O_11  and  C_4 
REMARK    5  A    between atoms: N_10  and  C_5 
ROOT
ATOM      1  C   UNL d   1       1.004  -0.043  -0.112  0.00  0.00     0.107 C 
ATOM      2  C   UNL d   1       2.351  -0.133   0.057  0.00  0.00     0.001 C 
ATOM      3  C   UNL d   1       3.223   1.097   0.257  0.00  0.00     0.062 C 
ENDROOT
BRANCH   1   4
ATOM      4  C   UNL d   1       0.079  -1.212  -0.250  0.00  0.00     0.205 C 
ATOM      5  O   UNL d   1      -0.970  -1.100  -0.888  0.00  0.00    -0.286 OA
BRANCH   4   6
ATOM      6  C   UNL d   1       0.366  -2.514   0.373  0.00  0.00     0.092 A 
ATOM      7  C   UNL d   1       0.826  -2.632   1.682  0.00  0.00     0.133 A 
ATOM      8  F   UNL d   1       1.017  -1.548   2.451  0.00  0.00    -0.205 F 
ATOM      9  C   UNL d   1       1.089  -3.886   2.237  0.00  0.00     0.043 A 
ATOM     10  C   UNL d   1       0.854  -5.044   1.493  0.00  0.00     0.006 A 
ATOM     11  C   UNL d   1       0.354  -4.937   0.196  0.00  0.00     0.043 A 
ATOM     12  C   UNL d   1       0.118  -3.678  -0.356  0.00  0.00     0.133 A 
ATOM     13  F   UNL d   1      -0.335  -3.623  -1.617  0.00  0.00    -0.205 F 
ENDBRANCH   4   6
ENDBRANCH   1   4
BRANCH   1  14
ATOM     14  C   UNL d   1       0.383   1.301  -0.281  0.00  0.00     0.298 C 
ATOM     15  O   UNL d   1       0.821   2.178  -1.012  0.00  0.00    -0.259 OA
BRANCH  14  16
ATOM     16  O   UNL d   1      -0.709   1.392   0.517  0.00  0.00    -0.322 OA
ATOM     17  C   UNL d   1      -1.512   2.567   0.366  0.00  0.00     0.213 C 
ENDBRANCH  14  16
ENDBRANCH   1  14
BRANCH   2  18
ATOM     18  N   UNL d   1       3.063  -1.341   0.104  0.00  0.00    -0.300 NA
ATOM     19  C   UNL d   1       3.660  -1.875  -1.120  0.00  0.00     0.113 C 
ATOM     20  H   UNL d   1       3.807  -1.272   0.804  0.00  0.00     0.127 HD
ENDBRANCH   2  18
TORSDOF 5
