REMARK  6 active torsions:
REMARK  status: ('A' for Active; 'I' for Inactive)
REMARK    1  A    between atoms: N_6  and  C_1 
REMARK    2  A    between atoms: C_11  and  N_2 
REMARK    3  A    between atoms: C_8  and  C_4 
REMARK       I    between atoms: C_7  and  N_6 
REMARK    4  A    between atoms: C_12  and  C_7 
REMARK    5  A    between atoms: O_16  and  C_8 
REMARK    6  A    between atoms: C_22  and  O_16 
ROOT
ATOM      1  C   UNL d   1      -0.010  -1.046  -0.024  0.00  0.00     0.137 C 
ATOM      2  N   UNL d   1       1.215  -0.382  -0.275  0.00  0.00    -0.290 N 
ATOM      3  C   UNL d   1      -0.994  -0.065   0.022  0.00  0.00     0.097 C 
ATOM      4  C   UNL d   1       0.965   1.005  -0.138  0.00  0.00     0.124 C 
ATOM      5  C   UNL d   1      -0.409   1.212  -0.070  0.00  0.00    -0.004 C 
ATOM      6  C   UNL d   1      -2.398  -0.331   0.171  0.00  0.00     0.104 C 
ATOM      7  N   UNL d   1      -3.518  -0.589   0.301  0.00  0.00    -0.191 NA
ATOM      8  C   UNL d   1      -1.118   2.524   0.034  0.00  0.00     0.052 C 
ENDROOT
BRANCH   1   9
ATOM      9  N   UNL d   1      -0.332  -2.394   0.194  0.00  0.00    -0.311 N 
ATOM     10  C   UNL d   1       0.154  -3.540  -0.415  0.00  0.00     0.231 C 
ATOM     11  O   UNL d   1       0.949  -3.564  -1.346  0.00  0.00    -0.272 OA
ATOM     12  H   UNL d   1      -1.247  -2.533   0.609  0.00  0.00     0.170 HD
BRANCH  10  13
ATOM     13  C   UNL d   1      -0.499  -4.840   0.168  0.00  0.00     0.030 C 
ATOM     14  C   UNL d   1      -1.997  -4.918  -0.188  0.00  0.00     0.025 C 
ATOM     15  C   UNL d   1       0.182  -6.098  -0.399  0.00  0.00     0.025 C 
ATOM     16  C   UNL d   1      -0.346  -4.867   1.702  0.00  0.00     0.025 C 
ENDBRANCH  10  13
ENDBRANCH   1   9
BRANCH   2  17
ATOM     17  C   UNL d   1       2.529  -0.900  -0.532  0.00  0.00     0.041 A 
ATOM     18  C   UNL d   1       3.407  -0.172  -1.365  0.00  0.00     0.030 A 
ATOM     19  C   UNL d   1       4.718  -0.600  -1.584  0.00  0.00     0.002 A 
ATOM     20  C   UNL d   1       5.158  -1.789  -1.016  0.00  0.00     0.000 A 
ATOM     21  C   UNL d   1       4.293  -2.530  -0.211  0.00  0.00     0.002 A 
ATOM     22  C   UNL d   1       2.993  -2.077   0.050  0.00  0.00     0.030 A 
ENDBRANCH   2  17
BRANCH   4  23
ATOM     23  C   UNL d   1       1.980   2.037   0.028  0.00  0.00     0.311 C 
ATOM     24  O   UNL d   1       2.981   1.958   0.725  0.00  0.00    -0.258 OA
BRANCH  23  25
ATOM     25  O   UNL d   1       1.623   3.133  -0.695  0.00  0.00    -0.317 OA
BRANCH  25  26
ATOM     26  C   UNL d   1       2.463   4.292  -0.598  0.00  0.00     0.175 C 
ATOM     27  C   UNL d   1       3.440   4.313  -1.758  0.00  0.00     0.034 C 
ENDBRANCH  25  26
ENDBRANCH  23  25
ENDBRANCH   4  23
TORSDOF 6
