REMARK  1 active torsions:
REMARK  status: ('A' for Active; 'I' for Inactive)
REMARK    1  A    between atoms: C_10  and  C_5 
ROOT
ATOM      1  C   UNL d   1      -0.175  -0.702  -0.004  0.00  0.00     0.050 A 
ATOM      2  C   UNL d   1      -0.163   0.692  -0.041  0.00  0.00     0.050 A 
ATOM      3  C   UNL d   1      -1.569  -1.169  -0.089  0.00  0.00     0.181 C 
ATOM      4  C   UNL d   1      -1.546   1.181  -0.174  0.00  0.00     0.181 C 
ATOM      5  C   UNL d   1      -2.456   0.007  -0.404  0.00  0.00     0.204 C 
ATOM      6  C   UNL d   1       1.024   1.410   0.005  0.00  0.00     0.072 A 
ATOM      7  C   UNL d   1       0.999  -1.438   0.073  0.00  0.00     0.072 A 
ATOM      8  C   UNL d   1       2.218  -0.732   0.104  0.00  0.00     0.080 A 
ATOM      9  C   UNL d   1       2.231   0.687   0.073  0.00  0.00     0.080 A 
ATOM     10  O   UNL d   1      -1.948  -2.310   0.086  0.00  0.00    -0.291 OA
ATOM     11  O   UNL d   1      -1.900   2.342  -0.142  0.00  0.00    -0.291 OA
ATOM     12 CL   UNL d   1       1.010   3.137  -0.040  0.00  0.00    -0.081 Cl
ATOM     13 CL   UNL d   1       0.957  -3.165   0.099  0.00  0.00    -0.081 Cl
ATOM     14 CL   UNL d   1       3.722  -1.612   0.167  0.00  0.00    -0.081 Cl
ATOM     15 CL   UNL d   1       3.747   1.544   0.106  0.00  0.00    -0.081 Cl
ENDROOT
BRANCH   5  16
ATOM     16  C   UNL d   1      -2.924  -0.007  -1.833  0.00  0.00     0.142 C 
ATOM     17  O   UNL d   1      -2.213  -0.480  -2.724  0.00  0.00    -0.297 OA
ATOM     18  C   UNL d   1      -4.211   0.693  -2.165  0.00  0.00     0.092 C 
ENDBRANCH   5  16
TORSDOF 1
