REMARK  3 active torsions:
REMARK  status: ('A' for Active; 'I' for Inactive)
REMARK    1  A    between atoms: C_5  and  C_1 
REMARK    2  A    between atoms: C_15  and  C_4 
REMARK       I    between atoms: N_8  and  C_5 
REMARK    3  A    between atoms: C_9  and  N_8 
ROOT
ATOM      1  C   UNL d   1       1.219   0.814  -0.068  0.00  0.00     0.108 A 
ATOM      2  N   UNL d   1       1.416  -0.570   0.040  0.00  0.00    -0.345 N 
ATOM      3  HN  UNL d   1       2.303  -1.018   0.272  1.00  0.00     0.167 HD
ATOM      4  C   UNL d   1       0.281  -1.211  -0.204  0.00  0.00     0.085 A 
ATOM      5  S   UNL d   1      -1.064  -0.184  -0.564  0.00  0.00    -0.081 SA
ATOM      6  C   UNL d   1      -0.072   1.185  -0.403  0.00  0.00     0.087 A 
ENDROOT
BRANCH   1   7
ATOM      7  C   UNL d   1       2.273   1.815   0.141  0.00  0.00     0.273 C 
ATOM      8  N   UNL d   1       3.540   1.280   0.291  0.00  0.00    -0.322 N 
ATOM      9  H   UNL d   1       3.593   0.271   0.186  0.00  0.00     0.169 HD
ATOM     10  O   UNL d   1       1.999   3.010   0.131  0.00  0.00    -0.266 OA
BRANCH   8  11
ATOM     11  C   UNL d   1       4.742   2.015   0.432  0.00  0.00     0.038 A 
ATOM     12  C   UNL d   1       4.780   3.393   0.682  0.00  0.00     0.053 A 
ATOM     13  C   UNL d   1       6.000   4.070   0.760  0.00  0.00     0.037 A 
ATOM     14 CL   UNL d   1       6.016   5.766   1.057  0.00  0.00    -0.084 Cl
ATOM     15  C   UNL d   1       7.199   3.389   0.598  0.00  0.00     0.048 A 
ATOM     16  C   UNL d   1       7.168   2.017   0.374  0.00  0.00     0.037 A 
ATOM     17  C   UNL d   1       5.953   1.326   0.301  0.00  0.00     0.053 A 
ATOM     18 CL   UNL d   1       8.648   1.162   0.166  0.00  0.00    -0.084 Cl
ENDBRANCH   8  11
ENDBRANCH   1   7
BRANCH   4  19
ATOM     19  C   UNL d   1       0.080  -2.672  -0.133  0.00  0.00    -0.002 A 
ATOM     20  C   UNL d   1       0.859  -3.445   0.743  0.00  0.00     0.014 A 
ATOM     21  C   UNL d   1       0.650  -4.823   0.865  0.00  0.00     0.001 A 
ATOM     22  C   UNL d   1      -0.336  -5.454   0.108  0.00  0.00     0.000 A 
ATOM     23  C   UNL d   1      -1.107  -4.711  -0.778  0.00  0.00     0.001 A 
ATOM     24  C   UNL d   1      -0.898  -3.335  -0.901  0.00  0.00     0.014 A 
ENDBRANCH   4  19
TORSDOF 3
