REMARK  3 active torsions:
REMARK  status: ('A' for Active; 'I' for Inactive)
REMARK    1  A    between atoms: N_2  and  C_9 
REMARK    2  A    between atoms: C_10  and  C_3 
REMARK    3  A    between atoms: O_19  and  C_3 
ROOT
ATOM      1  C   UNL d   1      -2.675   1.006   0.393  0.00  0.00     0.000 A 
ATOM      2  C   UNL d   1      -1.232   1.443   0.115  0.00  0.00     0.114 C 
ATOM      3  C   UNL d   1      -3.211   0.905   1.686  0.00  0.00     0.010 A 
ATOM      4  S   UNL d   1      -2.256   1.083   3.183  0.00  0.00    -0.129 SA
ATOM      5  C   UNL d   1      -3.535   0.738  -0.705  0.00  0.00     0.054 A 
ATOM      6  C   UNL d   1      -0.427   1.884   1.351  0.00  0.00     0.058 C 
ATOM      7  C   UNL d   1      -4.587   0.659   1.860  0.00  0.00     0.022 A 
ATOM      8  C   UNL d   1      -4.891   0.497  -0.510  0.00  0.00     0.117 A 
ATOM      9  C   UNL d   1      -0.585   0.918   2.508  0.00  0.00     0.083 C 
ATOM     10  C   UNL d   1      -5.428   0.476   0.761  0.00  0.00     0.043 A 
ATOM     11  F   UNL d   1      -5.686   0.323  -1.573  0.00  0.00    -0.206 F 
ENDROOT
BRANCH   2  12
ATOM     12  C   UNL d   1      -1.128   2.584  -0.918  0.00  0.00    -0.019 A 
ATOM     13  C   UNL d   1      -2.161   3.523  -1.081  0.00  0.00     0.013 A 
ATOM     14  C   UNL d   1      -2.126   4.472  -2.104  0.00  0.00     0.030 A 
ATOM     15  C   UNL d   1      -1.006   4.576  -2.933  0.00  0.00     0.039 A 
ATOM     16  C   UNL d   1       0.088   3.738  -2.689  0.00  0.00     0.030 A 
ATOM     17  C   UNL d   1       0.019   2.736  -1.714  0.00  0.00     0.013 A 
BRANCH  15  18
ATOM     18  N   UNL d   1      -1.005   5.487  -4.036  0.00  0.00    -0.320 N 
ATOM     19  C   UNL d   1      -0.446   5.253  -5.301  0.00  0.00     0.013 A 
ATOM     20  C   UNL d   1      -0.701   6.351  -6.101  0.00  0.00     0.027 A 
ATOM     21  C   UNL d   1       0.218   3.999  -5.768  0.00  0.00     0.068 C 
ATOM     22  C   UNL d   1      -1.445   7.268  -5.350  0.00  0.00     0.027 A 
ATOM     23  C   UNL d   1      -1.614   6.749  -4.084  0.00  0.00     0.013 A 
ATOM     24  C   UNL d   1      -2.270   7.462  -2.947  0.00  0.00     0.068 C 
ENDBRANCH  15  18
ENDBRANCH   2  12
BRANCH   2  25
ATOM     25  O   UNL d   1      -0.572   0.278  -0.409  0.00  0.00    -0.380 OA
ATOM     26  H   UNL d   1      -0.971   0.088  -1.274  0.00  0.00     0.211 HD
ENDBRANCH   2  25
TORSDOF 3
