REMARK  4 active torsions:
REMARK  status: ('A' for Active; 'I' for Inactive)
REMARK    1  A    between atoms: N_2  and  C_1 
REMARK    2  A    between atoms: O_8  and  C_3 
REMARK    3  A    between atoms: C_6  and  C_5 
REMARK       I    between atoms: N_19  and  C_6 
REMARK    4  A    between atoms: C_7  and  O_8 
ROOT
ATOM      1  C   UNL d   1       1.343  -0.081  -0.113  0.00  0.00     0.137 C 
ATOM      2  C   UNL d   1       0.528  -1.214  -0.134  0.00  0.00     0.109 C 
ATOM      3  C   UNL d   1       0.802   1.211  -0.038  0.00  0.00     0.056 C 
ATOM      4  C   UNL d   1      -0.589   1.376   0.004  0.00  0.00     0.034 C 
ATOM      5  C   UNL d   1      -0.857  -1.024  -0.225  0.00  0.00     0.041 C 
ATOM      6  C   UNL d   1      -1.413   0.254  -0.127  0.00  0.00     0.020 C 
ENDROOT
BRANCH   2   7
ATOM      7  O   UNL d   1       1.085  -2.478  -0.077  0.00  0.00    -0.308 OA
BRANCH   7   8
ATOM      8  C   UNL d   1       0.365  -3.449   0.597  0.00  0.00     0.079 A 
ATOM      9  C   UNL d   1       0.259  -4.699  -0.010  0.00  0.00     0.061 A 
ATOM     10  C   UNL d   1      -0.586  -5.659   0.548  0.00  0.00     0.038 A 
ATOM     11 CL   UNL d   1      -0.767  -7.186  -0.222  0.00  0.00    -0.084 Cl
ATOM     12  C   UNL d   1      -1.320  -5.382   1.702  0.00  0.00     0.048 A 
ATOM     13  C   UNL d   1      -1.156  -4.153   2.334  0.00  0.00     0.038 A 
ATOM     14  C   UNL d   1      -0.285  -3.199   1.812  0.00  0.00     0.061 A 
ATOM     15 CL   UNL d   1      -2.087  -3.775   3.730  0.00  0.00    -0.084 Cl
ENDBRANCH   7   8
ENDBRANCH   2   7
BRANCH   1  16
ATOM     16  N   UNL d   1       2.786  -0.209  -0.184  0.00  0.00    -0.113 N 
ATOM     17  O   UNL d   1       3.343  -0.868   0.704  0.00  0.00    -0.532 OA
ATOM     18  O   UNL d   1       3.354   0.378  -1.112  0.00  0.00    -0.532 OA
ENDBRANCH   1  16
BRANCH   4  19
ATOM     19  C   UNL d   1      -1.131   2.752   0.184  0.00  0.00     0.249 C 
ATOM     20  O   UNL d   1      -0.386   3.724   0.192  0.00  0.00    -0.268 OA
ATOM     21  N   UNL d   1      -2.473   2.906   0.381  0.00  0.00    -0.366 N 
ATOM     22  H   UNL d   1      -3.138   2.162   0.503  0.00  0.00     0.159 HD
ATOM     23  H   UNL d   1      -2.795   3.851   0.558  0.00  0.00     0.159 HD
ENDBRANCH   4  19
TORSDOF 4
