REMARK  2 active torsions:
REMARK  status: ('A' for Active; 'I' for Inactive)
REMARK    1  A    between atoms: N_6  and  C_1 
REMARK       I    between atoms: C_3  and  N_7 
REMARK    2  A    between atoms: C_9  and  C_3 
REMARK       I    between atoms: C_8  and  N_6 
REMARK       I    between atoms: N_7  and  C_8 
ROOT
ATOM      1  C   UNL d   1       2.593  -2.208  -0.443  0.00  0.00     0.264 C 
ATOM      2  N   UNL d   1      -0.239  -2.599  -0.669  0.00  0.00    -0.292 N 
ATOM      3  N   UNL d   1       1.886  -3.354  -0.104  0.00  0.00    -0.275 N 
ATOM      4  C   UNL d   1       0.531  -3.607  -0.169  0.00  0.00     0.328 C 
ATOM      5  O   UNL d   1       2.012  -1.215  -0.871  0.00  0.00    -0.267 OA
ATOM      6  O   UNL d   1       0.155  -4.719   0.201  0.00  0.00    -0.247 OA
ATOM      7  H   UNL d   1       0.239  -1.767  -1.008  0.00  0.00     0.172 HD
ATOM      8  H   UNL d   1       2.382  -4.158   0.261  0.00  0.00     0.173 HD
ENDROOT
BRANCH   1   9
ATOM      9  C   UNL d   1       4.085  -2.248  -0.258  0.00  0.00     0.092 A 
ATOM     10  C   UNL d   1       4.680  -3.301   0.455  0.00  0.00     0.133 A 
ATOM     11  F   UNL d   1       3.937  -4.301   0.956  0.00  0.00    -0.205 F 
ATOM     12  C   UNL d   1       6.056  -3.373   0.677  0.00  0.00     0.043 A 
ATOM     13  C   UNL d   1       6.885  -2.376   0.185  0.00  0.00     0.005 A 
ATOM     14  C   UNL d   1       6.328  -1.321  -0.534  0.00  0.00     0.025 A 
ATOM     15  C   UNL d   1       4.941  -1.252  -0.763  0.00  0.00     0.052 A 
ATOM     16 CL   UNL d   1       4.418   0.094  -1.713  0.00  0.00    -0.083 Cl
ENDBRANCH   1   9
BRANCH   2  17
ATOM     17  C   UNL d   1      -1.599  -2.703  -0.904  0.00  0.00     0.149 A 
ATOM     18  C   UNL d   1      -2.374  -1.786  -1.656  0.00  0.00     0.088 A 
ATOM     19  C   UNL d   1      -3.623  -2.343  -1.743  0.00  0.00     0.093 A 
ATOM     20 BR   UNL d   1      -1.758  -0.215  -2.461  0.00  0.00    -0.044 Br
ATOM     21  C   UNL d   1      -4.870  -2.020  -2.456  0.00  0.00     0.080 C 
ATOM     22  O   UNL d   1      -3.634  -3.483  -1.002  0.00  0.00    -0.240 OA
ATOM     23  N   UNL d   1      -2.377  -3.708  -0.482  0.00  0.00    -0.243 N 
ATOM     24  HN  UNL d   1      -2.094  -4.488   0.111  1.00  0.00     0.196 HD
ENDBRANCH   2  17
TORSDOF 2
