REMARK  7 active torsions:
REMARK  status: ('A' for Active; 'I' for Inactive)
REMARK    1  A    between atoms: N_6  and  S_1 
REMARK    2  A    between atoms: C_12  and  S_1 
REMARK    3  A    between atoms: C_2  and  C_8 
REMARK    4  A    between atoms: C_10  and  N_6 
REMARK    5  A    between atoms: C_21  and  N_6 
REMARK    6  A    between atoms: C_16  and  C_11 
REMARK    7  A    between atoms: C_19  and  C_21 
ROOT
ATOM      1  C   UNL d   1      -1.817   1.036   0.790  0.00  0.00     0.043 A 
ATOM      2  C   UNL d   1      -3.005   1.604   0.290  0.00  0.00     0.060 A 
ATOM      3  C   UNL d   1      -1.024   1.754   1.701  0.00  0.00     0.018 A 
ATOM      4  C   UNL d   1      -3.407   2.857   0.775  0.00  0.00     0.031 A 
ATOM      5  C   UNL d   1      -1.423   3.014   2.144  0.00  0.00     0.001 A 
ATOM      6  C   UNL d   1      -2.622   3.557   1.695  0.00  0.00     0.002 A 
ENDROOT
BRANCH   1   7
ATOM      7  C   UNL d   1      -1.397  -0.343   0.497  0.00  0.00     0.165 A 
ATOM      8  N   UNL d   1      -0.741  -1.129   1.295  0.00  0.00    -0.331 N 
ATOM      9  C   UNL d   1      -0.676  -2.295   0.583  0.00  0.00     0.111 A 
ATOM     10  HN  UNL d   1      -0.367  -0.927   2.222  1.00  0.00     0.168 HD
ATOM     11  C   UNL d   1      -0.223  -3.497   0.966  0.00  0.00     0.047 C 
ATOM     12  C   UNL d   1      -1.287  -2.109  -0.760  0.00  0.00     0.316 A 
ATOM     13  O   UNL d   1      -1.720  -0.822  -0.726  0.00  0.00    -0.255 OA
ATOM     14  O   UNL d   1      -1.410  -2.906  -1.670  0.00  0.00    -0.257 OA
BRANCH  11  15
ATOM     15  C   UNL d   1       0.393  -3.895   2.245  0.00  0.00    -0.032 A 
ATOM     16  C   UNL d   1       1.022  -2.998   3.117  0.00  0.00     0.035 A 
ATOM     17  C   UNL d   1       1.669  -3.463   4.265  0.00  0.00     0.034 A 
ATOM     18 CL   UNL d   1       2.458  -2.348   5.313  0.00  0.00    -0.084 Cl
ATOM     19  C   UNL d   1       1.702  -4.824   4.563  0.00  0.00     0.024 A 
ATOM     20  C   UNL d   1       1.073  -5.727   3.711  0.00  0.00     0.003 A 
ATOM     21  C   UNL d   1       0.425  -5.264   2.562  0.00  0.00     0.011 A 
ENDBRANCH  11  15
ENDBRANCH   1   7
BRANCH   2  22
ATOM     22  N   UNL d   1      -3.873   0.878  -0.611  0.00  0.00    -0.267 N 
BRANCH  22  23
ATOM     23  S   UNL d   1      -5.199   0.122   0.138  0.00  0.00     0.265 S 
ATOM     24  O   UNL d   1      -6.341   1.010   0.070  0.00  0.00    -0.200 OA
ATOM     25  O   UNL d   1      -4.758  -0.406   1.415  0.00  0.00    -0.200 OA
BRANCH  23  26
ATOM     26  C   UNL d   1      -5.548  -1.291  -0.891  0.00  0.00     0.080 A 
ATOM     27  C   UNL d   1      -4.849  -2.481  -0.671  0.00  0.00     0.026 A 
ATOM     28  C   UNL d   1      -5.227  -3.645  -1.343  0.00  0.00     0.008 A 
ATOM     29  C   UNL d   1      -6.322  -3.635  -2.216  0.00  0.00    -0.062 A 
ATOM     30  C   UNL d   1      -7.008  -2.434  -2.442  0.00  0.00     0.008 A 
ATOM     31  C   UNL d   1      -6.797  -4.923  -2.826  0.00  0.00     0.048 C 
ATOM     32  C   UNL d   1      -6.624  -1.262  -1.782  0.00  0.00     0.026 A 
ENDBRANCH  23  26
ENDBRANCH  22  23
BRANCH  22  33
ATOM     33  C   UNL d   1      -3.994   1.360  -2.006  0.00  0.00     0.168 C 
BRANCH  33  34
ATOM     34  C   UNL d   1      -4.806   2.615  -2.145  0.00  0.00    -0.016 C 
ATOM     35  C   UNL d   1      -4.369   3.756  -2.701  0.00  0.00     0.008 C 
ENDBRANCH  33  34
ENDBRANCH  22  33
ENDBRANCH   2  22
TORSDOF 7
