REMARK  5 active torsions:
REMARK  status: ('A' for Active; 'I' for Inactive)
REMARK    1  A    between atoms: C_7  and  C_3 
REMARK    2  A    between atoms: C_9  and  C_4 
REMARK    3  A    between atoms: O_10  and  C_9 
REMARK    4  A    between atoms: C_11  and  O_10 
REMARK    5  A    between atoms: O_17  and  C_12 
ROOT
ATOM      1  C   UNL d   1       0.033  -2.646   0.032  0.00  0.00     0.240 C 
ENDROOT
BRANCH   1   2
ATOM      2  C   UNL d   1       0.284  -1.185   0.256  0.00  0.00     0.075 A 
ATOM      3  N   UNL d   1       0.015  -0.240  -0.625  0.00  0.00    -0.349 N 
ATOM      4  C   UNL d   1       0.315   1.014  -0.101  0.00  0.00     0.085 A 
ATOM      5  HN  UNL d   1      -0.359  -0.406  -1.560  1.00  0.00     0.166 HD
ATOM      6  C   UNL d   1       0.801   0.984   1.195  0.00  0.00     0.084 A 
ATOM      7  S   UNL d   1       0.880  -0.625   1.770  0.00  0.00    -0.084 SA
BRANCH   4   8
ATOM      8  C   UNL d   1       0.118   2.250  -0.863  0.00  0.00     0.172 C 
ATOM      9  O   UNL d   1       0.378   3.352  -0.376  0.00  0.00    -0.291 OA
ATOM     10  C   UNL d   1      -0.419   2.158  -2.269  0.00  0.00     0.098 C 
ENDBRANCH   4   8
ENDBRANCH   1   2
BRANCH   1  11
ATOM     11  O   UNL d   1       1.285  -3.330   0.101  0.00  0.00    -0.345 OA
BRANCH  11  12
ATOM     12  C   UNL d   1       1.243  -4.686  -0.079  0.00  0.00     0.069 A 
ATOM     13  C   UNL d   1       0.097  -5.443  -0.326  0.00  0.00     0.039 A 
ATOM     14  C   UNL d   1       0.185  -6.830  -0.494  0.00  0.00     0.039 A 
ATOM     15  C   UNL d   1       1.417  -7.475  -0.411  0.00  0.00     0.068 A 
ATOM     16  C   UNL d   1       2.564  -6.718  -0.166  0.00  0.00     0.039 A 
ATOM     17  C   UNL d   1       2.478  -5.332  -0.002  0.00  0.00     0.039 A 
BRANCH  15  18
ATOM     18  O   UNL d   1       1.627  -8.820  -0.545  0.00  0.00    -0.356 OA
ATOM     19  C   UNL d   1       0.479  -9.623  -0.793  0.00  0.00     0.210 C 
ENDBRANCH  15  18
ENDBRANCH  11  12
ENDBRANCH   1  11
TORSDOF 5
