REMARK  4 active torsions:
REMARK  status: ('A' for Active; 'I' for Inactive)
REMARK    1  A    between atoms: S_21  and  C_3 
REMARK    2  A    between atoms: C_6  and  C_4 
REMARK       I    between atoms: C_11  and  N_9 
REMARK       I    between atoms: N_14  and  C_11 
REMARK    3  A    between atoms: C_22  and  N_14 
REMARK    4  A    between atoms: O_24  and  N_18 
ROOT
ATOM      1  C   UNL d   1       0.093  -0.766  -0.010  0.00  0.00     0.020 A 
ATOM      2  C   UNL d   1       0.439   0.661  -0.051  0.00  0.00    -0.024 A 
ATOM      3  C   UNL d   1       1.211  -1.576  -0.068  0.00  0.00     0.054 A 
ATOM      4  C   UNL d   1       1.813   0.852  -0.097  0.00  0.00     0.041 A 
ATOM      5  S   UNL d   1       2.640  -0.659  -0.100  0.00  0.00    -0.080 SA
ATOM      6  C   UNL d   1      -1.304  -1.197   0.081  0.00  0.00     0.045 C 
ATOM      7  C   UNL d   1      -0.639   1.725  -0.019  0.00  0.00     0.050 C 
ATOM      8  C   UNL d   1      -2.052   1.180   0.365  0.00  0.00    -0.038 C 
ATOM      9  C   UNL d   1      -2.329  -0.164  -0.348  0.00  0.00     0.069 C 
ATOM     10  N   UNL d   1      -1.575  -2.366   0.572  0.00  0.00    -0.271 N 
ATOM     11  HN  UNL d   1      -0.867  -3.034   0.876  1.00  0.00     0.194 HD
ATOM     12  C   UNL d   1      -3.132   2.184  -0.080  0.00  0.00     0.015 C 
ATOM     13  C   UNL d   1      -2.176   1.003   1.895  0.00  0.00     0.015 C 
ENDROOT
BRANCH   4  14
ATOM     14  C   UNL d   1       2.618   2.148  -0.090  0.00  0.00     0.067 C 
ATOM     15  N   UNL d   1       2.151   3.406  -0.261  0.00  0.00    -0.289 N 
ATOM     16  N   UNL d   1       3.236   4.203   0.051  0.00  0.00    -0.216 N 
ATOM     17  HN  UNL d   1       1.218   3.697  -0.551  1.00  0.00     0.188 HD
ATOM     18  C   UNL d   1       3.211   5.617   0.134  0.00  0.00     0.345 C 
ATOM     19  C   UNL d   1       4.368   3.457   0.281  0.00  0.00     0.124 C 
ATOM     20  N   UNL d   1       2.376   6.200  -0.802  0.00  0.00    -0.307 N 
ATOM     21  O   UNL d   1       4.024   6.151   0.878  0.00  0.00    -0.245 OA
ATOM     22  H   UNL d   1       1.909   5.569  -1.447  0.00  0.00     0.170 HD
ATOM     23  C   UNL d   1       4.021   2.148   0.134  0.00  0.00     0.052 C 
BRANCH  20  24
ATOM     24  C   UNL d   1       2.453   7.579  -1.139  0.00  0.00     0.036 A 
ATOM     25  C   UNL d   1       2.993   8.545  -0.278  0.00  0.00     0.031 A 
ATOM     26  C   UNL d   1       3.134   9.879  -0.680  0.00  0.00     0.026 A 
ATOM     27  C   UNL d   1       2.730  10.259  -1.953  0.00  0.00     0.034 A 
ATOM     28  C   UNL d   1       2.169   9.324  -2.815  0.00  0.00     0.026 A 
ATOM     29 CL   UNL d   1       2.934  11.894  -2.459  0.00  0.00    -0.084 Cl
ATOM     30  C   UNL d   1       2.021   7.989  -2.406  0.00  0.00     0.031 A 
ENDBRANCH  20  24
ENDBRANCH   4  14
BRANCH   3  31
ATOM     31  S   UNL d   1       1.313  -3.333  -0.192  0.00  0.00    -0.126 SA
ATOM     32  C   UNL d   1       1.641  -3.772   1.531  0.00  0.00     0.096 C 
ENDBRANCH   3  31
BRANCH  10  33
ATOM     33  O   UNL d   1      -2.955  -2.607   0.635  0.00  0.00    -0.285 OA
ATOM     34  C   UNL d   1      -3.170  -3.842   1.308  0.00  0.00     0.237 C 
ENDBRANCH  10  33
TORSDOF 4
