REMARK  2 active torsions:
REMARK  status: ('A' for Active; 'I' for Inactive)
REMARK    1  A    between atoms: C_3  and  N_1 
REMARK    2  A    between atoms: N_2  and  C_7 
ROOT
ATOM      1  C   UNL d   1       2.105  -1.514   0.013  0.00  0.00     0.041 A 
ATOM      2  C   UNL d   1       3.242  -1.138   0.744  0.00  0.00     0.066 A 
ATOM      3  C   UNL d   1       4.387  -1.948   0.714  0.00  0.00     0.105 A 
ATOM      4  C   UNL d   1       2.130  -2.706  -0.724  0.00  0.00     0.030 A 
ATOM      5  C   UNL d   1       4.401  -3.145  -0.012  0.00  0.00     0.036 A 
ATOM      6  C   UNL d   1       3.267  -3.522  -0.727  0.00  0.00     0.005 A 
ENDROOT
BRANCH   1   7
ATOM      7  N   UNL d   1       0.939  -0.683   0.013  0.00  0.00    -0.320 N 
ATOM      8  C   UNL d   1       0.916   0.715  -0.013  0.00  0.00     0.013 A 
ATOM      9  C   UNL d   1      -0.402   1.130   0.007  0.00  0.00     0.027 A 
ATOM     10  C   UNL d   1       2.104   1.610  -0.138  0.00  0.00     0.068 C 
ATOM     11  C   UNL d   1      -1.214  -0.011   0.020  0.00  0.00     0.027 A 
ATOM     12  C   UNL d   1      -0.390  -1.120   0.037  0.00  0.00     0.013 A 
ATOM     13  C   UNL d   1      -0.846  -2.536   0.160  0.00  0.00     0.068 C 
ENDBRANCH   1   7
BRANCH   3  14
ATOM     14  N   UNL d   1       5.590  -1.528   1.443  0.00  0.00    -0.116 N 
ATOM     15  O   UNL d   1       5.589  -0.402   1.958  0.00  0.00    -0.532 OA
ATOM     16  O   UNL d   1       6.543  -2.322   1.491  0.00  0.00    -0.532 OA
ENDBRANCH   3  14
TORSDOF 2
