REMARK  2 active torsions:
REMARK  status: ('A' for Active; 'I' for Inactive)
REMARK    1  A    between atoms: C_7  and  N_1 
REMARK    2  A    between atoms: C_9  and  C_2 
ROOT
ATOM      1  N   UNL d   1       1.031  -0.548  -0.088  0.00  0.00    -0.260 N 
ATOM      2  C   UNL d   1      -0.321   1.225   0.035  0.00  0.00     0.050 C 
ATOM      3  C   UNL d   1       1.017   0.839   0.026  0.00  0.00     0.046 C 
ATOM      4  N   UNL d   1      -0.215  -1.029  -0.322  0.00  0.00    -0.304 N 
ATOM      5  HN  UNL d   1      -0.478  -1.987  -0.554  1.00  0.00     0.186 HD
ATOM      6  C   UNL d   1      -1.018   0.022  -0.183  0.00  0.00     0.124 C 
ATOM      7  C   UNL d   1       2.245   1.685   0.022  0.00  0.00     0.071 C 
ENDROOT
BRANCH   1   8
ATOM      8  C   UNL d   1       2.126  -1.458  -0.027  0.00  0.00     0.058 A 
ATOM      9  C   UNL d   1       2.037  -2.678  -0.718  0.00  0.00     0.057 A 
ATOM     10  C   UNL d   1       3.122  -3.562  -0.734  0.00  0.00     0.058 A 
ATOM     11 CL   UNL d   1       2.968  -5.009  -1.666  0.00  0.00    -0.082 Cl
ATOM     12  C   UNL d   1       4.287  -3.251  -0.026  0.00  0.00     0.055 A 
ATOM     13  C   UNL d   1       4.355  -2.065   0.709  0.00  0.00     0.028 A 
ATOM     14 CL   UNL d   1       5.674  -4.281  -0.015  0.00  0.00    -0.083 Cl
ATOM     15  C   UNL d   1       3.280  -1.171   0.711  0.00  0.00     0.033 A 
ENDBRANCH   1   8
BRANCH   2  16
ATOM     16  C   UNL d   1      -0.850   2.581   0.186  0.00  0.00     0.159 C 
ATOM     17  O   UNL d   1      -0.105   3.543   0.394  0.00  0.00    -0.293 OA
ATOM     18  C   UNL d   1      -2.333   2.827   0.064  0.00  0.00     0.097 C 
ENDBRANCH   2  16
TORSDOF 2
