REMARK  2 active torsions:
REMARK  status: ('A' for Active; 'I' for Inactive)
REMARK    1  A    between atoms: N_4  and  N_1 
REMARK       I    between atoms: N_10  and  C_3 
REMARK       I    between atoms: N_11  and  C_3 
REMARK    2  A    between atoms: C_7  and  C_6 
ROOT
ATOM      1  N   UNL d   1       0.961   0.156   0.028  0.00  0.00    -0.302 N 
ATOM      2  HN  UNL d   1       0.431   0.047  -0.837  1.00  0.00     0.186 HD
ATOM      3  C   UNL d   1       2.261   0.104   0.078  0.00  0.00     0.032 C 
ATOM      4  C   UNL d   1       3.075   0.211   1.357  0.00  0.00     0.070 C 
ENDROOT
BRANCH   1   5
ATOM      5  N   UNL d   1       0.356   0.376   1.270  0.00  0.00    -0.281 N 
ATOM      6  C   UNL d   1      -0.933   0.413   1.206  0.00  0.00     0.141 C 
ATOM      7  N   UNL d   1      -1.682   0.223   0.091  0.00  0.00    -0.278 NA
ATOM      8  N   UNL d   1      -1.717   0.662   2.280  0.00  0.00    -0.278 NA
ATOM      9  H   UNL d   1      -1.038   0.204  -0.697  0.00  0.00     0.126 HD
ATOM     10  H   UNL d   1      -2.370   0.955  -0.026  0.00  0.00     0.126 HD
ATOM     11  H   UNL d   1      -1.181   0.598   3.139  0.00  0.00     0.126 HD
ATOM     12  H   UNL d   1      -2.535   0.069   2.305  0.00  0.00     0.126 HD
ATOM     13  HN  UNL d   1       0.880   0.495   2.138  1.00  0.00     0.189 HD
ENDBRANCH   1   5
BRANCH   3  14
ATOM     14  C   UNL d   1       3.022  -0.069  -1.202  0.00  0.00    -0.013 A 
ATOM     15  C   UNL d   1       4.324   0.428  -1.347  0.00  0.00     0.015 A 
ATOM     16  C   UNL d   1       5.001   0.290  -2.563  0.00  0.00     0.020 A 
ATOM     17  C   UNL d   1       4.381  -0.350  -3.633  0.00  0.00     0.011 A 
ATOM     18  C   UNL d   1       3.089  -0.856  -3.500  0.00  0.00     0.020 A 
ATOM     19 BR   UNL d   1       5.296  -0.525  -5.277  0.00  0.00    -0.051 Br
ATOM     20  C   UNL d   1       2.408  -0.711  -2.286  0.00  0.00     0.015 A 
ENDBRANCH   3  14
TORSDOF 2
