REMARK  3 active torsions:
REMARK  status: ('A' for Active; 'I' for Inactive)
REMARK    1  A    between atoms: S_8  and  C_2 
REMARK    2  A    between atoms: S_9  and  C_3 
REMARK    3  A    between atoms: C_10  and  S_9 
ROOT
ATOM      1  S   UNL d   1       0.877  -1.034   0.660  0.00  0.00    -0.038 SA
ATOM      2  C   UNL d   1      -0.153   0.266   0.242  0.00  0.00     0.126 A 
ATOM      3  C   UNL d   1       2.171  -0.101   0.034  0.00  0.00     0.129 A 
ATOM      4  N   UNL d   1       0.453   1.286  -0.324  0.00  0.00    -0.287 N 
ATOM      5  HN  UNL d   1      -0.022   2.133  -0.636  1.00  0.00     0.188 HD
ATOM      6  N   UNL d   1       1.815   1.071  -0.444  0.00  0.00    -0.287 N 
ATOM      7  HN  UNL d   1       2.465   1.742  -0.854  1.00  0.00     0.188 HD
ENDROOT
BRANCH   3   8
ATOM      8  S   UNL d   1       3.824  -0.670   0.028  0.00  0.00    -0.104 SA
BRANCH   8   9
ATOM      9  C   UNL d   1       4.718   0.910  -0.029  0.00  0.00     0.077 C 
ATOM     10  C   UNL d   1       6.215   0.654  -0.013  0.00  0.00     0.016 C 
ENDBRANCH   8   9
ENDBRANCH   3   8
BRANCH   2  11
ATOM     11  S   UNL d   1      -1.871   0.258   0.541  0.00  0.00    -0.117 SA
ATOM     12  H   UNL d   1      -1.926  -0.929   1.159  0.00  0.00     0.109 HD
ENDBRANCH   2  11
TORSDOF 3
