REMARK  2 active torsions:
REMARK  status: ('A' for Active; 'I' for Inactive)
REMARK    1  A    between atoms: C_2  and  S_1 
REMARK    2  A    between atoms: N_6  and  S_1 
ROOT
ATOM      1  S   UNL d   1       0.936  -0.003  -0.098  0.00  0.00     0.270 S 
ATOM      2  O   UNL d   1       0.338   0.894   0.868  0.00  0.00    -0.200 OA
ATOM      3  O   UNL d   1       2.370  -0.130  -0.276  0.00  0.00    -0.200 OA
ENDROOT
BRANCH   1   4
ATOM      4  C   UNL d   1       0.344   0.523  -1.629  0.00  0.00     0.111 A 
ATOM      5  C   UNL d   1      -0.980   0.591  -1.983  0.00  0.00     0.099 A 
ATOM      6  S   UNL d   1      -1.212   1.169  -3.566  0.00  0.00    -0.064 SA
ATOM      7 CL   UNL d   1      -2.372   0.179  -1.062  0.00  0.00    -0.075 Cl
ATOM      8  C   UNL d   1       0.458   1.343  -3.786  0.00  0.00     0.077 A 
ATOM      9  C   UNL d   1       1.195   0.968  -2.693  0.00  0.00     0.059 A 
ATOM     10 CL   UNL d   1       1.065   1.939  -5.276  0.00  0.00    -0.076 Cl
ENDBRANCH   1   4
BRANCH   1  11
ATOM     11  N   UNL d   1       0.381  -1.567   0.240  0.00  0.00    -0.258 N 
ATOM     12  C   UNL d   1       0.722  -2.675  -0.491  0.00  0.00     0.108 A 
ATOM     13  C   UNL d   1       0.062  -3.749   0.070  0.00  0.00     0.020 A 
ATOM     14  C   UNL d   1      -0.702  -3.260   1.162  0.00  0.00     0.020 A 
ATOM     15  C   UNL d   1      -0.492  -1.898   1.241  0.00  0.00     0.108 A 
ENDBRANCH   1  11
TORSDOF 2
