REMARK  7 active torsions:
REMARK  status: ('A' for Active; 'I' for Inactive)
REMARK    1  A    between atoms: C_11  and  S_1 
REMARK    2  A    between atoms: C_16  and  S_1 
REMARK    3  A    between atoms: C_15  and  C_2 
REMARK    4  A    between atoms: C_3  and  C_4 
REMARK    5  A    between atoms: C_10  and  C_11 
REMARK    6  A    between atoms: O_22  and  C_15 
REMARK    7  A    between atoms: C_27  and  O_22 
ROOT
ATOM      1  C   UNL d   1       0.938  -4.031  -2.818  0.00  0.00     0.075 A 
ATOM      2  N   UNL d   1       0.454  -3.636  -1.583  0.00  0.00    -0.350 N 
ATOM      3  HN  UNL d   1      -0.040  -4.241  -0.927  1.00  0.00     0.166 HD
ATOM      4  C   UNL d   1       0.728  -2.363  -1.381  0.00  0.00     0.065 A 
ATOM      5  S   UNL d   1       1.604  -1.592  -2.648  0.00  0.00    -0.085 SA
ATOM      6  C   UNL d   1       1.588  -3.054  -3.540  0.00  0.00     0.084 A 
ENDROOT
BRANCH   1   7
ATOM      7  C   UNL d   1       0.770  -5.417  -3.318  0.00  0.00     0.128 A 
ATOM      8  C   UNL d   1       0.149  -6.450  -2.660  0.00  0.00     0.079 A 
ATOM      9  C   UNL d   1       0.273  -7.565  -3.529  0.00  0.00     0.132 A 
ATOM     10  N   UNL d   1       0.915  -7.213  -4.656  0.00  0.00    -0.255 N 
ATOM     11  O   UNL d   1       1.225  -5.875  -4.517  0.00  0.00    -0.235 OA
ATOM     12  HN  UNL d   1       1.131  -7.813  -5.452  1.00  0.00     0.195 HD
BRANCH   9  13
ATOM     13  C   UNL d   1      -0.163  -8.933  -3.265  0.00  0.00     0.311 C 
ATOM     14  O   UNL d   1      -0.691  -9.268  -2.209  0.00  0.00    -0.258 OA
BRANCH  13  15
ATOM     15  O   UNL d   1       0.152  -9.794  -4.277  0.00  0.00    -0.317 OA
BRANCH  15  16
ATOM     16  C   UNL d   1       0.093 -11.188  -3.954  0.00  0.00     0.175 C 
ATOM     17  C   UNL d   1       1.420 -11.597  -3.341  0.00  0.00     0.034 C 
ENDBRANCH  15  16
ENDBRANCH  13  15
ENDBRANCH   9  13
ENDBRANCH   1   7
BRANCH   4  18
ATOM     18  C   UNL d   1       0.396  -1.633  -0.132  0.00  0.00     0.210 C 
BRANCH  18  19
ATOM     19  S   UNL d   1      -1.183  -0.844  -0.292  0.00  0.00     0.181 S 
ATOM     20  O   UNL d   1      -1.167   0.039  -1.446  0.00  0.00    -0.222 OA
ATOM     21  O   UNL d   1      -1.525  -0.300   1.013  0.00  0.00    -0.222 OA
BRANCH  19  22
ATOM     22  C   UNL d   1      -2.365  -2.134  -0.624  0.00  0.00     0.059 A 
ATOM     23  C   UNL d   1      -2.999  -2.781   0.443  0.00  0.00     0.025 A 
ATOM     24  C   UNL d   1      -3.987  -3.733   0.182  0.00  0.00     0.025 A 
ATOM     25  C   UNL d   1      -4.339  -4.025  -1.136  0.00  0.00     0.034 A 
ATOM     26  C   UNL d   1      -3.715  -3.374  -2.199  0.00  0.00     0.025 A 
ATOM     27 CL   UNL d   1      -5.574  -5.182  -1.452  0.00  0.00    -0.084 Cl
ATOM     28  C   UNL d   1      -2.729  -2.417  -1.945  0.00  0.00     0.025 A 
ENDBRANCH  19  22
ENDBRANCH  18  19
ENDBRANCH   4  18
TORSDOF 7
