REMARK  3 active torsions:
REMARK  status: ('A' for Active; 'I' for Inactive)
REMARK    1  A    between atoms: C_2  and  C_1 
REMARK    2  A    between atoms: O_3  and  C_1 
REMARK    3  A    between atoms: C_7  and  O_3 
ROOT
ATOM      1  C   UNL d   1       0.968   0.459   0.091  0.00  0.00     0.302 C 
ATOM      2  O   UNL d   1       1.995   1.024   0.434  0.00  0.00    -0.259 OA
ENDROOT
BRANCH   1   3
ATOM      3  C   UNL d   1       0.202   0.884  -1.091  0.00  0.00     0.083 A 
ATOM      4  C   UNL d   1       0.844   0.979  -2.334  0.00  0.00     0.052 A 
ATOM      5 CL   UNL d   1       2.462   0.432  -2.600  0.00  0.00    -0.083 Cl
ATOM      6  C   UNL d   1       0.167   1.511  -3.439  0.00  0.00     0.025 A 
ATOM      7  C   UNL d   1      -1.153   1.938  -3.315  0.00  0.00     0.003 A 
ATOM      8  C   UNL d   1      -1.802   1.830  -2.085  0.00  0.00     0.025 A 
ATOM      9  C   UNL d   1      -1.127   1.314  -0.971  0.00  0.00     0.052 A 
ATOM     10 CL   UNL d   1      -1.995   1.296   0.524  0.00  0.00    -0.083 Cl
ENDBRANCH   1   3
BRANCH   1  11
ATOM     11  O   UNL d   1       0.352  -0.638   0.674  0.00  0.00    -0.275 OA
BRANCH  11  12
ATOM     12  C   UNL d   1       0.789  -1.259   1.872  0.00  0.00     0.079 A 
ATOM     13  C   UNL d   1       1.797  -0.768   2.699  0.00  0.00     0.037 A 
ATOM     14  C   UNL d   1       2.156  -1.476   3.849  0.00  0.00     0.003 A 
ATOM     15  C   UNL d   1       1.500  -2.661   4.179  0.00  0.00     0.000 A 
ATOM     16  C   UNL d   1       0.473  -3.137   3.365  0.00  0.00     0.003 A 
ATOM     17  C   UNL d   1       0.115  -2.435   2.211  0.00  0.00     0.037 A 
ENDBRANCH  11  12
ENDBRANCH   1  11
TORSDOF 3
