REMARK  1 active torsions:
REMARK  status: ('A' for Active; 'I' for Inactive)
REMARK    1  A    between atoms: C_3  and  C_1 
ROOT
ATOM      1  C   UNL d   1      -4.177  -0.588   0.020  0.00  0.00     0.066 A 
ATOM      2  N   UNL d   1      -4.603  -1.577   0.820  0.00  0.00    -0.300 N 
ATOM      3  HN  UNL d   1      -4.063  -2.104   1.507  1.00  0.00     0.187 HD
ATOM      4  N   UNL d   1      -5.902  -1.714   0.509  0.00  0.00    -0.311 N 
ATOM      5  C   UNL d   1      -5.218  -0.118  -0.814  0.00  0.00     0.051 A 
ATOM      6  C   UNL d   1      -6.319  -0.867  -0.473  0.00  0.00     0.109 A 
ATOM      7  H   UNL d   1      -6.445  -2.408   1.011  0.00  0.00     0.186 HD
ENDROOT
BRANCH   1   8
ATOM      8  C   UNL d   1      -2.766  -0.082   0.063  0.00  0.00     0.034 A 
ATOM      9  S   UNL d   1      -2.179   1.225  -0.873  0.00  0.00    -0.081 SA
ATOM     10  C   UNL d   1      -0.642   1.105  -0.171  0.00  0.00     0.052 A 
ATOM     11 BR   UNL d   1       0.770   2.259  -0.598  0.00  0.00    -0.043 Br
ATOM     12  C   UNL d   1      -0.538   0.084   0.739  0.00  0.00     0.028 A 
ATOM     13  C   UNL d   1      -1.780  -0.609   0.875  0.00  0.00     0.023 A 
ENDBRANCH   1   8
TORSDOF 1
