REMARK  7 active torsions:
REMARK  status: ('A' for Active; 'I' for Inactive)
REMARK    1  A    between atoms: C_15  and  N_4 
REMARK    2  A    between atoms: S_14  and  C_10 
REMARK    3  A    between atoms: C_16  and  C_13 
REMARK    4  A    between atoms: C_19  and  S_14 
REMARK    5  A    between atoms: C_22  and  C_15 
REMARK    6  A    between atoms: C_17  and  C_19 
REMARK    7  A    between atoms: C_18  and  C_17 
ROOT
ATOM      1  C   UNL d   1      -0.536  -1.120   0.222  0.00  0.00     0.098 A 
ATOM      2  C   UNL d   1      -0.991  -2.471   0.336  0.00  0.00     0.152 A 
ATOM      3  N   UNL d   1      -2.091  -2.917   1.033  0.00  0.00    -0.314 N 
ATOM      4  N   UNL d   1       0.770  -0.702   0.126  0.00  0.00    -0.284 N 
ATOM      5  N   UNL d   1      -0.418  -3.503  -0.254  0.00  0.00    -0.281 N 
ATOM      6  HN  UNL d   1       0.419  -3.468  -0.835  1.00  0.00     0.188 HD
ATOM      7  N   UNL d   1       0.889   0.653   0.064  0.00  0.00    -0.301 N 
ATOM      8  HN  UNL d   1       1.748   1.201   0.021  1.00  0.00     0.187 HD
ATOM      9  C   UNL d   1      -1.288   0.035   0.149  0.00  0.00     0.062 A 
ATOM     10  C   UNL d   1      -2.134  -4.270   0.822  0.00  0.00     0.163 A 
ATOM     11  N   UNL d   1      -1.140  -4.634   0.049  0.00  0.00    -0.278 N 
ATOM     12  HN  UNL d   1      -0.939  -5.582  -0.270  1.00  0.00     0.189 HD
ATOM     13  C   UNL d   1      -0.371   1.106   0.074  0.00  0.00     0.036 A 
ATOM     14  C   UNL d   1      -2.990  -2.157   1.864  0.00  0.00     0.160 C 
ENDROOT
BRANCH   4  15
ATOM     15  C   UNL d   1       1.988  -1.505  -0.006  0.00  0.00     0.187 C 
BRANCH  15  16
ATOM     16  C   UNL d   1       2.736  -1.775   1.284  0.00  0.00    -0.038 A 
ATOM     17  C   UNL d   1       3.524  -2.940   1.371  0.00  0.00     0.012 A 
ATOM     18  C   UNL d   1       4.339  -3.175   2.483  0.00  0.00     0.043 A 
ATOM     19  C   UNL d   1       4.373  -2.249   3.515  0.00  0.00     0.116 A 
ATOM     20  C   UNL d   1       3.604  -1.092   3.456  0.00  0.00     0.043 A 
ATOM     21  F   UNL d   1       5.171  -2.462   4.569  0.00  0.00    -0.206 F 
ATOM     22  C   UNL d   1       2.796  -0.851   2.341  0.00  0.00     0.012 A 
ENDBRANCH  15  16
ENDBRANCH   4  15
BRANCH  13  23
ATOM     23  C   UNL d   1      -0.712   2.587   0.017  0.00  0.00    -0.007 C 
ATOM     24  C   UNL d   1      -1.351   3.020   1.353  0.00  0.00     0.021 C 
ATOM     25  C   UNL d   1       0.525   3.471  -0.235  0.00  0.00     0.021 C 
ATOM     26  C   UNL d   1      -1.721   2.845  -1.121  0.00  0.00     0.021 C 
ENDBRANCH  13  23
BRANCH  10  27
ATOM     27  S   UNL d   1      -3.342  -5.293   1.504  0.00  0.00    -0.085 SA
BRANCH  27  28
ATOM     28  C   UNL d   1      -2.557  -6.931   1.387  0.00  0.00     0.161 C 
BRANCH  28  29
ATOM     29  C   UNL d   1      -3.430  -8.000   2.047  0.00  0.00     0.144 C 
ATOM     30  O   UNL d   1      -4.552  -7.747   2.495  0.00  0.00    -0.296 OA
BRANCH  29  31
ATOM     31  C   UNL d   1      -2.848  -9.423   2.213  0.00  0.00     0.010 C 
ATOM     32  C   UNL d   1      -2.073  -9.480   3.536  0.00  0.00     0.022 C 
ATOM     33  C   UNL d   1      -4.020 -10.422   2.268  0.00  0.00     0.022 C 
ATOM     34  C   UNL d   1      -1.927  -9.830   1.058  0.00  0.00     0.022 C 
ENDBRANCH  29  31
ENDBRANCH  28  29
ENDBRANCH  27  28
ENDBRANCH  10  27
TORSDOF 7
