REMARK  0 active torsions:
REMARK  status: ('A' for Active; 'I' for Inactive)
ROOT
ATOM      1  C   UNL d   1       0.215  -0.396   0.022  0.00  0.00     0.072 A 
ATOM      2  C   UNL d   1      -0.400   0.842   0.040  0.00  0.00     0.091 A 
ATOM      3  N   UNL d   1       0.209   2.059   0.058  0.00  0.00    -0.346 N 
ATOM      4  HN  UNL d   1      -0.309   2.937   0.073  1.00  0.00     0.167 HD
ATOM      5  C   UNL d   1       1.668  -0.406  -0.000  0.00  0.00     0.259 A 
ATOM      6  S   UNL d   1      -2.099   0.708   0.038  0.00  0.00    -0.083 SA
ATOM      7  C   UNL d   1      -0.727  -1.485   0.037  0.00  0.00    -0.037 A 
ATOM      8  N   UNL d   1       2.236   0.848   0.028  0.00  0.00    -0.319 N 
ATOM      9  C   UNL d   1      -2.023  -0.999   0.034  0.00  0.00     0.059 A 
ATOM     10  C   UNL d   1       1.500   2.004   0.054  0.00  0.00     0.184 A 
ATOM     11  O   UNL d   1       2.362  -1.417  -0.045  0.00  0.00    -0.267 OA
ATOM     12  C   UNL d   1      -0.405  -2.944   0.057  0.00  0.00     0.050 C 
ATOM     13  H   UNL d   1       3.245   0.875   0.014  0.00  0.00     0.169 HD
ENDROOT
TORSDOF 0
