REMARK  6 active torsions:
REMARK  status: ('A' for Active; 'I' for Inactive)
REMARK    1  A    between atoms: N_8  and  C_2 
REMARK    2  A    between atoms: S_11  and  C_3 
REMARK    3  A    between atoms: N_16  and  C_10 
REMARK    4  A    between atoms: C_14  and  S_11 
REMARK    5  A    between atoms: C_12  and  C_14 
REMARK    6  A    between atoms: C_13  and  C_12 
ROOT
ATOM      1  S   UNL d   1      -1.328  -0.220   0.310  0.00  0.00    -0.026 SA
ATOM      2  C   UNL d   1      -0.528   1.089  -0.499  0.00  0.00     0.166 A 
ATOM      3  C   UNL d   1       0.087  -1.150   0.075  0.00  0.00     0.130 A 
ATOM      4  N   UNL d   1       0.709   0.784  -0.849  0.00  0.00    -0.278 N 
ATOM      5  HN  UNL d   1       1.337   1.438  -1.315  1.00  0.00     0.189 HD
ATOM      6  N   UNL d   1       1.066  -0.510  -0.522  0.00  0.00    -0.286 N 
ATOM      7  HN  UNL d   1       1.980  -0.918  -0.719  1.00  0.00     0.188 HD
ENDROOT
BRANCH   3   8
ATOM      8  S   UNL d   1       0.218  -2.823   0.575  0.00  0.00    -0.096 SA
BRANCH   8   9
ATOM      9  C   UNL d   1       1.910  -3.206   0.031  0.00  0.00     0.165 C 
BRANCH   9  10
ATOM     10  C   UNL d   1       2.273  -4.669   0.247  0.00  0.00     0.169 C 
ATOM     11  O   UNL d   1       1.494  -5.514   0.681  0.00  0.00    -0.291 OA
BRANCH  10  12
ATOM     12  C   UNL d   1       3.671  -5.102  -0.087  0.00  0.00     0.011 A 
ATOM     13  C   UNL d   1       4.613  -4.231  -0.655  0.00  0.00     0.018 A 
ATOM     14  C   UNL d   1       5.916  -4.674  -0.909  0.00  0.00     0.043 A 
ATOM     15  C   UNL d   1       6.276  -5.981  -0.603  0.00  0.00     0.116 A 
ATOM     16  C   UNL d   1       5.352  -6.864  -0.059  0.00  0.00     0.043 A 
ATOM     17  F   UNL d   1       7.529  -6.392  -0.833  0.00  0.00    -0.206 F 
ATOM     18  C   UNL d   1       4.050  -6.427   0.196  0.00  0.00     0.018 A 
ENDBRANCH  10  12
ENDBRANCH   9  10
ENDBRANCH   8   9
ENDBRANCH   3   8
BRANCH   2  19
ATOM     19  N   UNL d   1      -1.224   2.244  -0.688  0.00  0.00    -0.332 N 
ATOM     20  C   UNL d   1      -0.614   3.160  -1.364  0.00  0.00     0.179 C 
ATOM     21  HN  UNL d   1      -2.167   2.376  -0.320  1.00  0.00     0.168 HD
BRANCH  20  22
ATOM     22  N   UNL d   1      -1.122   4.399  -1.698  0.00  0.00    -0.386 N 
ATOM     23  C   UNL d   1      -2.471   4.805  -1.337  0.00  0.00     0.149 C 
ATOM     24  C   UNL d   1      -0.355   5.365  -2.466  0.00  0.00     0.149 C 
ENDBRANCH  20  22
ENDBRANCH   2  19
TORSDOF 6
