REMARK  6 active torsions:
REMARK  status: ('A' for Active; 'I' for Inactive)
REMARK    1  A    between atoms: C_2  and  C_1 
REMARK    2  A    between atoms: C_4  and  C_3 
REMARK    3  A    between atoms: S_13  and  C_6 
REMARK       I    between atoms: N_9  and  C_12 
REMARK    4  A    between atoms: C_10  and  N_9 
REMARK    5  A    between atoms: C_12  and  C_24 
REMARK    6  A    between atoms: C_24  and  S_13 
ROOT
ATOM      1  C   UNL d   1       0.092   0.278  -1.441  0.00  0.00     0.082 A 
ATOM      2  C   UNL d   1       1.834  -0.325   0.161  0.00  0.00     0.064 A 
ATOM      3  C   UNL d   1       1.005  -0.659  -0.912  0.00  0.00     0.036 A 
ATOM      4  C   UNL d   1       0.037   1.537  -0.848  0.00  0.00     0.085 A 
ATOM      5  N   UNL d   1       0.864   1.880   0.172  0.00  0.00    -0.359 N 
ATOM      6  HN  UNL d   1       0.826   2.816   0.575  1.00  0.00     0.166 HD
ATOM      7  C   UNL d   1       1.739   0.964   0.646  0.00  0.00     0.105 A 
ENDROOT
BRANCH   4   8
ATOM      8  S   UNL d   1      -1.155   2.786  -1.330  0.00  0.00    -0.102 SA
BRANCH   8   9
ATOM      9  C   UNL d   1      -0.640   4.156  -0.248  0.00  0.00     0.184 C 
BRANCH   9  10
ATOM     10  C   UNL d   1      -1.470   5.416  -0.417  0.00  0.00     0.231 C 
ATOM     11  N   UNL d   1      -2.829   5.245  -0.599  0.00  0.00    -0.325 N 
ATOM     12  H   UNL d   1      -3.213   4.321  -0.418  0.00  0.00     0.169 HD
ATOM     13  O   UNL d   1      -0.928   6.516  -0.271  0.00  0.00    -0.272 OA
BRANCH  11  14
ATOM     14  C   UNL d   1      -3.767   6.289  -0.807  0.00  0.00     0.056 A 
ATOM     15  C   UNL d   1      -5.127   6.089  -0.495  0.00  0.00     0.062 A 
ATOM     16  C   UNL d   1      -6.064   7.104  -0.679  0.00  0.00     0.050 A 
ATOM     17 CL   UNL d   1      -5.664   4.587   0.181  0.00  0.00    -0.082 Cl
ATOM     18  C   UNL d   1      -5.656   8.325  -1.208  0.00  0.00     0.035 A 
ATOM     19  C   UNL d   1      -4.327   8.538  -1.551  0.00  0.00     0.026 A 
ATOM     20 CL   UNL d   1      -6.809   9.581  -1.448  0.00  0.00    -0.084 Cl
ATOM     21  C   UNL d   1      -3.386   7.526  -1.344  0.00  0.00     0.033 A 
ENDBRANCH  11  14
ENDBRANCH   9  10
ENDBRANCH   8   9
ENDBRANCH   4   8
BRANCH   1  22
ATOM     22  C   UNL d   1      -0.779  -0.094  -2.603  0.00  0.00     0.420 C 
ATOM     23  F   UNL d   1      -0.565  -1.374  -3.031  0.00  0.00    -0.166 F 
ATOM     24  F   UNL d   1      -2.110  -0.035  -2.323  0.00  0.00    -0.166 F 
ATOM     25  F   UNL d   1      -0.573   0.685  -3.699  0.00  0.00    -0.166 F 
ENDBRANCH   1  22
BRANCH   2  26
ATOM     26  C   UNL d   1       2.785  -1.292   0.799  0.00  0.00     0.418 C 
ATOM     27  F   UNL d   1       2.704  -2.548   0.281  0.00  0.00    -0.166 F 
ATOM     28  F   UNL d   1       4.085  -0.913   0.668  0.00  0.00    -0.166 F 
ATOM     29  F   UNL d   1       2.565  -1.426   2.135  0.00  0.00    -0.166 F 
ENDBRANCH   2  26
TORSDOF 6
