REMARK  2 active torsions:
REMARK  status: ('A' for Active; 'I' for Inactive)
REMARK    1  A    between atoms: N_9  and  C_5 
REMARK    2  A    between atoms: S_8  and  N_9 
ROOT
ATOM      1  S   UNL d   1      -2.268   1.112   0.026  0.00  0.00     0.270 S 
ATOM      2  C   UNL d   1      -2.339  -0.500   0.575  0.00  0.00     0.146 C 
ATOM      3  N   UNL d   1      -0.770   1.663   0.687  0.00  0.00    -0.275 N 
ATOM      4  C   UNL d   1      -1.086  -1.270   0.609  0.00  0.00     0.209 C 
ATOM      5  C   UNL d   1      -3.470  -1.109   0.950  0.00  0.00     0.126 C 
ATOM      6  C   UNL d   1       0.207  -0.591   0.331  0.00  0.00     0.043 A 
ATOM      7  C   UNL d   1       0.354   0.806   0.367  0.00  0.00     0.059 A 
ATOM      8  O   UNL d   1      -2.085   1.121  -1.416  0.00  0.00    -0.200 OA
ATOM      9  O   UNL d   1      -3.268   1.970   0.632  0.00  0.00    -0.200 OA
ATOM     10  O   UNL d   1      -1.093  -2.479   0.839  0.00  0.00    -0.286 OA
ATOM     11  C   UNL d   1      -0.607   3.134   0.608  0.00  0.00     0.170 C 
ATOM     12  C   UNL d   1       1.321  -1.411   0.066  0.00  0.00     0.018 A 
ATOM     13  C   UNL d   1       1.648   1.339   0.246  0.00  0.00     0.031 A 
ATOM     14  C   UNL d   1       2.584  -0.855  -0.118  0.00  0.00     0.001 A 
ATOM     15  C   UNL d   1       2.750   0.520  -0.012  0.00  0.00     0.002 A 
ENDROOT
BRANCH   5  16
ATOM     16  N   UNL d   1      -4.754  -0.508   0.789  0.00  0.00    -0.326 N 
ATOM     17  HN  UNL d   1      -4.865   0.227   0.091  1.00  0.00     0.174 HD
BRANCH  16  18
ATOM     18  S   UNL d   1      -5.982  -0.923   1.624  0.00  0.00     0.017 S 
ATOM     19  O   UNL d   1      -6.031  -0.900   3.071  0.00  0.00    -0.250 OA
ATOM     20  C   UNL d   1      -6.473  -2.560   1.135  0.00  0.00     0.136 C 
ATOM     21  C   UNL d   1      -7.335   0.070   1.022  0.00  0.00     0.136 C 
ENDBRANCH  16  18
ENDBRANCH   5  16
TORSDOF 2
