REMARK  4 active torsions:
REMARK  status: ('A' for Active; 'I' for Inactive)
REMARK    1  A    between atoms: N_7  and  C_1 
REMARK       I    between atoms: C_3  and  N_7 
REMARK    2  A    between atoms: C_8  and  C_3 
REMARK    3  A    between atoms: C_10  and  C_6 
REMARK    4  A    between atoms: C_13  and  C_14 
ROOT
ATOM      1  C   UNL d   1       0.044  -1.066   0.605  0.00  0.00     0.124 A 
ATOM      2  C   UNL d   1      -0.325   0.179   1.052  0.00  0.00     0.081 A 
ATOM      3  N   UNL d   1      -0.088   0.315  -1.203  0.00  0.00    -0.298 N 
ATOM      4  HN  UNL d   1      -0.046   0.653  -2.164  1.00  0.00     0.187 HD
ATOM      5  C   UNL d   1      -0.468   0.991  -0.104  0.00  0.00     0.062 A 
ATOM      6  N   UNL d   1       0.223  -0.909  -0.744  0.00  0.00    -0.285 N 
ATOM      7  H   UNL d   1       0.525  -1.601  -1.420  0.00  0.00     0.188 HD
ENDROOT
BRANCH   1   8
ATOM      8  N   UNL d   1       0.172  -2.252   1.325  0.00  0.00    -0.308 N 
ATOM      9  C   UNL d   1      -0.095  -2.350   2.736  0.00  0.00     0.260 C 
ATOM     10  O   UNL d   1      -0.302  -1.351   3.411  0.00  0.00    -0.267 OA
ATOM     11  H   UNL d   1       0.397  -3.100   0.813  0.00  0.00     0.170 HD
BRANCH   9  12
ATOM     12  C   UNL d   1      -0.153  -3.693   3.354  0.00  0.00     0.070 A 
ATOM     13  C   UNL d   1       0.092  -4.850   2.620  0.00  0.00     0.132 A 
ATOM     14  F   UNL d   1       0.464  -4.774   1.333  0.00  0.00    -0.205 F 
ATOM     15  C   UNL d   1      -0.053  -6.108   3.203  0.00  0.00     0.043 A 
ATOM     16  C   UNL d   1      -0.446  -6.212   4.538  0.00  0.00     0.003 A 
ATOM     17  C   UNL d   1      -0.667  -5.060   5.292  0.00  0.00     0.001 A 
ATOM     18  C   UNL d   1      -0.520  -3.803   4.703  0.00  0.00     0.020 A 
ENDBRANCH   9  12
ENDBRANCH   1   8
BRANCH   5  19
ATOM     19  C   UNL d   1      -0.983   2.362  -0.150  0.00  0.00    -0.008 A 
ATOM     20  C   UNL d   1      -0.655   3.242  -1.184  0.00  0.00     0.014 A 
ATOM     21  C   UNL d   1      -1.144   4.558  -1.185  0.00  0.00     0.009 A 
ATOM     22  C   UNL d   1      -1.980   5.035  -0.156  0.00  0.00    -0.051 A 
ATOM     23  C   UNL d   1      -2.320   4.131   0.860  0.00  0.00     0.009 A 
ATOM     24  C   UNL d   1      -1.831   2.820   0.864  0.00  0.00     0.014 A 
BRANCH  22  25
ATOM     25  C   UNL d   1      -2.482   6.491  -0.154  0.00  0.00    -0.024 C 
ATOM     26  C   UNL d   1      -3.389   6.819   1.056  0.00  0.00     0.019 C 
ATOM     27  C   UNL d   1      -1.279   7.457  -0.103  0.00  0.00     0.019 C 
ATOM     28  C   UNL d   1      -3.302   6.785  -1.428  0.00  0.00     0.019 C 
ENDBRANCH  22  25
ENDBRANCH   5  19
TORSDOF 4
