REMARK  8 active torsions:
REMARK  status: ('A' for Active; 'I' for Inactive)
REMARK    1  A    between atoms: S_10  and  C_2 
REMARK    2  A    between atoms: N_13  and  C_3 
REMARK    3  A    between atoms: C_8  and  C_11 
REMARK    4  A    between atoms: C_9  and  C_8 
REMARK    5  A    between atoms: O_16  and  C_9 
REMARK    6  A    between atoms: C_15  and  S_10 
REMARK    7  A    between atoms: C_11  and  C_15 
REMARK    8  A    between atoms: C_17  and  O_16 
ROOT
ATOM      1  S   UNL d   1       2.113   4.397  -1.269  0.00  0.00    -0.027 SA
ATOM      2  C   UNL d   1       2.646   2.862  -0.726  0.00  0.00     0.130 A 
ATOM      3  C   UNL d   1       0.505   3.832  -1.063  0.00  0.00     0.159 A 
ATOM      4  N   UNL d   1       1.677   2.031  -0.414  0.00  0.00    -0.286 N 
ATOM      5  HN  UNL d   1       1.826   1.083  -0.068  1.00  0.00     0.188 HD
ATOM      6  N   UNL d   1       0.430   2.599  -0.612  0.00  0.00    -0.279 N 
ATOM      7  HN  UNL d   1      -0.449   2.115  -0.429  1.00  0.00     0.189 HD
ENDROOT
BRANCH   2   8
ATOM      8  S   UNL d   1       4.338   2.443  -0.648  0.00  0.00    -0.096 SA
BRANCH   8   9
ATOM      9  C   UNL d   1       4.269   0.739  -0.023  0.00  0.00     0.160 C 
BRANCH   9  10
ATOM     10  C   UNL d   1       5.673   0.146   0.045  0.00  0.00     0.145 C 
ATOM     11  O   UNL d   1       6.681   0.829   0.254  0.00  0.00    -0.297 OA
BRANCH  10  12
ATOM     12  C   UNL d   1       5.827  -1.334  -0.198  0.00  0.00     0.190 C 
BRANCH  12  13
ATOM     13  C   UNL d   1       5.011  -2.198   0.707  0.00  0.00     0.265 C 
ATOM     14  O   UNL d   1       4.225  -1.787   1.549  0.00  0.00    -0.265 OA
BRANCH  13  15
ATOM     15  O   UNL d   1       5.296  -3.510   0.475  0.00  0.00    -0.322 OA
BRANCH  15  16
ATOM     16  C   UNL d   1       4.757  -4.452   1.419  0.00  0.00     0.174 C 
ATOM     17  C   UNL d   1       3.327  -4.827   1.082  0.00  0.00     0.034 C 
ENDBRANCH  15  16
ENDBRANCH  13  15
ENDBRANCH  12  13
ENDBRANCH  10  12
ENDBRANCH   9  10
ENDBRANCH   8   9
ENDBRANCH   2   8
BRANCH   3  18
ATOM     18  N   UNL d   1      -0.553   4.605  -1.371  0.00  0.00    -0.379 N 
ATOM     19  H   UNL d   1      -0.412   5.387  -1.997  0.00  0.00     0.158 HD
ATOM     20  H   UNL d   1      -1.442   4.128  -1.486  0.00  0.00     0.158 HD
ENDBRANCH   3  18
TORSDOF 8
