REMARK  6 active torsions:
REMARK  status: ('A' for Active; 'I' for Inactive)
REMARK    1  A    between atoms: N_5  and  S_1 
REMARK       I    between atoms: C_2  and  N_4 
REMARK    2  A    between atoms: C_8  and  C_2 
REMARK       I    between atoms: C_3  and  N_5 
REMARK       I    between atoms: N_7  and  C_3 
REMARK    3  A    between atoms: C_17  and  N_7 
REMARK    4  A    between atoms: C_27  and  C_22 
REMARK    5  A    between atoms: C_28  and  C_27 
REMARK    6  A    between atoms: C_29  and  C_28 
ROOT
ATOM      1  C   UNL d   1       2.076   1.305  -2.451  0.00  0.00     0.330 C 
ATOM      2  N   UNL d   1       0.972   1.136  -1.715  0.00  0.00    -0.292 N 
ATOM      3  HN  UNL d   1       0.094   0.943  -2.196  1.00  0.00     0.178 HD
ATOM      4  N   UNL d   1       3.150   1.953  -1.841  0.00  0.00    -0.308 N 
ATOM      5  O   UNL d   1       2.112   0.910  -3.616  0.00  0.00    -0.246 OA
ATOM      6  H   UNL d   1       3.003   2.146  -0.864  0.00  0.00     0.170 HD
ENDROOT
BRANCH   2   7
ATOM      7  S   UNL d   1       0.963   1.216  -0.209  0.00  0.00    -0.120 SA
ATOM      8  C   UNL d   1       1.217  -0.560   0.204  0.00  0.00     0.105 C 
ATOM      9  C   UNL d   1       0.215  -1.541  -0.404  0.00  0.00     0.137 C 
ATOM     10  N   UNL d   1      -1.136  -1.235   0.075  0.00  0.00    -0.346 N 
ATOM     11  C   UNL d   1      -1.669  -2.022   1.095  0.00  0.00     0.253 C 
ATOM     12  C   UNL d   1      -1.641   0.019  -0.488  0.00  0.00     0.137 C 
ATOM     13  O   UNL d   1      -1.205  -3.133   1.372  0.00  0.00    -0.267 OA
ATOM     14  C   UNL d   1      -0.854   1.256  -0.023  0.00  0.00     0.105 C 
BRANCH  11  15
ATOM     15  C   UNL d   1      -2.817  -1.579   1.944  0.00  0.00     0.032 A 
ATOM     16  C   UNL d   1      -3.634  -2.562   2.529  0.00  0.00     0.018 A 
ATOM     17  C   UNL d   1      -4.645  -2.214   3.435  0.00  0.00     0.025 A 
ATOM     18  C   UNL d   1      -4.855  -0.875   3.759  0.00  0.00     0.034 A 
ATOM     19  C   UNL d   1      -4.051   0.109   3.203  0.00  0.00     0.025 A 
ATOM     20 CL   UNL d   1      -6.080  -0.438   4.884  0.00  0.00    -0.084 Cl
ATOM     21  C   UNL d   1      -3.026  -0.250   2.325  0.00  0.00     0.018 A 
ENDBRANCH  11  15
ENDBRANCH   2   7
BRANCH   4  22
ATOM     22  C   UNL d   1       4.439   2.148  -2.378  0.00  0.00     0.036 A 
ATOM     23  C   UNL d   1       4.729   1.968  -3.730  0.00  0.00     0.030 A 
ATOM     24  C   UNL d   1       6.044   1.963  -4.187  0.00  0.00     0.009 A 
ATOM     25  C   UNL d   1       7.103   2.150  -3.296  0.00  0.00    -0.058 A 
ATOM     26  C   UNL d   1       6.810   2.475  -1.964  0.00  0.00     0.009 A 
ATOM     27  C   UNL d   1       5.484   2.475  -1.509  0.00  0.00     0.030 A 
BRANCH  25  28
ATOM     28  C   UNL d   1       8.514   1.909  -3.767  0.00  0.00     0.038 C 
BRANCH  28  29
ATOM     29  C   UNL d   1       9.223   0.766  -3.022  0.00  0.00     0.004 C 
BRANCH  29  30
ATOM     30  C   UNL d   1       8.477  -0.573  -3.087  0.00  0.00    -0.004 C 
ATOM     31  C   UNL d   1       9.243  -1.672  -2.367  0.00  0.00     0.005 C 
ENDBRANCH  29  30
ENDBRANCH  28  29
ENDBRANCH  25  28
ENDBRANCH   4  22
TORSDOF 6
