REMARK  8 active torsions:
REMARK  status: ('A' for Active; 'I' for Inactive)
REMARK    1  A    between atoms: N_2  and  C_1 
REMARK    2  A    between atoms: C_3  and  C_1 
REMARK    3  A    between atoms: C_5  and  C_1 
REMARK    4  A    between atoms: N_6  and  C_1 
REMARK       I    between atoms: C_4  and  N_2 
REMARK    5  A    between atoms: C_7  and  C_4 
REMARK    6  A    between atoms: O_17  and  C_5 
REMARK    7  A    between atoms: C_9  and  N_6 
REMARK    8  A    between atoms: C_26  and  O_17 
ROOT
ATOM      1  C   UNL d   1       0.893   0.004   0.093  0.00  0.00     0.297 C 
ENDROOT
BRANCH   1   2
ATOM      2  N   UNL d   1       0.426  -0.597   1.355  0.00  0.00    -0.315 N 
ATOM      3  C   UNL d   1       0.199   0.100   2.510  0.00  0.00     0.254 C 
ATOM      4  O   UNL d   1       0.399   1.299   2.631  0.00  0.00    -0.268 OA
ATOM      5  H   UNL d   1       0.052  -1.535   1.272  0.00  0.00     0.166 HD
BRANCH   3   6
ATOM      6  C   UNL d   1      -0.386  -0.706   3.623  0.00  0.00     0.033 A 
ATOM      7  C   UNL d   1       0.051  -2.015   3.860  0.00  0.00     0.041 A 
ATOM      8  C   UNL d   1      -0.544  -2.763   4.874  0.00  0.00     0.035 A 
ATOM      9 CL   UNL d   1      -0.016  -4.378   5.162  0.00  0.00    -0.084 Cl
ATOM     10  C   UNL d   1      -1.566  -2.222   5.654  0.00  0.00     0.024 A 
ATOM     11  C   UNL d   1      -1.985  -0.910   5.426  0.00  0.00     0.003 A 
ATOM     12  C   UNL d   1      -1.395  -0.149   4.417  0.00  0.00     0.017 A 
ENDBRANCH   3   6
ENDBRANCH   1   2
BRANCH   1  13
ATOM     13  C   UNL d   1       0.182   1.337  -0.355  0.00  0.00     0.442 C 
ATOM     14  F   UNL d   1      -0.968   1.577   0.320  0.00  0.00    -0.166 F 
ATOM     15  F   UNL d   1       0.994   2.413  -0.173  0.00  0.00    -0.166 F 
ATOM     16  F   UNL d   1      -0.156   1.347  -1.672  0.00  0.00    -0.166 F 
ENDBRANCH   1  13
BRANCH   1  17
ATOM     17  C   UNL d   1       0.486  -0.981  -1.030  0.00  0.00     0.318 C 
ATOM     18  O   UNL d   1      -0.445  -1.782  -0.915  0.00  0.00    -0.260 OA
BRANCH  17  19
ATOM     19  O   UNL d   1       1.287  -0.891  -2.131  0.00  0.00    -0.318 OA
BRANCH  19  20
ATOM     20  C   UNL d   1       1.012  -1.805  -3.201  0.00  0.00     0.174 C 
ATOM     21  C   UNL d   1       1.566  -3.186  -2.901  0.00  0.00     0.034 C 
ENDBRANCH  19  20
ENDBRANCH  17  19
ENDBRANCH   1  17
BRANCH   1  22
ATOM     22  N   UNL d   1       2.370   0.135   0.208  0.00  0.00    -0.348 N 
ATOM     23  H   UNL d   1       2.665   1.056   0.525  0.00  0.00     0.163 HD
BRANCH  22  24
ATOM     24  C   UNL d   1       3.308  -0.873   0.322  0.00  0.00     0.030 A 
ATOM     25  C   UNL d   1       2.994  -2.231   0.443  0.00  0.00     0.036 A 
ATOM     26  C   UNL d   1       3.978  -3.232   0.449  0.00  0.00    -0.060 A 
ATOM     27  C   UNL d   1       3.590  -4.675   0.592  0.00  0.00     0.048 C 
ATOM     28  C   UNL d   1       5.321  -2.868   0.320  0.00  0.00     0.007 A 
ATOM     29  C   UNL d   1       5.659  -1.527   0.179  0.00  0.00     0.003 A 
ATOM     30  C   UNL d   1       4.665  -0.543   0.180  0.00  0.00     0.029 A 
ENDBRANCH  22  24
ENDBRANCH   1  22
TORSDOF 8
