REMARK  7 active torsions:
REMARK  status: ('A' for Active; 'I' for Inactive)
REMARK    1  A    between atoms: C_9  and  C_1 
REMARK    2  A    between atoms: C_2  and  C_3 
REMARK    3  A    between atoms: C_6  and  C_8 
REMARK       I    between atoms: N_22  and  C_9 
REMARK    4  A    between atoms: C_10  and  N_23 
REMARK    5  A    between atoms: C_27  and  N_22 
REMARK    6  A    between atoms: N_23  and  C_28 
REMARK    7  A    between atoms: C_28  and  C_27 
ROOT
ATOM      1  C   UNL d   1      -3.518  -1.062  -1.391  0.00  0.00     0.253 C 
ATOM      2  O   UNL d   1      -4.126  -1.193  -2.444  0.00  0.00    -0.268 OA
ATOM      3  N   UNL d   1      -4.158  -0.861  -0.183  0.00  0.00    -0.356 N 
ATOM      4  H   UNL d   1      -3.630  -0.705   0.665  0.00  0.00     0.162 HD
ENDROOT
BRANCH   3   5
ATOM      5  C   UNL d   1      -5.613  -0.839  -0.103  0.00  0.00     0.137 C 
BRANCH   5   6
ATOM      6  C   UNL d   1      -6.232  -2.248  -0.119  0.00  0.00     0.113 C 
BRANCH   6   7
ATOM      7  N   UNL d   1      -7.698  -2.177  -0.030  0.00  0.00    -0.277 NA
ATOM      8  H   UNL d   1      -8.084  -1.578  -0.759  0.00  0.00     0.129 HD
BRANCH   7   9
ATOM      9  C   UNL d   1      -8.341  -3.426  -0.052  0.00  0.00     0.095 A 
ATOM     10  C   UNL d   1      -9.733  -3.524  -0.055  0.00  0.00     0.086 A 
ATOM     11  C   UNL d   1     -10.315  -4.809  -0.038  0.00  0.00     0.021 A 
ATOM     12  C   UNL d   1      -9.517  -5.942  -0.020  0.00  0.00     0.018 A 
ATOM     13  C   UNL d   1      -8.153  -5.754  -0.011  0.00  0.00     0.089 A 
ATOM     14  N   UNL d   1      -7.567  -4.537  -0.015  0.00  0.00    -0.356 N 
ATOM     15  HN  UNL d   1      -6.551  -4.456   0.009  1.00  0.00     0.166 HD
BRANCH  10  16
ATOM     16  C   UNL d   1     -10.651  -2.339  -0.057  0.00  0.00     0.420 C 
ATOM     17  F   UNL d   1     -10.060  -1.128  -0.258  0.00  0.00    -0.166 F 
ATOM     18  F   UNL d   1     -11.597  -2.434  -1.040  0.00  0.00    -0.166 F 
ATOM     19  F   UNL d   1     -11.358  -2.225   1.105  0.00  0.00    -0.166 F 
ENDBRANCH  10  16
ENDBRANCH   7   9
ENDBRANCH   6   7
ENDBRANCH   5   6
ENDBRANCH   3   5
BRANCH   1  20
ATOM     20  C   UNL d   1      -2.030  -1.120  -1.360  0.00  0.00     0.054 A 
ATOM     21  C   UNL d   1      -1.256  -0.616  -2.409  0.00  0.00     0.021 A 
ATOM     22  N   UNL d   1       0.105  -0.711  -2.420  0.00  0.00    -0.355 N 
ATOM     23  C   UNL d   1      -1.850   0.081  -3.599  0.00  0.00     0.069 C 
ATOM     24  C   UNL d   1       0.738  -1.330  -1.384  0.00  0.00     0.117 A 
ATOM     25  HN  UNL d   1       0.643  -0.323  -3.195  1.00  0.00     0.166 HD
ATOM     26  C   UNL d   1       0.023  -1.850  -0.306  0.00  0.00     0.035 A 
ATOM     27  C   UNL d   1      -1.369  -1.746  -0.297  0.00  0.00     0.021 A 
BRANCH  24  28
ATOM     28  C   UNL d   1       2.256  -1.476  -1.408  0.00  0.00     0.432 C 
ATOM     29  F   UNL d   1       2.860  -0.945  -2.507  0.00  0.00    -0.165 F 
ATOM     30  F   UNL d   1       2.850  -0.880  -0.332  0.00  0.00    -0.165 F 
ATOM     31  F   UNL d   1       2.651  -2.782  -1.361  0.00  0.00    -0.165 F 
ENDBRANCH  24  28
ENDBRANCH   1  20
TORSDOF 7
