REMARK  5 active torsions:
REMARK  status: ('A' for Active; 'I' for Inactive)
REMARK    1  A    between atoms: C_2  and  C_1 
REMARK    2  A    between atoms: S_17  and  C_3 
REMARK    3  A    between atoms: C_14  and  C_7 
REMARK    4  A    between atoms: C_11  and  C_9 
REMARK    5  A    between atoms: O_22  and  C_14 
ROOT
ATOM      1  C   UNL d   1       2.725   1.523   0.059  0.00  0.00     0.086 A 
ATOM      2  N   UNL d   1       3.809   1.047  -0.519  0.00  0.00    -0.349 N 
ATOM      3  HN  UNL d   1       3.843   0.177  -1.051  1.00  0.00     0.166 HD
ATOM      4  C   UNL d   1       4.896   1.878  -0.313  0.00  0.00     0.051 A 
ATOM      5  S   UNL d   1       2.967   2.984   0.928  0.00  0.00    -0.081 SA
ATOM      6  C   UNL d   1       4.622   2.969   0.493  0.00  0.00     0.082 A 
ENDROOT
BRANCH   1   7
ATOM      7  C   UNL d   1       1.430   0.755  -0.014  0.00  0.00     0.023 A 
ATOM      8  C   UNL d   1       0.144   1.258   0.067  0.00  0.00     0.054 A 
ATOM      9  S   UNL d   1      -1.023  -0.004   0.034  0.00  0.00    -0.076 SA
ATOM     10  C   UNL d   1       0.163  -1.227  -0.109  0.00  0.00     0.082 A 
ATOM     11  C   UNL d   1       1.427  -0.673  -0.182  0.00  0.00     0.041 A 
BRANCH   8  12
ATOM     12  S   UNL d   1      -0.432   2.923   0.158  0.00  0.00    -0.126 SA
ATOM     13  C   UNL d   1       0.057   3.546  -1.469  0.00  0.00     0.096 C 
ENDBRANCH   8  12
BRANCH  10  14
ATOM     14  C   UNL d   1      -0.249  -2.618  -0.123  0.00  0.00     0.299 C 
ATOM     15  O   UNL d   1      -1.400  -3.037  -0.092  0.00  0.00    -0.259 OA
BRANCH  14  16
ATOM     16  O   UNL d   1       0.853  -3.428  -0.153  0.00  0.00    -0.322 OA
ATOM     17  C   UNL d   1       0.549  -4.824  -0.120  0.00  0.00     0.213 C 
ENDBRANCH  14  16
ENDBRANCH  10  14
ENDBRANCH   1   7
BRANCH   4  18
ATOM     18  C   UNL d   1       6.198   1.628  -0.938  0.00  0.00     0.013 A 
ATOM     19  C   UNL d   1       6.676   0.337  -1.238  0.00  0.00     0.048 A 
ATOM     20  C   UNL d   1       7.909   0.163  -1.885  0.00  0.00     0.048 A 
ATOM     21 CL   UNL d   1       5.840  -1.120  -0.811  0.00  0.00    -0.083 Cl
ATOM     22  C   UNL d   1       8.681   1.269  -2.229  0.00  0.00     0.035 A 
ATOM     23  C   UNL d   1       8.236   2.550  -1.935  0.00  0.00     0.025 A 
ATOM     24 CL   UNL d   1      10.190   1.049  -3.023  0.00  0.00    -0.084 Cl
ATOM     25  C   UNL d   1       7.003   2.728  -1.301  0.00  0.00     0.017 A 
ENDBRANCH   4  18
TORSDOF 5
