REMARK  2 active torsions:
REMARK  status: ('A' for Active; 'I' for Inactive)
REMARK    1  A    between atoms: C_5  and  C_1 
REMARK       I    between atoms: N_9  and  C_5 
REMARK    2  A    between atoms: C_12  and  N_9 
ROOT
ATOM      1  C   UNL d   1       3.875  -0.136  -0.089  0.00  0.00     0.260 C 
ATOM      2  N   UNL d   1       4.538  -1.349  -0.053  0.00  0.00    -0.351 N 
ATOM      3  O   UNL d   1       4.507   0.916  -0.108  0.00  0.00    -0.267 OA
ATOM      4  H   UNL d   1       3.953  -2.178  -0.091  0.00  0.00     0.163 HD
ENDROOT
BRANCH   1   5
ATOM      5  C   UNL d   1       2.417  -0.225  -0.095  0.00  0.00     0.096 A 
ATOM      6  S   UNL d   1       1.641  -1.753   0.038  0.00  0.00    -0.082 SA
ATOM      7  C   UNL d   1       0.068  -1.078  -0.052  0.00  0.00     0.017 A 
ATOM      8  C   UNL d   1      -1.151  -1.783   0.001  0.00  0.00     0.020 A 
ATOM      9  C   UNL d   1       0.115   0.309  -0.194  0.00  0.00     0.004 A 
ATOM     10  C   UNL d   1      -2.349  -1.077  -0.117  0.00  0.00     0.001 A 
ATOM     11  C   UNL d   1      -2.337   0.299  -0.284  0.00  0.00     0.001 A 
ATOM     12  C   UNL d   1      -1.124   0.996  -0.316  0.00  0.00     0.014 A 
ATOM     13  C   UNL d   1       1.479   0.788  -0.179  0.00  0.00     0.068 A 
ATOM     14 CL   UNL d   1       1.830   2.470  -0.271  0.00  0.00    -0.082 Cl
ENDBRANCH   1   5
BRANCH   2  15
ATOM     15  C   UNL d   1       5.973  -1.546   0.020  0.00  0.00     0.099 C 
ATOM     16  C   UNL d   1       6.679  -0.840   1.175  0.00  0.00     0.165 C 
ATOM     17  S   UNL d   1       8.404  -1.127   0.821  0.00  0.00     0.146 S 
ATOM     18  O   UNL d   1       8.803  -2.356   1.475  0.00  0.00    -0.228 OA
ATOM     19  O   UNL d   1       9.141   0.109   0.990  0.00  0.00    -0.228 OA
ATOM     20  C   UNL d   1       8.208  -1.459  -0.927  0.00  0.00     0.142 C 
ATOM     21  C   UNL d   1       6.747  -1.147  -1.242  0.00  0.00     0.041 C 
ENDBRANCH   2  15
TORSDOF 2
