REMARK  3 active torsions:
REMARK  status: ('A' for Active; 'I' for Inactive)
REMARK    1  A    between atoms: C_3  and  C_1 
REMARK    2  A    between atoms: N_4  and  C_2 
REMARK    3  A    between atoms: C_5  and  C_3 
ROOT
ATOM      1  C   UNL d   1       0.406   0.643  -1.059  0.00  0.00     0.111 C 
ATOM      2  C   UNL d   1       0.580  -0.690  -0.983  0.00  0.00     0.112 C 
ATOM      3  C   UNL d   1       0.841   1.374  -2.195  0.00  0.00     0.105 C 
ATOM      4  N   UNL d   1       1.224   1.975  -3.111  0.00  0.00    -0.191 NA
ENDROOT
BRANCH   1   5
ATOM      5  C   UNL d   1      -0.215   1.358   0.103  0.00  0.00     0.210 C 
ATOM      6  O   UNL d   1      -0.975   0.730   0.846  0.00  0.00    -0.285 OA
BRANCH   5   7
ATOM      7  C   UNL d   1       0.090   2.774   0.303  0.00  0.00     0.056 A 
ATOM      8  S   UNL d   1      -1.102   3.792   1.006  0.00  0.00    -0.098 SA
ATOM      9  C   UNL d   1      -0.096   5.173   0.883  0.00  0.00     0.050 A 
ATOM     10  C   UNL d   1       1.130   4.867   0.346  0.00  0.00     0.009 A 
ATOM     11  C   UNL d   1       1.246   3.483   0.030  0.00  0.00     0.023 A 
ENDBRANCH   5   7
ENDBRANCH   1   5
BRANCH   2  12
ATOM     12  N   UNL d   1       1.105  -1.556  -1.939  0.00  0.00    -0.384 N 
ATOM     13  C   UNL d   1       0.547  -1.616  -3.310  0.00  0.00     0.161 C 
ATOM     14  C   UNL d   1       0.877  -2.890  -4.050  0.00  0.00    -0.034 A 
ATOM     15  C   UNL d   1       0.003  -3.418  -5.008  0.00  0.00     0.009 A 
ATOM     16  C   UNL d   1       2.123  -3.503  -3.840  0.00  0.00    -0.049 A 
ATOM     17  C   UNL d   1       0.369  -4.548  -5.741  0.00  0.00     0.001 A 
ATOM     18  C   UNL d   1       1.617  -5.138  -5.542  0.00  0.00     0.001 A 
ATOM     19  C   UNL d   1       2.499  -4.615  -4.597  0.00  0.00     0.008 A 
ATOM     20  C   UNL d   1       3.005  -2.918  -2.772  0.00  0.00     0.059 C 
ATOM     21  C   UNL d   1       2.126  -2.556  -1.570  0.00  0.00     0.127 C 
ENDBRANCH   2  12
TORSDOF 3
