REMARK  4 active torsions:
REMARK  status: ('A' for Active; 'I' for Inactive)
REMARK    1  A    between atoms: C_2  and  C_1 
REMARK    2  A    between atoms: S_8  and  C_5 
REMARK    3  A    between atoms: C_13  and  S_8 
REMARK    4  A    between atoms: C_16  and  C_13 
ROOT
ATOM      1  C   UNL d   1      -0.617  -0.884  -1.065  0.00  0.00     0.065 A 
ATOM      2  N   UNL d   1      -1.482  -2.825  -2.218  0.00  0.00    -0.358 N 
ATOM      3  HN  UNL d   1      -2.227  -3.264  -2.758  1.00  0.00     0.166 HD
ATOM      4  C   UNL d   1      -0.351  -3.511  -1.903  0.00  0.00     0.091 A 
ATOM      5  C   UNL d   1       0.543  -1.597  -0.750  0.00  0.00     0.044 A 
ATOM      6  C   UNL d   1       0.683  -2.925  -1.165  0.00  0.00     0.068 A 
ATOM      7  C   UNL d   1      -1.591  -1.543  -1.797  0.00  0.00     0.105 A 
ATOM      8 CL   UNL d   1       2.140  -3.747  -0.740  0.00  0.00    -0.081 Cl
ENDROOT
BRANCH   4   9
ATOM      9  S   UNL d   1      -0.295  -5.216  -2.442  0.00  0.00    -0.106 SA
BRANCH   9  10
ATOM     10  C   UNL d   1      -1.470  -5.155  -3.830  0.00  0.00     0.119 C 
BRANCH  10  11
ATOM     11  C   UNL d   1      -1.639  -6.511  -4.475  0.00  0.00    -0.048 A 
ATOM     12  C   UNL d   1      -2.698  -7.349  -4.093  0.00  0.00     0.009 A 
ATOM     13  C   UNL d   1      -2.866  -8.599  -4.693  0.00  0.00     0.024 A 
ATOM     14  C   UNL d   1      -1.970  -9.022  -5.671  0.00  0.00     0.034 A 
ATOM     15  C   UNL d   1      -0.905  -8.209  -6.051  0.00  0.00     0.024 A 
ATOM     16 CL   UNL d   1      -2.182 -10.559  -6.416  0.00  0.00    -0.084 Cl
ATOM     17  C   UNL d   1      -0.737  -6.958  -5.454  0.00  0.00     0.009 A 
ENDBRANCH  10  11
ENDBRANCH   9  10
ENDBRANCH   4   9
BRANCH   1  18
ATOM     18  C   UNL d   1      -0.840   0.536  -0.646  0.00  0.00     0.418 C 
ATOM     19  F   UNL d   1       0.202   1.064   0.053  0.00  0.00    -0.166 F 
ATOM     20  F   UNL d   1      -1.934   0.676   0.150  0.00  0.00    -0.166 F 
ATOM     21  F   UNL d   1      -1.038   1.364  -1.707  0.00  0.00    -0.166 F 
ENDBRANCH   1  18
TORSDOF 4
