REMARK  4 active torsions:
REMARK  status: ('A' for Active; 'I' for Inactive)
REMARK    1  A    between atoms: C_5  and  C_1 
REMARK    2  A    between atoms: N_3  and  C_2 
REMARK       I    between atoms: C_4  and  N_3 
REMARK    3  A    between atoms: C_7  and  C_4 
REMARK    4  A    between atoms: C_11  and  C_5 
ROOT
ATOM      1  C   UNL d   1       1.680   1.238  -0.065  0.00  0.00     0.043 A 
ATOM      2  C   UNL d   1       2.443   0.058   0.085  0.00  0.00     0.051 A 
ATOM      3  C   UNL d   1       1.776  -1.174   0.221  0.00  0.00     0.032 A 
ATOM      4  C   UNL d   1       0.276   1.143  -0.144  0.00  0.00     0.041 A 
ATOM      5  C   UNL d   1      -0.359  -0.090  -0.016  0.00  0.00     0.035 A 
ATOM      6  C   UNL d   1       0.384  -1.247   0.177  0.00  0.00     0.026 A 
ATOM      7 CL   UNL d   1      -2.072  -0.175  -0.121  0.00  0.00    -0.084 Cl
ENDROOT
BRANCH   2   8
ATOM      8  N   UNL d   1       3.868   0.043   0.104  0.00  0.00    -0.317 N 
ATOM      9  C   UNL d   1       4.677  -0.796  -0.686  0.00  0.00     0.258 C 
ATOM     10  O   UNL d   1       5.860  -1.020  -0.402  0.00  0.00    -0.267 OA
ATOM     11  C   UNL d   1       4.510   0.773   1.194  0.00  0.00     0.159 C 
BRANCH   9  12
ATOM     12  C   UNL d   1       4.153  -1.449  -1.933  0.00  0.00     0.032 A 
ATOM     13  C   UNL d   1       3.117  -0.914  -2.708  0.00  0.00     0.018 A 
ATOM     14  C   UNL d   1       2.628  -1.604  -3.822  0.00  0.00     0.025 A 
ATOM     15  C   UNL d   1       3.228  -2.795  -4.218  0.00  0.00     0.034 A 
ATOM     16  C   UNL d   1       4.316  -3.301  -3.511  0.00  0.00     0.025 A 
ATOM     17 CL   UNL d   1       2.633  -3.634  -5.597  0.00  0.00    -0.084 Cl
ATOM     18  C   UNL d   1       4.772  -2.634  -2.369  0.00  0.00     0.018 A 
ENDBRANCH   9  12
ENDBRANCH   2   8
BRANCH   1  19
ATOM     19  C   UNL d   1       2.288   2.573  -0.367  0.00  0.00     0.194 C 
ATOM     20  O   UNL d   1       3.300   2.645  -1.053  0.00  0.00    -0.287 OA
BRANCH  19  21
ATOM     21  C   UNL d   1       1.604   3.834   0.041  0.00  0.00     0.015 A 
ATOM     22  C   UNL d   1       1.620   4.919  -0.843  0.00  0.00     0.015 A 
ATOM     23  C   UNL d   1       0.904   6.082  -0.544  0.00  0.00     0.001 A 
ATOM     24  C   UNL d   1       0.178   6.166   0.643  0.00  0.00     0.000 A 
ATOM     25  C   UNL d   1       0.186   5.101   1.545  0.00  0.00     0.001 A 
ATOM     26  C   UNL d   1       0.907   3.939   1.253  0.00  0.00     0.015 A 
ENDBRANCH  19  21
ENDBRANCH   1  19
TORSDOF 4
