REMARK  7 active torsions:
REMARK  status: ('A' for Active; 'I' for Inactive)
REMARK    1  A    between atoms: N_6  and  C_2 
REMARK    2  A    between atoms: C_16  and  C_3 
REMARK       I    between atoms: C_13  and  N_8 
REMARK    3  A    between atoms: C_25  and  C_13 
REMARK    4  A    between atoms: C_15  and  C_26 
REMARK    5  A    between atoms: O_24  and  C_15 
REMARK    6  A    between atoms: S_23  and  C_25 
REMARK    7  A    between atoms: C_26  and  S_23 
ROOT
ATOM      1  C   UNL d   1       1.329   0.528   1.051  0.00  0.00     0.048 A 
ATOM      2  C   UNL d   1       1.556   1.474   0.002  0.00  0.00     0.097 A 
ATOM      3  C   UNL d   1       1.536   0.469   2.507  0.00  0.00    -0.003 A 
ATOM      4  C   UNL d   1       0.772  -0.680   0.621  0.00  0.00     0.089 A 
ATOM      5  C   UNL d   1       1.200  -0.777   3.014  0.00  0.00     0.065 A 
ATOM      6  S   UNL d   1       0.575  -1.837   1.849  0.00  0.00    -0.082 SA
ATOM      7  N   UNL d   1       1.171   1.131  -1.259  0.00  0.00    -0.342 N 
ATOM      8  HN  UNL d   1       1.299   1.795  -2.023  1.00  0.00     0.167 HD
ATOM      9  N   UNL d   1       0.404  -1.025  -0.622  0.00  0.00    -0.346 N 
ATOM     10  HN  UNL d   1      -0.005  -1.928  -0.861  1.00  0.00     0.167 HD
ATOM     11  C   UNL d   1       0.629  -0.064  -1.504  0.00  0.00     0.182 A 
ENDROOT
BRANCH   2  12
ATOM     12  N   UNL d   1       2.285   2.675   0.135  0.00  0.00    -0.265 NA
ATOM     13  C   UNL d   1       2.935   3.062  -1.148  0.00  0.00     0.117 C 
ATOM     14  C   UNL d   1       3.890   4.245  -0.919  0.00  0.00     0.140 C 
ATOM     15  N   UNL d   1       3.189   5.374  -0.290  0.00  0.00    -0.349 N 
ATOM     16  C   UNL d   1       2.442   5.007   0.922  0.00  0.00     0.140 C 
ATOM     17  C   UNL d   1       3.201   6.684  -0.722  0.00  0.00     0.229 C 
ATOM     18  C   UNL d   1       1.495   3.801   0.683  0.00  0.00     0.117 C 
ATOM     19  O   UNL d   1       2.541   7.566  -0.162  0.00  0.00    -0.273 OA
BRANCH  17  20
ATOM     20  C   UNL d   1       3.974   7.046  -1.979  0.00  0.00     0.177 C 
BRANCH  20  21
ATOM     21  S   UNL d   1       2.918   6.808  -3.448  0.00  0.00    -0.149 SA
BRANCH  21  22
ATOM     22  C   UNL d   1       1.504   7.891  -3.036  0.00  0.00     0.184 C 
BRANCH  22  23
ATOM     23  C   UNL d   1       1.915   9.339  -2.864  0.00  0.00     0.149 C 
ATOM     24  O   UNL d   1       2.049  10.120  -3.801  0.00  0.00    -0.649 OA
BRANCH  23  25
ATOM     25  O   UNL d   1       2.148   9.708  -1.589  0.00  0.00    -0.776 OA
ATOM     26  H   UNL d   1       2.077   8.988  -0.915  0.00  0.00     0.167 HD
ENDBRANCH  23  25
ENDBRANCH  22  23
ENDBRANCH  21  22
ENDBRANCH  20  21
ENDBRANCH  17  20
ENDBRANCH   2  12
BRANCH   3  27
ATOM     27  C   UNL d   1       1.962   1.507   3.462  0.00  0.00    -0.024 A 
ATOM     28  C   UNL d   1       1.292   1.652   4.693  0.00  0.00     0.012 A 
ATOM     29  C   UNL d   1       1.602   2.697   5.567  0.00  0.00     0.001 A 
ATOM     30  C   UNL d   1       2.574   3.625   5.218  0.00  0.00     0.000 A 
ATOM     31  C   UNL d   1       3.291   3.456   4.036  0.00  0.00     0.001 A 
ATOM     32  C   UNL d   1       3.006   2.385   3.179  0.00  0.00     0.012 A 
ENDBRANCH   3  27
TORSDOF 7
