REMARK  3 active torsions:
REMARK  status: ('A' for Active; 'I' for Inactive)
REMARK    1  A    between atoms: N_2  and  C_1 
REMARK    2  A    between atoms: N_4  and  N_2 
REMARK       I    between atoms: C_3  and  N_4 
REMARK    3  A    between atoms: C_10  and  C_3 
ROOT
ATOM      1  N   UNL d   1      -0.168  -2.203   0.284  0.00  0.00    -0.200 NA
ATOM      2  H   UNL d   1       0.707  -2.746   0.291  0.00  0.00     0.153 HD
ENDROOT
BRANCH   1   3
ATOM      3  C   UNL d   1       0.006  -0.931  -0.335  0.00  0.00     0.073 A 
ATOM      4  C   UNL d   1       0.774   0.029   0.364  0.00  0.00     0.073 A 
ATOM      5 CL   UNL d   1       1.498  -0.318   1.896  0.00  0.00    -0.081 Cl
ATOM      6  C   UNL d   1       0.943   1.303  -0.168  0.00  0.00     0.113 A 
ATOM      7  N   UNL d   1       0.439   1.695  -1.357  0.00  0.00    -0.372 N 
ATOM      8  C   UNL d   1      -0.248   0.757  -2.046  0.00  0.00     0.113 A 
ATOM      9  HN  UNL d   1       0.568   2.642  -1.713  1.00  0.00     0.164 HD
ATOM     10  C   UNL d   1      -0.482  -0.545  -1.600  0.00  0.00     0.073 A 
ATOM     11 CL   UNL d   1      -1.332  -1.584  -2.691  0.00  0.00    -0.081 Cl
ENDBRANCH   1   3
BRANCH   1  12
ATOM     12  N   UNL d   1      -1.243  -2.976  -0.137  0.00  0.00    -0.286 N 
ATOM     13  C   UNL d   1      -1.082  -4.351  -0.214  0.00  0.00     0.236 C 
ATOM     14  O   UNL d   1       0.013  -4.879   0.000  0.00  0.00    -0.272 OA
ATOM     15  H   UNL d   1      -2.152  -2.528  -0.202  0.00  0.00     0.184 HD
BRANCH  13  16
ATOM     16  C   UNL d   1      -2.391  -5.096  -0.607  0.00  0.00     0.079 C 
ATOM     17  C   UNL d   1      -3.042  -6.020   0.456  0.00  0.00     0.014 C 
ATOM     18  C   UNL d   1      -3.423  -6.969  -0.697  0.00  0.00     0.002 C 
ATOM     19  C   UNL d   1      -2.254  -6.362  -1.494  0.00  0.00     0.014 C 
ENDBRANCH  13  16
ENDBRANCH   1  12
TORSDOF 3
