REMARK  6 active torsions:
REMARK  status: ('A' for Active; 'I' for Inactive)
REMARK       I    between atoms: N_2  and  C_1 
REMARK    1  A    between atoms: C_5  and  C_1 
REMARK    2  A    between atoms: C_6  and  N_2 
REMARK    3  A    between atoms: C_19  and  C_6 
REMARK    4  A    between atoms: C_20  and  C_6 
REMARK    5  A    between atoms: C_8  and  C_7 
REMARK    6  A    between atoms: C_21  and  C_18 
ROOT
ATOM      1  C   UNL d   1       1.703   1.182   3.354  0.00  0.00    -0.086 C 
ATOM      2  C   UNL d   1       1.600   2.076   4.179  0.00  0.00     0.015 C 
ATOM      3  C   UNL d   1       1.843   0.061   2.333  0.00  0.00     0.095 C 
ENDROOT
BRANCH   3   4
ATOM      4  N   UNL d   1       1.091   0.429   1.117  0.00  0.00    -0.337 N 
ATOM      5  C   UNL d   1       1.028  -0.356  -0.018  0.00  0.00     0.253 C 
ATOM      6  O   UNL d   1       1.564  -1.453  -0.125  0.00  0.00    -0.268 OA
ATOM      7  H   UNL d   1       0.750   1.376   1.079  0.00  0.00     0.164 HD
BRANCH   5   8
ATOM      8  C   UNL d   1       0.289   0.201  -1.180  0.00  0.00     0.032 A 
ATOM      9  C   UNL d   1       0.680  -0.206  -2.456  0.00  0.00     0.018 A 
ATOM     10  C   UNL d   1      -0.003   0.256  -3.586  0.00  0.00     0.013 A 
ATOM     11  C   UNL d   1      -1.110   1.115  -3.474  0.00  0.00    -0.026 A 
ATOM     12  C   UNL d   1      -1.487   1.510  -2.174  0.00  0.00     0.013 A 
ATOM     13  C   UNL d   1      -0.797   1.065  -1.037  0.00  0.00     0.018 A 
BRANCH  11  14
ATOM     14  C   UNL d   1      -1.862   1.563  -4.671  0.00  0.00    -0.026 A 
ATOM     15  C   UNL d   1      -2.472   2.829  -4.733  0.00  0.00     0.013 A 
ATOM     16  C   UNL d   1      -3.194   3.242  -5.860  0.00  0.00     0.008 A 
ATOM     17  C   UNL d   1      -3.310   2.407  -6.974  0.00  0.00    -0.059 A 
ATOM     18  C   UNL d   1      -2.712   1.146  -6.931  0.00  0.00     0.008 A 
ATOM     19  C   UNL d   1      -2.006   0.732  -5.797  0.00  0.00     0.013 A 
BRANCH  17  20
ATOM     20  C   UNL d   1      -4.080   2.845  -8.192  0.00  0.00     0.034 C 
ATOM     21  C   UNL d   1      -5.541   2.426  -8.127  0.00  0.00     0.010 C 
ENDBRANCH  17  20
ENDBRANCH  11  14
ENDBRANCH   5   8
ENDBRANCH   3   4
BRANCH   3  22
ATOM     22  C   UNL d   1       1.293  -1.273   2.939  0.00  0.00     0.040 C 
ATOM     23  C   UNL d   1      -0.196  -1.256   3.275  0.00  0.00     0.009 C 
ENDBRANCH   3  22
BRANCH   3  24
ATOM     24  C   UNL d   1       3.358  -0.154   2.004  0.00  0.00     0.040 C 
ATOM     25  C   UNL d   1       4.054   1.060   1.395  0.00  0.00     0.009 C 
ENDBRANCH   3  24
TORSDOF 6
