REMARK  3 active torsions:
REMARK  status: ('A' for Active; 'I' for Inactive)
REMARK    1  A    between atoms: C_6  and  C_1 
REMARK    2  A    between atoms: N_7  and  C_2 
REMARK    3  A    between atoms: C_9  and  C_6 
REMARK       I    between atoms: C_8  and  N_7 
ROOT
ATOM      1  C   UNL d   1      -0.335  -1.556  -0.039  0.00  0.00     0.056 C 
ATOM      2  C   UNL d   1       1.029  -1.284  -0.105  0.00  0.00     0.091 C 
ATOM      3  S   UNL d   1       1.360   0.369  -0.187  0.00  0.00    -0.076 SA
ATOM      4  C   UNL d   1      -1.098  -0.317   0.114  0.00  0.00    -0.032 C 
ATOM      5  C   UNL d   1      -0.278   0.794  -0.025  0.00  0.00    -0.012 C 
ATOM      6  C   UNL d   1      -2.567  -0.201   0.392  0.00  0.00     0.050 C 
ATOM      7  C   UNL d   1      -0.633   2.246  -0.016  0.00  0.00     0.057 C 
ENDROOT
BRANCH   1   8
ATOM      8  C   UNL d   1      -0.819  -2.949  -0.065  0.00  0.00     0.195 C 
ATOM      9  O   UNL d   1      -0.103  -3.887   0.289  0.00  0.00    -0.287 OA
BRANCH   8  10
ATOM     10  C   UNL d   1      -2.175  -3.275  -0.577  0.00  0.00     0.015 A 
ATOM     11  C   UNL d   1      -2.902  -4.294   0.055  0.00  0.00     0.017 A 
ATOM     12  C   UNL d   1      -4.200  -4.596  -0.368  0.00  0.00     0.025 A 
ATOM     13  C   UNL d   1      -4.764  -3.889  -1.428  0.00  0.00     0.034 A 
ATOM     14  C   UNL d   1      -4.032  -2.905  -2.091  0.00  0.00     0.025 A 
ATOM     15 CL   UNL d   1      -6.377  -4.230  -1.920  0.00  0.00    -0.084 Cl
ATOM     16  C   UNL d   1      -2.728  -2.610  -1.679  0.00  0.00     0.017 A 
ENDBRANCH   8  10
ENDBRANCH   1   8
BRANCH   2  17
ATOM     17  N   UNL d   1       2.052  -2.227  -0.121  0.00  0.00    -0.321 N 
ATOM     18  C   UNL d   1       3.412  -1.986  -0.176  0.00  0.00     0.218 C 
ATOM     19  O   UNL d   1       3.985  -0.906  -0.257  0.00  0.00    -0.274 OA
ATOM     20  C   UNL d   1       4.230  -3.256  -0.134  0.00  0.00     0.117 C 
ATOM     21  H   UNL d   1       1.734  -3.189  -0.013  0.00  0.00     0.169 HD
ENDBRANCH   2  17
TORSDOF 3
