REMARK  4 active torsions:
REMARK  status: ('A' for Active; 'I' for Inactive)
REMARK    1  A    between atoms: C_2  and  C_1 
REMARK       I    between atoms: N_4  and  C_2 
REMARK    2  A    between atoms: N_5  and  C_3 
REMARK    3  A    between atoms: C_7  and  N_4 
REMARK    4  A    between atoms: C_8  and  N_5 
ROOT
ATOM      1  C   UNL d   1       1.161  -0.250   0.158  0.00  0.00     0.099 C 
ATOM      2  C   UNL d   1       2.385   0.110  -0.288  0.00  0.00     0.011 C 
ATOM      3  C   UNL d   1       3.434  -0.869  -0.772  0.00  0.00     0.068 C 
ENDROOT
BRANCH   1   4
ATOM      4  C   UNL d   1       0.704  -1.655   0.372  0.00  0.00     0.247 C 
ATOM      5  N   UNL d   1      -0.662  -1.759   0.554  0.00  0.00    -0.324 N 
ATOM      6  H   UNL d   1      -1.222  -0.928   0.414  0.00  0.00     0.169 HD
ATOM      7  O   UNL d   1       1.509  -2.578   0.418  0.00  0.00    -0.268 OA
BRANCH   5   8
ATOM      8  C   UNL d   1      -1.363  -2.921   0.964  0.00  0.00     0.035 A 
ATOM      9  C   UNL d   1      -0.732  -4.124   1.308  0.00  0.00     0.032 A 
ATOM     10  C   UNL d   1      -1.472  -5.218   1.763  0.00  0.00     0.044 A 
ATOM     11  C   UNL d   1      -2.850  -5.116   1.869  0.00  0.00     0.116 A 
ATOM     12  C   UNL d   1      -3.502  -3.941   1.523  0.00  0.00     0.044 A 
ATOM     13  F   UNL d   1      -3.556  -6.160   2.320  0.00  0.00    -0.206 F 
ATOM     14  C   UNL d   1      -2.759  -2.842   1.070  0.00  0.00     0.032 A 
ENDBRANCH   5   8
ENDBRANCH   1   4
BRANCH   2  15
ATOM     15  N   UNL d   1       2.833   1.430  -0.257  0.00  0.00    -0.360 N 
ATOM     16  H   UNL d   1       3.850   1.487  -0.209  0.00  0.00     0.166 HD
BRANCH  15  17
ATOM     17  C   UNL d   1       2.334   2.513  -1.017  0.00  0.00     0.032 A 
ATOM     18  C   UNL d   1       1.187   2.440  -1.818  0.00  0.00     0.032 A 
ATOM     19  C   UNL d   1       0.727   3.565  -2.508  0.00  0.00     0.044 A 
ATOM     20  C   UNL d   1       1.403   4.772  -2.387  0.00  0.00     0.116 A 
ATOM     21  C   UNL d   1       2.528   4.880  -1.585  0.00  0.00     0.044 A 
ATOM     22  F   UNL d   1       0.961   5.847  -3.051  0.00  0.00    -0.206 F 
ATOM     23  C   UNL d   1       2.984   3.755  -0.894  0.00  0.00     0.032 A 
ENDBRANCH  15  17
ENDBRANCH   2  15
TORSDOF 4
