REMARK  4 active torsions:
REMARK  status: ('A' for Active; 'I' for Inactive)
REMARK    1  A    between atoms: S_16  and  C_3 
REMARK    2  A    between atoms: C_7  and  C_4 
REMARK       I    between atoms: N_13  and  C_7 
REMARK    3  A    between atoms: S_20  and  C_10 
REMARK    4  A    between atoms: C_21  and  N_13 
ROOT
ATOM      1  C   UNL d   1      -0.822   0.597   0.124  0.00  0.00     0.023 A 
ATOM      2  C   UNL d   1      -1.670  -0.569   0.254  0.00  0.00    -0.021 A 
ATOM      3  C   UNL d   1      -1.567   1.760   0.039  0.00  0.00     0.054 A 
ATOM      4  C   UNL d   1      -3.019  -0.249   0.321  0.00  0.00     0.081 A 
ATOM      5  S   UNL d   1      -3.246   1.441   0.224  0.00  0.00    -0.076 SA
ATOM      6  C   UNL d   1       0.639   0.458   0.068  0.00  0.00     0.054 A 
ATOM      7  N   UNL d   1       1.402   1.548   0.234  0.00  0.00    -0.336 N 
ATOM      8  HN  UNL d   1       0.989   2.467   0.396  1.00  0.00     0.168 HD
ATOM      9  C   UNL d   1       2.730   1.378   0.178  0.00  0.00     0.144 A 
ATOM     10  C   UNL d   1       1.170  -0.809  -0.127  0.00  0.00    -0.015 A 
ATOM     11  C   UNL d   1      -1.053  -1.942   0.343  0.00  0.00     0.046 C 
ATOM     12  N   UNL d   1       3.342   0.200  -0.022  0.00  0.00    -0.346 N 
ATOM     13  HN  UNL d   1       4.358   0.122  -0.060  1.00  0.00     0.167 HD
ATOM     14  C   UNL d   1       2.544  -0.873  -0.170  0.00  0.00     0.099 A 
ATOM     15  C   UNL d   1       0.304  -2.012  -0.374  0.00  0.00     0.047 C 
ENDROOT
BRANCH   4  16
ATOM     16  C   UNL d   1      -4.145  -1.177   0.461  0.00  0.00     0.263 C 
ATOM     17  N   UNL d   1      -5.416  -0.621   0.381  0.00  0.00    -0.323 N 
ATOM     18  H   UNL d   1      -5.454   0.368   0.175  0.00  0.00     0.169 HD
ATOM     19  O   UNL d   1      -3.946  -2.385   0.591  0.00  0.00    -0.267 OA
BRANCH  17  20
ATOM     20  C   UNL d   1      -6.640  -1.332   0.380  0.00  0.00     0.035 A 
ATOM     21  C   UNL d   1      -6.751  -2.673   0.760  0.00  0.00     0.031 A 
ATOM     22  C   UNL d   1      -7.963  -3.358   0.634  0.00  0.00     0.026 A 
ATOM     23  C   UNL d   1      -9.079  -2.697   0.138  0.00  0.00     0.034 A 
ATOM     24  C   UNL d   1      -9.002  -1.345  -0.190  0.00  0.00     0.026 A 
ATOM     25 CL   UNL d   1     -10.552  -3.558  -0.082  0.00  0.00    -0.084 Cl
ATOM     26  C   UNL d   1      -7.788  -0.660  -0.056  0.00  0.00     0.031 A 
ENDBRANCH  17  20
ENDBRANCH   4  16
BRANCH   3  27
ATOM     27  S   UNL d   1      -1.058   3.431  -0.208  0.00  0.00    -0.126 SA
ATOM     28  C   UNL d   1      -0.441   3.337  -1.906  0.00  0.00     0.096 C 
ENDBRANCH   3  27
BRANCH   9  29
ATOM     29  S   UNL d   1       3.705   2.855   0.338  0.00  0.00    -0.098 SA
ATOM     30  C   UNL d   1       5.373   2.164   0.263  0.00  0.00     0.099 C 
ENDBRANCH   9  29
TORSDOF 4
