REMARK  5 active torsions:
REMARK  status: ('A' for Active; 'I' for Inactive)
REMARK    1  A    between atoms: C_2  and  C_1 
REMARK       I    between atoms: N_4  and  C_1 
REMARK    2  A    between atoms: C_3  and  C_6 
REMARK    3  A    between atoms: N_5  and  N_4 
REMARK    4  A    between atoms: C_6  and  N_5 
REMARK    5  A    between atoms: C_10  and  N_5 
ROOT
ATOM      1  N   UNL d   1      -1.429  -1.025  -0.678  0.00  0.00    -0.285 N 
ENDROOT
BRANCH   1   2
ATOM      2  N   UNL d   1      -0.026  -0.893  -0.647  0.00  0.00    -0.263 N 
ATOM      3  C   UNL d   1       0.722  -0.995   0.527  0.00  0.00     0.291 C 
ATOM      4  O   UNL d   1       0.202  -1.117   1.641  0.00  0.00    -0.267 OA
ATOM      5  H   UNL d   1       0.412  -0.913  -1.566  0.00  0.00     0.190 HD
BRANCH   3   6
ATOM      6  C   UNL d   1       2.260  -0.994   0.340  0.00  0.00     0.271 C 
ATOM      7 CL   UNL d   1       2.739  -0.655  -1.350  0.00  0.00    -0.073 Cl
ATOM      8 CL   UNL d   1       2.969   0.252   1.401  0.00  0.00    -0.073 Cl
ATOM      9 CL   UNL d   1       2.867  -2.611   0.797  0.00  0.00    -0.073 Cl
ENDBRANCH   3   6
ENDBRANCH   1   2
BRANCH   1  10
ATOM     10  C   UNL d   1      -2.253  -0.128   0.158  0.00  0.00     0.193 C 
BRANCH  10  11
ATOM     11  C   UNL d   1      -2.546   1.223  -0.462  0.00  0.00     0.022 A 
ATOM     12  C   UNL d   1      -2.772   2.355   0.345  0.00  0.00     0.045 A 
ATOM     13 CL   UNL d   1      -2.582   2.319   2.065  0.00  0.00    -0.084 Cl
ATOM     14  C   UNL d   1      -3.199   3.572  -0.207  0.00  0.00     0.024 A 
ATOM     15  C   UNL d   1      -3.421   3.684  -1.576  0.00  0.00     0.005 A 
ATOM     16  C   UNL d   1      -3.201   2.582  -2.392  0.00  0.00     0.043 A 
ATOM     17  C   UNL d   1      -2.772   1.376  -1.837  0.00  0.00     0.126 A 
ATOM     18  F   UNL d   1      -2.616   0.346  -2.681  0.00  0.00    -0.205 F 
ENDBRANCH  10  11
ENDBRANCH   1  10
BRANCH   1  19
ATOM     19  C   UNL d   1      -1.940  -2.327  -0.879  0.00  0.00     0.051 A 
ATOM     20  C   UNL d   1      -1.277  -3.492  -0.469  0.00  0.00     0.031 A 
ATOM     21  C   UNL d   1      -1.842  -4.758  -0.671  0.00  0.00     0.002 A 
ATOM     22  C   UNL d   1      -3.075  -4.884  -1.307  0.00  0.00     0.000 A 
ATOM     23  C   UNL d   1      -3.741  -3.746  -1.743  0.00  0.00     0.002 A 
ATOM     24  C   UNL d   1      -3.180  -2.487  -1.526  0.00  0.00     0.031 A 
ENDBRANCH   1  19
TORSDOF 5
