REMARK  9 active torsions:
REMARK  status: ('A' for Active; 'I' for Inactive)
REMARK    1  A    between atoms: C_8  and  N_1 
REMARK    2  A    between atoms: C_11  and  C_2 
REMARK    3  A    between atoms: S_9  and  C_5 
REMARK    4  A    between atoms: C_20  and  C_8 
REMARK    5  A    between atoms: C_21  and  S_9 
REMARK    6  A    between atoms: C_10  and  N_13 
REMARK    7  A    between atoms: C_12  and  C_21 
REMARK       I    between atoms: N_13  and  C_12 
REMARK    8  A    between atoms: O_30  and  C_20 
REMARK    9  A    between atoms: O_31  and  C_20 
ROOT
ATOM      1  N   UNL d   1      -0.167  -1.228  -0.094  0.00  0.00    -0.306 N 
ATOM      2  C   UNL d   1       0.944  -0.434  -0.367  0.00  0.00     0.134 C 
ATOM      3  N   UNL d   1       0.546   0.824  -0.430  0.00  0.00    -0.283 N 
ATOM      4  HN  UNL d   1       1.120   1.615  -0.726  1.00  0.00     0.188 HD
ATOM      5  C   UNL d   1      -1.146  -0.329   0.245  0.00  0.00     0.163 C 
ATOM      6  N   UNL d   1      -0.758   0.892  -0.035  0.00  0.00    -0.278 N 
ATOM      7  HN  UNL d   1      -1.326   1.736   0.029  1.00  0.00     0.189 HD
ENDROOT
BRANCH   5   8
ATOM      8  S   UNL d   1      -2.596  -0.689   1.110  0.00  0.00    -0.083 SA
BRANCH   8   9
ATOM      9  C   UNL d   1      -2.962   0.931   1.845  0.00  0.00     0.185 C 
BRANCH   9  10
ATOM     10  C   UNL d   1      -2.050   1.195   3.034  0.00  0.00     0.231 C 
ATOM     11  N   UNL d   1      -0.851   1.800   2.695  0.00  0.00    -0.326 N 
ATOM     12  H   UNL d   1      -0.663   1.908   1.696  0.00  0.00     0.169 HD
ATOM     13  O   UNL d   1      -2.407   0.886   4.169  0.00  0.00    -0.272 OA
BRANCH  11  14
ATOM     14  C   UNL d   1       0.147   2.279   3.571  0.00  0.00     0.037 A 
ATOM     15  C   UNL d   1       0.101   2.139   4.960  0.00  0.00     0.053 A 
ATOM     16  C   UNL d   1       1.104   2.697   5.757  0.00  0.00     0.037 A 
ATOM     17 CL   UNL d   1       1.030   2.521   7.469  0.00  0.00    -0.084 Cl
ATOM     18  C   UNL d   1       2.159   3.401   5.187  0.00  0.00     0.048 A 
ATOM     19  C   UNL d   1       2.216   3.523   3.803  0.00  0.00     0.037 A 
ATOM     20  C   UNL d   1       1.227   2.958   2.994  0.00  0.00     0.053 A 
ATOM     21 CL   UNL d   1       3.511   4.399   3.081  0.00  0.00    -0.084 Cl
ENDBRANCH  11  14
ENDBRANCH   9  10
ENDBRANCH   8   9
ENDBRANCH   5   8
BRANCH   1  22
ATOM     22  C   UNL d   1      -0.191  -2.676  -0.072  0.00  0.00     0.193 C 
BRANCH  22  23
ATOM     23  C   UNL d   1      -1.497  -3.405  -0.454  0.00  0.00     0.276 C 
BRANCH  23  24
ATOM     24  O   UNL d   1      -1.848  -3.049  -1.794  0.00  0.00    -0.364 OA
ATOM     25  C   UNL d   1      -3.173  -3.459  -2.120  0.00  0.00     0.204 C 
ENDBRANCH  23  24
BRANCH  23  26
ATOM     26  O   UNL d   1      -1.318  -4.827  -0.378  0.00  0.00    -0.364 OA
ATOM     27  C   UNL d   1      -1.234  -5.317   0.955  0.00  0.00     0.204 C 
ENDBRANCH  23  26
ENDBRANCH  22  23
ENDBRANCH   1  22
BRANCH   2  28
ATOM     28  C   UNL d   1       2.354  -0.833  -0.467  0.00  0.00     0.010 A 
ATOM     29  C   UNL d   1       3.200  -0.134  -1.345  0.00  0.00     0.017 A 
ATOM     30  C   UNL d   1       4.581  -0.357  -1.349  0.00  0.00     0.025 A 
ATOM     31  C   UNL d   1       5.132  -1.283  -0.472  0.00  0.00     0.034 A 
ATOM     32  C   UNL d   1       4.311  -2.001   0.395  0.00  0.00     0.025 A 
ATOM     33 CL   UNL d   1       6.835  -1.516  -0.426  0.00  0.00    -0.084 Cl
ATOM     34  C   UNL d   1       2.930  -1.773   0.400  0.00  0.00     0.017 A 
ENDBRANCH   2  28
TORSDOF 9
