REMARK  5 active torsions:
REMARK  status: ('A' for Active; 'I' for Inactive)
REMARK    1  A    between atoms: C_4  and  C_1 
REMARK    2  A    between atoms: N_5  and  N_2 
REMARK    3  A    between atoms: O_13  and  C_4 
REMARK    4  A    between atoms: C_6  and  N_5 
REMARK    5  A    between atoms: C_17  and  O_13 
ROOT
ATOM      1  N   UNL d   1       1.045   0.926   2.050  0.00  0.00    -0.203 NA
ATOM      2  H   UNL d   1       1.791   1.595   1.836  0.00  0.00     0.153 HD
ENDROOT
BRANCH   1   3
ATOM      3  N   UNL d   1       0.379   0.374   1.000  0.00  0.00    -0.315 N 
ATOM      4  C   UNL d   1       1.073  -0.099   0.005  0.00  0.00     0.092 C 
ATOM      5  C   UNL d   1       2.571  -0.151  -0.113  0.00  0.00     0.076 C 
ATOM      6  HN  UNL d   1      -0.640   0.332   0.992  1.00  0.00     0.181 HD
BRANCH   4   7
ATOM      7  C   UNL d   1       0.311  -0.606  -1.214  0.00  0.00     0.306 C 
ATOM      8  O   UNL d   1       0.767  -0.499  -2.338  0.00  0.00    -0.258 OA
BRANCH   7   9
ATOM      9  O   UNL d   1      -0.905  -1.064  -0.858  0.00  0.00    -0.317 OA
BRANCH   9  10
ATOM     10  C   UNL d   1      -1.863  -1.134  -1.921  0.00  0.00     0.175 C 
ATOM     11  C   UNL d   1      -2.547   0.217  -2.037  0.00  0.00     0.034 C 
ENDBRANCH   9  10
ENDBRANCH   7   9
ENDBRANCH   4   7
ENDBRANCH   1   3
BRANCH   1  12
ATOM     12  C   UNL d   1       0.230   1.435   3.095  0.00  0.00     0.066 A 
ATOM     13  C   UNL d   1       0.707   2.480   3.902  0.00  0.00     0.142 A 
ATOM     14  C   UNL d   1      -0.039   2.987   4.960  0.00  0.00     0.086 A 
ATOM     15  F   UNL d   1       1.904   3.025   3.630  0.00  0.00    -0.204 F 
ATOM     16  C   UNL d   1      -1.274   2.425   5.234  0.00  0.00     0.119 A 
ATOM     17  C   UNL d   1      -1.768   1.366   4.477  0.00  0.00     0.044 A 
ATOM     18  F   UNL d   1      -2.005   2.902   6.251  0.00  0.00    -0.206 F 
ATOM     19  C   UNL d   1      -1.012   0.868   3.412  0.00  0.00     0.031 A 
ENDBRANCH   1  12
TORSDOF 5
