REMARK  5 active torsions:
REMARK  status: ('A' for Active; 'I' for Inactive)
REMARK    1  A    between atoms: N_15  and  C_1 
REMARK    2  A    between atoms: C_7  and  C_6 
REMARK    3  A    between atoms: C_11  and  C_7 
REMARK    4  A    between atoms: N_13  and  N_15 
REMARK    5  A    between atoms: C_20  and  C_19 
ROOT
ATOM      1  C   UNL d   1       1.093   2.838  -0.143  0.00  0.00     0.126 A 
ATOM      2  N   UNL d   1       1.078   1.482  -0.142  0.00  0.00    -0.342 N 
ATOM      3  HN  UNL d   1       1.941   0.942  -0.198  1.00  0.00     0.167 HD
ATOM      4  N   UNL d   1      -1.323   2.959   0.011  0.00  0.00    -0.352 N 
ATOM      5  HN  UNL d   1      -2.190   3.493   0.065  1.00  0.00     0.166 HD
ATOM      6  C   UNL d   1      -0.114   3.571  -0.065  0.00  0.00     0.073 A 
ATOM      7  C   UNL d   1      -0.124   0.877  -0.066  0.00  0.00     0.060 A 
ATOM      8  C   UNL d   1      -1.324   1.617   0.011  0.00  0.00     0.059 A 
ATOM      9  C   UNL d   1      -2.539   0.948   0.091  0.00  0.00     0.032 A 
ATOM     10  C   UNL d   1      -0.195  -0.513  -0.033  0.00  0.00     0.032 A 
ATOM     11  C   UNL d   1      -1.421  -1.178   0.061  0.00  0.00     0.002 A 
ATOM     12  C   UNL d   1      -2.598  -0.444   0.118  0.00  0.00     0.002 A 
ENDROOT
BRANCH   1  13
ATOM     13  N   UNL d   1       2.330   3.543  -0.116  0.00  0.00    -0.189 NA
ATOM     14  H   UNL d   1       2.458   3.895   0.834  0.00  0.00     0.154 HD
BRANCH  13  15
ATOM     15  N   UNL d   1       3.430   2.972  -0.683  0.00  0.00    -0.326 N 
ATOM     16  C   UNL d   1       4.550   3.639  -0.627  0.00  0.00     0.113 C 
ATOM     17  HN  UNL d   1       3.379   2.058  -1.133  1.00  0.00     0.180 HD
BRANCH  16  18
ATOM     18  C   UNL d   1       4.809   4.986  -0.058  0.00  0.00    -0.020 A 
ATOM     19  C   UNL d   1       6.054   5.229   0.526  0.00  0.00     0.013 A 
ATOM     20  C   UNL d   1       6.298   6.452   1.158  0.00  0.00     0.001 A 
ATOM     21  C   UNL d   1       5.301   7.428   1.209  0.00  0.00     0.000 A 
ATOM     22  C   UNL d   1       4.079   7.207   0.581  0.00  0.00     0.001 A 
ATOM     23  C   UNL d   1       3.849   6.001  -0.080  0.00  0.00     0.013 A 
ENDBRANCH  16  18
ENDBRANCH  13  15
ENDBRANCH   1  13
BRANCH   6  24
ATOM     24  C   UNL d   1      -0.156   5.050  -0.121  0.00  0.00     0.034 C 
BRANCH  24  25
ATOM     25  C   UNL d   1      -1.281   5.773  -0.016  0.00  0.00     0.021 C 
ATOM     26  C   UNL d   1      -1.301   7.197  -0.137  0.00  0.00     0.004 A 
ATOM     27  S   UNL d   1      -2.812   8.020   0.034  0.00  0.00    -0.102 SA
ATOM     28  C   UNL d   1      -0.293   8.113  -0.394  0.00  0.00     0.019 A 
ATOM     29  C   UNL d   1      -2.111   9.548  -0.253  0.00  0.00     0.050 A 
ATOM     30  C   UNL d   1      -0.756   9.461  -0.464  0.00  0.00     0.008 A 
ENDBRANCH  24  25
ENDBRANCH   6  24
TORSDOF 5
