REMARK  5 active torsions:
REMARK  status: ('A' for Active; 'I' for Inactive)
REMARK    1  A    between atoms: C_8  and  C_1 
REMARK    2  A    between atoms: C_7  and  C_2 
REMARK    3  A    between atoms: C_13  and  C_6 
REMARK    4  A    between atoms: O_16  and  C_8 
REMARK    5  A    between atoms: C_19  and  O_16 
ROOT
ATOM      1  C   UNL d   1       1.370   0.834  -0.074  0.00  0.00     0.129 A 
ATOM      2  C   UNL d   1       0.071   1.310   0.004  0.00  0.00     0.068 A 
ATOM      3  N   UNL d   1       1.468  -0.564  -0.130  0.00  0.00    -0.344 N 
ATOM      4  HN  UNL d   1       2.341  -1.083  -0.235  1.00  0.00     0.167 HD
ATOM      5  S   UNL d   1      -1.014   0.005   0.204  0.00  0.00    -0.067 SA
ATOM      6  C   UNL d   1       0.273  -1.115  -0.029  0.00  0.00     0.085 A 
ENDROOT
BRANCH   2   7
ATOM      7  C   UNL d   1      -0.375   2.738  -0.055  0.00  0.00     0.069 A 
ATOM      8  N   UNL d   1      -1.511   3.153   0.525  0.00  0.00    -0.300 N 
ATOM      9  N   UNL d   1      -1.505   4.483   0.340  0.00  0.00    -0.311 N 
ATOM     10  HN  UNL d   1      -2.217   2.589   0.997  1.00  0.00     0.187 HD
ATOM     11  C   UNL d   1      -0.483   4.918  -0.451  0.00  0.00     0.109 A 
ATOM     12  H   UNL d   1      -2.235   5.032   0.778  0.00  0.00     0.186 HD
ATOM     13  C   UNL d   1       0.266   3.804  -0.733  0.00  0.00     0.051 A 
ENDBRANCH   2   7
BRANCH   1  14
ATOM     14  C   UNL d   1       2.563   1.680   0.005  0.00  0.00     0.311 C 
ATOM     15  O   UNL d   1       2.592   2.755   0.602  0.00  0.00    -0.258 OA
BRANCH  14  16
ATOM     16  O   UNL d   1       3.645   1.161  -0.650  0.00  0.00    -0.317 OA
BRANCH  16  17
ATOM     17  C   UNL d   1       4.812   1.994  -0.613  0.00  0.00     0.175 C 
ATOM     18  C   UNL d   1       5.542   1.829   0.708  0.00  0.00     0.034 C 
ENDBRANCH  16  17
ENDBRANCH  14  16
ENDBRANCH   1  14
BRANCH   6  19
ATOM     19  C   UNL d   1       0.006  -2.564  -0.032  0.00  0.00    -0.002 A 
ATOM     20  C   UNL d   1       0.952  -3.448   0.511  0.00  0.00     0.014 A 
ATOM     21  C   UNL d   1       0.711  -4.825   0.542  0.00  0.00     0.001 A 
ATOM     22  C   UNL d   1      -0.472  -5.339   0.015  0.00  0.00     0.000 A 
ATOM     23  C   UNL d   1      -1.414  -4.480  -0.546  0.00  0.00     0.001 A 
ATOM     24  C   UNL d   1      -1.174  -3.103  -0.572  0.00  0.00     0.014 A 
ENDBRANCH   6  19
TORSDOF 5
