REMARK  4 active torsions:
REMARK  status: ('A' for Active; 'I' for Inactive)
REMARK    1  A    between atoms: C_4  and  C_1 
REMARK       I    between atoms: N_7  and  C_1 
REMARK    2  A    between atoms: C_2  and  C_5 
REMARK    3  A    between atoms: C_3  and  C_6 
REMARK    4  A    between atoms: C_8  and  N_7 
ROOT
ATOM      1  C   UNL d   1      -3.411  -0.832  -0.288  0.00  0.00     0.050 A 
ATOM      2  C   UNL d   1      -3.332  -0.485   2.123  0.00  0.00     0.050 A 
ATOM      3  C   UNL d   1      -1.256  -0.697   0.855  0.00  0.00     0.036 A 
ATOM      4  C   UNL d   1      -4.065  -0.638   0.936  0.00  0.00     0.032 A 
ATOM      5  C   UNL d   1      -2.007  -0.863  -0.311  0.00  0.00     0.045 A 
ATOM      6  C   UNL d   1      -1.927  -0.540   2.072  0.00  0.00     0.045 A 
ENDROOT
BRANCH   3   7
ATOM      7  N   UNL d   1       0.156  -0.670   0.870  0.00  0.00    -0.323 N 
ATOM      8  C   UNL d   1       0.984  -0.520  -0.231  0.00  0.00     0.259 C 
ATOM      9  O   UNL d   1       0.598  -0.359  -1.387  0.00  0.00    -0.267 OA
ATOM     10  H   UNL d   1       0.599  -0.676   1.784  0.00  0.00     0.169 HD
BRANCH   8  11
ATOM     11  C   UNL d   1       2.454  -0.511   0.009  0.00  0.00     0.070 A 
ATOM     12  C   UNL d   1       3.035  -0.821   1.240  0.00  0.00     0.132 A 
ATOM     13  F   UNL d   1       2.274  -1.122   2.304  0.00  0.00    -0.205 F 
ATOM     14  C   UNL d   1       4.420  -0.823   1.401  0.00  0.00     0.043 A 
ATOM     15  C   UNL d   1       5.248  -0.507   0.323  0.00  0.00     0.003 A 
ATOM     16  C   UNL d   1       4.686  -0.185  -0.910  0.00  0.00     0.001 A 
ATOM     17  C   UNL d   1       3.299  -0.188  -1.067  0.00  0.00     0.020 A 
ENDBRANCH   8  11
ENDBRANCH   3   7
BRANCH   1  18
ATOM     18  C   UNL d   1      -4.176  -1.006  -1.578  0.00  0.00     0.417 C 
ATOM     19  F   UNL d   1      -5.521  -0.840  -1.432  0.00  0.00    -0.166 F 
ATOM     20  F   UNL d   1      -3.796  -0.121  -2.540  0.00  0.00    -0.166 F 
ATOM     21  F   UNL d   1      -4.012  -2.246  -2.117  0.00  0.00    -0.166 F 
ENDBRANCH   1  18
BRANCH   2  22
ATOM     22  C   UNL d   1      -4.027  -0.242   3.442  0.00  0.00     0.417 C 
ATOM     23  F   UNL d   1      -5.375  -0.082   3.325  0.00  0.00    -0.166 F 
ATOM     24  F   UNL d   1      -3.845  -1.264   4.322  0.00  0.00    -0.166 F 
ATOM     25  F   UNL d   1      -3.572   0.878   4.068  0.00  0.00    -0.166 F 
ENDBRANCH   2  22
TORSDOF 4
