REMARK  6 active torsions:
REMARK  status: ('A' for Active; 'I' for Inactive)
REMARK    1  A    between atoms: C_5  and  C_1 
REMARK    2  A    between atoms: C_6  and  C_1 
REMARK    3  A    between atoms: O_9  and  N_2 
REMARK    4  A    between atoms: C_4  and  C_8 
REMARK    5  A    between atoms: C_7  and  O_9 
REMARK    6  A    between atoms: C_12  and  C_7 
ROOT
ATOM      1  C   UNL d   1       1.013  -0.167   0.023  0.00  0.00     0.089 C 
ATOM      2  N   UNL d   1       0.287  -1.250   0.026  0.00  0.00    -0.255 N 
ATOM      3  HN  UNL d   1      -0.731  -1.226   0.078  1.00  0.00     0.195 HD
ENDROOT
BRANCH   2   4
ATOM      4  O   UNL d   1       1.009  -2.449  -0.048  0.00  0.00    -0.194 OA
BRANCH   4   5
ATOM      5  C   UNL d   1       0.158  -3.492   0.167  0.00  0.00     0.315 C 
ATOM      6  O   UNL d   1      -0.627  -3.605   1.097  0.00  0.00    -0.257 OA
BRANCH   5   7
ATOM      7  C   UNL d   1       0.291  -4.502  -0.922  0.00  0.00     0.042 A 
ATOM      8  C   UNL d   1       1.043  -4.265  -2.084  0.00  0.00     0.034 A 
ATOM      9  C   UNL d   1       1.054  -5.196  -3.135  0.00  0.00     0.048 A 
ATOM     10  C   UNL d   1       0.311  -6.379  -3.005  0.00  0.00     0.016 A 
ATOM     11  C   UNL d   1      -0.430  -6.627  -1.850  0.00  0.00     0.002 A 
ATOM     12  C   UNL d   1      -0.443  -5.691  -0.813  0.00  0.00     0.018 A 
BRANCH   9  13
ATOM     13  C   UNL d   1       1.825  -4.927  -4.407  0.00  0.00     0.417 C 
ATOM     14  F   UNL d   1       2.498  -3.743  -4.394  0.00  0.00    -0.166 F 
ATOM     15  F   UNL d   1       2.756  -5.884  -4.665  0.00  0.00    -0.166 F 
ATOM     16  F   UNL d   1       1.017  -4.884  -5.503  0.00  0.00    -0.166 F 
ENDBRANCH   9  13
ENDBRANCH   5   7
ENDBRANCH   4   5
ENDBRANCH   2   4
BRANCH   1  17
ATOM     17  C   UNL d   1       0.299   1.113  -0.004  0.00  0.00     0.034 A 
ATOM     18  S   UNL d   1      -1.217   1.273   0.792  0.00  0.00    -0.100 SA
ATOM     19  C   UNL d   1      -1.386   2.903   0.311  0.00  0.00     0.050 A 
ATOM     20  C   UNL d   1      -0.324   3.330  -0.450  0.00  0.00     0.008 A 
ATOM     21  C   UNL d   1       0.641   2.298  -0.641  0.00  0.00     0.022 A 
ENDBRANCH   1  17
BRANCH   1  22
ATOM     22  C   UNL d   1       2.477  -0.052   0.029  0.00  0.00     0.034 A 
ATOM     23  S   UNL d   1       3.492  -1.165  -0.799  0.00  0.00    -0.100 SA
ATOM     24  C   UNL d   1       4.920  -0.369  -0.312  0.00  0.00     0.050 A 
ATOM     25  C   UNL d   1       4.651   0.763   0.418  0.00  0.00     0.008 A 
ATOM     26  C   UNL d   1       3.252   0.935   0.629  0.00  0.00     0.022 A 
ENDBRANCH   1  22
TORSDOF 6
