REMARK  4 active torsions:
REMARK  status: ('A' for Active; 'I' for Inactive)
REMARK    1  A    between atoms: C_8  and  C_1 
REMARK    2  A    between atoms: C_12  and  C_7 
REMARK       I    between atoms: C_9  and  N_10 
REMARK    3  A    between atoms: C_13  and  C_9 
REMARK    4  A    between atoms: N_10  and  C_11 
ROOT
ATOM      1  C   UNL d   1      -0.195  -2.767   0.274  0.00  0.00     0.043 C 
ATOM      2  C   UNL d   1      -1.136  -2.880  -0.806  0.00  0.00     0.049 C 
ATOM      3  C   UNL d   1      -0.088  -3.925   1.121  0.00  0.00     0.018 C 
ATOM      4  C   UNL d   1      -1.687  -4.185  -1.048  0.00  0.00     0.030 C 
ATOM      5  C   UNL d   1      -0.700  -5.149   0.887  0.00  0.00     0.001 C 
ATOM      6  C   UNL d   1      -1.471  -5.296  -0.237  0.00  0.00     0.002 C 
ENDROOT
BRANCH   1   7
ATOM      7  C   UNL d   1       0.774  -1.717   0.735  0.00  0.00     0.177 A 
ATOM      8  O   UNL d   1       1.911  -2.238   1.405  0.00  0.00    -0.273 OA
ATOM      9  C   UNL d   1       2.478  -1.145   2.016  0.00  0.00     0.174 A 
ATOM     10  N   UNL d   1       1.833  -0.042   1.690  0.00  0.00    -0.277 N 
ATOM     11  N   UNL d   1       0.745  -0.409   0.876  0.00  0.00    -0.277 N 
ATOM     12  HN  UNL d   1       2.078   0.906   1.976  1.00  0.00     0.189 HD
ATOM     13  HN  UNL d   1       0.057   0.225   0.469  1.00  0.00     0.189 HD
BRANCH   9  14
ATOM     14  C   UNL d   1       3.616  -1.353   2.962  0.00  0.00     0.017 A 
ATOM     15  C   UNL d   1       4.196  -2.613   3.229  0.00  0.00     0.017 A 
ATOM     16  C   UNL d   1       5.270  -2.765   4.138  0.00  0.00     0.025 A 
ATOM     17  C   UNL d   1       5.788  -1.657   4.800  0.00  0.00     0.034 A 
ATOM     18  C   UNL d   1       5.234  -0.404   4.574  0.00  0.00     0.025 A 
ATOM     19 CL   UNL d   1       7.109  -1.835   5.894  0.00  0.00    -0.084 Cl
ATOM     20  C   UNL d   1       4.161  -0.259   3.668  0.00  0.00     0.017 A 
ENDBRANCH   9  14
ENDBRANCH   1   7
BRANCH   2  21
ATOM     21  N   UNL d   1      -1.777  -1.968  -1.728  0.00  0.00    -0.322 N 
ATOM     22  C   UNL d   1      -1.838  -0.599  -1.804  0.00  0.00     0.256 C 
ATOM     23  O   UNL d   1      -1.095   0.159  -1.213  0.00  0.00    -0.267 OA
ATOM     24  H   UNL d   1      -2.460  -2.420  -2.318  0.00  0.00     0.169 HD
BRANCH  22  25
ATOM     25  C   UNL d   1      -2.988  -0.006  -2.662  0.00  0.00     0.032 A 
ATOM     26  C   UNL d   1      -3.319   1.336  -2.407  0.00  0.00     0.018 A 
ATOM     27  C   UNL d   1      -4.379   1.991  -3.057  0.00  0.00     0.025 A 
ATOM     28  C   UNL d   1      -5.140   1.307  -3.997  0.00  0.00     0.034 A 
ATOM     29  C   UNL d   1      -4.832  -0.015  -4.296  0.00  0.00     0.025 A 
ATOM     30 CL   UNL d   1      -6.457   2.103  -4.774  0.00  0.00    -0.084 Cl
ATOM     31  C   UNL d   1      -3.765  -0.671  -3.635  0.00  0.00     0.018 A 
ENDBRANCH  22  25
ENDBRANCH   2  21
TORSDOF 4
