REMARK  4 active torsions:
REMARK  status: ('A' for Active; 'I' for Inactive)
REMARK    1  A    between atoms: N_4  and  S_1 
REMARK       I    between atoms: C_2  and  N_6 
REMARK    2  A    between atoms: C_3  and  C_2 
REMARK    3  A    between atoms: C_5  and  N_4 
REMARK    4  A    between atoms: N_6  and  C_10 
ROOT
ATOM      1  C   UNL d   1       1.062  -2.650  -1.207  0.00  0.00     0.030 A 
ATOM      2  C   UNL d   1      -0.102  -3.194  -1.771  0.00  0.00     0.054 A 
ATOM      3  C   UNL d   1      -0.070  -3.815  -3.023  0.00  0.00     0.036 A 
ATOM      4  C   UNL d   1       2.293  -2.763  -1.863  0.00  0.00    -0.040 A 
ATOM      5  C   UNL d   1       2.318  -3.369  -3.127  0.00  0.00     0.011 A 
ATOM      6  C   UNL d   1       1.149  -3.879  -3.702  0.00  0.00     0.030 A 
ATOM      7  C   UNL d   1       3.587  -2.290  -1.268  0.00  0.00     0.050 C 
ENDROOT
BRANCH   3   8
ATOM      8  N   UNL d   1      -1.210  -4.352  -3.671  0.00  0.00    -0.323 N 
ATOM      9  C   UNL d   1      -2.499  -4.418  -3.165  0.00  0.00     0.261 C 
ATOM     10  O   UNL d   1      -2.828  -4.096  -2.030  0.00  0.00    -0.267 OA
ATOM     11  H   UNL d   1      -1.067  -4.665  -4.625  0.00  0.00     0.169 HD
BRANCH   9  12
ATOM     12  C   UNL d   1      -3.564  -4.883  -4.100  0.00  0.00     0.092 A 
ATOM     13  C   UNL d   1      -4.706  -5.561  -3.643  0.00  0.00     0.052 A 
ATOM     14 CL   UNL d   1      -4.870  -6.194  -2.040  0.00  0.00    -0.083 Cl
ATOM     15  C   UNL d   1      -5.775  -5.817  -4.516  0.00  0.00     0.025 A 
ATOM     16  C   UNL d   1      -5.713  -5.421  -5.850  0.00  0.00     0.005 A 
ATOM     17  C   UNL d   1      -4.563  -4.800  -6.326  0.00  0.00     0.043 A 
ATOM     18  C   UNL d   1      -3.503  -4.539  -5.455  0.00  0.00     0.133 A 
ATOM     19  F   UNL d   1      -2.417  -3.938  -5.965  0.00  0.00    -0.205 F 
ENDBRANCH   9  12
ENDBRANCH   3   8
BRANCH   1  20
ATOM     20  N   UNL d   1       0.950  -1.905   0.013  0.00  0.00    -0.185 NA
ATOM     21  H   UNL d   1       0.350  -2.351   0.713  0.00  0.00     0.146 HD
BRANCH  20  22
ATOM     22  S   UNL d   1       0.447  -0.286  -0.128  0.00  0.00     0.210 S 
ATOM     23  O   UNL d   1      -0.297  -0.015   1.086  0.00  0.00    -0.211 OA
ATOM     24  O   UNL d   1      -0.120  -0.032  -1.432  0.00  0.00    -0.211 OA
ATOM     25  C   UNL d   1       1.990   0.589   0.000  0.00  0.00     0.180 C 
ENDBRANCH  20  22
ENDBRANCH   1  20
TORSDOF 4
