REMARK  4 active torsions:
REMARK  status: ('A' for Active; 'I' for Inactive)
REMARK    1  A    between atoms: S_4  and  C_1 
REMARK    2  A    between atoms: C_7  and  C_2 
REMARK       I    between atoms: N_8  and  C_7 
REMARK    3  A    between atoms: C_16  and  N_8 
REMARK    4  A    between atoms: C_15  and  C_16 
ROOT
ATOM      1  C   UNL d   1       0.002   2.474  -0.083  0.00  0.00     0.260 C 
ATOM      2  N   UNL d   1       1.118   3.286  -0.131  0.00  0.00    -0.352 N 
ATOM      3  O   UNL d   1      -1.120   2.971  -0.020  0.00  0.00    -0.267 OA
ATOM      4  H   UNL d   1       2.030   2.858  -0.219  0.00  0.00     0.163 HD
ENDROOT
BRANCH   1   5
ATOM      5  C   UNL d   1       0.244   1.031  -0.098  0.00  0.00     0.095 A 
ATOM      6  C   UNL d   1      -0.688  -0.002  -0.067  0.00  0.00     0.078 A 
ATOM      7  C   UNL d   1      -0.066  -1.292  -0.054  0.00  0.00     0.088 A 
ATOM      8 CL   UNL d   1      -2.391   0.226  -0.032  0.00  0.00    -0.081 Cl
ATOM      9  C   UNL d   1       1.310  -1.203  -0.069  0.00  0.00     0.075 A 
ATOM     10  S   UNL d   1       1.849   0.411  -0.124  0.00  0.00    -0.093 SA
BRANCH   7  11
ATOM     11  S   UNL d   1      -0.892  -2.817   0.036  0.00  0.00     0.174 S 
ATOM     12  O   UNL d   1       0.168  -3.804  -0.040  0.00  0.00    -0.223 OA
ATOM     13  O   UNL d   1      -1.744  -2.705   1.198  0.00  0.00    -0.223 OA
ATOM     14  C   UNL d   1      -1.871  -2.946  -1.435  0.00  0.00     0.167 C 
ENDBRANCH   7  11
ENDBRANCH   1   5
BRANCH   2  15
ATOM     15  C   UNL d   1       1.027   4.726  -0.042  0.00  0.00     0.162 C 
BRANCH  15  16
ATOM     16  C   UNL d   1       0.938   5.383  -1.388  0.00  0.00    -0.025 A 
ATOM     17  C   UNL d   1      -0.297   5.613  -1.989  0.00  0.00     0.096 A 
ATOM     18  N   UNL d   1      -0.459   6.226  -3.184  0.00  0.00    -0.375 N 
ATOM     19  C   UNL d   1       0.662   6.624  -3.820  0.00  0.00     0.087 A 
ATOM     20  HN  UNL d   1      -1.384   6.380  -3.585  1.00  0.00     0.164 HD
ATOM     21  C   UNL d   1       1.938   6.429  -3.320  0.00  0.00     0.018 A 
ATOM     22  C   UNL d   1       2.076   5.796  -2.087  0.00  0.00     0.011 A 
ENDBRANCH  15  16
ENDBRANCH   2  15
TORSDOF 4
