REMARK  3 active torsions:
REMARK  status: ('A' for Active; 'I' for Inactive)
REMARK       I    between atoms: C_6  and  N_1 
REMARK    1  A    between atoms: C_8  and  N_3 
REMARK    2  A    between atoms: C_10  and  C_6 
REMARK    3  A    between atoms: O_21  and  C_13 
ROOT
ATOM      1  N   UNL d   1       0.638   1.315  -0.293  0.00  0.00    -0.222 N 
ATOM      2  C   UNL d   1       1.418   0.181  -0.015  0.00  0.00     0.191 C 
ATOM      3  N   UNL d   1       0.746  -1.058  -0.172  0.00  0.00    -0.320 N 
ATOM      4  C   UNL d   1      -0.679   1.246   0.103  0.00  0.00     0.242 C 
ATOM      5  C   UNL d   1      -1.452   0.059  -0.444  0.00  0.00     0.051 C 
ATOM      6  C   UNL d   1       1.142   2.313  -1.157  0.00  0.00     0.267 C 
ATOM      7  C   UNL d   1      -0.686  -1.143   0.096  0.00  0.00     0.150 C 
ATOM      8  S   UNL d   1       3.023   0.237   0.538  0.00  0.00    -0.040 SA
ATOM      9  O   UNL d   1      -1.125   1.925   1.020  0.00  0.00    -0.272 OA
ATOM     10  O   UNL d   1       2.279   2.267  -1.635  0.00  0.00    -0.267 OA
ATOM     11  C   UNL d   1      -1.515   0.092  -1.973  0.00  0.00     0.027 C 
ATOM     12  C   UNL d   1      -2.881   0.034   0.121  0.00  0.00     0.027 C 
ENDROOT
BRANCH   6  13
ATOM     13  C   UNL d   1       0.270   3.391  -1.746  0.00  0.00     0.033 A 
ATOM     14  C   UNL d   1      -0.821   3.995  -1.120  0.00  0.00     0.017 A 
ATOM     15  C   UNL d   1      -1.605   4.939  -1.800  0.00  0.00     0.007 A 
ATOM     16  C   UNL d   1      -1.274   5.351  -3.095  0.00  0.00    -0.062 A 
ATOM     17  C   UNL d   1      -0.146   4.802  -3.704  0.00  0.00     0.007 A 
ATOM     18  C   UNL d   1      -2.123   6.366  -3.798  0.00  0.00     0.048 C 
ATOM     19  C   UNL d   1       0.610   3.831  -3.038  0.00  0.00     0.017 A 
ENDBRANCH   6  13
BRANCH   3  20
ATOM     20  C   UNL d   1       1.330  -2.101  -0.973  0.00  0.00     0.070 A 
ATOM     21  C   UNL d   1       1.170  -3.480  -0.733  0.00  0.00     0.095 A 
ATOM     22  C   UNL d   1       1.737  -4.405  -1.627  0.00  0.00     0.039 A 
ATOM     23  C   UNL d   1       2.418  -3.990  -2.771  0.00  0.00     0.003 A 
ATOM     24  C   UNL d   1       2.540  -2.635  -3.041  0.00  0.00     0.002 A 
ATOM     25  C   UNL d   1       2.019  -1.705  -2.142  0.00  0.00     0.033 A 
BRANCH  21  26
ATOM     26  O   UNL d   1       0.414  -4.070   0.246  0.00  0.00    -0.354 OA
ATOM     27  C   UNL d   1       0.653  -3.666   1.587  0.00  0.00     0.210 C 
ENDBRANCH  21  26
ENDBRANCH   3  20
TORSDOF 3
