REMARK  1 active torsions:
REMARK  status: ('A' for Active; 'I' for Inactive)
REMARK    1  A    between atoms: C_8  and  C_6 
ROOT
ATOM      1  C   UNL d   1      -1.790  -0.029  -0.038  0.00  0.00     0.057 A 
ATOM      2  S   UNL d   1      -0.961   1.510  -0.058  0.00  0.00    -0.086 SA
ATOM      3  C   UNL d   1      -0.824  -1.169  -0.105  0.00  0.00     0.200 A 
ATOM      4  C   UNL d   1       0.553  -0.669  -0.071  0.00  0.00     0.032 A 
ATOM      5  C   UNL d   1       0.622   0.720  -0.043  0.00  0.00     0.020 A 
ATOM      6  C   UNL d   1      -3.124  -0.115   0.055  0.00  0.00     0.034 C 
ATOM      7  O   UNL d   1      -1.085  -2.358  -0.178  0.00  0.00    -0.286 OA
ATOM      8  C   UNL d   1       1.691  -1.466  -0.052  0.00  0.00     0.017 A 
ATOM      9  C   UNL d   1       1.857   1.349   0.003  0.00  0.00     0.020 A 
ATOM     10  C   UNL d   1       2.933  -0.837  -0.001  0.00  0.00     0.001 A 
ATOM     11  C   UNL d   1       3.017   0.564   0.026  0.00  0.00     0.001 A 
ENDROOT
BRANCH   6  12
ATOM     12  C   UNL d   1      -3.891  -1.359   0.132  0.00  0.00    -0.035 A 
ATOM     13  C   UNL d   1      -4.117  -1.971   1.369  0.00  0.00     0.012 A 
ATOM     14  C   UNL d   1      -4.893  -3.129   1.448  0.00  0.00     0.007 A 
ATOM     15  C   UNL d   1      -5.454  -3.689   0.294  0.00  0.00    -0.062 A 
ATOM     16  C   UNL d   1      -5.200  -3.090  -0.946  0.00  0.00     0.007 A 
ATOM     17  C   UNL d   1      -6.320  -4.908   0.399  0.00  0.00     0.048 C 
ATOM     18  C   UNL d   1      -4.423  -1.930  -1.026  0.00  0.00     0.012 A 
ENDBRANCH   6  12
TORSDOF 1
