REMARK  7 active torsions:
REMARK  status: ('A' for Active; 'I' for Inactive)
REMARK    1  A    between atoms: C_10  and  C_1 
REMARK    2  A    between atoms: N_11  and  C_2 
REMARK    3  A    between atoms: C_12  and  C_6 
REMARK    4  A    between atoms: N_7  and  N_11 
REMARK    5  A    between atoms: O_20  and  C_10 
REMARK    6  A    between atoms: C_15  and  C_12 
REMARK    7  A    between atoms: C_26  and  O_20 
ROOT
ATOM      1  C   UNL d   1       1.717   4.775   0.575  0.00  0.00     0.179 C 
ATOM      2  N   UNL d   1       1.017   3.760   0.151  0.00  0.00    -0.286 N 
ATOM      3  HN  UNL d   1       1.501   2.941  -0.217  1.00  0.00     0.188 HD
ATOM      4  C   UNL d   1       1.045   5.918   1.140  0.00  0.00     0.123 C 
ATOM      5  N   UNL d   1       0.484   6.848   1.550  0.00  0.00    -0.190 NA
ENDROOT
BRANCH   1   6
ATOM      6  C   UNL d   1       3.212   4.689   0.467  0.00  0.00     0.220 C 
ATOM      7  O   UNL d   1       3.890   5.056   1.417  0.00  0.00    -0.284 OA
BRANCH   6   8
ATOM      8  C   UNL d   1       3.829   4.124  -0.761  0.00  0.00     0.017 A 
ATOM      9  C   UNL d   1       3.187   4.191  -2.005  0.00  0.00     0.017 A 
ATOM     10  C   UNL d   1       3.785   3.619  -3.132  0.00  0.00     0.025 A 
ATOM     11  C   UNL d   1       5.021   2.985  -3.018  0.00  0.00     0.034 A 
ATOM     12  C   UNL d   1       5.671   2.925  -1.786  0.00  0.00     0.025 A 
ATOM     13 CL   UNL d   1       5.744   2.272  -4.405  0.00  0.00    -0.084 Cl
ATOM     14  C   UNL d   1       5.080   3.500  -0.658  0.00  0.00     0.017 A 
ENDBRANCH   6   8
ENDBRANCH   1   6
BRANCH   2  15
ATOM     15  N   UNL d   1      -0.349   3.768   0.188  0.00  0.00    -0.291 N 
ATOM     16  H   UNL d   1      -0.829   4.553  -0.272  0.00  0.00     0.187 HD
BRANCH  15  17
ATOM     17  C   UNL d   1      -1.016   2.572   0.170  0.00  0.00     0.123 A 
ATOM     18  C   UNL d   1      -2.239   2.239  -0.407  0.00  0.00     0.098 A 
ATOM     19  C   UNL d   1      -2.531   0.839  -0.166  0.00  0.00     0.031 A 
ATOM     20  N   UNL d   1      -1.627   0.155   0.531  0.00  0.00    -0.328 N 
ATOM     21  C   UNL d   1      -3.729   0.090  -0.648  0.00  0.00     0.070 C 
ATOM     22  S   UNL d   1      -0.381   1.153   0.921  0.00  0.00     0.006 SA
ATOM     23  HN  UNL d   1      -1.696  -0.831   0.784  1.00  0.00     0.174 HD
BRANCH  18  24
ATOM     24  C   UNL d   1      -3.079   3.120  -1.207  0.00  0.00     0.298 C 
ATOM     25  O   UNL d   1      -4.149   2.766  -1.688  0.00  0.00    -0.259 OA
BRANCH  24  26
ATOM     26  O   UNL d   1      -2.513   4.345  -1.441  0.00  0.00    -0.318 OA
BRANCH  26  27
ATOM     27  C   UNL d   1      -3.117   5.098  -2.506  0.00  0.00     0.174 C 
ATOM     28  C   UNL d   1      -2.411   4.740  -3.802  0.00  0.00     0.034 C 
ENDBRANCH  26  27
ENDBRANCH  24  26
ENDBRANCH  18  24
ENDBRANCH  15  17
ENDBRANCH   2  15
TORSDOF 7
