REMARK  8 active torsions:
REMARK  status: ('A' for Active; 'I' for Inactive)
REMARK    1  A    between atoms: C_3  and  C_1 
REMARK    2  A    between atoms: C_6  and  C_1 
REMARK    3  A    between atoms: C_8  and  C_1 
REMARK    4  A    between atoms: O_23  and  C_1 
REMARK       I    between atoms: C_2  and  N_4 
REMARK    5  A    between atoms: C_5  and  C_2 
REMARK    6  A    between atoms: N_4  and  C_10 
REMARK    7  A    between atoms: O_25  and  C_6 
REMARK    8  A    between atoms: C_28  and  O_25 
ROOT
ATOM      1  C   UNL d   1       0.658  -1.082   0.909  0.00  0.00    -0.005 A 
ATOM      2  C   UNL d   1       0.070  -3.085   2.890  0.00  0.00     0.037 A 
ATOM      3  C   UNL d   1       0.790  -2.448   0.626  0.00  0.00     0.013 A 
ATOM      4  C   UNL d   1       0.233  -0.740   2.200  0.00  0.00     0.013 A 
ATOM      5  C   UNL d   1       0.510  -3.424   1.598  0.00  0.00     0.030 A 
ATOM      6  C   UNL d   1      -0.059  -1.720   3.162  0.00  0.00     0.030 A 
ENDROOT
BRANCH   1   7
ATOM      7  C   UNL d   1       0.997  -0.007  -0.133  0.00  0.00     0.271 C 
BRANCH   7   8
ATOM      8  C   UNL d   1       0.272  -0.176  -1.484  0.00  0.00     0.432 C 
ATOM      9  F   UNL d   1       1.028  -0.767  -2.437  0.00  0.00    -0.167 F 
ATOM     10  F   UNL d   1      -0.871  -0.894  -1.387  0.00  0.00    -0.167 F 
ATOM     11  F   UNL d   1      -0.081   1.042  -1.979  0.00  0.00    -0.167 F 
ENDBRANCH   7   8
BRANCH   7  12
ATOM     12  C   UNL d   1       2.501  -0.041  -0.470  0.00  0.00     0.308 C 
ATOM     13  O   UNL d   1       3.192  -1.049  -0.549  0.00  0.00    -0.261 OA
BRANCH  12  14
ATOM     14  O   UNL d   1       2.978   1.231  -0.647  0.00  0.00    -0.319 OA
BRANCH  14  15
ATOM     15  C   UNL d   1       4.412   1.342  -0.657  0.00  0.00     0.174 C 
ATOM     16  C   UNL d   1       4.905   1.463   0.774  0.00  0.00     0.034 C 
ENDBRANCH  14  15
ENDBRANCH  12  14
ENDBRANCH   7  12
BRANCH   7  17
ATOM     17  O   UNL d   1       0.676   1.290   0.452  0.00  0.00    -0.368 OA
ATOM     18  H   UNL d   1       0.943   1.961  -0.207  0.00  0.00     0.212 HD
ENDBRANCH   7  17
ENDBRANCH   1   7
BRANCH   2  19
ATOM     19  N   UNL d   1      -0.259  -4.110   3.863  0.00  0.00    -0.318 N 
ATOM     20  C   UNL d   1      -0.361  -3.821   5.242  0.00  0.00     0.258 C 
ATOM     21  O   UNL d   1      -0.173  -2.728   5.775  0.00  0.00    -0.267 OA
ATOM     22  C   UNL d   1      -0.500  -5.456   3.333  0.00  0.00     0.159 C 
BRANCH  20  23
ATOM     23  C   UNL d   1      -0.725  -4.888   6.211  0.00  0.00     0.034 A 
ATOM     24  C   UNL d   1       0.011  -6.074   6.318  0.00  0.00     0.042 A 
ATOM     25  C   UNL d   1      -0.350  -7.031   7.275  0.00  0.00     0.056 A 
ATOM     26 CL   UNL d   1       0.555  -8.504   7.309  0.00  0.00    -0.083 Cl
ATOM     27  C   UNL d   1      -1.410  -6.782   8.156  0.00  0.00     0.055 A 
ATOM     28  C   UNL d   1      -2.109  -5.574   8.080  0.00  0.00     0.026 A 
ATOM     29 CL   UNL d   1      -1.892  -7.915   9.372  0.00  0.00    -0.083 Cl
ATOM     30  C   UNL d   1      -1.768  -4.634   7.114  0.00  0.00     0.019 A 
ENDBRANCH  20  23
ENDBRANCH   2  19
TORSDOF 8
