REMARK  1 active torsions:
REMARK  status: ('A' for Active; 'I' for Inactive)
REMARK    1  A    between atoms: N_2  and  C_1 
ROOT
ATOM      1  C   UNL d   1       0.116   1.216  -0.043  0.00  0.00     0.144 A 
ATOM      2  S   UNL d   1      -1.045  -0.022  -0.080  0.00  0.00    -0.064 SA
ATOM      3  C   UNL d   1       0.160  -1.245  -0.012  0.00  0.00     0.035 A 
ATOM      4  C   UNL d   1      -0.164  -2.643   0.004  0.00  0.00     0.066 A 
ATOM      5  C   UNL d   1       1.405   0.737   0.004  0.00  0.00     0.045 A 
ATOM      6  C   UNL d   1       1.427  -0.690   0.022  0.00  0.00     0.024 A 
ATOM      7  N   UNL d   1      -1.440  -3.147  -0.012  0.00  0.00    -0.300 N 
ATOM      8  N   UNL d   1      -1.495  -4.491   0.001  0.00  0.00    -0.311 N 
ATOM      9  HN  UNL d   1      -2.322  -5.088  -0.010  1.00  0.00     0.186 HD
ATOM     10  C   UNL d   1       0.657  -3.752   0.040  0.00  0.00     0.051 A 
ATOM     11  C   UNL d   1      -0.213  -4.857   0.032  0.00  0.00     0.109 A 
ATOM     12  H   UNL d   1      -2.312  -2.628  -0.032  0.00  0.00     0.187 HD
ENDROOT
BRANCH   1  13
ATOM     13  N   UNL d   1      -0.283   2.599  -0.057  0.00  0.00    -0.108 N 
ATOM     14  O   UNL d   1       0.631   3.434  -0.017  0.00  0.00    -0.531 OA
ATOM     15  O   UNL d   1      -1.492   2.862  -0.105  0.00  0.00    -0.531 OA
ENDBRANCH   1  13
TORSDOF 1
