REMARK  4 active torsions:
REMARK  status: ('A' for Active; 'I' for Inactive)
REMARK    1  A    between atoms: S_2  and  N_1 
REMARK    2  A    between atoms: C_6  and  S_2 
REMARK    3  A    between atoms: S_15  and  C_5 
REMARK    4  A    between atoms: C_14  and  C_8 
ROOT
ATOM      1  N   UNL d   1       0.938  -0.699  -0.037  0.00  0.00    -0.170 N 
ATOM      2  N   UNL d   1       0.944   0.666   0.006  0.00  0.00    -0.287 N 
ATOM      3  HN  UNL d   1       1.756   1.282   0.049  1.00  0.00     0.188 HD
ATOM      4  C   UNL d   1      -0.343  -1.212  -0.050  0.00  0.00     0.106 A 
ATOM      5  C   UNL d   1      -1.186  -0.123  -0.044  0.00  0.00     0.067 A 
ATOM      6  C   UNL d   1      -0.345   1.020  -0.022  0.00  0.00     0.037 A 
ENDROOT
BRANCH   1   7
ATOM      7  S   UNL d   1       2.377  -1.652   0.021  0.00  0.00     0.286 S 
ATOM      8  O   UNL d   1       2.344  -2.322   1.312  0.00  0.00    -0.198 OA
ATOM      9  O   UNL d   1       2.443  -2.386  -1.229  0.00  0.00    -0.198 OA
BRANCH   7  10
ATOM     10  C   UNL d   1       3.695  -0.482   0.057  0.00  0.00     0.120 A 
ATOM     11  C   UNL d   1       3.873   0.378  -1.024  0.00  0.00     0.142 A 
ATOM     12  C   UNL d   1       4.874   1.343  -0.997  0.00  0.00     0.086 A 
ATOM     13  F   UNL d   1       3.079   0.305  -2.101  0.00  0.00    -0.204 F 
ATOM     14  C   UNL d   1       5.700   1.430   0.117  0.00  0.00     0.119 A 
ATOM     15  C   UNL d   1       5.547   0.564   1.197  0.00  0.00     0.044 A 
ATOM     16  F   UNL d   1       6.659   2.364   0.155  0.00  0.00    -0.206 F 
ATOM     17  C   UNL d   1       4.541  -0.403   1.170  0.00  0.00     0.031 A 
ENDBRANCH   7  10
ENDBRANCH   1   7
BRANCH   4  18
ATOM     18  S   UNL d   1      -0.753  -2.898   0.024  0.00  0.00    -0.114 SA
ATOM     19  C   UNL d   1      -0.926  -3.309  -1.728  0.00  0.00     0.097 C 
ENDBRANCH   4  18
BRANCH   6  20
ATOM     20  C   UNL d   1      -0.747   2.489  -0.001  0.00  0.00    -0.007 C 
ATOM     21  C   UNL d   1       0.486   3.423  -0.049  0.00  0.00     0.021 C 
ATOM     22  C   UNL d   1      -1.633   2.814  -1.219  0.00  0.00     0.021 C 
ATOM     23  C   UNL d   1      -1.531   2.808   1.286  0.00  0.00     0.021 C 
ENDBRANCH   6  20
TORSDOF 4
