REMARK  3 active torsions:
REMARK  status: ('A' for Active; 'I' for Inactive)
REMARK    1  A    between atoms: C_2  and  C_1 
REMARK       I    between atoms: N_6  and  C_2 
REMARK    2  A    between atoms: C_21  and  N_10 
REMARK    3  A    between atoms: C_20  and  C_21 
ROOT
ATOM      1  C   UNL d   1      -0.484  -2.739  -0.064  0.00  0.00     0.264 C 
ATOM      2  N   UNL d   1       0.675  -3.505  -0.274  0.00  0.00    -0.344 N 
ATOM      3  N   UNL d   1       3.334  -4.714  -0.799  0.00  0.00     0.095 N 
ATOM      4  O   UNL d   1      -0.526  -1.929   0.870  0.00  0.00    -0.267 OA
ATOM      5  C   UNL d   1       1.738  -3.463   0.743  0.00  0.00     0.156 C 
ATOM      6  C   UNL d   1       0.849  -4.528  -1.314  0.00  0.00     0.156 C 
ATOM      7  C   UNL d   1       2.294  -4.632  -1.841  0.00  0.00     0.292 C 
ATOM      8  C   UNL d   1       3.146  -3.578   0.130  0.00  0.00     0.292 C 
ENDROOT
BRANCH   1   9
ATOM      9  C   UNL d   1      -1.598  -2.846  -0.980  0.00  0.00     0.114 C 
ATOM     10  C   UNL d   1      -2.386  -1.852  -1.550  0.00  0.00     0.046 C 
ATOM     11  N   UNL d   1      -3.357  -2.320  -2.434  0.00  0.00    -0.298 N 
ATOM     12  C   UNL d   1      -2.325  -0.384  -1.335  0.00  0.00     0.071 C 
ATOM     13  N   UNL d   1      -3.411  -3.639  -2.453  0.00  0.00    -0.269 N 
ATOM     14  HN  UNL d   1      -3.954  -1.716  -2.998  1.00  0.00     0.187 HD
ATOM     15  S   UNL d   1      -2.361  -4.337  -1.362  0.00  0.00     0.009 SA
ATOM     16  HN  UNL d   1      -4.027  -4.171  -3.068  1.00  0.00     0.195 HD
ENDBRANCH   1   9
BRANCH   3  17
ATOM     17  C   UNL d   1       3.298  -6.028  -0.138  0.00  0.00     0.311 C 
BRANCH  17  18
ATOM     18  C   UNL d   1       4.405  -6.244   0.870  0.00  0.00    -0.027 A 
ATOM     19  C   UNL d   1       4.085  -6.530   2.208  0.00  0.00     0.048 A 
ATOM     20  C   UNL d   1       5.120  -6.753   3.089  0.00  0.00     0.105 A 
ATOM     21  O   UNL d   1       4.985  -7.046   4.410  0.00  0.00    -0.323 OA
ATOM     22  C   UNL d   1       6.435  -6.703   2.693  0.00  0.00     0.105 A 
ATOM     23  C   UNL d   1       6.367  -7.178   4.800  0.00  0.00     0.352 A 
ATOM     24  O   UNL d   1       7.294  -6.961   3.715  0.00  0.00    -0.323 OA
ATOM     25  C   UNL d   1       6.790  -6.422   1.391  0.00  0.00     0.040 A 
ATOM     26  C   UNL d   1       5.762  -6.191   0.472  0.00  0.00     0.012 A 
ENDBRANCH  17  18
ENDBRANCH   3  17
TORSDOF 3
