REMARK  6 active torsions:
REMARK  status: ('A' for Active; 'I' for Inactive)
REMARK    1  A    between atoms: C_6  and  C_1 
REMARK    2  A    between atoms: S_17  and  C_3 
REMARK    3  A    between atoms: C_7  and  C_6 
REMARK    4  A    between atoms: C_8  and  C_13 
REMARK    5  A    between atoms: N_15  and  N_9 
REMARK    6  A    between atoms: C_23  and  N_15 
ROOT
ATOM      1  C   UNL d   1      -2.162  -3.469   0.040  0.00  0.00     0.180 C 
ATOM      2  N   UNL d   1      -2.954  -2.647  -0.597  0.00  0.00    -0.287 N 
ATOM      3  HN  UNL d   1      -2.557  -1.893  -1.158  1.00  0.00     0.188 HD
ATOM      4  C   UNL d   1      -2.750  -4.551   0.798  0.00  0.00     0.123 C 
ATOM      5  N   UNL d   1      -3.281  -5.387   1.403  0.00  0.00    -0.190 NA
ENDROOT
BRANCH   1   6
ATOM      6  C   UNL d   1      -0.668  -3.336  -0.069  0.00  0.00     0.228 C 
ATOM      7  O   UNL d   1      -0.045  -4.379  -0.257  0.00  0.00    -0.284 OA
BRANCH   6   8
ATOM      8  C   UNL d   1      -0.050  -2.019   0.031  0.00  0.00     0.066 A 
ATOM      9  S   UNL d   1      -0.837  -0.720   0.821  0.00  0.00    -0.078 SA
ATOM     10  C   UNL d   1       0.464   0.360   0.558  0.00  0.00     0.052 A 
ATOM     11  C   UNL d   1       1.495  -0.265  -0.111  0.00  0.00    -0.005 A 
ATOM     12  C   UNL d   1       1.219  -1.646  -0.401  0.00  0.00    -0.025 A 
ATOM     13  C   UNL d   1       2.745   0.320  -0.482  0.00  0.00     0.010 A 
ATOM     14  C   UNL d   1       2.234  -2.535  -1.075  0.00  0.00     0.045 A 
ATOM     15  C   UNL d   1       3.518  -1.818  -1.544  0.00  0.00     0.032 A 
ATOM     16  C   UNL d   1       3.680  -0.377  -1.145  0.00  0.00    -0.025 A 
BRANCH  10  17
ATOM     17  S   UNL d   1       0.385   2.001   1.195  0.00  0.00    -0.126 SA
ATOM     18  C   UNL d   1       0.299   2.970  -0.327  0.00  0.00     0.096 C 
ENDBRANCH  10  17
ENDBRANCH   6   8
ENDBRANCH   1   6
BRANCH   2  19
ATOM     19  N   UNL d   1      -4.309  -2.792  -0.518  0.00  0.00    -0.300 N 
ATOM     20  H   UNL d   1      -4.761  -3.337   0.220  0.00  0.00     0.187 HD
BRANCH  19  21
ATOM     21  C   UNL d   1      -5.139  -1.780  -1.049  0.00  0.00     0.049 A 
ATOM     22  C   UNL d   1      -4.637  -0.702  -1.790  0.00  0.00     0.047 A 
ATOM     23  C   UNL d   1      -5.495   0.253  -2.364  0.00  0.00     0.050 A 
ATOM     24  C   UNL d   1      -6.881   0.104  -2.209  0.00  0.00     0.016 A 
ATOM     25  C   UNL d   1      -7.396  -0.975  -1.496  0.00  0.00     0.003 A 
ATOM     26  C   UNL d   1      -6.530  -1.911  -0.927  0.00  0.00     0.031 A 
BRANCH  23  27
ATOM     27  C   UNL d   1      -4.948   1.419  -3.148  0.00  0.00     0.417 C 
ATOM     28  F   UNL d   1      -3.587   1.476  -3.177  0.00  0.00    -0.166 F 
ATOM     29  F   UNL d   1      -5.348   1.404  -4.450  0.00  0.00    -0.166 F 
ATOM     30  F   UNL d   1      -5.357   2.619  -2.649  0.00  0.00    -0.166 F 
ENDBRANCH  23  27
ENDBRANCH  19  21
ENDBRANCH   2  19
TORSDOF 6
