REMARK  5 active torsions:
REMARK  status: ('A' for Active; 'I' for Inactive)
REMARK       I    between atoms: C_3  and  N_1 
REMARK    1  A    between atoms: N_7  and  C_2 
REMARK    2  A    between atoms: O_15  and  C_3 
REMARK    3  A    between atoms: C_4  and  N_8 
REMARK    4  A    between atoms: N_8  and  N_7 
REMARK    5  A    between atoms: C_21  and  O_15 
ROOT
ATOM      1  N   UNL d   1       0.676   1.231  -0.006  0.00  0.00    -0.125 N 
ATOM      2  C   UNL d   1      -0.720   1.200  -0.135  0.00  0.00     0.699 C 
ATOM      3  C   UNL d   1       1.399   2.417  -0.139  0.00  0.00     0.381 C 
ATOM      4  N   UNL d   1      -1.405   0.100  -0.099  0.00  0.00    -0.224 N 
ATOM      5  HN  UNL d   1      -2.413   0.130  -0.258  1.00  0.00     0.177 HD
ATOM      6  O   UNL d   1       0.886   3.528  -0.268  0.00  0.00    -0.237 OA
ATOM      7  C   UNL d   1       1.387  -0.021   0.214  0.00  0.00     0.155 C 
ATOM      8  C   UNL d   1      -0.757  -1.175   0.165  0.00  0.00     0.139 C 
ATOM      9  C   UNL d   1       0.648  -1.198  -0.380  0.00  0.00     0.041 C 
ENDROOT
BRANCH   2  10
ATOM     10  N   UNL d   1      -1.380   2.397  -0.327  0.00  0.00    -0.131 N 
ATOM     11  H   UNL d   1      -0.809   3.239  -0.238  0.00  0.00     0.205 HD
BRANCH  10  12
ATOM     12  N   UNL d   1      -2.586   2.514  -0.961  0.00  0.00    -0.283 N 
ATOM     13  H   UNL d   1      -3.062   1.618  -1.123  0.00  0.00     0.187 HD
BRANCH  12  14
ATOM     14  C   UNL d   1      -2.841   3.479  -1.964  0.00  0.00     0.090 A 
ATOM     15  C   UNL d   1      -2.031   4.611  -2.139  0.00  0.00     0.076 A 
ATOM     16  C   UNL d   1      -2.371   5.588  -3.073  0.00  0.00     0.118 A 
ATOM     17  F   UNL d   1      -1.577   6.656  -3.224  0.00  0.00    -0.206 F 
ATOM     18  C   UNL d   1      -3.524   5.483  -3.841  0.00  0.00     0.045 A 
ATOM     19  C   UNL d   1      -4.353   4.376  -3.671  0.00  0.00     0.047 A 
ATOM     20  C   UNL d   1      -4.011   3.395  -2.736  0.00  0.00     0.144 A 
ATOM     21  F   UNL d   1      -4.831   2.342  -2.584  0.00  0.00    -0.204 F 
ENDBRANCH  12  14
ENDBRANCH  10  12
ENDBRANCH   2  10
BRANCH   3  22
ATOM     22  O   UNL d   1       2.748   2.227  -0.168  0.00  0.00    -0.304 OA
BRANCH  22  23
ATOM     23  C   UNL d   1       3.517   3.317  -0.700  0.00  0.00     0.176 C 
ATOM     24  C   UNL d   1       3.621   3.142  -2.205  0.00  0.00     0.034 C 
ENDBRANCH  22  23
ENDBRANCH   3  22
TORSDOF 5
