REMARK  0 active torsions:
REMARK  status: ('A' for Active; 'I' for Inactive)
ROOT
ATOM      1  C   UNL d   1      -1.196   0.888  -0.002  0.00  0.00     0.027 A 
ATOM      2  C   UNL d   1      -0.011   1.775  -0.001  0.00  0.00     0.194 A 
ATOM      3  C   UNL d   1      -0.732  -0.439  -0.001  0.00  0.00    -0.011 A 
ATOM      4  C   UNL d   1       1.176   0.888  -0.001  0.00  0.00     0.026 A 
ATOM      5  C   UNL d   1       0.714  -0.439  -0.001  0.00  0.00    -0.011 A 
ATOM      6  C   UNL d   1      -1.637  -1.486  -0.000  0.00  0.00     0.014 A 
ATOM      7  C   UNL d   1      -2.537   1.220  -0.002  0.00  0.00     0.035 A 
ATOM      8  O   UNL d   1      -0.014   2.988  -0.001  0.00  0.00    -0.287 OA
ATOM      9  C   UNL d   1      -3.442   0.160  -0.001  0.00  0.00     0.011 A 
ATOM     10  C   UNL d   1      -3.004  -1.179   0.000  0.00  0.00     0.020 A 
ATOM     11 BR   UNL d   1      -5.300   0.519  -0.002  0.00  0.00    -0.051 Br
ATOM     12  C   UNL d   1       2.518   1.217   0.001  0.00  0.00     0.016 A 
ATOM     13  C   UNL d   1       1.621  -1.484  -0.001  0.00  0.00     0.013 A 
ATOM     14  C   UNL d   1       3.431   0.160   0.001  0.00  0.00     0.001 A 
ATOM     15  C   UNL d   1       2.987  -1.176  -0.001  0.00  0.00     0.001 A 
ENDROOT
TORSDOF 0
