REMARK  4 active torsions:
REMARK  status: ('A' for Active; 'I' for Inactive)
REMARK    1  A    between atoms: C_4  and  C_1 
REMARK    2  A    between atoms: C_2  and  C_3 
REMARK       I    between atoms: N_6  and  C_4 
REMARK    3  A    between atoms: N_7  and  N_6 
REMARK    4  A    between atoms: C_10  and  N_7 
ROOT
ATOM      1  C   UNL d   1       2.319  -2.078  -0.888  0.00  0.00     0.273 C 
ATOM      2  N   UNL d   1       2.470  -3.304  -0.263  0.00  0.00    -0.265 N 
ATOM      3  O   UNL d   1       1.249  -1.650  -1.313  0.00  0.00    -0.266 OA
ATOM      4  H   UNL d   1       3.343  -3.605   0.169  0.00  0.00     0.190 HD
ENDROOT
BRANCH   2   5
ATOM      5  N   UNL d   1       1.339  -4.103  -0.049  0.00  0.00    -0.297 N 
ATOM      6  H   UNL d   1       0.791  -3.811   0.764  0.00  0.00     0.187 HD
BRANCH   5   7
ATOM      7  C   UNL d   1       1.536  -5.496  -0.206  0.00  0.00     0.063 A 
ATOM      8  C   UNL d   1       0.770  -6.442   0.507  0.00  0.00     0.075 A 
ATOM      9  C   UNL d   1       0.935  -7.821   0.242  0.00  0.00     0.018 A 
ATOM     10  C   UNL d   1       1.829  -8.268  -0.727  0.00  0.00     0.001 A 
ATOM     11  C   UNL d   1       2.571  -7.343  -1.447  0.00  0.00     0.002 A 
ATOM     12  C   UNL d   1       2.420  -5.977  -1.193  0.00  0.00     0.032 A 
BRANCH   8  13
ATOM     13  C   UNL d   1      -0.233  -6.069   1.568  0.00  0.00     0.419 C 
ATOM     14  F   UNL d   1      -0.318  -4.733   1.826  0.00  0.00    -0.166 F 
ATOM     15  F   UNL d   1      -1.498  -6.473   1.261  0.00  0.00    -0.166 F 
ATOM     16  F   UNL d   1       0.053  -6.650   2.770  0.00  0.00    -0.166 F 
ENDBRANCH   8  13
ENDBRANCH   5   7
ENDBRANCH   2   5
BRANCH   1  17
ATOM     17  C   UNL d   1       3.546  -1.235  -1.029  0.00  0.00     0.072 A 
ATOM     18  C   UNL d   1       4.802  -1.636  -0.561  0.00  0.00     0.135 A 
ATOM     19  C   UNL d   1       5.923  -0.820  -0.704  0.00  0.00     0.085 A 
ATOM     20  F   UNL d   1       4.966  -2.821   0.048  0.00  0.00    -0.205 F 
ATOM     21  C   UNL d   1       5.788   0.415  -1.323  0.00  0.00     0.119 A 
ATOM     22  C   UNL d   1       4.555   0.842  -1.802  0.00  0.00     0.043 A 
ATOM     23  F   UNL d   1       6.860   1.205  -1.460  0.00  0.00    -0.206 F 
ATOM     24  C   UNL d   1       3.434   0.018  -1.657  0.00  0.00     0.023 A 
ENDBRANCH   1  17
TORSDOF 4
