REMARK  4 active torsions:
REMARK  status: ('A' for Active; 'I' for Inactive)
REMARK    1  A    between atoms: C_3  and  C_1 
REMARK    2  A    between atoms: S_4  and  C_2 
REMARK    3  A    between atoms: O_10  and  C_3 
REMARK    4  A    between atoms: C_9  and  S_4 
ROOT
ATOM      1  C   UNL d   1       0.989   0.720  -0.303  0.00  0.00     0.038 C 
ATOM      2  C   UNL d   1       1.084  -0.618  -0.169  0.00  0.00     0.006 C 
ATOM      3  S   UNL d   1      -1.508  -0.088   0.119  0.00  0.00    -0.159 SA
ATOM      4  C   UNL d   1      -0.371   1.310  -0.079  0.00  0.00     0.120 C 
ATOM      5  C   UNL d   1      -0.194  -1.330   0.188  0.00  0.00     0.121 C 
ENDROOT
BRANCH   2   6
ATOM      6  S   UNL d   1       2.542  -1.552  -0.233  0.00  0.00    -0.093 SA
BRANCH   6   7
ATOM      7  C   UNL d   1       2.547  -2.068  -1.942  0.00  0.00     0.005 A 
ATOM      8  C   UNL d   1       3.326  -1.372  -2.874  0.00  0.00     0.020 A 
ATOM      9  C   UNL d   1       3.442  -1.837  -4.188  0.00  0.00     0.025 A 
ATOM     10  C   UNL d   1       2.781  -3.001  -4.572  0.00  0.00     0.034 A 
ATOM     11  C   UNL d   1       1.996  -3.697  -3.655  0.00  0.00     0.025 A 
ATOM     12 CL   UNL d   1       2.954  -3.593  -6.177  0.00  0.00    -0.084 Cl
ATOM     13  C   UNL d   1       1.883  -3.234  -2.340  0.00  0.00     0.020 A 
ENDBRANCH   6   7
ENDBRANCH   2   6
BRANCH   1  14
ATOM     14  C   UNL d   1       2.018   1.735  -0.633  0.00  0.00     0.173 C 
ATOM     15  O   UNL d   1       1.724   2.870  -0.975  0.00  0.00    -0.646 OA
BRANCH  14  16
ATOM     16  O   UNL d   1       3.292   1.339  -0.495  0.00  0.00    -0.773 OA
ATOM     17  H   UNL d   1       3.383   0.417  -0.177  0.00  0.00     0.167 HD
ENDBRANCH  14  16
ENDBRANCH   1  14
TORSDOF 4
