REMARK  3 active torsions:
REMARK  status: ('A' for Active; 'I' for Inactive)
REMARK    1  A    between atoms: C_6  and  C_1 
REMARK    2  A    between atoms: C_12  and  C_7 
REMARK    3  A    between atoms: O_13  and  C_12 
ROOT
ATOM      1  C   UNL d   1      -0.817   0.959   0.022  0.00  0.00     0.117 A 
ATOM      2  C   UNL d   1      -1.332  -0.322   0.019  0.00  0.00     0.070 A 
ATOM      3  N   UNL d   1       0.928  -0.479  -0.073  0.00  0.00    -0.263 N 
ATOM      4  HN  UNL d   1       1.878  -0.849  -0.109  1.00  0.00     0.194 HD
ATOM      5  O   UNL d   1       0.549   0.850  -0.042  0.00  0.00    -0.236 OA
ATOM      6  C   UNL d   1      -0.211  -1.178  -0.047  0.00  0.00     0.058 A 
ENDROOT
BRANCH   1   7
ATOM      7  C   UNL d   1      -1.486   2.230   0.088  0.00  0.00     0.040 A 
ATOM      8  S   UNL d   1      -3.192   2.368   0.208  0.00  0.00    -0.099 SA
ATOM      9  C   UNL d   1      -3.124   4.074   0.250  0.00  0.00     0.050 A 
ATOM     10  C   UNL d   1      -1.832   4.541   0.166  0.00  0.00     0.008 A 
ATOM     11  C   UNL d   1      -0.888   3.476   0.070  0.00  0.00     0.022 A 
ENDBRANCH   1   7
BRANCH   6  12
ATOM     12  C   UNL d   1      -0.188  -2.665  -0.048  0.00  0.00     0.223 C 
BRANCH  12  13
ATOM     13  O   UNL d   1      -0.096  -3.193   1.274  0.00  0.00    -0.395 OA
ATOM     14  H   UNL d   1       0.679  -2.761   1.678  0.00  0.00     0.209 HD
ENDBRANCH  12  13
ENDBRANCH   6  12
TORSDOF 3
