REMARK  4 active torsions:
REMARK  status: ('A' for Active; 'I' for Inactive)
REMARK    1  A    between atoms: C_7  and  N_1 
REMARK    2  A    between atoms: S_10  and  C_2 
REMARK    3  A    between atoms: C_8  and  C_13 
REMARK       I    between atoms: N_9  and  C_8 
REMARK    4  A    between atoms: C_13  and  S_10 
ROOT
ATOM      1  N   UNL d   1      -0.159  -1.329  -0.084  0.00  0.00    -0.218 N 
ATOM      2  C   UNL d   1       1.070  -0.698  -0.244  0.00  0.00     0.177 A 
ATOM      3  N   UNL d   1       0.900   0.604  -0.187  0.00  0.00    -0.264 N 
ATOM      4  HN  UNL d   1       1.622   1.321  -0.263  1.00  0.00     0.186 HD
ATOM      5  N   UNL d   1      -1.091  -0.346   0.035  0.00  0.00     0.001 NA
ATOM      6  N   UNL d   1      -0.439   0.804  -0.005  0.00  0.00    -0.006 NA
ENDROOT
BRANCH   2   7
ATOM      7  S   UNL d   1       2.568  -1.468  -0.673  0.00  0.00    -0.082 SA
BRANCH   7   8
ATOM      8  C   UNL d   1       3.695  -0.040  -0.625  0.00  0.00     0.185 C 
BRANCH   8   9
ATOM      9  C   UNL d   1       5.128  -0.499  -0.841  0.00  0.00     0.229 C 
ATOM     10  N   UNL d   1       5.657  -0.464  -2.125  0.00  0.00    -0.347 N 
ATOM     11  C   UNL d   1       7.059  -0.842  -2.328  0.00  0.00     0.152 C 
ATOM     12  C   UNL d   1       4.893  -0.416  -3.376  0.00  0.00     0.152 C 
ATOM     13  C   UNL d   1       7.133  -2.170  -3.083  0.00  0.00     0.187 C 
ATOM     14  O   UNL d   1       6.451  -2.061  -4.347  0.00  0.00    -0.388 OA
ATOM     15  C   UNL d   1       5.064  -1.732  -4.156  0.00  0.00     0.187 C 
ATOM     16  O   UNL d   1       5.803  -0.864   0.123  0.00  0.00    -0.273 OA
ENDBRANCH   8   9
ENDBRANCH   7   8
ENDBRANCH   2   7
BRANCH   1  17
ATOM     17  C   UNL d   1      -0.517  -2.695   0.092  0.00  0.00     0.062 A 
ATOM     18  C   UNL d   1      -1.766  -3.206  -0.329  0.00  0.00    -0.033 A 
ATOM     19  C   UNL d   1      -2.097  -4.538   0.004  0.00  0.00     0.015 A 
ATOM     20  C   UNL d   1      -2.776  -2.484  -1.185  0.00  0.00     0.050 C 
ATOM     21  C   UNL d   1      -1.224  -5.360   0.725  0.00  0.00    -0.061 A 
ATOM     22  C   UNL d   1       0.017  -4.851   1.104  0.00  0.00     0.009 A 
ATOM     23  C   UNL d   1      -1.639  -6.752   1.100  0.00  0.00     0.048 C 
ATOM     24  C   UNL d   1       0.368  -3.535   0.792  0.00  0.00     0.032 A 
ENDBRANCH   1  17
TORSDOF 4
