REMARK  6 active torsions:
REMARK  status: ('A' for Active; 'I' for Inactive)
REMARK    1  A    between atoms: S_3  and  C_1 
REMARK    2  A    between atoms: C_2  and  C_9 
REMARK       I    between atoms: N_5  and  C_2 
REMARK    3  A    between atoms: C_11  and  S_3 
REMARK    4  A    between atoms: N_13  and  N_5 
REMARK    5  A    between atoms: C_9  and  O_10 
REMARK    6  A    between atoms: O_10  and  C_12 
ROOT
ATOM      1  C   UNL d   1       0.886   2.361   1.722  0.00  0.00     0.009 A 
ATOM      2  C   UNL d   1       1.478   3.533   4.210  0.00  0.00     0.069 A 
ATOM      3  C   UNL d   1       0.865   3.751   1.879  0.00  0.00     0.021 A 
ATOM      4  C   UNL d   1       1.197   1.560   2.823  0.00  0.00     0.021 A 
ATOM      5  C   UNL d   1       1.487   2.145   4.059  0.00  0.00     0.038 A 
ATOM      6  C   UNL d   1       1.166   4.338   3.116  0.00  0.00     0.038 A 
ENDROOT
BRANCH   2   7
ATOM      7  O   UNL d   1       1.722   3.978   5.479  0.00  0.00    -0.342 OA
BRANCH   7   8
ATOM      8  C   UNL d   1       2.254   5.296   5.601  0.00  0.00     0.279 C 
BRANCH   8   9
ATOM      9  C   UNL d   1       2.553   5.621   7.064  0.00  0.00     0.255 C 
ATOM     10  O   UNL d   1       3.129   6.652   7.411  0.00  0.00    -0.270 OA
ATOM     11  N   UNL d   1       2.103   4.664   7.965  0.00  0.00    -0.292 N 
ATOM     12  H   UNL d   1       1.517   3.905   7.615  0.00  0.00     0.183 HD
BRANCH  11  13
ATOM     13  N   UNL d   1       2.217   4.887   9.352  0.00  0.00    -0.247 NA
ATOM     14  H   UNL d   1       2.519   5.864   9.477  0.00  0.00     0.143 HD
ATOM     15  H   UNL d   1       3.010   4.338   9.694  0.00  0.00     0.143 HD
ENDBRANCH  11  13
ENDBRANCH   8   9
ENDBRANCH   7   8
ENDBRANCH   2   7
BRANCH   1  16
ATOM     16  S   UNL d   1       0.387   1.658   0.165  0.00  0.00    -0.016 SA
BRANCH  16  17
ATOM     17  C   UNL d   1       1.894   0.834  -0.367  0.00  0.00     0.448 C 
ATOM     18  F   UNL d   1       2.906   0.909   0.527  0.00  0.00    -0.160 F 
ATOM     19  F   UNL d   1       2.346   1.368  -1.528  0.00  0.00    -0.160 F 
ATOM     20  F   UNL d   1       1.663  -0.482  -0.598  0.00  0.00    -0.160 F 
ENDBRANCH  16  17
ENDBRANCH   1  16
TORSDOF 6
