REMARK  4 active torsions:
REMARK  status: ('A' for Active; 'I' for Inactive)
REMARK    1  A    between atoms: C_2  and  N_1 
REMARK    2  A    between atoms: O_12  and  C_3 
REMARK    3  A    between atoms: S_9  and  C_8 
REMARK    4  A    between atoms: C_11  and  S_9 
ROOT
ATOM      1  C   UNL d   1       0.309   0.632  -1.150  0.00  0.00     0.136 A 
ATOM      2  C   UNL d   1       0.678   0.430  -2.486  0.00  0.00     0.100 A 
ATOM      3  C   UNL d   1      -0.025   1.079  -3.503  0.00  0.00     0.057 A 
ATOM      4  C   UNL d   1      -0.763   1.482  -0.839  0.00  0.00     0.040 A 
ATOM      5  C   UNL d   1      -1.101   1.922  -3.203  0.00  0.00     0.008 A 
ATOM      6  C   UNL d   1      -1.462   2.125  -1.867  0.00  0.00     0.021 A 
ENDROOT
BRANCH   5   7
ATOM      7  S   UNL d   1      -1.928   2.813  -4.505  0.00  0.00    -0.091 SA
BRANCH   7   8
ATOM      8  C   UNL d   1      -3.249   1.706  -4.962  0.00  0.00     0.005 A 
ATOM      9  C   UNL d   1      -4.567   2.180  -4.936  0.00  0.00     0.020 A 
ATOM     10  C   UNL d   1      -5.624   1.368  -5.357  0.00  0.00     0.025 A 
ATOM     11  C   UNL d   1      -5.365   0.077  -5.812  0.00  0.00     0.034 A 
ATOM     12  C   UNL d   1      -4.059  -0.407  -5.846  0.00  0.00     0.025 A 
ATOM     13 CL   UNL d   1      -6.662  -0.918  -6.347  0.00  0.00    -0.084 Cl
ATOM     14  C   UNL d   1      -3.003   0.408  -5.426  0.00  0.00     0.020 A 
ENDBRANCH   7   8
ENDBRANCH   5   7
BRANCH   2  15
ATOM     15  O   UNL d   1       1.707  -0.366  -2.911  0.00  0.00    -0.358 OA
ATOM     16  H   UNL d   1       2.170  -0.759  -2.141  0.00  0.00     0.217 HD
ENDBRANCH   2  15
BRANCH   1  17
ATOM     17  N   UNL d   1       1.035  -0.023  -0.058  0.00  0.00    -0.113 N 
ATOM     18  O   UNL d   1       1.988  -0.758  -0.365  0.00  0.00    -0.532 OA
ATOM     19  O   UNL d   1       0.661   0.193   1.103  0.00  0.00    -0.532 OA
ENDBRANCH   1  17
TORSDOF 4
