REMARK  2 active torsions:
REMARK  status: ('A' for Active; 'I' for Inactive)
REMARK    1  A    between atoms: C_10  and  C_3 
REMARK    2  A    between atoms: C_7  and  C_4 
ROOT
ATOM      1  N   UNL d   1       1.401  -0.597  -0.069  0.00  0.00    -0.349 N 
ATOM      2  HN  UNL d   1       2.284  -1.104  -0.135  1.00  0.00     0.166 HD
ATOM      3  C   UNL d   1       0.208  -1.165  -0.030  0.00  0.00     0.084 A 
ATOM      4  C   UNL d   1       1.286   0.784  -0.009  0.00  0.00     0.050 A 
ATOM      5  S   UNL d   1      -1.111  -0.053  -0.011  0.00  0.00    -0.081 SA
ATOM      6  C   UNL d   1      -0.012   1.254   0.007  0.00  0.00     0.082 A 
ENDROOT
BRANCH   4   7
ATOM      7  C   UNL d   1       2.461   1.647   0.002  0.00  0.00    -0.006 A 
ATOM      8  C   UNL d   1       3.639   1.221  -0.627  0.00  0.00     0.059 A 
ATOM      9  C   UNL d   1       4.760   2.048  -0.640  0.00  0.00     0.155 A 
ATOM     10  F   UNL d   1       5.874   1.636  -1.260  0.00  0.00    -0.203 F 
ATOM     11  C   UNL d   1       4.726   3.293  -0.022  0.00  0.00     0.154 A 
ATOM     12  C   UNL d   1       3.574   3.725   0.622  0.00  0.00     0.046 A 
ATOM     13  F   UNL d   1       5.805   4.087  -0.042  0.00  0.00    -0.203 F 
ATOM     14  C   UNL d   1       2.443   2.903   0.636  0.00  0.00     0.017 A 
ENDBRANCH   4   7
BRANCH   3  15
ATOM     15  C   UNL d   1      -0.028  -2.621  -0.053  0.00  0.00    -0.002 A 
ATOM     16  C   UNL d   1      -1.168  -3.211   0.522  0.00  0.00     0.016 A 
ATOM     17  C   UNL d   1      -1.366  -4.595   0.472  0.00  0.00     0.024 A 
ATOM     18  C   UNL d   1      -0.422  -5.408  -0.148  0.00  0.00     0.034 A 
ATOM     19  C   UNL d   1       0.723  -4.850  -0.709  0.00  0.00     0.024 A 
ATOM     20 CL   UNL d   1      -0.674  -7.108  -0.217  0.00  0.00    -0.084 Cl
ATOM     21  C   UNL d   1       0.921  -3.465  -0.656  0.00  0.00     0.016 A 
ENDBRANCH   3  15
TORSDOF 2
