REMARK  2 active torsions:
REMARK  status: ('A' for Active; 'I' for Inactive)
REMARK    1  A    between atoms: C_6  and  C_1 
REMARK    2  A    between atoms: N_3  and  C_2 
REMARK       I    between atoms: N_4  and  C_6 
REMARK       I    between atoms: C_5  and  N_4 
REMARK       I    between atoms: N_10  and  C_5 
ROOT
ATOM      1  N   UNL d   1       2.275  -2.692  -0.207  0.00  0.00    -0.275 N 
ATOM      2  C   UNL d   1       1.187  -3.470   0.116  0.00  0.00     0.325 C 
ATOM      3  C   UNL d   1       3.529  -2.801   0.365  0.00  0.00     0.260 C 
ATOM      4  N   UNL d   1      -0.020  -3.072  -0.493  0.00  0.00    -0.334 N 
ATOM      5  O   UNL d   1       1.242  -4.448   0.854  0.00  0.00    -0.247 OA
ATOM      6  O   UNL d   1       3.847  -3.578   1.254  0.00  0.00    -0.267 OA
ATOM      7  C   UNL d   1      -1.200  -3.843  -0.081  0.00  0.00     0.127 C 
ATOM      8  C   UNL d   1      -0.291  -1.691  -0.910  0.00  0.00     0.127 C 
ATOM      9  C   UNL d   1      -2.358  -3.745  -1.071  0.00  0.00     0.020 C 
ATOM     10  C   UNL d   1      -1.430  -1.598  -1.922  0.00  0.00     0.020 C 
ATOM     11  C   UNL d   1      -2.682  -2.296  -1.406  0.00  0.00     0.003 C 
ATOM     12  H   UNL d   1       2.208  -2.203  -1.076  0.00  0.00     0.173 HD
ENDROOT
BRANCH   3  13
ATOM     13  C   UNL d   1       4.538  -1.873  -0.182  0.00  0.00     0.042 A 
ATOM     14  C   UNL d   1       5.955  -1.991   0.078  0.00  0.00     0.061 A 
ATOM     15  C   UNL d   1       6.694  -1.010  -0.547  0.00  0.00     0.144 A 
ATOM     16  S   UNL d   1       5.723   0.083  -1.407  0.00  0.00    -0.077 SA
ATOM     17  C   UNL d   1       4.293  -0.753  -0.962  0.00  0.00     0.069 A 
BRANCH  15  18
ATOM     18  N   UNL d   1       8.126  -0.858  -0.521  0.00  0.00    -0.108 N 
ATOM     19  O   UNL d   1       8.752  -1.680   0.161  0.00  0.00    -0.531 OA
ATOM     20  O   UNL d   1       8.630   0.060  -1.179  0.00  0.00    -0.531 OA
ENDBRANCH  15  18
ENDBRANCH   3  13
TORSDOF 2
