REMARK  4 active torsions:
REMARK  status: ('A' for Active; 'I' for Inactive)
REMARK    1  A    between atoms: N_3  and  C_1 
REMARK    2  A    between atoms: S_2  and  O_5 
REMARK    3  A    between atoms: C_8  and  S_2 
REMARK    4  A    between atoms: O_5  and  C_4 
ROOT
ATOM      1  C   UNL d   1      -1.039   1.168  -0.117  0.00  0.00     0.209 A 
ATOM      2  C   UNL d   1      -1.837   0.012  -0.035  0.00  0.00     0.140 A 
ATOM      3  N   UNL d   1       0.336   1.111  -0.098  0.00  0.00    -0.339 N 
ATOM      4  HN  UNL d   1       0.888   1.966  -0.166  1.00  0.00     0.167 HD
ATOM      5  C   UNL d   1      -1.169  -1.212   0.101  0.00  0.00     0.044 A 
ATOM      6  C   UNL d   1       0.944  -0.087   0.011  0.00  0.00     0.007 A 
ATOM      7  C   UNL d   1       0.225  -1.264   0.123  0.00  0.00     0.027 A 
ATOM      8  C   UNL d   1       2.444  -0.114   0.000  0.00  0.00     0.068 C 
ENDROOT
BRANCH   2   9
ATOM      9  O   UNL d   1      -3.207   0.102  -0.103  0.00  0.00    -0.225 OA
BRANCH   9  10
ATOM     10  S   UNL d   1      -4.205  -1.184  -0.018  0.00  0.00     0.303 S 
ATOM     11  O   UNL d   1      -3.965  -2.017  -1.182  0.00  0.00    -0.193 OA
ATOM     12  O   UNL d   1      -4.138  -1.732   1.322  0.00  0.00    -0.193 OA
BRANCH  10  13
ATOM     13  C   UNL d   1      -5.845  -0.515  -0.200  0.00  0.00     0.086 A 
ATOM     14  C   UNL d   1      -6.840  -1.300  -0.797  0.00  0.00     0.027 A 
ATOM     15  C   UNL d   1      -8.125  -0.776  -0.963  0.00  0.00     0.025 A 
ATOM     16  C   UNL d   1      -8.404   0.523  -0.538  0.00  0.00     0.034 A 
ATOM     17  C   UNL d   1      -7.411   1.302   0.058  0.00  0.00     0.025 A 
ATOM     18 CL   UNL d   1      -9.983   1.171  -0.753  0.00  0.00    -0.084 Cl
ATOM     19  C   UNL d   1      -6.123   0.785   0.229  0.00  0.00     0.027 A 
ENDBRANCH  10  13
ENDBRANCH   9  10
ENDBRANCH   2   9
BRANCH   1  20
ATOM     20  N   UNL d   1      -1.690   2.509  -0.216  0.00  0.00    -0.095 N 
ATOM     21  O   UNL d   1      -2.929   2.592  -0.188  0.00  0.00    -0.530 OA
ATOM     22  O   UNL d   1      -0.942   3.496  -0.309  0.00  0.00    -0.530 OA
ENDBRANCH   1  20
TORSDOF 4
