REMARK  4 active torsions:
REMARK  status: ('A' for Active; 'I' for Inactive)
REMARK    1  A    between atoms: C_15  and  C_13 
REMARK    2  A    between atoms: C_16  and  C_15 
REMARK    3  A    between atoms: C_18  and  C_16 
REMARK    4  A    between atoms: C_17  and  C_18 
ROOT
ATOM      1  C   UNL d   1      -2.868  -0.902   0.003  0.00  0.00    -0.042 A 
ATOM      2  C   UNL d   1      -0.521  -0.751   0.006  0.00  0.00    -0.042 A 
ATOM      3  C   UNL d   1      -2.503   0.460  -0.005  0.00  0.00    -0.019 A 
ATOM      4  C   UNL d   1      -1.059   0.555   0.001  0.00  0.00    -0.019 A 
ATOM      5  C   UNL d   1      -1.633  -1.778   0.011  0.00  0.00     0.078 A 
ATOM      6  C   UNL d   1      -0.224   1.661   0.003  0.00  0.00     0.014 A 
ATOM      7  C   UNL d   1      -3.476   1.444  -0.017  0.00  0.00     0.013 A 
ATOM      8  C   UNL d   1       0.847  -0.972   0.007  0.00  0.00     0.027 A 
ATOM      9  C   UNL d   1      -4.195  -1.299   0.004  0.00  0.00     0.015 A 
ATOM     10  C   UNL d   1       1.684   0.145   0.008  0.00  0.00     0.011 A 
ATOM     11  C   UNL d   1       1.160   1.449   0.007  0.00  0.00     0.020 A 
ATOM     12  C   UNL d   1      -4.819   1.053  -0.013  0.00  0.00     0.008 A 
ATOM     13  C   UNL d   1      -5.190  -0.310   0.007  0.00  0.00    -0.058 A 
ATOM     14 BR   UNL d   1       3.560  -0.101   0.009  0.00  0.00    -0.051 Br
ENDROOT
BRANCH  13  15
ATOM     15  C   UNL d   1      -6.653  -0.688   0.029  0.00  0.00     0.038 C 
BRANCH  15  16
ATOM     16  C   UNL d   1      -7.071  -1.520   1.247  0.00  0.00     0.005 C 
BRANCH  16  17
ATOM     17  C   UNL d   1      -6.850  -0.798   2.580  0.00  0.00    -0.000 C 
BRANCH  17  18
ATOM     18  C   UNL d   1      -7.297  -1.674   3.750  0.00  0.00    -0.005 C 
ATOM     19  C   UNL d   1      -7.069  -0.986   5.085  0.00  0.00     0.005 C 
ENDBRANCH  17  18
ENDBRANCH  16  17
ENDBRANCH  15  16
ENDBRANCH  13  15
TORSDOF 4
