REMARK  7 active torsions:
REMARK  status: ('A' for Active; 'I' for Inactive)
REMARK    1  A    between atoms: C_3  and  C_1 
REMARK    2  A    between atoms: S_4  and  C_1 
REMARK    3  A    between atoms: S_2  and  C_9 
REMARK    4  A    between atoms: C_6  and  S_4 
REMARK    5  A    between atoms: S_16  and  C_5 
REMARK    6  A    between atoms: C_9  and  C_19 
REMARK    7  A    between atoms: C_19  and  S_16 
ROOT
ATOM      1  C   UNL d   1       0.398   1.110  -0.711  0.00  0.00     0.055 A 
ATOM      2  C   UNL d   1      -0.207   2.026   0.154  0.00  0.00     0.084 A 
ATOM      3  N   UNL d   1      -0.716   3.201  -0.307  0.00  0.00    -0.360 N 
ATOM      4  HN  UNL d   1      -1.151   3.862   0.337  1.00  0.00     0.166 HD
ATOM      5  C   UNL d   1       0.463   1.435  -2.078  0.00  0.00     0.020 A 
ATOM      6  C   UNL d   1      -0.641   3.482  -1.622  0.00  0.00     0.089 A 
ATOM      7  C   UNL d   1      -0.057   2.638  -2.540  0.00  0.00     0.018 A 
ENDROOT
BRANCH   1   8
ATOM      8  C   UNL d   1       0.896  -0.207  -0.260  0.00  0.00     0.226 C 
ATOM      9  O   UNL d   1       0.227  -0.946   0.448  0.00  0.00    -0.279 OA
BRANCH   8  10
ATOM     10  S   UNL d   1       2.501  -0.689  -0.823  0.00  0.00    -0.046 SA
BRANCH  10  11
ATOM     11  C   UNL d   1       2.093  -2.019  -1.960  0.00  0.00     0.030 A 
ATOM     12  C   UNL d   1       2.457  -1.996  -3.322  0.00  0.00     0.052 A 
ATOM     13  C   UNL d   1       2.131  -3.062  -4.172  0.00  0.00     0.049 A 
ATOM     14 CL   UNL d   1       3.312  -0.666  -4.031  0.00  0.00    -0.083 Cl
ATOM     15  C   UNL d   1       1.448  -4.162  -3.664  0.00  0.00     0.035 A 
ATOM     16  C   UNL d   1       1.092  -4.213  -2.320  0.00  0.00     0.025 A 
ATOM     17 CL   UNL d   1       1.044  -5.470  -4.706  0.00  0.00    -0.084 Cl
ATOM     18  C   UNL d   1       1.420  -3.150  -1.472  0.00  0.00     0.022 A 
ENDBRANCH  10  11
ENDBRANCH   8  10
ENDBRANCH   1   8
BRANCH   2  19
ATOM     19  S   UNL d   1      -0.331   1.821   1.935  0.00  0.00    -0.110 SA
BRANCH  19  20
ATOM     20  C   UNL d   1      -1.211   3.370   2.367  0.00  0.00     0.096 C 
BRANCH  20  21
ATOM     21  C   UNL d   1      -1.508   3.483   3.851  0.00  0.00     0.150 C 
BRANCH  21  22
ATOM     22  S   UNL d   1      -2.377   5.023   4.142  0.00  0.00     0.141 S 
ATOM     23  O   UNL d   1      -1.484   6.117   3.808  0.00  0.00    -0.228 OA
ATOM     24  O   UNL d   1      -3.690   4.924   3.538  0.00  0.00    -0.228 OA
ATOM     25  C   UNL d   1      -2.606   5.055   5.902  0.00  0.00     0.161 C 
ENDBRANCH  21  22
ENDBRANCH  20  21
ENDBRANCH  19  20
ENDBRANCH   2  19
TORSDOF 7
