REMARK  5 active torsions:
REMARK  status: ('A' for Active; 'I' for Inactive)
REMARK    1  A    between atoms: C_11  and  N_1 
REMARK    2  A    between atoms: C_7  and  C_2 
REMARK    3  A    between atoms: O_8  and  C_7 
REMARK    4  A    between atoms: C_9  and  O_8 
REMARK    5  A    between atoms: C_13  and  C_10 
ROOT
ATOM      1  C   UNL d   1       2.197   1.612  -0.048  0.00  0.00     0.194 C 
ATOM      2  C   UNL d   1       3.689   1.307   0.173  0.00  0.00     0.048 C 
ENDROOT
BRANCH   1   3
ATOM      3  C   UNL d   1       1.507   0.287  -0.405  0.00  0.00     0.135 A 
ATOM      4  N   UNL d   1       0.477   0.218  -1.293  0.00  0.00    -0.273 N 
ATOM      5  C   UNL d   1       0.272  -1.137  -1.501  0.00  0.00     0.199 A 
ATOM      6  N   UNL d   1       1.192  -1.783  -0.686  0.00  0.00    -0.274 N 
ATOM      7  S   UNL d   1      -0.820  -1.961  -2.442  0.00  0.00    -0.039 SA
ATOM      8  N   UNL d   1       1.950  -0.879  -0.005  0.00  0.00    -0.284 N 
ATOM      9  H   UNL d   1       1.297  -2.784  -0.566  0.00  0.00     0.189 HD
ATOM     10  HN  UNL d   1       2.695  -1.068   0.666  1.00  0.00     0.188 HD
BRANCH   4  11
ATOM     11  C   UNL d   1      -0.436   1.232  -1.629  0.00  0.00     0.043 A 
ATOM     12  C   UNL d   1      -0.762   1.490  -2.965  0.00  0.00     0.030 A 
ATOM     13  C   UNL d   1      -1.763   2.413  -3.275  0.00  0.00     0.002 A 
ATOM     14  C   UNL d   1      -2.457   3.060  -2.253  0.00  0.00     0.000 A 
ATOM     15  C   UNL d   1      -2.132   2.808  -0.921  0.00  0.00     0.002 A 
ATOM     16  C   UNL d   1      -1.113   1.907  -0.609  0.00  0.00     0.030 A 
ENDBRANCH   4  11
ENDBRANCH   1   3
BRANCH   1  17
ATOM     17  O   UNL d   1       1.628   2.248   1.101  0.00  0.00    -0.338 OA
BRANCH  17  18
ATOM     18  C   UNL d   1       2.030   3.536   1.404  0.00  0.00     0.081 A 
ATOM     19  C   UNL d   1       1.746   4.044   2.698  0.00  0.00     0.007 A 
ATOM     20  C   UNL d   1       2.219   5.346   3.009  0.00  0.00     0.015 A 
ATOM     21  C   UNL d   1       2.904   6.135   2.087  0.00  0.00     0.001 A 
ATOM     22  C   UNL d   1       3.136   5.644   0.816  0.00  0.00     0.003 A 
ATOM     23  C   UNL d   1       2.697   4.362   0.477  0.00  0.00     0.037 A 
BRANCH  19  24
ATOM     24  C   UNL d   1       1.007   3.312   3.763  0.00  0.00    -0.023 A 
ATOM     25  C   UNL d   1       1.255   1.965   4.067  0.00  0.00     0.012 A 
ATOM     26  C   UNL d   1       0.612   1.333   5.137  0.00  0.00     0.001 A 
ATOM     27  C   UNL d   1      -0.285   2.033   5.938  0.00  0.00     0.000 A 
ATOM     28  C   UNL d   1      -0.560   3.364   5.655  0.00  0.00     0.001 A 
ATOM     29  C   UNL d   1       0.068   3.988   4.574  0.00  0.00     0.012 A 
ENDBRANCH  19  24
ENDBRANCH  17  18
ENDBRANCH   1  17
TORSDOF 5
