REMARK  2 active torsions:
REMARK  status: ('A' for Active; 'I' for Inactive)
REMARK    1  A    between atoms: C_9  and  C_3 
REMARK    2  A    between atoms: N_17  and  C_5 
ROOT
ATOM      1  C   UNL d   1       0.121   0.447   0.018  0.00  0.00     0.030 A 
ATOM      2  C   UNL d   1      -0.148  -0.871   0.026  0.00  0.00     0.061 A 
ATOM      3  C   UNL d   1      -1.048   1.268   0.061  0.00  0.00     0.023 A 
ATOM      4  C   UNL d   1      -2.175   0.430   0.105  0.00  0.00     0.099 A 
ATOM      5  C   UNL d   1       1.520   0.702   0.027  0.00  0.00     0.067 A 
ATOM      6  C   UNL d   1       2.229  -0.497  -0.015  0.00  0.00     0.113 A 
ATOM      7  S   UNL d   1      -1.765  -1.250   0.101  0.00  0.00    -0.070 SA
ATOM      8  S   UNL d   1       1.185  -1.871  -0.026  0.00  0.00    -0.069 SA
ATOM      9  C   UNL d   1      -3.555   0.805   0.079  0.00  0.00     0.108 C 
ATOM     10  C   UNL d   1       3.650  -0.647  -0.028  0.00  0.00     0.109 C 
ATOM     11  N   UNL d   1      -4.678   1.106   0.069  0.00  0.00    -0.191 NA
ATOM     12  N   UNL d   1       4.805  -0.765  -0.042  0.00  0.00    -0.191 NA
ENDROOT
BRANCH   3  13
ATOM     13  C   UNL d   1      -1.181   2.781   0.003  0.00  0.00     0.018 A 
ATOM     14  S   UNL d   1      -0.138   3.820  -0.875  0.00  0.00    -0.101 SA
ATOM     15  C   UNL d   1      -1.078   5.202  -0.528  0.00  0.00     0.050 A 
ATOM     16  C   UNL d   1      -2.159   4.898   0.264  0.00  0.00     0.008 A 
ATOM     17  C   UNL d   1      -2.203   3.510   0.589  0.00  0.00     0.020 A 
ENDBRANCH   3  13
BRANCH   5  18
ATOM     18  N   UNL d   1       2.122   1.906   0.097  0.00  0.00    -0.397 N 
ATOM     19  H   UNL d   1       1.598   2.776   0.030  0.00  0.00     0.156 HD
ATOM     20  H   UNL d   1       3.127   2.046   0.001  0.00  0.00     0.156 HD
ENDBRANCH   5  18
TORSDOF 2
