REMARK  6 active torsions:
REMARK  status: ('A' for Active; 'I' for Inactive)
REMARK    1  A    between atoms: C_3  and  S_1 
REMARK    2  A    between atoms: O_13  and  S_1 
REMARK    3  A    between atoms: S_2  and  C_3 
REMARK    4  A    between atoms: O_12  and  S_2 
REMARK    5  A    between atoms: C_4  and  O_13 
REMARK    6  A    between atoms: C_5  and  O_12 
ROOT
ATOM      1  C   UNL d   1       0.898   1.155   0.860  0.00  0.00     0.341 C 
ENDROOT
BRANCH   1   2
ATOM      2  S   UNL d   1       0.953   0.940   2.598  0.00  0.00     0.286 S 
ATOM      3  O   UNL d   1       0.599   2.238   3.152  0.00  0.00    -0.197 OA
ATOM      4  O   UNL d   1       0.213  -0.241   2.986  0.00  0.00    -0.197 OA
BRANCH   2   5
ATOM      5  O   UNL d   1       2.553   0.693   2.832  0.00  0.00    -0.230 OA
BRANCH   5   6
ATOM      6  C   UNL d   1       3.071   0.483   4.098  0.00  0.00     0.112 A 
ATOM      7  C   UNL d   1       4.124  -0.435   4.264  0.00  0.00     0.076 A 
ATOM      8  C   UNL d   1       4.714  -0.654   5.533  0.00  0.00    -0.015 A 
ATOM      9 CL   UNL d   1       4.714  -1.277   2.865  0.00  0.00    -0.081 Cl
ATOM     10  C   UNL d   1       5.830  -1.654   5.738  0.00  0.00     0.052 C 
ATOM     11  C   UNL d   1       4.272   0.130   6.624  0.00  0.00     0.047 A 
ATOM     12  C   UNL d   1       3.246   1.078   6.464  0.00  0.00    -0.037 A 
ATOM     13 CL   UNL d   1       5.031  -0.056   8.178  0.00  0.00    -0.083 Cl
ATOM     14  C   UNL d   1       2.645   1.227   5.201  0.00  0.00     0.048 A 
ATOM     15  C   UNL d   1       2.744   1.979   7.563  0.00  0.00     0.050 C 
ENDBRANCH   5   6
ENDBRANCH   2   5
ENDBRANCH   1   2
BRANCH   1  16
ATOM     16  S   UNL d   1       1.367  -0.279  -0.011  0.00  0.00     0.286 S 
ATOM     17  O   UNL d   1       0.357  -1.302   0.129  0.00  0.00    -0.197 OA
ATOM     18  O   UNL d   1       2.766  -0.524   0.259  0.00  0.00    -0.197 OA
BRANCH  16  19
ATOM     19  O   UNL d   1       1.227   0.367  -1.511  0.00  0.00    -0.230 OA
BRANCH  19  20
ATOM     20  C   UNL d   1       1.531  -0.357  -2.644  0.00  0.00     0.112 A 
ATOM     21  C   UNL d   1       0.767  -0.159  -3.809  0.00  0.00     0.076 A 
ATOM     22  C   UNL d   1       1.081  -0.830  -5.014  0.00  0.00    -0.015 A 
ATOM     23 CL   UNL d   1      -0.564   0.959  -3.728  0.00  0.00    -0.081 Cl
ATOM     24  C   UNL d   1       0.274  -0.650  -6.278  0.00  0.00     0.052 C 
ATOM     25  C   UNL d   1       2.217  -1.676  -5.035  0.00  0.00     0.047 A 
ATOM     26  C   UNL d   1       3.003  -1.861  -3.884  0.00  0.00    -0.037 A 
ATOM     27 CL   UNL d   1       2.661  -2.479  -6.511  0.00  0.00    -0.083 Cl
ATOM     28  C   UNL d   1       2.639  -1.204  -2.699  0.00  0.00     0.048 A 
ATOM     29  C   UNL d   1       4.247  -2.707  -3.825  0.00  0.00     0.050 C 
ENDBRANCH  19  20
ENDBRANCH  16  19
ENDBRANCH   1  16
TORSDOF 6
