REMARK  2 active torsions:
REMARK  status: ('A' for Active; 'I' for Inactive)
REMARK    1  A    between atoms: N_2  and  C_1 
REMARK    2  A    between atoms: C_9  and  C_4 
ROOT
ATOM      1  C   UNL d   1       0.781   1.079   0.541  0.00  0.00     0.144 A 
ATOM      2  S   UNL d   1       0.435  -0.328   1.424  0.00  0.00    -0.064 SA
ATOM      3  C   UNL d   1       0.228  -1.262  -0.006  0.00  0.00     0.034 A 
ATOM      4  C   UNL d   1       0.728   0.881  -0.820  0.00  0.00     0.045 A 
ATOM      5  C   UNL d   1       0.392  -0.470  -1.132  0.00  0.00     0.024 A 
ENDROOT
BRANCH   3   6
ATOM      6  C   UNL d   1      -0.101  -2.693   0.053  0.00  0.00     0.049 A 
ATOM      7  N   UNL d   1      -0.799  -3.144  -1.019  0.00  0.00    -0.365 N 
ATOM      8  C   UNL d   1      -1.119  -4.457  -1.046  0.00  0.00     0.088 A 
ATOM      9  HN  UNL d   1      -1.073  -2.516  -1.775  1.00  0.00     0.165 HD
ATOM     10  C   UNL d   1      -0.761  -5.358  -0.059  0.00  0.00     0.017 A 
ATOM     11  C   UNL d   1      -0.035  -4.885   1.026  0.00  0.00     0.004 A 
ATOM     12  C   UNL d   1       0.300  -3.534   1.089  0.00  0.00     0.031 A 
ENDBRANCH   3   6
BRANCH   1  13
ATOM     13  N   UNL d   1       1.093   2.310   1.219  0.00  0.00    -0.108 N 
ATOM     14  O   UNL d   1       1.378   3.276   0.497  0.00  0.00    -0.531 OA
ATOM     15  O   UNL d   1       1.062   2.326   2.456  0.00  0.00    -0.531 OA
ENDBRANCH   1  13
TORSDOF 2
