REMARK  6 active torsions:
REMARK  status: ('A' for Active; 'I' for Inactive)
REMARK    1  A    between atoms: O_2  and  C_1 
REMARK       I    between atoms: N_5  and  C_1 
REMARK    2  A    between atoms: C_3  and  O_2 
REMARK    3  A    between atoms: O_13  and  C_4 
REMARK    4  A    between atoms: C_10  and  C_14 
REMARK    5  A    between atoms: C_15  and  C_11 
REMARK    6  A    between atoms: C_14  and  C_15 
ROOT
ATOM      1  C   UNL d   1      -1.106  -0.797  -0.727  0.00  0.00     0.114 A 
ATOM      2  C   UNL d   1      -1.785   0.343  -1.169  0.00  0.00     0.102 A 
ATOM      3  C   UNL d   1      -3.179   0.273  -1.327  0.00  0.00     0.046 A 
ATOM      4  C   UNL d   1      -1.788  -2.005  -0.549  0.00  0.00     0.041 A 
ATOM      5  C   UNL d   1      -3.890  -0.910  -1.070  0.00  0.00    -0.055 A 
ATOM      6  C   UNL d   1      -3.175  -2.059  -0.716  0.00  0.00     0.010 A 
ENDROOT
BRANCH   1   7
ATOM      7  O   UNL d   1       0.282  -0.853  -0.452  0.00  0.00    -0.259 OA
BRANCH   7   8
ATOM      8  C   UNL d   1       0.867   0.070   0.433  0.00  0.00     0.367 C 
ATOM      9  N   UNL d   1       2.181  -0.255   0.771  0.00  0.00    -0.336 N 
ATOM     10  C   UNL d   1       2.929   0.667   1.609  0.00  0.00     0.154 C 
ATOM     11  C   UNL d   1       2.705  -1.604   0.680  0.00  0.00     0.154 C 
ATOM     12  O   UNL d   1       0.283   1.046   0.901  0.00  0.00    -0.238 OA
ENDBRANCH   7   8
ENDBRANCH   1   7
BRANCH   2  13
ATOM     13  O   UNL d   1      -1.057   1.464  -1.467  0.00  0.00    -0.353 OA
ATOM     14  C   UNL d   1      -1.773   2.696  -1.394  0.00  0.00     0.210 C 
ENDBRANCH   2  13
BRANCH   5  15
ATOM     15  C   UNL d   1      -5.404  -0.909  -1.072  0.00  0.00     0.046 C 
BRANCH  15  16
ATOM     16  C   UNL d   1      -6.047  -0.518  -2.402  0.00  0.00     0.082 C 
BRANCH  16  17
ATOM     17  C   UNL d   1      -7.563  -0.498  -2.300  0.00  0.00     0.123 C 
ATOM     18  O   UNL d   1      -8.162  -0.781  -1.264  0.00  0.00    -0.298 OA
ATOM     19  C   UNL d   1      -8.315  -0.097  -3.542  0.00  0.00     0.091 C 
ENDBRANCH  16  17
ENDBRANCH  15  16
ENDBRANCH   5  15
TORSDOF 6
