REMARK  3 active torsions:
REMARK  status: ('A' for Active; 'I' for Inactive)
REMARK    1  A    between atoms: C_2  and  O_7 
REMARK    2  A    between atoms: C_9  and  C_2 
REMARK    3  A    between atoms: O_7  and  N_3 
ROOT
ATOM      1  O   UNL d   1       2.583   2.294  -1.212  0.00  0.00    -0.195 OA
ENDROOT
BRANCH   1   2
ATOM      2  C   UNL d   1       2.922   3.195  -2.181  0.00  0.00     0.315 C 
ATOM      3  O   UNL d   1       2.321   3.411  -3.224  0.00  0.00    -0.257 OA
BRANCH   2   4
ATOM      4  C   UNL d   1       4.120   3.975  -1.758  0.00  0.00     0.041 A 
ATOM      5  C   UNL d   1       4.580   4.985  -2.615  0.00  0.00     0.019 A 
ATOM      6  C   UNL d   1       5.629   5.822  -2.223  0.00  0.00     0.025 A 
ATOM      7  C   UNL d   1       6.219   5.651  -0.973  0.00  0.00     0.034 A 
ATOM      8  C   UNL d   1       5.782   4.641  -0.117  0.00  0.00     0.025 A 
ATOM      9 CL   UNL d   1       7.481   6.707  -0.470  0.00  0.00    -0.084 Cl
ATOM     10  C   UNL d   1       4.734   3.801  -0.508  0.00  0.00     0.019 A 
ENDBRANCH   2   4
ENDBRANCH   1   2
BRANCH   1  11
ATOM     11  N   UNL d   1       1.189   2.308  -1.046  0.00  0.00    -0.264 N 
ATOM     12  C   UNL d   1       0.754   1.330  -0.309  0.00  0.00     0.029 C 
ATOM     13  C   UNL d   1       1.596   0.198   0.241  0.00  0.00     0.130 C 
ATOM     14  C   UNL d   1      -0.697   1.399   0.123  0.00  0.00     0.130 C 
ATOM     15  S   UNL d   1       0.992  -1.415  -0.329  0.00  0.00    -0.148 SA
ATOM     16  C   UNL d   1      -0.724  -1.376   0.277  0.00  0.00     0.105 C 
ATOM     17  S   UNL d   1      -1.654  -0.008  -0.473  0.00  0.00    -0.148 SA
ATOM     18  C   UNL d   1      -0.814  -1.395   1.799  0.00  0.00     0.033 C 
ATOM     19  HN  UNL d   1       0.580   3.013  -1.461  1.00  0.00     0.194 HD
ENDBRANCH   1  11
TORSDOF 3
