REMARK  5 active torsions:
REMARK  status: ('A' for Active; 'I' for Inactive)
REMARK    1  A    between atoms: C_8  and  C_3 
REMARK    2  A    between atoms: C_9  and  C_6 
REMARK    3  A    between atoms: O_15  and  C_9 
REMARK    4  A    between atoms: N_10  and  O_15 
REMARK    5  A    between atoms: C_13  and  C_12 
ROOT
ATOM      1  N   UNL d   1       0.344  -6.882  -0.761  0.00  0.00    -0.321 N 
ATOM      2  HN  UNL d   1      -0.075  -6.579  -1.640  1.00  0.00     0.169 HD
ATOM      3  C   UNL d   1       0.326  -8.135  -0.184  0.00  0.00     0.138 A 
ATOM      4  N   UNL d   1       0.974  -8.202   0.991  0.00  0.00    -0.242 N 
ATOM      5  HN  UNL d   1       1.094  -9.012   1.598  1.00  0.00     0.196 HD
ATOM      6  C   UNL d   1       1.037  -6.176   0.106  0.00  0.00     0.174 A 
ATOM      7  O   UNL d   1       1.443  -6.905   1.186  0.00  0.00    -0.220 OA
ENDROOT
BRANCH   6   8
ATOM      8  C   UNL d   1       1.421  -4.747   0.084  0.00  0.00     0.287 C 
BRANCH   8   9
ATOM      9  O   UNL d   1       2.846  -4.711   0.076  0.00  0.00    -0.272 OA
BRANCH   9  10
ATOM     10  N   UNL d   1       3.294  -3.383   0.089  0.00  0.00    -0.270 N 
ATOM     11  C   UNL d   1       4.596  -3.325   0.135  0.00  0.00     0.038 C 
ATOM     12  C   UNL d   1       5.489  -4.556   0.185  0.00  0.00     0.071 C 
ATOM     13  HN  UNL d   1       2.682  -2.568   0.065  1.00  0.00     0.194 HD
BRANCH  11  14
ATOM     14  C   UNL d   1       5.271  -1.981   0.137  0.00  0.00    -0.012 A 
ATOM     15  C   UNL d   1       4.495  -0.813   0.121  0.00  0.00     0.015 A 
ATOM     16  C   UNL d   1       5.105   0.446   0.122  0.00  0.00     0.024 A 
ATOM     17  C   UNL d   1       6.495   0.545   0.137  0.00  0.00     0.034 A 
ATOM     18  C   UNL d   1       7.278  -0.606   0.150  0.00  0.00     0.024 A 
ATOM     19 CL   UNL d   1       7.248   2.090   0.139  0.00  0.00    -0.084 Cl
ATOM     20  C   UNL d   1       6.670  -1.864   0.149  0.00  0.00     0.015 A 
ENDBRANCH  11  14
ENDBRANCH   9  10
ENDBRANCH   8   9
ENDBRANCH   6   8
BRANCH   3  21
ATOM     21  C   UNL d   1      -0.370  -9.261  -0.800  0.00  0.00     0.011 A 
ATOM     22  C   UNL d   1      -0.989  -9.102  -2.048  0.00  0.00     0.039 A 
ATOM     23  C   UNL d   1      -1.683 -10.164  -2.627  0.00  0.00     0.035 A 
ATOM     24 CL   UNL d   1      -2.449  -9.951  -4.154  0.00  0.00    -0.084 Cl
ATOM     25  C   UNL d   1      -1.769 -11.393  -1.978  0.00  0.00     0.024 A 
ATOM     26  C   UNL d   1      -1.150 -11.566  -0.741  0.00  0.00     0.003 A 
ATOM     27  C   UNL d   1      -0.452 -10.506  -0.156  0.00  0.00     0.015 A 
ENDBRANCH   3  21
TORSDOF 5
