REMARK  5 active torsions:
REMARK  status: ('A' for Active; 'I' for Inactive)
REMARK    1  A    between atoms: N_2  and  S_1 
REMARK    2  A    between atoms: C_9  and  S_1 
REMARK    3  A    between atoms: S_3  and  O_7 
REMARK    4  A    between atoms: C_11  and  S_3 
REMARK    5  A    between atoms: O_7  and  C_5 
ROOT
ATOM      1  N   UNL d   1       0.237   0.247   1.458  0.00  0.00    -0.271 N 
ATOM      2  C   UNL d   1       0.504  -0.788   2.456  0.00  0.00     0.059 A 
ATOM      3  C   UNL d   1       1.552   0.738   4.259  0.00  0.00     0.118 C 
ATOM      4  C   UNL d   1       1.095  -0.571   3.727  0.00  0.00     0.028 A 
ATOM      5  C   UNL d   1       0.781   1.842   4.148  0.00  0.00     0.059 C 
ATOM      6  C   UNL d   1      -0.079   1.653   1.855  0.00  0.00     0.147 C 
ATOM      7  C   UNL d   1       1.187   3.072   4.762  0.00  0.00     0.098 C 
ATOM      8  C   UNL d   1       0.132  -2.099   2.096  0.00  0.00     0.055 A 
ATOM      9  N   UNL d   1       1.510   4.075   5.246  0.00  0.00    -0.192 NA
ATOM     10  C   UNL d   1       1.189  -1.668   4.612  0.00  0.00     0.018 A 
ATOM     11  C   UNL d   1      -0.469   1.847   3.315  0.00  0.00     0.074 C 
ATOM     12  C   UNL d   1       0.323  -3.174   2.962  0.00  0.00     0.036 A 
ATOM     13  C   UNL d   1       0.838  -2.961   4.228  0.00  0.00     0.025 A 
ATOM     14 CL   UNL d   1      -0.111  -4.765   2.475  0.00  0.00    -0.084 Cl
ENDROOT
BRANCH   3  15
ATOM     15  O   UNL d   1       2.704   0.789   5.042  0.00  0.00    -0.227 OA
BRANCH  15  16
ATOM     16  S   UNL d   1       4.068  -0.080   4.787  0.00  0.00     0.303 S 
ATOM     17  O   UNL d   1       4.021  -1.251   5.644  0.00  0.00    -0.193 OA
ATOM     18  O   UNL d   1       4.332  -0.187   3.369  0.00  0.00    -0.193 OA
BRANCH  16  19
ATOM     19  C   UNL d   1       5.321   0.992   5.465  0.00  0.00     0.086 A 
ATOM     20  C   UNL d   1       6.132   0.549   6.516  0.00  0.00     0.027 A 
ATOM     21  C   UNL d   1       6.992   1.453   7.143  0.00  0.00     0.025 A 
ATOM     22  C   UNL d   1       7.036   2.780   6.715  0.00  0.00     0.034 A 
ATOM     23  C   UNL d   1       6.257   3.207   5.638  0.00  0.00     0.025 A 
ATOM     24 CL   UNL d   1       8.036   3.909   7.542  0.00  0.00    -0.084 Cl
ATOM     25  C   UNL d   1       5.396   2.310   5.004  0.00  0.00     0.027 A 
ENDBRANCH  16  19
ENDBRANCH  15  16
ENDBRANCH   3  15
BRANCH   1  26
ATOM     26  S   UNL d   1       1.235   0.137   0.039  0.00  0.00     0.265 S 
ATOM     27  O   UNL d   1       1.190  -1.202  -0.506  0.00  0.00    -0.200 OA
ATOM     28  O   UNL d   1       2.488   0.791   0.355  0.00  0.00    -0.200 OA
BRANCH  26  29
ATOM     29  C   UNL d   1       0.379   1.174  -1.140  0.00  0.00     0.080 A 
ATOM     30  C   UNL d   1       1.067   2.223  -1.758  0.00  0.00     0.027 A 
ATOM     31  C   UNL d   1       0.386   3.078  -2.628  0.00  0.00     0.025 A 
ATOM     32  C   UNL d   1      -0.973   2.880  -2.872  0.00  0.00     0.034 A 
ATOM     33  C   UNL d   1      -1.656   1.819  -2.272  0.00  0.00     0.025 A 
ATOM     34 CL   UNL d   1      -1.816   3.959  -3.913  0.00  0.00    -0.084 Cl
ATOM     35  C   UNL d   1      -0.977   0.953  -1.409  0.00  0.00     0.027 A 
ENDBRANCH  26  29
ENDBRANCH   1  26
TORSDOF 5
