REMARK  1 active torsions:
REMARK  status: ('A' for Active; 'I' for Inactive)
REMARK       I    between atoms: C_3  and  N_1 
REMARK    1  A    between atoms: C_5  and  C_3 
ROOT
ATOM      1  N   UNL d   1      -0.261   1.397   0.130  0.00  0.00    -0.298 N 
ATOM      2  C   UNL d   1       0.502   0.218   0.035  0.00  0.00     0.143 C 
ATOM      3  C   UNL d   1       0.294   2.679   0.310  0.00  0.00     0.259 C 
ATOM      4  S   UNL d   1      -0.511  -1.129  -0.497  0.00  0.00    -0.099 SA
ATOM      5  S   UNL d   1       2.125  -0.046   0.321  0.00  0.00    -0.052 SA
ATOM      6  O   UNL d   1       1.475   2.923   0.536  0.00  0.00    -0.267 OA
ATOM      7  C   UNL d   1      -1.660   1.202  -0.246  0.00  0.00     0.144 C 
ATOM      8  C   UNL d   1      -2.045  -0.260  -0.203  0.00  0.00     0.102 C 
ENDROOT
BRANCH   3   9
ATOM      9  C   UNL d   1      -0.565   3.883   0.188  0.00  0.00     0.032 A 
ATOM     10  C   UNL d   1      -1.647   4.112   1.044  0.00  0.00     0.018 A 
ATOM     11  C   UNL d   1      -2.398   5.284   0.922  0.00  0.00     0.025 A 
ATOM     12  C   UNL d   1      -2.033   6.251  -0.016  0.00  0.00     0.034 A 
ATOM     13  C   UNL d   1      -0.923   6.056  -0.834  0.00  0.00     0.025 A 
ATOM     14 CL   UNL d   1      -2.950   7.702  -0.146  0.00  0.00    -0.084 Cl
ATOM     15  C   UNL d   1      -0.187   4.875  -0.732  0.00  0.00     0.018 A 
ENDBRANCH   3   9
TORSDOF 1
