REMARK  3 active torsions:
REMARK  status: ('A' for Active; 'I' for Inactive)
REMARK    1  A    between atoms: C_4  and  N_1 
REMARK       I    between atoms: C_2  and  N_3 
REMARK    2  A    between atoms: C_9  and  C_2 
REMARK    3  A    between atoms: N_5  and  C_6 
ROOT
ATOM      1  C   UNL d   1      -2.743   4.151  -7.867  0.00  0.00     0.253 C 
ATOM      2  N   UNL d   1      -2.108   3.581  -6.771  0.00  0.00    -0.347 N 
ATOM      3  N   UNL d   1      -1.989   2.416  -4.152  0.00  0.00    -0.364 N 
ATOM      4  C   UNL d   1      -1.347   4.260  -5.706  0.00  0.00     0.145 C 
ATOM      5  C   UNL d   1      -2.125   2.121  -6.617  0.00  0.00     0.145 C 
ATOM      6  C   UNL d   1      -1.873   3.876  -4.309  0.00  0.00     0.144 C 
ATOM      7  C   UNL d   1      -2.669   1.697  -5.238  0.00  0.00     0.144 C 
ATOM      8  O   UNL d   1      -3.267   3.425  -8.725  0.00  0.00    -0.270 OA
ENDROOT
BRANCH   3   9
ATOM      9  C   UNL d   1      -1.222   1.764  -3.212  0.00  0.00     0.103 A 
ATOM     10  C   UNL d   1      -1.613   0.524  -2.696  0.00  0.00     0.051 A 
ATOM     11  C   UNL d   1      -0.860  -0.108  -1.702  0.00  0.00     0.041 A 
ATOM     12  C   UNL d   1       0.290   0.521  -1.244  0.00  0.00     0.118 A 
ATOM     13  C   UNL d   1       0.634   1.742  -1.789  0.00  0.00     0.125 A 
ATOM     14  N   UNL d   1      -0.102   2.366  -2.749  0.00  0.00    -0.350 N 
ATOM     15  HN  UNL d   1       0.187   3.273  -3.114  1.00  0.00     0.166 HD
BRANCH  12  16
ATOM     16  N   UNL d   1       1.111  -0.078  -0.202  0.00  0.00    -0.114 N 
ATOM     17  O   UNL d   1       2.127   0.535   0.154  0.00  0.00    -0.532 OA
ATOM     18  O   UNL d   1       0.745  -1.165   0.266  0.00  0.00    -0.532 OA
ENDBRANCH  12  16
ENDBRANCH   3   9
BRANCH   1  19
ATOM     19  C   UNL d   1      -2.840   5.666  -8.056  0.00  0.00     0.269 C 
ATOM     20 CL   UNL d   1      -3.698   6.430  -6.705  0.00  0.00    -0.098 Cl
ATOM     21 CL   UNL d   1      -1.252   6.380  -8.365  0.00  0.00    -0.098 Cl
ENDBRANCH   1  19
TORSDOF 3
