REMARK  8 active torsions:
REMARK  status: ('A' for Active; 'I' for Inactive)
REMARK    1  A    between atoms: S_9  and  C_2 
REMARK    2  A    between atoms: S_10  and  C_5 
REMARK    3  A    between atoms: C_15  and  S_9 
REMARK    4  A    between atoms: C_16  and  S_10 
REMARK    5  A    between atoms: C_11  and  C_16 
REMARK    6  A    between atoms: C_13  and  C_11 
REMARK    7  A    between atoms: C_12  and  C_15 
REMARK    8  A    between atoms: C_14  and  C_12 
ROOT
ATOM      1  C   UNL d   1      -0.352  -1.186  -0.005  0.00  0.00     0.103 A 
ATOM      2  C   UNL d   1       0.921  -0.676  -0.240  0.00  0.00     0.082 A 
ATOM      3  N   UNL d   1      -0.796   1.113   0.178  0.00  0.00    -0.319 N 
ATOM      4  HN  UNL d   1      -1.332   1.970   0.315  1.00  0.00     0.175 HD
ATOM      5  C   UNL d   1      -1.285  -0.123   0.234  0.00  0.00     0.099 A 
ATOM      6  S   UNL d   1       0.814   1.033  -0.146  0.00  0.00    -0.005 SA
ATOM      7  C   UNL d   1      -0.669  -2.584  -0.004  0.00  0.00     0.104 C 
ATOM      8  N   UNL d   1      -0.915  -3.719  -0.018  0.00  0.00    -0.191 NA
ENDROOT
BRANCH   2   9
ATOM      9  S   UNL d   1       2.417  -1.562  -0.585  0.00  0.00    -0.112 SA
BRANCH   9  10
ATOM     10  C   UNL d   1       3.658  -0.243  -0.740  0.00  0.00     0.164 C 
BRANCH  10  11
ATOM     11  C   UNL d   1       5.049  -0.782  -0.999  0.00  0.00     0.169 C 
ATOM     12  O   UNL d   1       5.813  -1.066  -0.076  0.00  0.00    -0.291 OA
BRANCH  11  13
ATOM     13  C   UNL d   1       5.548  -0.886  -2.401  0.00  0.00     0.011 A 
ATOM     14  C   UNL d   1       6.921  -0.706  -2.634  0.00  0.00     0.016 A 
ATOM     15  C   UNL d   1       7.445  -0.844  -3.923  0.00  0.00     0.020 A 
ATOM     16  C   UNL d   1       6.598  -1.174  -4.978  0.00  0.00     0.011 A 
ATOM     17  C   UNL d   1       5.231  -1.339  -4.761  0.00  0.00     0.020 A 
ATOM     18 BR   UNL d   1       7.310  -1.423  -6.711  0.00  0.00    -0.051 Br
ATOM     19  C   UNL d   1       4.702  -1.188  -3.474  0.00  0.00     0.016 A 
ENDBRANCH  11  13
ENDBRANCH  10  11
ENDBRANCH   9  10
ENDBRANCH   2   9
BRANCH   5  20
ATOM     20  S   UNL d   1      -3.008  -0.329   0.587  0.00  0.00    -0.102 SA
BRANCH  20  21
ATOM     21  C   UNL d   1      -3.546   1.407   0.769  0.00  0.00     0.164 C 
BRANCH  21  22
ATOM     22  C   UNL d   1      -5.015   1.538   1.143  0.00  0.00     0.169 C 
ATOM     23  O   UNL d   1      -5.766   0.580   1.312  0.00  0.00    -0.291 OA
BRANCH  22  24
ATOM     24  C   UNL d   1      -5.581   2.922   1.305  0.00  0.00     0.011 A 
ATOM     25  C   UNL d   1      -4.802   4.081   1.176  0.00  0.00     0.016 A 
ATOM     26  C   UNL d   1      -5.389   5.347   1.311  0.00  0.00     0.020 A 
ATOM     27  C   UNL d   1      -6.752   5.461   1.576  0.00  0.00     0.011 A 
ATOM     28  C   UNL d   1      -7.536   4.320   1.721  0.00  0.00     0.020 A 
ATOM     29 BR   UNL d   1      -7.542   7.171   1.729  0.00  0.00    -0.051 Br
ATOM     30  C   UNL d   1      -6.951   3.056   1.589  0.00  0.00     0.016 A 
ENDBRANCH  22  24
ENDBRANCH  21  22
ENDBRANCH  20  21
ENDBRANCH   5  20
TORSDOF 8
