REMARK  8 active torsions:
REMARK  status: ('A' for Active; 'I' for Inactive)
REMARK    1  A    between atoms: N_3  and  C_1 
REMARK       I    between atoms: C_2  and  N_4 
REMARK    2  A    between atoms: C_9  and  C_2 
REMARK    3  A    between atoms: N_4  and  N_3 
REMARK    4  A    between atoms: S_8  and  C_9 
REMARK    5  A    between atoms: C_13  and  S_8 
REMARK    6  A    between atoms: C_10  and  O_11 
REMARK    7  A    between atoms: O_11  and  C_14 
REMARK    8  A    between atoms: C_14  and  C_13 
ROOT
ATOM      1  C   UNL d   1      -2.473   0.638  -5.691  0.00  0.00     0.245 C 
ATOM      2  N   UNL d   1      -2.865   1.534  -4.711  0.00  0.00    -0.267 N 
ATOM      3  O   UNL d   1      -3.004  -0.459  -5.844  0.00  0.00    -0.271 OA
ATOM      4  H   UNL d   1      -2.138   2.159  -4.377  0.00  0.00     0.190 HD
ENDROOT
BRANCH   1   5
ATOM      5  C   UNL d   1      -1.415   1.156  -6.656  0.00  0.00     0.178 C 
BRANCH   5   6
ATOM      6  S   UNL d   1      -0.335   2.432  -5.904  0.00  0.00    -0.158 SA
BRANCH   6   7
ATOM      7  C   UNL d   1       0.561   3.013  -7.392  0.00  0.00     0.101 C 
BRANCH   7   8
ATOM      8  C   UNL d   1      -0.370   3.622  -8.436  0.00  0.00     0.186 C 
BRANCH   8   9
ATOM      9  O   UNL d   1       0.402   4.194  -9.493  0.00  0.00    -0.350 OA
BRANCH   9  10
ATOM     10  C   UNL d   1      -0.318   4.682 -10.554  0.00  0.00     0.068 A 
ATOM     11  C   UNL d   1      -1.714   4.732 -10.643  0.00  0.00     0.037 A 
ATOM     12  C   UNL d   1      -2.331   5.249 -11.782  0.00  0.00     0.003 A 
ATOM     13  C   UNL d   1      -1.562   5.724 -12.839  0.00  0.00     0.000 A 
ATOM     14  C   UNL d   1      -0.171   5.681 -12.759  0.00  0.00     0.003 A 
ATOM     15  C   UNL d   1       0.447   5.162 -11.618  0.00  0.00     0.037 A 
ENDBRANCH   9  10
ENDBRANCH   8   9
ENDBRANCH   7   8
ENDBRANCH   6   7
ENDBRANCH   5   6
ENDBRANCH   1   5
BRANCH   2  16
ATOM     16  N   UNL d   1      -3.774   1.067  -3.770  0.00  0.00    -0.274 N 
ATOM     17  H   UNL d   1      -4.071   0.097  -3.901  0.00  0.00     0.189 HD
BRANCH  16  18
ATOM     18  C   UNL d   1      -4.413   1.780  -2.824  0.00  0.00     0.186 C 
ATOM     19  S   UNL d   1      -5.530   0.983  -1.862  0.00  0.00    -0.040 SA
ATOM     20  N   UNL d   1      -4.217   3.085  -2.578  0.00  0.00    -0.370 N 
ATOM     21  C   UNL d   1      -3.394   4.124  -3.156  0.00  0.00     0.148 C 
ATOM     22  H   UNL d   1      -4.781   3.396  -1.795  0.00  0.00     0.161 HD
ENDBRANCH  16  18
ENDBRANCH   2  16
TORSDOF 8
