REMARK  3 active torsions:
REMARK  status: ('A' for Active; 'I' for Inactive)
REMARK    1  A    between atoms: N_18  and  C_3 
REMARK    2  A    between atoms: C_13  and  C_6 
REMARK    3  A    between atoms: C_16  and  C_10 
ROOT
ATOM      1  N   UNL d   1       0.065  -0.781  -0.073  0.00  0.00    -0.259 N 
ATOM      2  C   UNL d   1       0.346   0.573  -0.083  0.00  0.00     0.103 A 
ATOM      3  C   UNL d   1      -1.251  -1.240  -0.172  0.00  0.00     0.106 C 
ATOM      4  C   UNL d   1      -0.599   1.527  -0.051  0.00  0.00     0.070 C 
ATOM      5  C   UNL d   1      -2.278  -0.359  -0.129  0.00  0.00     0.074 C 
ATOM      6  C   UNL d   1      -2.054   1.128   0.058  0.00  0.00     0.114 C 
ATOM      7  C   UNL d   1       1.161  -1.627   0.059  0.00  0.00     0.271 A 
ATOM      8  S   UNL d   1       2.063   0.876  -0.069  0.00  0.00    -0.065 SA
ATOM      9  C   UNL d   1       2.415  -0.818   0.009  0.00  0.00     0.076 A 
ATOM     10  C   UNL d   1       3.661  -1.314  -0.025  0.00  0.00     0.037 C 
ATOM     11  C   UNL d   1      -0.291   2.921  -0.111  0.00  0.00     0.099 C 
ATOM     12  C   UNL d   1      -3.631  -0.804  -0.235  0.00  0.00     0.099 C 
ATOM     13  N   UNL d   1      -4.732  -1.163  -0.291  0.00  0.00    -0.192 NA
ATOM     14  N   UNL d   1      -0.084   4.059  -0.179  0.00  0.00    -0.192 NA
ATOM     15  O   UNL d   1       1.113  -2.838   0.234  0.00  0.00    -0.266 OA
ENDROOT
BRANCH   6  16
ATOM     16  C   UNL d   1      -2.709   1.639   1.348  0.00  0.00    -0.022 A 
ATOM     17  C   UNL d   1      -2.368   1.198   2.645  0.00  0.00     0.041 A 
ATOM     18 CL   UNL d   1      -1.113   0.056   2.966  0.00  0.00    -0.084 Cl
ATOM     19  C   UNL d   1      -3.054   1.677   3.765  0.00  0.00     0.024 A 
ATOM     20  C   UNL d   1      -4.077   2.607   3.621  0.00  0.00     0.002 A 
ATOM     21  C   UNL d   1      -4.418   3.067   2.354  0.00  0.00     0.001 A 
ATOM     22  C   UNL d   1      -3.743   2.590   1.228  0.00  0.00     0.010 A 
ENDBRANCH   6  16
BRANCH   3  23
ATOM     23  N   UNL d   1      -1.481  -2.602  -0.316  0.00  0.00    -0.287 NA
ATOM     24  H   UNL d   1      -0.672  -3.161  -0.014  0.00  0.00     0.125 HD
ATOM     25  H   UNL d   1      -2.347  -2.957   0.085  0.00  0.00     0.125 HD
ENDBRANCH   3  23
BRANCH  10  26
ATOM     26  C   UNL d   1       3.951  -2.756  -0.087  0.00  0.00    -0.013 A 
ATOM     27  C   UNL d   1       4.044  -3.441  -1.312  0.00  0.00     0.044 A 
ATOM     28 CL   UNL d   1       3.976  -2.607  -2.827  0.00  0.00    -0.083 Cl
ATOM     29  C   UNL d   1       4.180  -4.832  -1.336  0.00  0.00     0.024 A 
ATOM     30  C   UNL d   1       4.234  -5.549  -0.142  0.00  0.00     0.002 A 
ATOM     31  C   UNL d   1       4.169  -4.877   1.078  0.00  0.00     0.001 A 
ATOM     32  C   UNL d   1       4.030  -3.486   1.107  0.00  0.00     0.013 A 
ENDBRANCH  10  26
TORSDOF 3
