REMARK  2 active torsions:
REMARK  status: ('A' for Active; 'I' for Inactive)
REMARK    1  A    between atoms: C_2  and  C_1 
REMARK    2  A    between atoms: N_15  and  C_11 
ROOT
ATOM      1  C   UNL d   1       2.034  -2.472  -0.043  0.00  0.00     0.134 A 
ATOM      2  N   UNL d   1       1.966  -3.370  -1.048  0.00  0.00    -0.327 N 
ATOM      3  HN  UNL d   1       1.317  -3.248  -1.825  1.00  0.00     0.169 HD
ATOM      4  N   UNL d   1       2.860  -2.560   1.015  0.00  0.00    -0.344 N 
ATOM      5  HN  UNL d   1       2.871  -1.851   1.748  1.00  0.00     0.167 HD
ATOM      6  C   UNL d   1       2.785  -4.431  -0.983  0.00  0.00     0.103 A 
ATOM      7  C   UNL d   1       3.662  -4.596   0.069  0.00  0.00     0.072 A 
ATOM      8  C   UNL d   1       3.668  -3.630   1.056  0.00  0.00     0.010 A 
ATOM      9  C   UNL d   1       4.590  -3.734   2.232  0.00  0.00     0.068 C 
ENDROOT
BRANCH   1  10
ATOM     10  C   UNL d   1       1.148  -1.305  -0.101  0.00  0.00     0.084 A 
ATOM     11  N   UNL d   1       1.142  -0.313   0.882  0.00  0.00    -0.351 N 
ATOM     12  C   UNL d   1       0.266   0.620   0.586  0.00  0.00     0.047 A 
ATOM     13  HN  UNL d   1       1.735  -0.312   1.712  1.00  0.00     0.166 HD
ATOM     14  C   UNL d   1       0.015   1.827   1.419  0.00  0.00     0.076 C 
ATOM     15  S   UNL d   1      -0.612   0.374  -0.869  0.00  0.00    -0.087 SA
ATOM     16  C   UNL d   1       0.248  -1.087  -1.129  0.00  0.00     0.084 A 
ENDBRANCH   1  10
BRANCH   6  17
ATOM     17  N   UNL d   1       2.664  -5.313  -2.020  0.00  0.00    -0.381 N 
ATOM     18  C   UNL d   1       3.438  -6.500  -2.277  0.00  0.00     0.147 C 
ATOM     19  H   UNL d   1       1.981  -5.025  -2.711  0.00  0.00     0.160 HD
ENDBRANCH   6  17
TORSDOF 2
