REMARK  4 active torsions:
REMARK  status: ('A' for Active; 'I' for Inactive)
REMARK    1  A    between atoms: C_3  and  C_1 
REMARK    2  A    between atoms: C_6  and  C_2 
REMARK    3  A    between atoms: C_7  and  C_3 
REMARK    4  A    between atoms: O_16  and  C_13 
ROOT
ATOM      1  C   UNL d   1      -0.014  -1.183   0.028  0.00  0.00     0.076 C 
ATOM      2  C   UNL d   1      -1.355  -0.699   0.145  0.00  0.00     0.086 C 
ATOM      3  N   UNL d   1      -1.347   0.624   0.384  0.00  0.00    -0.259 N 
ATOM      4  HN  UNL d   1      -2.155   1.210   0.591  1.00  0.00     0.195 HD
ATOM      5  O   UNL d   1      -0.039   1.032   0.296  0.00  0.00    -0.241 OA
ATOM      6  C   UNL d   1       0.757  -0.036   0.052  0.00  0.00     0.089 C 
ATOM      7  C   UNL d   1       2.190   0.266  -0.148  0.00  0.00     0.080 C 
ENDROOT
BRANCH   1   8
ATOM      8  C   UNL d   1       0.456  -2.539  -0.171  0.00  0.00     0.200 C 
ATOM      9  O   UNL d   1      -0.091  -3.310  -0.958  0.00  0.00    -0.286 OA
BRANCH   8  10
ATOM     10  C   UNL d   1       1.657  -3.019   0.572  0.00  0.00     0.048 A 
ATOM     11  C   UNL d   1       2.458  -4.028   0.018  0.00  0.00     0.079 A 
ATOM     12  C   UNL d   1       3.628  -4.436   0.659  0.00  0.00     0.037 A 
ATOM     13  C   UNL d   1       3.996  -3.860   1.874  0.00  0.00     0.003 A 
ATOM     14  C   UNL d   1       3.182  -2.892   2.462  0.00  0.00     0.001 A 
ATOM     15  C   UNL d   1       2.009  -2.482   1.820  0.00  0.00     0.018 A 
BRANCH  11  16
ATOM     16  O   UNL d   1       2.160  -4.661  -1.158  0.00  0.00    -0.360 OA
ATOM     17  H   UNL d   1       1.233  -4.441  -1.400  0.00  0.00     0.217 HD
ENDBRANCH  11  16
ENDBRANCH   8  10
ENDBRANCH   1   8
BRANCH   2  18
ATOM     18  C   UNL d   1      -2.617  -1.435   0.090  0.00  0.00     0.054 A 
ATOM     19  C   UNL d   1      -2.768  -2.611   0.837  0.00  0.00     0.130 A 
ATOM     20  F   UNL d   1      -1.769  -3.054   1.617  0.00  0.00    -0.205 F 
ATOM     21  C   UNL d   1      -3.953  -3.349   0.817  0.00  0.00     0.043 A 
ATOM     22  C   UNL d   1      -5.031  -2.909   0.057  0.00  0.00     0.005 A 
ATOM     23  C   UNL d   1      -4.912  -1.738  -0.688  0.00  0.00     0.025 A 
ATOM     24  C   UNL d   1      -3.713  -1.008  -0.683  0.00  0.00     0.049 A 
ATOM     25 CL   UNL d   1      -3.668   0.391  -1.704  0.00  0.00    -0.083 Cl
ENDBRANCH   2  18
TORSDOF 4
