REMARK  5 active torsions:
REMARK  status: ('A' for Active; 'I' for Inactive)
REMARK    1  A    between atoms: S_6  and  C_1 
REMARK    2  A    between atoms: N_4  and  C_2 
REMARK    3  A    between atoms: N_5  and  C_3 
REMARK    4  A    between atoms: C_11  and  S_6 
REMARK    5  A    between atoms: C_7  and  C_8 
ROOT
ATOM      1  C   UNL d   1       1.362  -0.289   0.136  0.00  0.00     0.071 A 
ATOM      2  C   UNL d   1       0.377  -1.289   0.247  0.00  0.00     0.123 A 
ATOM      3  C   UNL d   1       0.874   1.015  -0.071  0.00  0.00     0.123 A 
ATOM      4  C   UNL d   1      -1.454   0.297  -0.072  0.00  0.00     0.052 A 
ATOM      5  C   UNL d   1      -0.500   1.315  -0.175  0.00  0.00     0.053 A 
ATOM      6  C   UNL d   1      -1.004  -1.014   0.137  0.00  0.00     0.053 A 
ENDROOT
BRANCH   1   7
ATOM      7  S   UNL d   1       3.092  -0.606   0.401  0.00  0.00    -0.084 SA
BRANCH   7   8
ATOM      8  C   UNL d   1       3.862  -1.010  -1.172  0.00  0.00     0.028 A 
ATOM      9  C   UNL d   1       3.301  -1.175  -2.449  0.00  0.00     0.052 A 
ATOM     10  C   UNL d   1       4.100  -1.585  -3.528  0.00  0.00     0.049 A 
ATOM     11 CL   UNL d   1       1.645  -0.897  -2.852  0.00  0.00    -0.083 Cl
ATOM     12  C   UNL d   1       5.468  -1.808  -3.375  0.00  0.00     0.041 A 
ATOM     13  C   UNL d   1       6.074  -1.596  -2.136  0.00  0.00    -0.039 A 
ATOM     14 CL   UNL d   1       6.346  -2.347  -4.759  0.00  0.00    -0.084 Cl
ATOM     15  C   UNL d   1       5.258  -1.214  -1.052  0.00  0.00     0.029 A 
ATOM     16  C   UNL d   1       7.549  -1.758  -1.888  0.00  0.00     0.050 C 
ENDBRANCH   7   8
ENDBRANCH   1   7
BRANCH   2  17
ATOM     17  N   UNL d   1       0.733  -2.678   0.497  0.00  0.00    -0.114 N 
ATOM     18  O   UNL d   1       1.436  -3.251  -0.342  0.00  0.00    -0.532 OA
ATOM     19  O   UNL d   1       0.247  -3.198   1.511  0.00  0.00    -0.532 OA
ENDBRANCH   2  17
BRANCH   3  20
ATOM     20  N   UNL d   1       1.784   2.142  -0.178  0.00  0.00    -0.114 N 
ATOM     21  O   UNL d   1       2.497   2.200  -1.185  0.00  0.00    -0.532 OA
ATOM     22  O   UNL d   1       1.728   2.984   0.727  0.00  0.00    -0.532 OA
ENDBRANCH   3  20
BRANCH   4  23
ATOM     23  C   UNL d   1      -2.936   0.587  -0.175  0.00  0.00     0.417 C 
ATOM     24  F   UNL d   1      -3.217   1.912  -0.298  0.00  0.00    -0.166 F 
ATOM     25  F   UNL d   1      -3.503  -0.024  -1.249  0.00  0.00    -0.166 F 
ATOM     26  F   UNL d   1      -3.620   0.153   0.916  0.00  0.00    -0.166 F 
ENDBRANCH   4  23
TORSDOF 5
