REMARK  6 active torsions:
REMARK  status: ('A' for Active; 'I' for Inactive)
REMARK    1  A    between atoms: N_2  and  C_1 
REMARK       I    between atoms: N_3  and  C_7 
REMARK       I    between atoms: C_5  and  N_3 
REMARK    2  A    between atoms: C_4  and  C_6 
REMARK       I    between atoms: N_11  and  C_5 
REMARK    3  A    between atoms: C_7  and  C_12 
REMARK    4  A    between atoms: O_14  and  C_9 
REMARK    5  A    between atoms: C_10  and  N_11 
REMARK    6  A    between atoms: C_23  and  O_14 
ROOT
ATOM      1  N   UNL d   1      -1.187  -3.934   1.171  0.00  0.00    -0.175 NA
ATOM      2  C   UNL d   1      -0.653  -4.873   0.298  0.00  0.00     0.305 C 
ATOM      3  C   UNL d   1      -1.482  -2.670   0.722  0.00  0.00     0.239 C 
ATOM      4  N   UNL d   1      -1.304  -6.086   0.434  0.00  0.00    -0.312 N 
ATOM      5  O   UNL d   1       0.344  -4.666  -0.373  0.00  0.00    -0.253 OA
ATOM      6  O   UNL d   1      -2.670  -2.357   0.628  0.00  0.00    -0.274 OA
ATOM      7  H   UNL d   1      -2.077  -4.279   1.500  0.00  0.00     0.141 HD
ATOM      8  H   UNL d   1      -1.801  -6.186   1.308  0.00  0.00     0.170 HD
ENDROOT
BRANCH   3   9
ATOM      9  C   UNL d   1      -0.418  -1.656   0.471  0.00  0.00     0.029 A 
ATOM     10  C   UNL d   1       0.941  -1.865   0.719  0.00  0.00     0.055 A 
ATOM     11  C   UNL d   1       1.854  -0.816   0.482  0.00  0.00     0.137 A 
ATOM     12  C   UNL d   1       1.431   0.450   0.066  0.00  0.00     0.109 A 
ATOM     13  C   UNL d   1       0.073   0.647  -0.185  0.00  0.00     0.041 A 
ATOM     14  C   UNL d   1      -0.840  -0.393   0.016  0.00  0.00     0.019 A 
BRANCH  11  15
ATOM     15  N   UNL d   1       3.263  -1.097   0.676  0.00  0.00    -0.113 N 
ATOM     16  O   UNL d   1       3.591  -1.544   1.785  0.00  0.00    -0.532 OA
ATOM     17  O   UNL d   1       4.027  -0.891  -0.275  0.00  0.00    -0.532 OA
ENDBRANCH  11  15
BRANCH  12  18
ATOM     18  O   UNL d   1       2.243   1.513  -0.237  0.00  0.00    -0.308 OA
BRANCH  18  19
ATOM     19  C   UNL d   1       3.067   2.055   0.723  0.00  0.00     0.076 A 
ATOM     20  C   UNL d   1       4.129   2.813   0.215  0.00  0.00     0.039 A 
ATOM     21  C   UNL d   1       5.055   3.404   1.077  0.00  0.00     0.026 A 
ATOM     22  C   UNL d   1       4.913   3.240   2.452  0.00  0.00     0.034 A 
ATOM     23  C   UNL d   1       3.840   2.514   2.969  0.00  0.00     0.026 A 
ATOM     24 CL   UNL d   1       6.068   3.942   3.518  0.00  0.00    -0.084 Cl
ATOM     25  C   UNL d   1       2.904   1.932   2.104  0.00  0.00     0.039 A 
ENDBRANCH  18  19
ENDBRANCH  12  18
ENDBRANCH   3   9
BRANCH   4  26
ATOM     26  C   UNL d   1      -1.201  -7.294  -0.302  0.00  0.00     0.051 A 
ATOM     27  C   UNL d   1      -0.642  -7.511  -1.573  0.00  0.00     0.074 A 
ATOM     28  C   UNL d   1      -0.643  -8.838  -2.088  0.00  0.00     0.018 A 
ATOM     29  C   UNL d   1      -1.227  -9.904  -1.407  0.00  0.00     0.001 A 
ATOM     30  C   UNL d   1      -1.823  -9.676  -0.182  0.00  0.00     0.002 A 
ATOM     31  C   UNL d   1      -1.805  -8.392   0.360  0.00  0.00     0.030 A 
BRANCH  27  32
ATOM     32  C   UNL d   1      -0.075  -6.456  -2.496  0.00  0.00     0.419 C 
ATOM     33  F   UNL d   1      -0.793  -5.300  -2.527  0.00  0.00    -0.166 F 
ATOM     34  F   UNL d   1       1.223  -6.149  -2.236  0.00  0.00    -0.166 F 
ATOM     35  F   UNL d   1      -0.069  -6.873  -3.804  0.00  0.00    -0.166 F 
ENDBRANCH  27  32
ENDBRANCH   4  26
TORSDOF 6
