REMARK  4 active torsions:
REMARK  status: ('A' for Active; 'I' for Inactive)
REMARK    1  A    between atoms: C_6  and  C_1 
REMARK    2  A    between atoms: C_4  and  C_5 
REMARK       I    between atoms: N_12  and  C_6 
REMARK       I    between atoms: C_11  and  N_14 
REMARK    3  A    between atoms: C_16  and  C_11 
REMARK    4  A    between atoms: N_14  and  N_12 
ROOT
ATOM      1  C   UNL d   1      -4.343   0.547  -0.113  0.00  0.00     0.077 A 
ATOM      2  S   UNL d   1      -5.987   1.008  -0.281  0.00  0.00    -0.083 SA
ATOM      3  C   UNL d   1      -4.223  -0.834  -0.105  0.00  0.00     0.055 A 
ATOM      4  C   UNL d   1      -8.022  -2.504  -0.509  0.00  0.00     0.064 A 
ATOM      5  C   UNL d   1      -6.536  -0.623  -0.345  0.00  0.00     0.033 A 
ATOM      6  C   UNL d   1      -5.470  -1.512  -0.234  0.00  0.00     0.050 A 
ATOM      7  N   UNL d   1      -5.630  -2.863  -0.252  0.00  0.00    -0.364 N 
ATOM      8  HN  UNL d   1      -4.840  -3.503  -0.168  1.00  0.00     0.165 HD
ATOM      9  C   UNL d   1      -7.846  -1.115  -0.487  0.00  0.00     0.038 A 
ATOM     10  C   UNL d   1      -6.897  -3.305  -0.388  0.00  0.00     0.104 A 
ENDROOT
BRANCH   1  11
ATOM     11  C   UNL d   1      -3.252   1.512  -0.004  0.00  0.00     0.277 C 
ATOM     12  N   UNL d   1      -3.596   2.854   0.027  0.00  0.00    -0.263 N 
ATOM     13  H   UNL d   1      -4.560   3.183  -0.025  0.00  0.00     0.190 HD
ATOM     14  O   UNL d   1      -2.067   1.177   0.058  0.00  0.00    -0.265 OA
BRANCH  12  15
ATOM     15  N   UNL d   1      -2.593   3.842   0.127  0.00  0.00    -0.267 N 
ATOM     16  C   UNL d   1      -2.990   5.165   0.061  0.00  0.00     0.243 C 
ATOM     17  O   UNL d   1      -4.184   5.458   0.003  0.00  0.00    -0.271 OA
ATOM     18  H   UNL d   1      -1.629   3.522   0.085  0.00  0.00     0.190 HD
BRANCH  16  19
ATOM     19  C   UNL d   1      -1.867   6.231   0.064  0.00  0.00     0.032 C 
ATOM     20  C   UNL d   1      -0.926   6.025  -1.132  0.00  0.00     0.025 C 
ATOM     21  C   UNL d   1      -2.504   7.629  -0.046  0.00  0.00     0.025 C 
ATOM     22  C   UNL d   1      -1.055   6.173   1.367  0.00  0.00     0.025 C 
ENDBRANCH  16  19
ENDBRANCH  12  15
ENDBRANCH   1  11
BRANCH   4  23
ATOM     23  C   UNL d   1      -9.368  -3.149  -0.656  0.00  0.00     0.418 C 
ATOM     24  F   UNL d   1     -10.389  -2.256  -0.774  0.00  0.00    -0.166 F 
ATOM     25  F   UNL d   1      -9.445  -3.950  -1.754  0.00  0.00    -0.166 F 
ATOM     26  F   UNL d   1      -9.686  -3.940   0.404  0.00  0.00    -0.166 F 
ENDBRANCH   4  23
TORSDOF 4
