REMARK  4 active torsions:
REMARK  status: ('A' for Active; 'I' for Inactive)
REMARK    1  A    between atoms: C_2  and  C_1 
REMARK    2  A    between atoms: C_14  and  N_3 
REMARK    3  A    between atoms: C_16  and  N_6 
REMARK    4  A    between atoms: S_15  and  C_7 
ROOT
ATOM      1  C   UNL d   1      -0.096  -1.293   0.167  0.00  0.00     0.158 A 
ATOM      2  N   UNL d   1       1.209  -0.764   0.181  0.00  0.00    -0.274 N 
ATOM      3  N   UNL d   1      -0.978  -0.324   0.304  0.00  0.00    -0.281 N 
ATOM      4  HN  UNL d   1      -1.989  -0.444   0.369  1.00  0.00     0.188 HD
ATOM      5  C   UNL d   1       0.970   0.613   0.244  0.00  0.00     0.167 A 
ATOM      6  N   UNL d   1      -0.317   0.857   0.343  0.00  0.00    -0.278 N 
ATOM      7  HN  UNL d   1      -0.745   1.779   0.434  1.00  0.00     0.189 HD
ENDROOT
BRANCH   1   8
ATOM      8  C   UNL d   1      -0.529  -2.641  -0.038  0.00  0.00     0.098 C 
ATOM      9  N   UNL d   1      -1.579  -3.241   0.625  0.00  0.00    -0.289 N 
ATOM     10  N   UNL d   1      -1.671  -4.568   0.375  0.00  0.00    -0.303 N 
ATOM     11  C   UNL d   1      -0.755  -4.788  -0.570  0.00  0.00     0.024 C 
ATOM     12  HN  UNL d   1      -2.297  -5.245   0.810  1.00  0.00     0.186 HD
ATOM     13  C   UNL d   1      -0.077  -3.603  -0.922  0.00  0.00     0.061 C 
ATOM     14  C   UNL d   1      -0.532  -6.158  -1.088  0.00  0.00     0.070 C 
BRANCH   9  15
ATOM     15  C   UNL d   1      -2.530  -2.654   1.548  0.00  0.00     0.145 C 
ATOM     16  C   UNL d   1      -3.800  -2.209   0.838  0.00  0.00     0.028 C 
ENDBRANCH   9  15
ENDBRANCH   1   8
BRANCH   2  17
ATOM     17  C   UNL d   1       2.457  -1.490   0.143  0.00  0.00     0.043 A 
ATOM     18  C   UNL d   1       2.522  -2.826   0.572  0.00  0.00     0.030 A 
ATOM     19  C   UNL d   1       3.691  -3.585   0.432  0.00  0.00     0.002 A 
ATOM     20  C   UNL d   1       4.846  -3.000  -0.068  0.00  0.00     0.000 A 
ATOM     21  C   UNL d   1       4.828  -1.657  -0.426  0.00  0.00     0.002 A 
ATOM     22  C   UNL d   1       3.642  -0.914  -0.338  0.00  0.00     0.030 A 
ENDBRANCH   2  17
BRANCH   5  23
ATOM     23  S   UNL d   1       2.143   1.894   0.337  0.00  0.00    -0.096 SA
ATOM     24  C   UNL d   1       1.076   3.349   0.190  0.00  0.00     0.099 C 
ENDBRANCH   5  23
TORSDOF 4
