REMARK  3 active torsions:
REMARK  status: ('A' for Active; 'I' for Inactive)
REMARK       I    between atoms: N_2  and  C_1 
REMARK    1  A    between atoms: O_3  and  C_1 
REMARK    2  A    between atoms: C_5  and  N_2 
REMARK    3  A    between atoms: C_6  and  O_3 
ROOT
ATOM      1  C   UNL d   1       1.152  -0.032   0.058  0.00  0.00     0.366 C 
ATOM      2  N   UNL d   1       0.504  -1.241   0.047  0.00  0.00    -0.329 N 
ATOM      3  O   UNL d   1       2.289   0.147   0.469  0.00  0.00    -0.238 OA
ATOM      4  H   UNL d   1      -0.390  -1.222  -0.425  0.00  0.00     0.165 HD
ENDROOT
BRANCH   1   5
ATOM      5  O   UNL d   1       0.329   0.940  -0.505  0.00  0.00    -0.262 OA
BRANCH   5   6
ATOM      6  C   UNL d   1       0.772   2.262  -0.747  0.00  0.00     0.081 A 
ATOM      7  C   UNL d   1       2.103   2.606  -0.978  0.00  0.00     0.037 A 
ATOM      8  C   UNL d   1       2.441   3.939  -1.220  0.00  0.00     0.003 A 
ATOM      9  C   UNL d   1       1.448   4.917  -1.262  0.00  0.00     0.000 A 
ATOM     10  C   UNL d   1       0.112   4.564  -1.067  0.00  0.00     0.003 A 
ATOM     11  C   UNL d   1      -0.228   3.235  -0.812  0.00  0.00     0.037 A 
ENDBRANCH   5   6
ENDBRANCH   1   5
BRANCH   2  12
ATOM     12  C   UNL d   1       1.175  -2.535   0.231  0.00  0.00     0.024 C 
ATOM     13  C   UNL d   1       1.908  -2.620   1.581  0.00  0.00     0.037 C 
ATOM     14  C   UNL d   1       0.112  -3.648   0.202  0.00  0.00     0.037 C 
ATOM     15  C   UNL d   1       2.163  -2.773  -0.922  0.00  0.00     0.037 C 
ENDBRANCH   2  12
TORSDOF 3
