REMARK  6 active torsions:
REMARK  status: ('A' for Active; 'I' for Inactive)
REMARK    1  A    between atoms: C_8  and  C_1 
REMARK    2  A    between atoms: C_16  and  C_4 
REMARK    3  A    between atoms: N_11  and  N_5 
REMARK    4  A    between atoms: C_9  and  N_11 
REMARK    5  A    between atoms: O_17  and  C_16 
REMARK    6  A    between atoms: C_18  and  O_17 
ROOT
ATOM      1  C   UNL d   1       3.776   1.080  -0.006  0.00  0.00     0.062 A 
ATOM      2  N   UNL d   1       3.966  -0.303   0.004  0.00  0.00    -0.350 N 
ATOM      3  HN  UNL d   1       3.213  -0.991   0.029  1.00  0.00     0.166 HD
ATOM      4  C   UNL d   1       5.250  -0.600  -0.022  0.00  0.00     0.075 A 
ATOM      5  C   UNL d   1       4.954   1.804  -0.036  0.00  0.00     0.083 A 
ATOM      6  S   UNL d   1       6.308   0.756  -0.080  0.00  0.00    -0.084 SA
ENDROOT
BRANCH   1   7
ATOM      7  C   UNL d   1       2.430   1.673   0.018  0.00  0.00     0.044 C 
ATOM      8  N   UNL d   1       1.475   0.952  -0.492  0.00  0.00    -0.319 N 
ATOM      9  HN  UNL d   1       1.666   0.012  -0.839  1.00  0.00     0.181 HD
ATOM     10  C   UNL d   1       2.260   3.051   0.620  0.00  0.00     0.071 C 
BRANCH   8  11
ATOM     11  N   UNL d   1       0.216   1.469  -0.558  0.00  0.00    -0.204 NA
ATOM     12  H   UNL d   1       0.112   2.438  -0.869  0.00  0.00     0.153 HD
BRANCH  11  13
ATOM     13  C   UNL d   1      -0.761   0.649  -1.189  0.00  0.00     0.051 A 
ATOM     14  C   UNL d   1      -0.647  -0.750  -1.184  0.00  0.00     0.050 A 
ATOM     15  C   UNL d   1      -1.630  -1.547  -1.767  0.00  0.00     0.035 A 
ATOM     16 CL   UNL d   1      -1.458  -3.261  -1.766  0.00  0.00    -0.084 Cl
ATOM     17  C   UNL d   1      -2.757  -0.971  -2.349  0.00  0.00     0.026 A 
ATOM     18  C   UNL d   1      -2.906   0.417  -2.337  0.00  0.00     0.027 A 
ATOM     19  C   UNL d   1      -1.923   1.216  -1.750  0.00  0.00     0.057 A 
ATOM     20 CL   UNL d   1      -2.147   2.933  -1.761  0.00  0.00    -0.082 Cl
ENDBRANCH  11  13
ENDBRANCH   8  11
ENDBRANCH   1   7
BRANCH   4  21
ATOM     21  C   UNL d   1       5.816  -1.987   0.061  0.00  0.00     0.240 C 
BRANCH  21  22
ATOM     22  O   UNL d   1       5.997  -2.464  -1.276  0.00  0.00    -0.345 OA
BRANCH  22  23
ATOM     23  C   UNL d   1       6.421  -3.761  -1.380  0.00  0.00     0.069 A 
ATOM     24  C   UNL d   1       6.008  -4.437  -2.533  0.00  0.00     0.038 A 
ATOM     25  C   UNL d   1       6.400  -5.760  -2.757  0.00  0.00     0.026 A 
ATOM     26  C   UNL d   1       7.222  -6.402  -1.835  0.00  0.00     0.034 A 
ATOM     27  C   UNL d   1       7.653  -5.731  -0.692  0.00  0.00     0.026 A 
ATOM     28 CL   UNL d   1       7.717  -8.026  -2.109  0.00  0.00    -0.084 Cl
ATOM     29  C   UNL d   1       7.254  -4.410  -0.465  0.00  0.00     0.038 A 
ENDBRANCH  22  23
ENDBRANCH  21  22
ENDBRANCH   4  21
TORSDOF 6
