REMARK  3 active torsions:
REMARK  status: ('A' for Active; 'I' for Inactive)
REMARK    1  A    between atoms: C_12  and  C_1 
REMARK    2  A    between atoms: C_10  and  O_11 
REMARK    3  A    between atoms: O_11  and  C_12 
ROOT
ATOM      1  O   UNL d   1      -0.321   3.403  -0.153  0.00  0.00    -0.342 OA
ENDROOT
BRANCH   1   2
ATOM      2  C   UNL d   1      -0.265   4.771  -0.084  0.00  0.00     0.091 A 
ATOM      3  C   UNL d   1       0.597   5.431  -0.976  0.00  0.00     0.069 A 
ATOM      4  C   UNL d   1       0.719   6.822  -0.954  0.00  0.00     0.050 A 
ATOM      5 CL   UNL d   1       1.552   4.551  -2.118  0.00  0.00    -0.081 Cl
ATOM      6  C   UNL d   1      -0.034   7.561  -0.048  0.00  0.00     0.035 A 
ATOM      7  C   UNL d   1      -0.917   6.925   0.821  0.00  0.00     0.026 A 
ATOM      8 CL   UNL d   1       0.122   9.274   0.000  0.00  0.00    -0.084 Cl
ATOM      9  C   UNL d   1      -1.040   5.533   0.798  0.00  0.00     0.040 A 
ENDBRANCH   1   2
BRANCH   1  10
ATOM     10  C   UNL d   1      -0.694   2.725   1.053  0.00  0.00     0.254 C 
BRANCH  10  11
ATOM     11  C   UNL d   1      -0.268   1.300   1.035  0.00  0.00     0.134 A 
ATOM     12  N   UNL d   1      -1.111   0.279   0.682  0.00  0.00    -0.269 N 
ATOM     13  N   UNL d   1      -0.417  -0.843   0.817  0.00  0.00    -0.005 NA
ATOM     14  HN  UNL d   1      -2.081   0.365   0.376  1.00  0.00     0.185 HD
ATOM     15  N   UNL d   1       0.792  -0.447   1.234  0.00  0.00    -0.225 N 
ATOM     16  N   UNL d   1       0.946   0.874   1.422  0.00  0.00    -0.273 N 
ATOM     17  H   UNL d   1       1.542  -1.111   1.409  0.00  0.00     0.205 HD
ATOM     18  HN  UNL d   1       1.751   1.401   1.761  1.00  0.00     0.189 HD
ENDBRANCH  10  11
ENDBRANCH   1  10
TORSDOF 3
