REMARK  7 active torsions:
REMARK  status: ('A' for Active; 'I' for Inactive)
REMARK    1  A    between atoms: N_10  and  C_3 
REMARK    2  A    between atoms: C_8  and  C_7 
REMARK    3  A    between atoms: C_13  and  C_7 
REMARK    4  A    between atoms: C_11  and  C_9 
REMARK    5  A    between atoms: C_16  and  C_9 
REMARK    6  A    between atoms: C_12  and  C_11 
REMARK    7  A    between atoms: C_15  and  C_12 
ROOT
ATOM      1  N   UNL d   1      -0.663   1.661   0.759  0.00  0.00    -0.303 N 
ATOM      2  HN  UNL d   1      -1.215   2.484   0.519  1.00  0.00     0.171 HD
ATOM      3  C   UNL d   1       0.629   1.647   0.747  0.00  0.00     0.150 C 
ATOM      4  C   UNL d   1      -0.203  -0.642   1.190  0.00  0.00     0.087 C 
ATOM      5  S   UNL d   1       1.360   0.106   1.165  0.00  0.00    -0.048 SA
ATOM      6  C   UNL d   1      -1.222   0.464   1.128  0.00  0.00     0.265 C 
ATOM      7  C   UNL d   1      -0.509  -1.964   1.196  0.00  0.00    -0.003 C 
ATOM      8  O   UNL d   1      -2.404   0.330   1.409  0.00  0.00    -0.267 OA
ENDROOT
BRANCH   7   9
ATOM      9  C   UNL d   1      -1.906  -2.369   0.934  0.00  0.00     0.022 C 
ATOM     10  C   UNL d   1      -2.659  -3.268   1.609  0.00  0.00    -0.040 C 
BRANCH  10  11
ATOM     11  C   UNL d   1      -2.196  -3.927   2.892  0.00  0.00     0.123 C 
BRANCH  11  12
ATOM     12  C   UNL d   1      -3.235  -4.005   4.005  0.00  0.00     0.163 C 
ATOM     13  O   UNL d   1      -3.820  -5.062   4.257  0.00  0.00    -0.292 OA
BRANCH  12  14
ATOM     14  C   UNL d   1      -3.489  -2.816   4.873  0.00  0.00     0.010 A 
ATOM     15  C   UNL d   1      -3.109  -1.516   4.512  0.00  0.00     0.018 A 
ATOM     16  C   UNL d   1      -3.358  -0.447   5.375  0.00  0.00     0.043 A 
ATOM     17  C   UNL d   1      -3.979  -0.673   6.594  0.00  0.00     0.116 A 
ATOM     18  C   UNL d   1      -4.368  -1.956   6.970  0.00  0.00     0.043 A 
ATOM     19  F   UNL d   1      -4.212   0.353   7.421  0.00  0.00    -0.206 F 
ATOM     20  C   UNL d   1      -4.127  -3.026   6.107  0.00  0.00     0.018 A 
ENDBRANCH  12  14
ENDBRANCH  11  12
ENDBRANCH  10  11
BRANCH  10  21
ATOM     21  C   UNL d   1      -3.945  -3.710   0.991  0.00  0.00    -0.029 A 
ATOM     22  C   UNL d   1      -4.376  -5.042   1.103  0.00  0.00     0.012 A 
ATOM     23  C   UNL d   1      -5.549  -5.482   0.482  0.00  0.00     0.001 A 
ATOM     24  C   UNL d   1      -6.310  -4.603  -0.280  0.00  0.00     0.000 A 
ATOM     25  C   UNL d   1      -5.910  -3.276  -0.402  0.00  0.00     0.001 A 
ATOM     26  C   UNL d   1      -4.749  -2.832   0.241  0.00  0.00     0.012 A 
ENDBRANCH  10  21
ENDBRANCH   7   9
BRANCH   7  27
ATOM     27  C   UNL d   1       0.517  -3.058   1.266  0.00  0.00    -0.024 A 
ATOM     28  C   UNL d   1       1.518  -3.105   2.250  0.00  0.00     0.015 A 
ATOM     29  C   UNL d   1       2.351  -4.224   2.365  0.00  0.00     0.043 A 
ATOM     30  C   UNL d   1       2.172  -5.312   1.517  0.00  0.00     0.116 A 
ATOM     31  C   UNL d   1       1.195  -5.293   0.535  0.00  0.00     0.043 A 
ATOM     32  F   UNL d   1       2.941  -6.398   1.661  0.00  0.00    -0.206 F 
ATOM     33  C   UNL d   1       0.384  -4.165   0.401  0.00  0.00     0.015 A 
ENDBRANCH   7  27
BRANCH   3  34
ATOM     34  N   UNL d   1       1.393   2.727   0.400  0.00  0.00    -0.361 N 
ATOM     35  C   UNL d   1       2.789   2.956   0.736  0.00  0.00     0.125 C 
ATOM     36  C   UNL d   1       2.909   4.479   0.764  0.00  0.00     0.021 C 
ATOM     37  C   UNL d   1       1.935   4.919  -0.314  0.00  0.00     0.021 C 
ATOM     38  C   UNL d   1       0.783   3.933  -0.161  0.00  0.00     0.125 C 
ENDBRANCH   3  34
TORSDOF 7
