REMARK  4 active torsions:
REMARK  status: ('A' for Active; 'I' for Inactive)
REMARK    1  A    between atoms: N_2  and  C_1 
REMARK    2  A    between atoms: O_10  and  C_5 
REMARK    3  A    between atoms: C_17  and  O_10 
REMARK    4  A    between atoms: C_15  and  C_17 
ROOT
ATOM      1  C   UNL d   1      -1.005   1.202   0.005  0.00  0.00     0.207 A 
ATOM      2  N   UNL d   1       0.365   1.145  -0.000  0.00  0.00    -0.339 N 
ATOM      3  HN  UNL d   1       0.926   1.997  -0.002  1.00  0.00     0.167 HD
ATOM      4  C   UNL d   1      -1.828   0.063  -0.006  0.00  0.00     0.119 A 
ATOM      5  C   UNL d   1       0.949  -0.070  -0.002  0.00  0.00     0.007 A 
ATOM      6  C   UNL d   1      -1.186  -1.175  -0.002  0.00  0.00     0.043 A 
ATOM      7  C   UNL d   1       0.208  -1.246   0.002  0.00  0.00     0.027 A 
ATOM      8  C   UNL d   1       2.447  -0.118  -0.003  0.00  0.00     0.068 C 
ENDROOT
BRANCH   4   9
ATOM      9  O   UNL d   1      -3.186   0.221  -0.045  0.00  0.00    -0.343 OA
BRANCH   9  10
ATOM     10  C   UNL d   1      -4.011  -0.949  -0.029  0.00  0.00     0.214 C 
BRANCH  10  11
ATOM     11  C   UNL d   1      -5.472  -0.549  -0.055  0.00  0.00    -0.032 A 
ATOM     12  C   UNL d   1      -6.421  -1.392  -0.659  0.00  0.00     0.035 A 
ATOM     13  C   UNL d   1      -7.777  -1.038  -0.690  0.00  0.00     0.056 A 
ATOM     14 CL   UNL d   1      -8.873  -2.128  -1.464  0.00  0.00    -0.083 Cl
ATOM     15  C   UNL d   1      -8.199   0.160  -0.106  0.00  0.00     0.055 A 
ATOM     16  C   UNL d   1      -7.266   0.988   0.522  0.00  0.00     0.026 A 
ATOM     17 CL   UNL d   1      -9.848   0.672  -0.126  0.00  0.00    -0.083 Cl
ATOM     18  C   UNL d   1      -5.916   0.630   0.555  0.00  0.00     0.011 A 
ENDBRANCH  10  11
ENDBRANCH   9  10
ENDBRANCH   4   9
BRANCH   1  19
ATOM     19  N   UNL d   1      -1.676   2.512   0.018  0.00  0.00    -0.095 N 
ATOM     20  O   UNL d   1      -2.410   2.777   0.984  0.00  0.00    -0.530 OA
ATOM     21  O   UNL d   1      -1.424   3.283  -0.921  0.00  0.00    -0.530 OA
ENDBRANCH   1  19
TORSDOF 4
