REMARK  4 active torsions:
REMARK  status: ('A' for Active; 'I' for Inactive)
REMARK    1  A    between atoms: C_2  and  C_1 
REMARK       I    between atoms: N_4  and  C_1 
REMARK    2  A    between atoms: C_5  and  C_3 
REMARK    3  A    between atoms: C_6  and  N_4 
REMARK    4  A    between atoms: O_13  and  C_5 
ROOT
ATOM      1  C   UNL d   1       0.953  -0.647   0.534  0.00  0.00     0.253 C 
ATOM      2  N   UNL d   1       0.108  -1.466  -0.190  0.00  0.00    -0.352 N 
ATOM      3  O   UNL d   1       0.589   0.071   1.453  0.00  0.00    -0.268 OA
ATOM      4  H   UNL d   1       0.444  -2.038  -0.960  0.00  0.00     0.163 HD
ENDROOT
BRANCH   1   5
ATOM      5  C   UNL d   1       2.375  -0.668   0.147  0.00  0.00     0.048 A 
ATOM      6  C   UNL d   1       3.071  -1.830  -0.205  0.00  0.00     0.053 A 
ATOM      7  C   UNL d   1       4.389  -1.735  -0.672  0.00  0.00     0.019 A 
ATOM      8  C   UNL d   1       5.030  -0.498  -0.735  0.00  0.00     0.001 A 
ATOM      9  C   UNL d   1       4.362   0.652  -0.322  0.00  0.00     0.001 A 
ATOM     10  C   UNL d   1       3.039   0.570   0.115  0.00  0.00     0.018 A 
BRANCH   6  11
ATOM     11  C   UNL d   1       2.494  -3.193  -0.135  0.00  0.00     0.177 C 
ATOM     12  O   UNL d   1       2.647  -3.993  -1.045  0.00  0.00    -0.646 OA
BRANCH  11  13
ATOM     13  O   UNL d   1       1.808  -3.471   0.979  0.00  0.00    -0.773 OA
ATOM     14  H   UNL d   1       1.712  -2.761   1.647  0.00  0.00     0.167 HD
ENDBRANCH  11  13
ENDBRANCH   6  11
ENDBRANCH   1   5
BRANCH   2  15
ATOM     15  C   UNL d   1      -1.312  -1.471   0.065  0.00  0.00     0.093 C 
ATOM     16  C   UNL d   1      -2.146  -2.260  -0.983  0.00  0.00     0.064 C 
ATOM     17  C   UNL d   1      -3.406  -2.489  -0.195  0.00  0.00    -0.050 C 
ATOM     18  C   UNL d   1      -4.674  -2.709  -0.692  0.00  0.00     0.007 C 
ATOM     19  C   UNL d   1      -3.188  -2.149   1.146  0.00  0.00    -0.050 C 
ATOM     20  C   UNL d   1      -5.745  -2.326   0.110  0.00  0.00     0.001 C 
ATOM     21  C   UNL d   1      -5.521  -1.762   1.380  0.00  0.00     0.001 C 
ATOM     22  C   UNL d   1      -4.238  -1.721   1.930  0.00  0.00     0.007 C 
ATOM     23  C   UNL d   1      -1.714  -2.084   1.417  0.00  0.00     0.064 C 
ENDBRANCH   2  15
TORSDOF 4
