REMARK  4 active torsions:
REMARK  status: ('A' for Active; 'I' for Inactive)
REMARK    1  A    between atoms: S_16  and  C_4 
REMARK    2  A    between atoms: O_14  and  N_7 
REMARK    3  A    between atoms: C_9  and  O_14 
REMARK       I    between atoms: N_13  and  C_9 
REMARK    4  A    between atoms: C_17  and  N_13 
ROOT
ATOM      1  C   UNL d   1       0.349   0.367   0.205  0.00  0.00     0.019 A 
ATOM      2  C   UNL d   1       0.167  -1.052   0.063  0.00  0.00    -0.037 A 
ATOM      3  C   UNL d   1      -0.771   1.288   0.041  0.00  0.00     0.046 C 
ATOM      4  C   UNL d   1       1.671   0.671   0.510  0.00  0.00     0.053 A 
ATOM      5  S   UNL d   1       2.670  -0.724   0.513  0.00  0.00    -0.093 SA
ATOM      6  C   UNL d   1       1.358  -1.742   0.159  0.00  0.00     0.059 A 
ATOM      7  N   UNL d   1      -0.536   2.564  -0.009  0.00  0.00    -0.259 N 
ATOM      8  HN  UNL d   1       0.398   2.974  -0.018  1.00  0.00     0.194 HD
ATOM      9  C   UNL d   1      -1.144  -1.702  -0.228  0.00  0.00     0.049 C 
ATOM     10  C   UNL d   1      -2.396  -0.810  -0.033  0.00  0.00    -0.038 C 
ATOM     11  C   UNL d   1      -2.172   0.718  -0.166  0.00  0.00     0.069 C 
ATOM     12  C   UNL d   1      -3.030  -1.103   1.345  0.00  0.00     0.015 C 
ATOM     13  C   UNL d   1      -3.420  -1.227  -1.115  0.00  0.00     0.015 C 
ENDROOT
BRANCH   7  14
ATOM     14  O   UNL d   1      -1.726   3.312  -0.049  0.00  0.00    -0.181 OA
BRANCH  14  15
ATOM     15  C   UNL d   1      -1.564   4.485  -0.738  0.00  0.00     0.387 C 
ATOM     16  N   UNL d   1      -2.393   5.505  -0.331  0.00  0.00    -0.301 N 
ATOM     17  H   UNL d   1      -2.416   6.268  -0.995  0.00  0.00     0.171 HD
ATOM     18  O   UNL d   1      -0.827   4.630  -1.714  0.00  0.00    -0.236 OA
BRANCH  16  19
ATOM     19  C   UNL d   1      -3.134   5.643   0.859  0.00  0.00     0.037 A 
ATOM     20  C   UNL d   1      -2.961   4.829   1.981  0.00  0.00     0.031 A 
ATOM     21  C   UNL d   1      -3.742   5.012   3.127  0.00  0.00     0.026 A 
ATOM     22  C   UNL d   1      -4.691   6.027   3.166  0.00  0.00     0.034 A 
ATOM     23  C   UNL d   1      -4.846   6.878   2.073  0.00  0.00     0.026 A 
ATOM     24 CL   UNL d   1      -5.665   6.233   4.565  0.00  0.00    -0.084 Cl
ATOM     25  C   UNL d   1      -4.063   6.691   0.927  0.00  0.00     0.031 A 
ENDBRANCH  16  19
ENDBRANCH  14  15
ENDBRANCH   7  14
BRANCH   4  26
ATOM     26  S   UNL d   1       2.396   2.234   0.885  0.00  0.00    -0.126 SA
ATOM     27  C   UNL d   1       3.004   2.686  -0.756  0.00  0.00     0.096 C 
ENDBRANCH   4  26
TORSDOF 4
