REMARK  10 active torsions:
REMARK  status: ('A' for Active; 'I' for Inactive)
REMARK    1  A    between atoms: C_3  and  C_1 
REMARK    2  A    between atoms: C_23  and  N_2 
REMARK    3  A    between atoms: S_16  and  C_6 
REMARK    4  A    between atoms: N_11  and  C_15 
REMARK    5  A    between atoms: C_22  and  S_16 
REMARK    6  A    between atoms: C_18  and  C_20 
REMARK    7  A    between atoms: C_20  and  C_22 
REMARK    8  A    between atoms: C_25  and  C_23 
REMARK    9  A    between atoms: C_31  and  C_25 
REMARK   10  A    between atoms: O_30  and  C_31 
ROOT
ATOM      1  C   UNL d   1      -0.211  -1.264   0.020  0.00  0.00     0.152 A 
ATOM      2  N   UNL d   1       1.091  -0.836  -0.113  0.00  0.00    -0.309 N 
ATOM      3  N   UNL d   1      -1.020  -0.239  -0.183  0.00  0.00    -0.281 N 
ATOM      4  HN  UNL d   1      -2.039  -0.270  -0.164  1.00  0.00     0.188 HD
ATOM      5  C   UNL d   1       1.003   0.510  -0.358  0.00  0.00     0.163 A 
ATOM      6  N   UNL d   1      -0.255   0.875  -0.424  0.00  0.00    -0.278 N 
ATOM      7  HN  UNL d   1      -0.601   1.814  -0.618  1.00  0.00     0.189 HD
ENDROOT
BRANCH   5   8
ATOM      8  S   UNL d   1       2.367   1.553  -0.559  0.00  0.00    -0.085 SA
BRANCH   8   9
ATOM      9  C   UNL d   1       1.570   3.007  -1.298  0.00  0.00     0.166 C 
BRANCH   9  10
ATOM     10  C   UNL d   1       2.576   4.112  -1.585  0.00  0.00     0.169 C 
ATOM     11  O   UNL d   1       3.709   4.147  -1.108  0.00  0.00    -0.291 OA
BRANCH  10  12
ATOM     12  C   UNL d   1       2.160   5.236  -2.486  0.00  0.00     0.013 A 
ATOM     13  C   UNL d   1       0.862   5.348  -3.000  0.00  0.00     0.051 A 
ATOM     14  C   UNL d   1       0.549   6.415  -3.861  0.00  0.00     0.103 A 
ATOM     15  C   UNL d   1       1.512   7.374  -4.200  0.00  0.00     0.036 A 
ATOM     16  C   UNL d   1       2.798   7.267  -3.676  0.00  0.00     0.003 A 
ATOM     17  C   UNL d   1       3.118   6.205  -2.826  0.00  0.00     0.015 A 
BRANCH  14  18
ATOM     18  N   UNL d   1      -0.804   6.519  -4.422  0.00  0.00    -0.116 N 
ATOM     19  O   UNL d   1      -1.627   5.651  -4.097  0.00  0.00    -0.532 OA
ATOM     20  O   UNL d   1      -1.042   7.462  -5.190  0.00  0.00    -0.532 OA
ENDBRANCH  14  18
ENDBRANCH  10  12
ENDBRANCH   9  10
ENDBRANCH   8   9
ENDBRANCH   5   8
BRANCH   2  21
ATOM     21  C   UNL d   1       2.292  -1.636   0.003  0.00  0.00     0.135 C 
BRANCH  21  22
ATOM     22  C   UNL d   1       2.578  -2.561  -1.180  0.00  0.00     0.046 C 
BRANCH  22  23
ATOM     23  C   UNL d   1       2.658  -1.865  -2.532  0.00  0.00     0.168 C 
BRANCH  23  24
ATOM     24  O   UNL d   1       2.973  -2.866  -3.501  0.00  0.00    -0.396 OA
ATOM     25  C   UNL d   1       3.000  -2.343  -4.822  0.00  0.00     0.201 C 
ENDBRANCH  23  24
ENDBRANCH  22  23
ENDBRANCH  21  22
ENDBRANCH   2  21
BRANCH   1  26
ATOM     26  C   UNL d   1      -0.690  -2.647   0.319  0.00  0.00     0.085 A 
ATOM     27  N   UNL d   1       0.176  -3.705   0.522  0.00  0.00    -0.351 N 
ATOM     28  C   UNL d   1      -0.505  -4.818   0.695  0.00  0.00     0.047 A 
ATOM     29  HN  UNL d   1       1.194  -3.634   0.536  1.00  0.00     0.166 HD
ATOM     30  C   UNL d   1       0.115  -6.159   0.876  0.00  0.00     0.076 C 
ATOM     31  S   UNL d   1      -2.214  -4.643   0.701  0.00  0.00    -0.087 SA
ATOM     32  C   UNL d   1      -2.030  -2.966   0.402  0.00  0.00     0.084 A 
ENDBRANCH   1  26
TORSDOF 10
