REMARK  2 active torsions:
REMARK  status: ('A' for Active; 'I' for Inactive)
REMARK    1  A    between atoms: S_18  and  C_3 
REMARK    2  A    between atoms: C_6  and  C_4 
REMARK       I    between atoms: C_11  and  N_9 
REMARK       I    between atoms: N_20  and  C_11 
ROOT
ATOM      1  C   UNL d   1       0.101  -0.711   0.055  0.00  0.00     0.041 A 
ATOM      2  C   UNL d   1       0.494   0.693   0.136  0.00  0.00    -0.022 A 
ATOM      3  C   UNL d   1       1.192  -1.559   0.041  0.00  0.00     0.056 A 
ATOM      4  C   UNL d   1       1.875   0.834   0.120  0.00  0.00     0.041 A 
ATOM      5  S   UNL d   1       2.655  -0.694   0.116  0.00  0.00    -0.080 SA
ATOM      6  C   UNL d   1      -1.305  -1.117  -0.041  0.00  0.00     0.162 C 
ATOM      7  C   UNL d   1      -0.541   1.793   0.111  0.00  0.00     0.050 C 
ATOM      8  C   UNL d   1      -1.983   1.294   0.421  0.00  0.00    -0.037 C 
ATOM      9  C   UNL d   1      -2.294  -0.009  -0.344  0.00  0.00     0.093 C 
ATOM     10  O   UNL d   1      -1.692  -2.277   0.064  0.00  0.00    -0.292 OA
ATOM     11  C   UNL d   1      -2.999   2.361  -0.031  0.00  0.00     0.015 C 
ATOM     12  C   UNL d   1      -2.166   1.076   1.938  0.00  0.00     0.015 C 
ENDROOT
BRANCH   4  13
ATOM     13  C   UNL d   1       2.695   2.109   0.066  0.00  0.00     0.067 A 
ATOM     14  N   UNL d   1       2.230   3.348   0.309  0.00  0.00    -0.289 N 
ATOM     15  N   UNL d   1       3.327   4.162   0.115  0.00  0.00    -0.217 N 
ATOM     16  HN  UNL d   1       1.284   3.621   0.575  1.00  0.00     0.188 HD
ATOM     17  C   UNL d   1       3.301   5.558   0.352  0.00  0.00     0.340 C 
ATOM     18  C   UNL d   1       4.432   3.449  -0.285  0.00  0.00     0.124 A 
ATOM     19  O   UNL d   1       4.282   6.244   0.096  0.00  0.00    -0.245 OA
ATOM     20  N   UNL d   1       2.130   5.972   0.941  0.00  0.00    -0.346 N 
ATOM     21  C   UNL d   1       2.050   7.292   1.508  0.00  0.00     0.151 C 
ATOM     22  H   UNL d   1       1.481   5.241   1.226  0.00  0.00     0.163 HD
ATOM     23  C   UNL d   1       4.073   2.130  -0.278  0.00  0.00     0.052 A 
ENDBRANCH   4  13
BRANCH   3  24
ATOM     24  S   UNL d   1       1.251  -3.310  -0.138  0.00  0.00    -0.126 SA
ATOM     25  C   UNL d   1       0.821  -3.834   1.535  0.00  0.00     0.096 C 
ENDBRANCH   3  24
TORSDOF 2
