REMARK  1 active torsions:
REMARK  status: ('A' for Active; 'I' for Inactive)
REMARK       I    between atoms: C_11  and  N_5 
REMARK    1  A    between atoms: S_16  and  C_7 
ROOT
ATOM      1  C   UNL d   1      -0.749  -0.663   0.045  0.00  0.00     0.069 A 
ATOM      2  C   UNL d   1       0.718  -0.636   0.013  0.00  0.00     0.023 A 
ATOM      3  N   UNL d   1      -1.539  -1.716   0.216  0.00  0.00    -0.290 N 
ATOM      4  HN  UNL d   1      -1.258  -2.686   0.360  1.00  0.00     0.187 HD
ATOM      5  N   UNL d   1      -2.810  -1.219   0.158  0.00  0.00    -0.235 N 
ATOM      6  C   UNL d   1      -1.471   0.543  -0.077  0.00  0.00    -0.011 A 
ATOM      7  C   UNL d   1       1.622  -1.665  -0.156  0.00  0.00     0.053 A 
ATOM      8  C   UNL d   1      -2.790   0.160  -0.007  0.00  0.00     0.129 A 
ATOM      9  C   UNL d   1       1.355   0.657   0.137  0.00  0.00    -0.037 A 
ATOM     10  S   UNL d   1       3.235  -1.075  -0.139  0.00  0.00    -0.093 SA
ATOM     11  C   UNL d   1      -3.897  -2.115   0.273  0.00  0.00     0.238 C 
ATOM     12  C   UNL d   1       2.727   0.543   0.076  0.00  0.00     0.059 A 
ATOM     13  C   UNL d   1      -0.837   1.879  -0.277  0.00  0.00     0.047 C 
ATOM     14  C   UNL d   1       0.576   1.936   0.343  0.00  0.00     0.045 C 
ATOM     15  O   UNL d   1      -3.705  -3.318   0.437  0.00  0.00    -0.272 OA
ATOM     16  C   UNL d   1      -5.276  -1.531   0.183  0.00  0.00     0.119 C 
ENDROOT
BRANCH   7  17
ATOM     17  S   UNL d   1       1.313  -3.376  -0.431  0.00  0.00    -0.126 SA
ATOM     18  C   UNL d   1       1.145  -3.942   1.277  0.00  0.00     0.096 C 
ENDBRANCH   7  17
TORSDOF 1
