REMARK  4 active torsions:
REMARK  status: ('A' for Active; 'I' for Inactive)
REMARK    1  A    between atoms: C_2  and  C_1 
REMARK       I    between atoms: N_3  and  C_1 
REMARK    2  A    between atoms: C_10  and  N_3 
REMARK    3  A    between atoms: O_11  and  C_5 
REMARK    4  A    between atoms: O_12  and  C_6 
ROOT
ATOM      1  C   UNL d   1       0.187   0.769   0.899  0.00  0.00     0.035 A 
ATOM      2  C   UNL d   1       0.582   2.115   0.985  0.00  0.00     0.056 A 
ATOM      3  C   UNL d   1      -0.175   3.052   1.705  0.00  0.00     0.102 A 
ATOM      4  C   UNL d   1      -1.345   2.618   2.354  0.00  0.00     0.101 A 
ATOM      5  C   UNL d   1      -0.950   0.339   1.583  0.00  0.00     0.020 A 
ATOM      6  C   UNL d   1      -1.714   1.266   2.290  0.00  0.00     0.040 A 
ENDROOT
BRANCH   1   7
ATOM      7  C   UNL d   1       1.001  -0.151   0.048  0.00  0.00     0.256 C 
ATOM      8  N   UNL d   1       0.292  -1.170  -0.564  0.00  0.00    -0.323 N 
ATOM      9  H   UNL d   1      -0.707  -1.200  -0.409  0.00  0.00     0.169 HD
ATOM     10  O   UNL d   1       2.197   0.093  -0.081  0.00  0.00    -0.267 OA
BRANCH   8  11
ATOM     11  C   UNL d   1       0.775  -2.111  -1.499  0.00  0.00     0.035 A 
ATOM     12  C   UNL d   1       2.099  -2.168  -1.936  0.00  0.00     0.029 A 
ATOM     13  C   UNL d   1       2.485  -3.094  -2.912  0.00  0.00     0.002 A 
ATOM     14  C   UNL d   1       1.553  -3.978  -3.449  0.00  0.00     0.000 A 
ATOM     15  C   UNL d   1       0.235  -3.946  -3.004  0.00  0.00     0.002 A 
ATOM     16  C   UNL d   1      -0.152  -3.017  -2.033  0.00  0.00     0.029 A 
ENDBRANCH   8  11
ENDBRANCH   1   7
BRANCH   3  17
ATOM     17  O   UNL d   1       0.153   4.379   1.781  0.00  0.00    -0.353 OA
ATOM     18  C   UNL d   1       1.328   4.824   1.114  0.00  0.00     0.210 C 
ENDBRANCH   3  17
BRANCH   4  19
ATOM     19  O   UNL d   1      -2.261   3.369   3.042  0.00  0.00    -0.353 OA
ATOM     20  C   UNL d   1      -1.825   4.588   3.627  0.00  0.00     0.210 C 
ENDBRANCH   4  19
TORSDOF 4
