REMARK  5 active torsions:
REMARK  status: ('A' for Active; 'I' for Inactive)
REMARK       I    between atoms: C_3  and  N_1 
REMARK    1  A    between atoms: N_6  and  C_2 
REMARK    2  A    between atoms: O_15  and  C_3 
REMARK    3  A    between atoms: N_8  and  N_6 
REMARK    4  A    between atoms: C_7  and  N_8 
REMARK    5  A    between atoms: C_21  and  O_15 
ROOT
ATOM      1  N   UNL d   1       0.717   1.251   0.055  0.00  0.00    -0.125 N 
ATOM      2  C   UNL d   1      -0.680   1.206   0.033  0.00  0.00     0.699 C 
ATOM      3  C   UNL d   1       1.410   2.450  -0.107  0.00  0.00     0.381 C 
ATOM      4  N   UNL d   1      -1.355   0.098   0.089  0.00  0.00    -0.224 N 
ATOM      5  HN  UNL d   1      -2.373   0.126   0.022  1.00  0.00     0.177 HD
ATOM      6  O   UNL d   1       0.875   3.548  -0.227  0.00  0.00    -0.237 OA
ATOM      7  C   UNL d   1       1.453   0.002   0.206  0.00  0.00     0.155 C 
ATOM      8  C   UNL d   1      -0.683  -1.183   0.247  0.00  0.00     0.139 C 
ATOM      9  C   UNL d   1       0.693  -1.170  -0.369  0.00  0.00     0.041 C 
ENDROOT
BRANCH   2  10
ATOM     10  N   UNL d   1      -1.376   2.399  -0.068  0.00  0.00    -0.132 N 
ATOM     11  H   UNL d   1      -0.797   3.237  -0.184  0.00  0.00     0.205 HD
BRANCH  10  12
ATOM     12  N   UNL d   1      -2.629   2.481  -0.623  0.00  0.00    -0.286 N 
ATOM     13  H   UNL d   1      -3.040   1.560  -0.804  0.00  0.00     0.187 HD
BRANCH  12  14
ATOM     14  C   UNL d   1      -3.583   3.427  -0.173  0.00  0.00     0.057 A 
ATOM     15  C   UNL d   1      -3.245   4.350   0.832  0.00  0.00     0.073 A 
ATOM     16  C   UNL d   1      -4.143   5.331   1.233  0.00  0.00     0.118 A 
ATOM     17  F   UNL d   1      -3.801   6.177   2.214  0.00  0.00    -0.206 F 
ATOM     18  C   UNL d   1      -5.383   5.451   0.630  0.00  0.00     0.043 A 
ATOM     19  C   UNL d   1      -5.731   4.565  -0.386  0.00  0.00     0.012 A 
ATOM     20  C   UNL d   1      -4.846   3.544  -0.794  0.00  0.00    -0.034 A 
ATOM     21  C   UNL d   1      -5.308   2.651  -1.915  0.00  0.00     0.050 C 
ENDBRANCH  12  14
ENDBRANCH  10  12
ENDBRANCH   2  10
BRANCH   3  22
ATOM     22  O   UNL d   1       2.761   2.281  -0.207  0.00  0.00    -0.304 OA
BRANCH  22  23
ATOM     23  C   UNL d   1       3.449   3.339  -0.893  0.00  0.00     0.176 C 
ATOM     24  C   UNL d   1       3.389   3.047  -2.383  0.00  0.00     0.034 C 
ENDBRANCH  22  23
ENDBRANCH   3  22
TORSDOF 5
