REMARK  6 active torsions:
REMARK  status: ('A' for Active; 'I' for Inactive)
REMARK    1  A    between atoms: C_4  and  C_1 
REMARK    2  A    between atoms: C_10  and  C_2 
REMARK    3  A    between atoms: S_7  and  C_3 
REMARK       I    between atoms: N_9  and  C_4 
REMARK    4  A    between atoms: C_20  and  S_7 
REMARK    5  A    between atoms: C_8  and  N_9 
REMARK    6  A    between atoms: C_25  and  C_20 
ROOT
ATOM      1  C   UNL d   1       0.384  -2.278   0.604  0.00  0.00     0.261 C 
ATOM      2  N   UNL d   1      -0.001  -3.337  -0.204  0.00  0.00    -0.321 N 
ATOM      3  O   UNL d   1       1.288  -2.317   1.433  0.00  0.00    -0.267 OA
ATOM      4  H   UNL d   1      -0.552  -3.140  -1.038  0.00  0.00     0.169 HD
ENDROOT
BRANCH   1   5
ATOM      5  C   UNL d   1      -0.367  -1.066   0.367  0.00  0.00     0.093 A 
ATOM      6  C   UNL d   1       0.047   0.293   0.166  0.00  0.00     0.085 A 
ATOM      7  N   UNL d   1      -1.040   1.083   0.068  0.00  0.00    -0.259 N 
ATOM      8  O   UNL d   1      -2.140   0.283   0.242  0.00  0.00    -0.241 OA
ATOM      9  HN  UNL d   1      -1.044   2.088  -0.105  1.00  0.00     0.195 HD
ATOM     10  C   UNL d   1      -1.746  -0.995   0.433  0.00  0.00     0.090 A 
ATOM     11  C   UNL d   1      -2.816  -1.970   0.729  0.00  0.00     0.080 C 
BRANCH   6  12
ATOM     12  C   UNL d   1       1.377   0.922   0.085  0.00  0.00     0.015 A 
ATOM     13  C   UNL d   1       2.475   0.393  -0.609  0.00  0.00     0.046 A 
ATOM     14 CL   UNL d   1       2.393  -1.039  -1.569  0.00  0.00    -0.083 Cl
ATOM     15  C   UNL d   1       3.703   1.077  -0.636  0.00  0.00     0.025 A 
ATOM     16  C   UNL d   1       3.843   2.316  -0.014  0.00  0.00     0.002 A 
ATOM     17  C   UNL d   1       2.755   2.880   0.637  0.00  0.00     0.001 A 
ATOM     18  C   UNL d   1       1.541   2.186   0.694  0.00  0.00     0.015 A 
ENDBRANCH   6  12
ENDBRANCH   1   5
BRANCH   2  19
ATOM     19  C   UNL d   1       0.359  -4.670   0.005  0.00  0.00     0.063 A 
ATOM     20  C   UNL d   1       0.388  -5.691  -1.005  0.00  0.00     0.092 A 
ATOM     21  C   UNL d   1       0.662  -6.942  -0.493  0.00  0.00     0.075 A 
ATOM     22  S   UNL d   1       0.929  -6.895   1.192  0.00  0.00    -0.110 SA
ATOM     23  C   UNL d   1       0.686  -5.202   1.237  0.00  0.00     0.080 A 
BRANCH  20  24
ATOM     24  S   UNL d   1       0.184  -5.388  -2.701  0.00  0.00     0.178 S 
ATOM     25  O   UNL d   1       0.194  -6.695  -3.325  0.00  0.00    -0.223 OA
ATOM     26  O   UNL d   1      -0.964  -4.500  -2.747  0.00  0.00    -0.223 OA
BRANCH  24  27
ATOM     27  C   UNL d   1       1.651  -4.480  -3.150  0.00  0.00     0.145 C 
BRANCH  27  28
ATOM     28  C   UNL d   1       1.694  -4.188  -4.644  0.00  0.00     0.011 C 
ATOM     29  C   UNL d   1       2.859  -3.280  -5.006  0.00  0.00     0.006 C 
ENDBRANCH  27  28
ENDBRANCH  24  27
ENDBRANCH  20  24
ENDBRANCH   2  19
TORSDOF 6
