REMARK  6 active torsions:
REMARK  status: ('A' for Active; 'I' for Inactive)
REMARK    1  A    between atoms: S_7  and  C_2 
REMARK    2  A    between atoms: C_8  and  C_3 
REMARK    3  A    between atoms: C_13  and  S_7 
REMARK    4  A    between atoms: C_9  and  C_13 
REMARK       I    between atoms: N_10  and  C_9 
REMARK    5  A    between atoms: C_18  and  N_10 
REMARK    6  A    between atoms: C_21  and  C_11 
ROOT
ATOM      1  S   UNL d   1       0.842   2.504  -1.222  0.00  0.00    -0.084 SA
ENDROOT
BRANCH   1   2
ATOM      2  C   UNL d   1       0.634   0.814  -0.854  0.00  0.00     0.147 C 
ATOM      3  N   UNL d   1      -0.269  -0.004  -1.491  0.00  0.00    -0.330 N 
ATOM      4  C   UNL d   1      -0.361  -1.181  -0.759  0.00  0.00     0.061 C 
ATOM      5  C   UNL d   1      -0.945   0.278  -2.736  0.00  0.00     0.158 C 
ATOM      6  C   UNL d   1       0.672  -1.064   0.159  0.00  0.00     0.120 C 
ATOM      7  N   UNL d   1       1.268   0.168   0.099  0.00  0.00    -0.344 N 
ATOM      8  HN  UNL d   1       2.039   0.511   0.672  1.00  0.00     0.167 HD
BRANCH   4   9
ATOM      9  C   UNL d   1      -1.361  -2.245  -0.913  0.00  0.00    -0.008 A 
ATOM     10  C   UNL d   1      -1.029  -3.591  -0.694  0.00  0.00     0.015 A 
ATOM     11  C   UNL d   1      -2.008  -4.592  -0.757  0.00  0.00     0.024 A 
ATOM     12  C   UNL d   1      -3.328  -4.257  -1.047  0.00  0.00     0.034 A 
ATOM     13  C   UNL d   1      -3.678  -2.931  -1.269  0.00  0.00     0.024 A 
ATOM     14 CL   UNL d   1      -4.537  -5.479  -1.107  0.00  0.00    -0.084 Cl
ATOM     15  C   UNL d   1      -2.703  -1.932  -1.187  0.00  0.00     0.015 A 
ENDBRANCH   4   9
ENDBRANCH   1   2
BRANCH   1  16
ATOM     16  C   UNL d   1       2.201   2.886  -0.090  0.00  0.00     0.185 C 
BRANCH  16  17
ATOM     17  C   UNL d   1       2.601   4.344   0.041  0.00  0.00     0.231 C 
ATOM     18  N   UNL d   1       1.894   5.295  -0.676  0.00  0.00    -0.327 N 
ATOM     19  H   UNL d   1       1.035   4.982  -1.115  0.00  0.00     0.169 HD
ATOM     20  O   UNL d   1       3.542   4.606   0.792  0.00  0.00    -0.272 OA
BRANCH  18  21
ATOM     21  C   UNL d   1       2.238   6.663  -0.818  0.00  0.00     0.034 A 
ATOM     22  C   UNL d   1       3.471   7.183  -0.418  0.00  0.00     0.030 A 
ATOM     23  C   UNL d   1       3.805   8.523  -0.646  0.00  0.00     0.010 A 
ATOM     24  C   UNL d   1       2.914   9.390  -1.284  0.00  0.00    -0.055 A 
ATOM     25  C   UNL d   1       1.663   8.882  -1.660  0.00  0.00     0.010 A 
ATOM     26  C   UNL d   1       1.331   7.532  -1.436  0.00  0.00     0.030 A 
BRANCH  24  27
ATOM     27  C   UNL d   1       3.314  10.822  -1.603  0.00  0.00     0.010 C 
ATOM     28  C   UNL d   1       3.665  11.623  -0.345  0.00  0.00     0.015 C 
ATOM     29  C   UNL d   1       4.484  10.853  -2.595  0.00  0.00     0.015 C 
ENDBRANCH  24  27
ENDBRANCH  18  21
ENDBRANCH  16  17
ENDBRANCH   1  16
TORSDOF 6
