REMARK  5 active torsions:
REMARK  status: ('A' for Active; 'I' for Inactive)
REMARK    1  A    between atoms: C_7  and  S_1 
REMARK    2  A    between atoms: C_11  and  S_1 
REMARK    3  A    between atoms: C_2  and  S_12 
REMARK    4  A    between atoms: C_14  and  C_7 
REMARK    5  A    between atoms: S_12  and  C_14 
ROOT
ATOM      1  C   UNL d   1       0.989  -0.199  -2.653  0.00  0.00     0.095 C 
ENDROOT
BRANCH   1   2
ATOM      2  S   UNL d   1       0.584  -1.260  -4.078  0.00  0.00    -0.122 SA
BRANCH   2   3
ATOM      3  C   UNL d   1       1.209  -0.310  -5.413  0.00  0.00     0.041 C 
ATOM      4  C   UNL d   1       2.230  -0.818  -6.106  0.00  0.00     0.075 C 
ATOM      5  C   UNL d   1       2.824  -0.234  -7.318  0.00  0.00     0.152 C 
ATOM      6  O   UNL d   1       3.744  -0.852  -7.859  0.00  0.00    -0.293 OA
ATOM      7  C   UNL d   1       2.282   1.021  -7.945  0.00  0.00     0.103 C 
ATOM      8  C   UNL d   1       1.411   1.948  -7.092  0.00  0.00     0.013 C 
ATOM      9  S   UNL d   1       0.355   1.121  -5.855  0.00  0.00    -0.113 SA
ATOM     10  C   UNL d   1       2.268   3.012  -6.386  0.00  0.00     0.027 C 
ATOM     11  C   UNL d   1       0.424   2.670  -8.033  0.00  0.00     0.027 C 
ENDBRANCH   2   3
ENDBRANCH   1   2
BRANCH   1  12
ATOM     12  C   UNL d   1       0.480  -0.855  -1.379  0.00  0.00     0.156 C 
BRANCH  12  13
ATOM     13  S   UNL d   1       0.901   0.146   0.027  0.00  0.00     0.176 S 
ATOM     14  O   UNL d   1       0.254   1.433  -0.114  0.00  0.00    -0.223 OA
ATOM     15  O   UNL d   1       2.335   0.055   0.239  0.00  0.00    -0.223 OA
BRANCH  13  16
ATOM     16  C   UNL d   1       0.112  -0.692   1.392  0.00  0.00     0.059 A 
ATOM     17  C   UNL d   1       0.813  -1.669   2.103  0.00  0.00     0.023 A 
ATOM     18  C   UNL d   1       0.204  -2.293   3.192  0.00  0.00     0.002 A 
ATOM     19  C   UNL d   1      -1.090  -1.932   3.573  0.00  0.00     0.000 A 
ATOM     20  C   UNL d   1      -1.782  -0.945   2.867  0.00  0.00     0.002 A 
ATOM     21  C   UNL d   1      -1.181  -0.317   1.776  0.00  0.00     0.023 A 
ENDBRANCH  13  16
ENDBRANCH  12  13
ENDBRANCH   1  12
TORSDOF 5
