REMARK  6 active torsions:
REMARK  status: ('A' for Active; 'I' for Inactive)
REMARK    1  A    between atoms: S_9  and  C_1 
REMARK    2  A    between atoms: N_14  and  N_4 
REMARK    3  A    between atoms: C_8  and  C_11 
REMARK    4  A    between atoms: C_11  and  S_9 
REMARK    5  A    between atoms: C_10  and  C_13 
REMARK    6  A    between atoms: C_18  and  N_14 
ROOT
ATOM      1  C   UNL d   1       5.069   0.966  -0.327  0.00  0.00     0.144 A 
ATOM      2  N   UNL d   1       3.914   0.290  -0.267  0.00  0.00    -0.336 N 
ATOM      3  HN  UNL d   1       3.019   0.744  -0.446  1.00  0.00     0.168 HD
ATOM      4  N   UNL d   1       6.278   0.417  -0.134  0.00  0.00    -0.347 N 
ATOM      5  HN  UNL d   1       7.133   0.970  -0.201  1.00  0.00     0.167 HD
ATOM      6  C   UNL d   1       3.994  -1.023   0.043  0.00  0.00     0.051 A 
ATOM      7  C   UNL d   1       6.308  -0.895   0.153  0.00  0.00     0.092 A 
ATOM      8  C   UNL d   1       5.185  -1.679   0.250  0.00  0.00     0.048 A 
ENDROOT
BRANCH   6   9
ATOM      9  C   UNL d   1       2.662  -1.677   0.086  0.00  0.00     0.131 C 
ATOM     10  N   UNL d   1       2.249  -2.783   0.638  0.00  0.00    -0.326 N 
ATOM     11  HN  UNL d   1       1.273  -3.070   0.569  1.00  0.00     0.180 HD
BRANCH  10  12
ATOM     12  N   UNL d   1       3.152  -3.546   1.309  0.00  0.00    -0.206 NA
ATOM     13  H   UNL d   1       3.463  -4.349   0.757  0.00  0.00     0.153 HD
BRANCH  12  14
ATOM     14  C   UNL d   1       2.741  -4.056   2.576  0.00  0.00     0.027 A 
ATOM     15  C   UNL d   1       3.407  -5.172   3.102  0.00  0.00     0.025 A 
ATOM     16  C   UNL d   1       3.107  -5.659   4.377  0.00  0.00     0.002 A 
ATOM     17  C   UNL d   1       2.151  -5.016   5.158  0.00  0.00     0.000 A 
ATOM     18  C   UNL d   1       1.499  -3.888   4.663  0.00  0.00     0.002 A 
ATOM     19  C   UNL d   1       1.800  -3.404   3.385  0.00  0.00     0.025 A 
ENDBRANCH  12  14
ENDBRANCH  10  12
ENDBRANCH   6   9
BRANCH   1  20
ATOM     20  S   UNL d   1       5.029   2.687  -0.761  0.00  0.00    -0.089 SA
BRANCH  20  21
ATOM     21  C   UNL d   1       3.374   3.115  -0.145  0.00  0.00     0.122 C 
BRANCH  21  22
ATOM     22  C   UNL d   1       2.965   4.520  -0.525  0.00  0.00    -0.027 A 
ATOM     23  C   UNL d   1       3.153   5.630   0.313  0.00  0.00     0.041 A 
ATOM     24 CL   UNL d   1       3.932   5.498   1.849  0.00  0.00    -0.084 Cl
ATOM     25  C   UNL d   1       2.701   6.898  -0.074  0.00  0.00     0.024 A 
ATOM     26  C   UNL d   1       2.073   7.077  -1.306  0.00  0.00     0.002 A 
ATOM     27  C   UNL d   1       1.907   5.993  -2.162  0.00  0.00     0.001 A 
ATOM     28  C   UNL d   1       2.352   4.727  -1.777  0.00  0.00     0.009 A 
ENDBRANCH  21  22
ENDBRANCH  20  21
ENDBRANCH   1  20
TORSDOF 6
