REMARK  8 active torsions:
REMARK  status: ('A' for Active; 'I' for Inactive)
REMARK    1  A    between atoms: C_8  and  S_1 
REMARK    2  A    between atoms: C_14  and  S_1 
REMARK    3  A    between atoms: C_2  and  C_3 
REMARK    4  A    between atoms: S_4  and  C_2 
REMARK    5  A    between atoms: C_6  and  S_4 
REMARK    6  A    between atoms: C_5  and  S_17 
REMARK    7  A    between atoms: C_20  and  C_8 
REMARK    8  A    between atoms: S_17  and  C_20 
ROOT
ATOM      1  C   UNL d   1       0.731   1.924  -5.911  0.00  0.00     0.055 C 
ATOM      2  C   UNL d   1       1.687   0.891  -5.806  0.00  0.00     0.084 C 
ATOM      3  N   UNL d   1       2.200   0.263  -6.898  0.00  0.00    -0.360 N 
ATOM      4  HN  UNL d   1       2.773  -0.576  -6.808  1.00  0.00     0.166 HD
ATOM      5  C   UNL d   1       0.479   2.441  -7.191  0.00  0.00     0.020 C 
ATOM      6  C   UNL d   1       1.917   0.796  -8.110  0.00  0.00     0.089 C 
ATOM      7  C   UNL d   1       1.135   1.920  -8.296  0.00  0.00     0.018 C 
ENDROOT
BRANCH   2   8
ATOM      8  S   UNL d   1       2.720   0.781  -4.332  0.00  0.00    -0.110 SA
BRANCH   8   9
ATOM      9  C   UNL d   1       3.450  -0.902  -4.283  0.00  0.00     0.096 C 
BRANCH   9  10
ATOM     10  C   UNL d   1       4.382  -1.478  -5.342  0.00  0.00     0.156 C 
BRANCH  10  11
ATOM     11  S   UNL d   1       5.889  -0.577  -5.603  0.00  0.00     0.176 S 
ATOM     12  O   UNL d   1       6.486  -0.274  -4.328  0.00  0.00    -0.223 OA
ATOM     13  O   UNL d   1       5.652   0.468  -6.585  0.00  0.00    -0.223 OA
BRANCH  11  14
ATOM     14  C   UNL d   1       6.959  -1.780  -6.405  0.00  0.00     0.059 A 
ATOM     15  C   UNL d   1       6.897  -1.952  -7.790  0.00  0.00     0.023 A 
ATOM     16  C   UNL d   1       7.738  -2.880  -8.412  0.00  0.00     0.002 A 
ATOM     17  C   UNL d   1       8.650  -3.618  -7.654  0.00  0.00     0.000 A 
ATOM     18  C   UNL d   1       8.731  -3.424  -6.277  0.00  0.00     0.002 A 
ATOM     19  C   UNL d   1       7.892  -2.499  -5.644  0.00  0.00     0.023 A 
ENDBRANCH  11  14
ENDBRANCH  10  11
ENDBRANCH   9  10
ENDBRANCH   8   9
ENDBRANCH   2   8
BRANCH   1  20
ATOM     20  C   UNL d   1      -0.010   2.448  -4.716  0.00  0.00     0.226 C 
ATOM     21  O   UNL d   1      -0.219   1.742  -3.747  0.00  0.00    -0.279 OA
BRANCH  20  22
ATOM     22  S   UNL d   1      -0.838   4.015  -4.850  0.00  0.00    -0.046 SA
BRANCH  22  23
ATOM     23  C   UNL d   1       0.289   5.221  -4.157  0.00  0.00     0.030 A 
ATOM     24  C   UNL d   1       1.522   5.609  -4.714  0.00  0.00     0.052 A 
ATOM     25  C   UNL d   1       2.293   6.622  -4.130  0.00  0.00     0.049 A 
ATOM     26 CL   UNL d   1       2.119   5.012  -6.217  0.00  0.00    -0.083 Cl
ATOM     27  C   UNL d   1       1.804   7.329  -3.041  0.00  0.00     0.035 A 
ATOM     28  C   UNL d   1       0.549   7.027  -2.524  0.00  0.00     0.025 A 
ATOM     29 CL   UNL d   1       2.729   8.614  -2.372  0.00  0.00    -0.084 Cl
ATOM     30  C   UNL d   1      -0.193   5.969  -3.066  0.00  0.00     0.022 A 
ENDBRANCH  22  23
ENDBRANCH  20  22
ENDBRANCH   1  20
TORSDOF 8
