REMARK  7 active torsions:
REMARK  status: ('A' for Active; 'I' for Inactive)
REMARK    1  A    between atoms: C_3  and  C_1 
REMARK    2  A    between atoms: C_4  and  C_1 
REMARK    3  A    between atoms: N_5  and  C_1 
REMARK    4  A    between atoms: N_6  and  C_1 
REMARK    5  A    between atoms: S_2  and  C_7 
REMARK    6  A    between atoms: N_11  and  S_2 
REMARK       I    between atoms: C_8  and  N_5 
REMARK    7  A    between atoms: C_19  and  N_6 
ROOT
ATOM      1  C   UNL d   1       0.863   0.231   0.017  0.00  0.00     0.290 C 
ENDROOT
BRANCH   1   2
ATOM      2  C   UNL d   1       0.343   1.242  -1.081  0.00  0.00     0.435 C 
ATOM      3  F   UNL d   1      -0.789   0.893  -1.720  0.00  0.00    -0.167 F 
ATOM      4  F   UNL d   1       0.095   2.470  -0.539  0.00  0.00    -0.167 F 
ATOM      5  F   UNL d   1       1.276   1.447  -2.050  0.00  0.00    -0.167 F 
ENDBRANCH   1   2
BRANCH   1   6
ATOM      6  C   UNL d   1       0.334  -1.198  -0.406  0.00  0.00     0.435 C 
ATOM      7  F   UNL d   1      -0.461  -1.261  -1.488  0.00  0.00    -0.167 F 
ATOM      8  F   UNL d   1       1.405  -2.002  -0.696  0.00  0.00    -0.167 F 
ATOM      9  F   UNL d   1      -0.311  -1.826   0.611  0.00  0.00    -0.167 F 
ENDBRANCH   1   6
BRANCH   1  10
ATOM     10  N   UNL d   1       0.524   0.586   1.405  0.00  0.00    -0.324 N 
ATOM     11  C   UNL d   1      -0.769   0.765   1.785  0.00  0.00     0.215 C 
ATOM     12  O   UNL d   1      -1.690   0.654   0.991  0.00  0.00    -0.274 OA
ATOM     13  C   UNL d   1      -0.968   1.126   3.234  0.00  0.00     0.117 C 
ATOM     14  H   UNL d   1       1.301   0.652   2.046  0.00  0.00     0.165 HD
ENDBRANCH   1  10
BRANCH   1  15
ATOM     15  N   UNL d   1       2.390   0.162   0.158  0.00  0.00    -0.251 NA
ATOM     16  H   UNL d   1       2.744  -0.632  -0.382  0.00  0.00     0.130 HD
BRANCH  15  17
ATOM     17  C   UNL d   1       3.212   1.281  -0.005  0.00  0.00     0.010 A 
ATOM     18  C   UNL d   1       2.832   2.570   0.387  0.00  0.00     0.025 A 
ATOM     19  C   UNL d   1       3.661   3.670   0.165  0.00  0.00     0.026 A 
ATOM     20  C   UNL d   1       4.915   3.482  -0.406  0.00  0.00     0.074 A 
ATOM     21  C   UNL d   1       5.368   2.197  -0.701  0.00  0.00     0.026 A 
ATOM     22  C   UNL d   1       4.517   1.104  -0.490  0.00  0.00     0.025 A 
BRANCH  20  23
ATOM     23  S   UNL d   1       5.931   4.890  -0.729  0.00  0.00     0.239 S 
ATOM     24  O   UNL d   1       5.495   5.995   0.083  0.00  0.00    -0.206 OA
ATOM     25  O   UNL d   1       7.314   4.466  -0.790  0.00  0.00    -0.206 OA
BRANCH  23  26
ATOM     26  N   UNL d   1       5.490   5.258  -2.307  0.00  0.00    -0.225 NA
ATOM     27  H   UNL d   1       5.043   6.174  -2.341  0.00  0.00     0.136 HD
ATOM     28  H   UNL d   1       6.290   5.158  -2.932  0.00  0.00     0.136 HD
ENDBRANCH  23  26
ENDBRANCH  20  23
ENDBRANCH  15  17
ENDBRANCH   1  15
TORSDOF 7
