REMARK  3 active torsions:
REMARK  status: ('A' for Active; 'I' for Inactive)
REMARK    1  A    between atoms: N_5  and  C_1 
REMARK    2  A    between atoms: O_12  and  C_4 
REMARK    3  A    between atoms: O_13  and  C_6 
ROOT
ATOM      1  C   UNL d   1      -0.350  -1.217  -0.038  0.00  0.00     0.175 A 
ATOM      2  N   UNL d   1       1.677   0.046  -0.032  0.00  0.00    -0.300 N 
ATOM      3  HN  UNL d   1       2.696   0.098  -0.043  1.00  0.00     0.171 HD
ATOM      4  C   UNL d   1       1.024  -1.133  -0.049  0.00  0.00     0.180 A 
ATOM      5  C   UNL d   1       0.912   1.146  -0.000  0.00  0.00     0.225 A 
ATOM      6  C   UNL d   1      -1.068  -0.040   0.005  0.00  0.00     0.046 A 
ATOM      7  N   UNL d   1      -0.430   1.155   0.021  0.00  0.00    -0.324 N 
ATOM      8  HN  UNL d   1      -0.951   2.032   0.049  1.00  0.00     0.169 HD
ATOM      9  C   UNL d   1      -2.565   0.045   0.025  0.00  0.00     0.071 C 
ENDROOT
BRANCH   1  10
ATOM     10  N   UNL d   1      -0.992  -2.495  -0.079  0.00  0.00    -0.109 N 
ATOM     11  O   UNL d   1      -0.889  -3.214   0.922  0.00  0.00    -0.532 OA
ATOM     12  O   UNL d   1      -1.643  -2.762  -1.098  0.00  0.00    -0.532 OA
ENDBRANCH   1  10
BRANCH   4  13
ATOM     13  O   UNL d   1       1.768  -2.294  -0.111  0.00  0.00    -0.339 OA
ATOM     14  C   UNL d   1       3.177  -2.078  -0.062  0.00  0.00     0.211 C 
ENDBRANCH   4  13
BRANCH   5  15
ATOM     15  O   UNL d   1       1.498   2.392   0.002  0.00  0.00    -0.327 OA
ATOM     16  C   UNL d   1       2.917   2.341  -0.033  0.00  0.00     0.213 C 
ENDBRANCH   5  15
TORSDOF 3
