REMARK  4 active torsions:
REMARK  status: ('A' for Active; 'I' for Inactive)
REMARK    1  A    between atoms: C_6  and  S_1 
REMARK    2  A    between atoms: C_9  and  S_1 
REMARK    3  A    between atoms: C_10  and  C_4 
REMARK    4  A    between atoms: C_5  and  C_6 
ROOT
ATOM      1  S   UNL d   1       1.121   0.058  -0.064  0.00  0.00     0.181 S 
ATOM      2  O   UNL d   1       2.572   0.029  -0.138  0.00  0.00    -0.222 OA
ATOM      3  O   UNL d   1       0.480   0.602   1.122  0.00  0.00    -0.222 OA
ENDROOT
BRANCH   1   4
ATOM      4  C   UNL d   1       0.491  -1.583  -0.294  0.00  0.00     0.210 C 
BRANCH   4   5
ATOM      5  C   UNL d   1       0.926  -2.122  -1.607  0.00  0.00     0.065 A 
ATOM      6  N   UNL d   1       0.217  -2.026  -2.714  0.00  0.00    -0.350 N 
ATOM      7  C   UNL d   1       0.864  -2.672  -3.767  0.00  0.00     0.085 A 
ATOM      8  HN  UNL d   1      -0.679  -1.546  -2.789  1.00  0.00     0.166 HD
ATOM      9  C   UNL d   1       2.064  -3.263  -3.415  0.00  0.00     0.084 A 
ATOM     10  S   UNL d   1       2.386  -3.020  -1.753  0.00  0.00    -0.085 SA
BRANCH   7  11
ATOM     11  C   UNL d   1       0.307  -2.719  -5.123  0.00  0.00     0.172 C 
ATOM     12  O   UNL d   1       0.899  -3.293  -6.039  0.00  0.00    -0.291 OA
ATOM     13  C   UNL d   1      -1.013  -2.040  -5.390  0.00  0.00     0.098 C 
ENDBRANCH   7  11
ENDBRANCH   4   5
ENDBRANCH   1   4
BRANCH   1  14
ATOM     14  C   UNL d   1       0.541   1.031  -1.441  0.00  0.00     0.059 A 
ATOM     15  C   UNL d   1      -0.661   1.737  -1.336  0.00  0.00     0.025 A 
ATOM     16  C   UNL d   1      -1.067   2.565  -2.387  0.00  0.00     0.025 A 
ATOM     17  C   UNL d   1      -0.268   2.686  -3.525  0.00  0.00     0.034 A 
ATOM     18  C   UNL d   1       0.938   1.991  -3.622  0.00  0.00     0.025 A 
ATOM     19 CL   UNL d   1      -0.762   3.716  -4.811  0.00  0.00    -0.084 Cl
ATOM     20  C   UNL d   1       1.352   1.169  -2.573  0.00  0.00     0.025 A 
ENDBRANCH   1  14
TORSDOF 4
