REMARK  1 active torsions:
REMARK  status: ('A' for Active; 'I' for Inactive)
REMARK    1  A    between atoms: C_5  and  C_1 
ROOT
ATOM      1  C   UNL d   1      -2.055  -0.809  -0.034  0.00  0.00     0.092 A 
ATOM      2  N   UNL d   1      -0.996  -1.594  -0.011  0.00  0.00    -0.348 N 
ATOM      3  HN  UNL d   1      -1.027  -2.614  -0.004  1.00  0.00     0.166 HD
ATOM      4  S   UNL d   1      -1.710   0.876  -0.012  0.00  0.00    -0.069 SA
ATOM      5  C   UNL d   1       0.165  -0.836   0.003  0.00  0.00     0.050 A 
ATOM      6  C   UNL d   1      -0.025   0.545  -0.002  0.00  0.00     0.033 A 
ATOM      7  C   UNL d   1       1.485  -1.335   0.013  0.00  0.00     0.031 A 
ATOM      8  C   UNL d   1       1.052   1.447   0.000  0.00  0.00     0.021 A 
ATOM      9  C   UNL d   1       2.566  -0.446   0.012  0.00  0.00     0.002 A 
ATOM     10  C   UNL d   1       2.349   0.928   0.004  0.00  0.00     0.002 A 
ENDROOT
BRANCH   1  11
ATOM     11  C   UNL d   1      -3.396  -1.353  -0.087  0.00  0.00     0.038 A 
ATOM     12  S   UNL d   1      -4.816  -0.382  -0.136  0.00  0.00    -0.099 SA
ATOM     13  C   UNL d   1      -5.843  -1.743  -0.210  0.00  0.00     0.050 A 
ATOM     14  C   UNL d   1      -5.137  -2.923  -0.191  0.00  0.00     0.008 A 
ATOM     15  C   UNL d   1      -3.730  -2.697  -0.116  0.00  0.00     0.022 A 
ENDBRANCH   1  11
TORSDOF 1
