REMARK  9 active torsions:
REMARK  status: ('A' for Active; 'I' for Inactive)
REMARK    1  A    between atoms: C_4  and  C_1 
REMARK    2  A    between atoms: C_5  and  C_1 
REMARK    3  A    between atoms: N_7  and  C_2 
REMARK    4  A    between atoms: C_3  and  C_6 
REMARK    5  A    between atoms: O_16  and  C_4 
REMARK    6  A    between atoms: O_17  and  C_5 
REMARK    7  A    between atoms: C_15  and  N_7 
REMARK    8  A    between atoms: C_20  and  O_16 
REMARK    9  A    between atoms: C_21  and  O_17 
ROOT
ATOM      1  C   UNL d   1       1.112   0.079   0.033  0.00  0.00     0.129 C 
ATOM      2  C   UNL d   1       0.435   0.904  -0.794  0.00  0.00     0.112 C 
ENDROOT
BRANCH   2   3
ATOM      3  N   UNL d   1       0.963   1.817  -1.678  0.00  0.00    -0.365 N 
ATOM      4  H   UNL d   1       1.981   1.932  -1.622  0.00  0.00     0.165 HD
BRANCH   3   5
ATOM      5  C   UNL d   1       0.323   2.641  -2.612  0.00  0.00     0.031 A 
ATOM      6  C   UNL d   1       1.000   3.790  -3.047  0.00  0.00     0.030 A 
ATOM      7  C   UNL d   1       0.407   4.693  -3.931  0.00  0.00     0.018 A 
ATOM      8  C   UNL d   1      -0.888   4.467  -4.410  0.00  0.00     0.048 A 
ATOM      9  C   UNL d   1      -1.571   3.319  -3.980  0.00  0.00     0.018 A 
ATOM     10  C   UNL d   1      -0.974   2.424  -3.083  0.00  0.00     0.030 A 
BRANCH   8  11
ATOM     11  C   UNL d   1      -1.544   5.433  -5.364  0.00  0.00     0.417 C 
ATOM     12  F   UNL d   1      -0.767   6.511  -5.669  0.00  0.00    -0.166 F 
ATOM     13  F   UNL d   1      -1.860   4.855  -6.556  0.00  0.00    -0.166 F 
ATOM     14  F   UNL d   1      -2.708   5.942  -4.874  0.00  0.00    -0.166 F 
ENDBRANCH   8  11
ENDBRANCH   3   5
ENDBRANCH   2   3
BRANCH   1  15
ATOM     15  C   UNL d   1       0.403  -0.874   0.917  0.00  0.00     0.300 C 
ATOM     16  O   UNL d   1       0.884  -1.372   1.922  0.00  0.00    -0.259 OA
BRANCH  15  17
ATOM     17  O   UNL d   1      -0.811  -1.188   0.390  0.00  0.00    -0.318 OA
BRANCH  17  18
ATOM     18  C   UNL d   1      -1.394  -2.412   0.857  0.00  0.00     0.174 C 
ATOM     19  C   UNL d   1      -0.964  -3.512  -0.097  0.00  0.00     0.034 C 
ENDBRANCH  17  18
ENDBRANCH  15  17
ENDBRANCH   1  15
BRANCH   1  20
ATOM     20  C   UNL d   1       2.591   0.075  -0.052  0.00  0.00     0.300 C 
ATOM     21  O   UNL d   1       3.253   0.995  -0.523  0.00  0.00    -0.259 OA
BRANCH  20  22
ATOM     22  O   UNL d   1       3.074  -1.145   0.280  0.00  0.00    -0.318 OA
BRANCH  22  23
ATOM     23  C   UNL d   1       4.394  -1.447  -0.191  0.00  0.00     0.174 C 
ATOM     24  C   UNL d   1       4.251  -2.143  -1.532  0.00  0.00     0.034 C 
ENDBRANCH  22  23
ENDBRANCH  20  22
ENDBRANCH   1  20
TORSDOF 9
