REMARK  5 active torsions:
REMARK  status: ('A' for Active; 'I' for Inactive)
REMARK    1  A    between atoms: C_3  and  S_1 
REMARK    2  A    between atoms: C_7  and  S_1 
REMARK    3  A    between atoms: C_2  and  C_4 
REMARK    4  A    between atoms: C_17  and  C_7 
REMARK    5  A    between atoms: O_16  and  C_17 
ROOT
ATOM      1  C   UNL d   1       0.481  -1.189  -1.214  0.00  0.00     0.128 A 
ATOM      2  C   UNL d   1      -0.208  -3.036  -3.102  0.00  0.00     0.063 A 
ATOM      3  N   UNL d   1       0.889  -2.469  -1.018  0.00  0.00    -0.356 N 
ATOM      4  HN  UNL d   1       1.449  -2.738  -0.210  1.00  0.00     0.166 HD
ATOM      5  C   UNL d   1       0.510  -3.366  -1.958  0.00  0.00     0.105 A 
ATOM      6  C   UNL d   1      -0.582  -1.695  -3.275  0.00  0.00     0.020 A 
ATOM      7  C   UNL d   1      -0.242  -0.749  -2.311  0.00  0.00     0.042 A 
ENDROOT
BRANCH   1   8
ATOM      8  S   UNL d   1       1.013  -0.048   0.050  0.00  0.00     0.193 S 
ATOM      9  O   UNL d   1       0.485  -0.516   1.317  0.00  0.00    -0.221 OA
ATOM     10  O   UNL d   1       0.691   1.292  -0.422  0.00  0.00    -0.221 OA
BRANCH   8  11
ATOM     11  C   UNL d   1       2.779  -0.191   0.073  0.00  0.00     0.173 C 
BRANCH  11  12
ATOM     12  C   UNL d   1       3.400   0.183  -1.256  0.00  0.00     0.179 C 
BRANCH  12  13
ATOM     13  O   UNL d   1       4.817   0.076  -1.157  0.00  0.00    -0.400 OA
ATOM     14  H   UNL d   1       5.192   0.340  -2.016  0.00  0.00     0.209 HD
ENDBRANCH  12  13
ENDBRANCH  11  12
ENDBRANCH   8  11
ENDBRANCH   1   8
BRANCH   2  15
ATOM     15  C   UNL d   1      -0.557  -4.082  -4.118  0.00  0.00     0.418 C 
ATOM     16  F   UNL d   1      -0.126  -5.330  -3.786  0.00  0.00    -0.166 F 
ATOM     17  F   UNL d   1      -1.898  -4.189  -4.320  0.00  0.00    -0.166 F 
ATOM     18  F   UNL d   1      -0.015  -3.813  -5.338  0.00  0.00    -0.166 F 
ENDBRANCH   2  15
TORSDOF 5
