REMARK  7 active torsions:
REMARK  status: ('A' for Active; 'I' for Inactive)
REMARK    1  A    between atoms: C_10  and  C_2 
REMARK    2  A    between atoms: S_9  and  C_5 
REMARK    3  A    between atoms: C_8  and  C_15 
REMARK    4  A    between atoms: N_21  and  C_8 
REMARK    5  A    between atoms: C_15  and  S_9 
REMARK    6  A    between atoms: O_22  and  N_11 
REMARK    7  A    between atoms: C_13  and  C_14 
ROOT
ATOM      1  N   UNL d   1       7.337  -5.887   0.129  0.00  0.00    -0.315 N 
ATOM      2  C   UNL d   1       8.492  -6.510  -0.309  0.00  0.00     0.134 A 
ATOM      3  N   UNL d   1       8.151  -7.696  -0.790  0.00  0.00    -0.283 N 
ATOM      4  HN  UNL d   1       8.787  -8.360  -1.233  1.00  0.00     0.188 HD
ATOM      5  C   UNL d   1       6.333  -6.802  -0.035  0.00  0.00     0.163 A 
ATOM      6  N   UNL d   1       6.804  -7.891  -0.596  0.00  0.00    -0.278 N 
ATOM      7  HN  UNL d   1       6.270  -8.724  -0.843  1.00  0.00     0.189 HD
ATOM      8  C   UNL d   1       7.172  -4.549   0.637  0.00  0.00     0.160 C 
ENDROOT
BRANCH   2   9
ATOM      9  C   UNL d   1       9.854  -5.970  -0.292  0.00  0.00     0.009 A 
ATOM     10  C   UNL d   1      10.344  -5.209   0.772  0.00  0.00     0.016 A 
ATOM     11  C   UNL d   1      11.637  -4.671   0.740  0.00  0.00     0.009 A 
ATOM     12  C   UNL d   1      12.507  -4.903  -0.341  0.00  0.00    -0.051 A 
ATOM     13  C   UNL d   1      12.025  -5.716  -1.379  0.00  0.00     0.009 A 
ATOM     14  C   UNL d   1      10.723  -6.239  -1.355  0.00  0.00     0.016 A 
BRANCH  12  15
ATOM     15  C   UNL d   1      13.911  -4.274  -0.352  0.00  0.00    -0.024 C 
ATOM     16  C   UNL d   1      14.763  -4.676  -1.576  0.00  0.00     0.019 C 
ATOM     17  C   UNL d   1      13.783  -2.734  -0.368  0.00  0.00     0.019 C 
ATOM     18  C   UNL d   1      14.696  -4.698   0.909  0.00  0.00     0.019 C 
ENDBRANCH  12  15
ENDBRANCH   2   9
BRANCH   5  19
ATOM     19  S   UNL d   1       4.702  -6.529   0.462  0.00  0.00    -0.085 SA
BRANCH  19  20
ATOM     20  C   UNL d   1       4.377  -8.044   1.404  0.00  0.00     0.160 C 
BRANCH  20  21
ATOM     21  C   UNL d   1       5.221  -8.074   2.674  0.00  0.00     0.104 C 
ATOM     22  N   UNL d   1       4.728  -7.531   3.753  0.00  0.00    -0.257 N 
ATOM     23  HN  UNL d   1       3.816  -7.077   3.809  1.00  0.00     0.195 HD
BRANCH  22  24
ATOM     24  O   UNL d   1       5.625  -7.657   4.827  0.00  0.00    -0.288 OA
ATOM     25  H   UNL d   1       5.162  -7.173   5.537  0.00  0.00     0.244 HD
ENDBRANCH  22  24
BRANCH  21  26
ATOM     26  N   UNL d   1       6.456  -8.668   2.630  0.00  0.00    -0.387 N 
ATOM     27  H   UNL d   1       6.665  -9.322   1.882  0.00  0.00     0.157 HD
ATOM     28  H   UNL d   1       6.829  -8.898   3.545  0.00  0.00     0.157 HD
ENDBRANCH  21  26
ENDBRANCH  20  21
ENDBRANCH  19  20
ENDBRANCH   5  19
TORSDOF 7
