REMARK  4 active torsions:
REMARK  status: ('A' for Active; 'I' for Inactive)
REMARK    1  A    between atoms: C_5  and  C_1 
REMARK    2  A    between atoms: C_4  and  C_2 
REMARK    3  A    between atoms: C_6  and  C_4 
REMARK    4  A    between atoms: C_7  and  C_5 
ROOT
ATOM      1  C   UNL d   1      -0.066   0.844  -0.068  0.00  0.00     0.073 A 
ATOM      2  C   UNL d   1       0.763  -0.433   0.026  0.00  0.00     0.073 A 
ATOM      3  C   UNL d   1      -0.741  -0.504  -0.058  0.00  0.00     0.026 A 
ENDROOT
BRANCH   1   4
ATOM      4  C   UNL d   1       0.036   1.660  -1.308  0.00  0.00     0.164 C 
ATOM      5  O   UNL d   1       0.532   1.189  -2.325  0.00  0.00    -0.292 OA
BRANCH   4   6
ATOM      6  C   UNL d   1      -0.438   3.066  -1.290  0.00  0.00     0.010 A 
ATOM      7  C   UNL d   1       0.190   3.988  -2.140  0.00  0.00     0.018 A 
ATOM      8  C   UNL d   1      -0.236   5.316  -2.168  0.00  0.00     0.043 A 
ATOM      9  C   UNL d   1      -1.292   5.713  -1.357  0.00  0.00     0.116 A 
ATOM     10  C   UNL d   1      -1.926   4.808  -0.510  0.00  0.00     0.043 A 
ATOM     11  F   UNL d   1      -1.712   6.984  -1.395  0.00  0.00    -0.206 F 
ATOM     12  C   UNL d   1      -1.498   3.477  -0.472  0.00  0.00     0.018 A 
ENDBRANCH   4   6
ENDBRANCH   1   4
BRANCH   2  13
ATOM     13  C   UNL d   1       1.490  -0.706   1.294  0.00  0.00     0.164 C 
ATOM     14  O   UNL d   1       1.226  -0.076   2.313  0.00  0.00    -0.292 OA
BRANCH  13  15
ATOM     15  C   UNL d   1       2.561  -1.731   1.309  0.00  0.00     0.010 A 
ATOM     16  C   UNL d   1       3.624  -1.566   2.211  0.00  0.00     0.018 A 
ATOM     17  C   UNL d   1       4.640  -2.519   2.277  0.00  0.00     0.043 A 
ATOM     18  C   UNL d   1       4.583  -3.636   1.452  0.00  0.00     0.116 A 
ATOM     19  C   UNL d   1       3.535  -3.812   0.552  0.00  0.00     0.043 A 
ATOM     20  F   UNL d   1       5.547  -4.562   1.529  0.00  0.00    -0.206 F 
ATOM     21  C   UNL d   1       2.519  -2.855   0.475  0.00  0.00     0.018 A 
ENDBRANCH  13  15
ENDBRANCH   2  13
TORSDOF 4
