REMARK  3 active torsions:
REMARK  status: ('A' for Active; 'I' for Inactive)
REMARK    1  A    between atoms: C_2  and  C_1 
REMARK    2  A    between atoms: N_3  and  C_10 
REMARK    3  A    between atoms: C_11  and  C_5 
ROOT
ATOM      1  C   UNL d   1       0.508  -0.953   0.973  0.00  0.00     0.050 A 
ATOM      2  C   UNL d   1       0.518  -2.312   0.611  0.00  0.00     0.045 A 
ATOM      3  C   UNL d   1       0.444  -3.323   1.577  0.00  0.00     0.032 A 
ATOM      4  C   UNL d   1       0.370  -0.614   2.326  0.00  0.00     0.016 A 
ATOM      5  C   UNL d   1       0.257  -1.612   3.293  0.00  0.00     0.003 A 
ATOM      6  C   UNL d   1       0.298  -2.955   2.917  0.00  0.00     0.029 A 
ENDROOT
BRANCH   3   7
ATOM      7  N   UNL d   1       0.464  -4.694   1.261  0.00  0.00    -0.365 N 
ATOM      8  C   UNL d   1       1.280  -5.110   0.347  0.00  0.00     0.099 C 
ATOM      9  HN  UNL d   1      -0.152  -5.348   1.745  1.00  0.00     0.165 HD
BRANCH   8  10
ATOM     10  C   UNL d   1       1.375  -6.531  -0.041  0.00  0.00    -0.021 A 
ATOM     11  C   UNL d   1       0.743  -7.528   0.707  0.00  0.00     0.014 A 
ATOM     12  C   UNL d   1       0.877  -8.867   0.330  0.00  0.00     0.024 A 
ATOM     13  C   UNL d   1       1.632  -9.199  -0.796  0.00  0.00     0.034 A 
ATOM     14  C   UNL d   1       2.255  -8.204  -1.550  0.00  0.00     0.024 A 
ATOM     15 CL   UNL d   1       1.800 -10.847  -1.258  0.00  0.00    -0.084 Cl
ATOM     16  C   UNL d   1       2.130  -6.865  -1.170  0.00  0.00     0.014 A 
ENDBRANCH   8  10
ENDBRANCH   3   7
BRANCH   1  17
ATOM     17  C   UNL d   1       0.648   0.124  -0.071  0.00  0.00     0.417 C 
ATOM     18  F   UNL d   1       0.868  -0.360  -1.326  0.00  0.00    -0.166 F 
ATOM     19  F   UNL d   1       1.688   0.965   0.187  0.00  0.00    -0.166 F 
ATOM     20  F   UNL d   1      -0.457   0.913  -0.163  0.00  0.00    -0.166 F 
ENDBRANCH   1  17
TORSDOF 3
