REMARK  3 active torsions:
REMARK  status: ('A' for Active; 'I' for Inactive)
REMARK    1  A    between atoms: C_2  and  C_1 
REMARK    2  A    between atoms: C_4  and  O_8 
REMARK    3  A    between atoms: O_8  and  C_9 
ROOT
ATOM      1  C   UNL d   1       1.136  -1.742   1.807  0.00  0.00     0.063 A 
ATOM      2  N   UNL d   1       0.973  -3.850   0.641  0.00  0.00    -0.346 N 
ATOM      3  HN  UNL d   1       1.352  -4.518  -0.031  1.00  0.00     0.167 HD
ATOM      4  C   UNL d   1      -0.190  -4.089   1.290  0.00  0.00     0.147 A 
ATOM      5  C   UNL d   1       1.613  -2.694   0.919  0.00  0.00     0.106 A 
ATOM      6  C   UNL d   1      -0.099  -1.989   2.419  0.00  0.00     0.022 A 
ATOM      7  C   UNL d   1      -0.777  -3.178   2.155  0.00  0.00     0.057 A 
ENDROOT
BRANCH   4   8
ATOM      8  O   UNL d   1      -0.861  -5.291   1.098  0.00  0.00    -0.293 OA
BRANCH   8   9
ATOM      9  C   UNL d   1      -0.109  -6.393   0.765  0.00  0.00     0.084 A 
ATOM     10  C   UNL d   1      -0.625  -7.287  -0.161  0.00  0.00    -0.017 A 
ATOM     11  C   UNL d   1       0.114  -8.406  -0.567  0.00  0.00    -0.043 A 
ATOM     12  C   UNL d   1      -1.930  -7.200  -0.880  0.00  0.00     0.042 C 
ATOM     13  C   UNL d   1      -0.610  -9.181  -1.622  0.00  0.00     0.040 C 
ATOM     14  C   UNL d   1       1.381  -8.663  -0.048  0.00  0.00    -0.055 A 
ATOM     15  C   UNL d   1      -1.987  -8.511  -1.678  0.00  0.00     0.009 C 
ATOM     16  C   UNL d   1       1.869  -7.800   0.941  0.00  0.00     0.010 A 
ATOM     17  C   UNL d   1       2.208  -9.817  -0.530  0.00  0.00     0.049 C 
ATOM     18  C   UNL d   1       1.125  -6.687   1.355  0.00  0.00     0.038 A 
ENDBRANCH   8   9
ENDBRANCH   4   8
BRANCH   1  19
ATOM     19  C   UNL d   1       1.930  -0.505   2.097  0.00  0.00     0.418 C 
ATOM     20  F   UNL d   1       3.155  -0.491   1.503  0.00  0.00    -0.166 F 
ATOM     21  F   UNL d   1       2.163  -0.339   3.429  0.00  0.00    -0.166 F 
ATOM     22  F   UNL d   1       1.299   0.628   1.683  0.00  0.00    -0.166 F 
ENDBRANCH   1  19
TORSDOF 3
