REMARK  4 active torsions:
REMARK  status: ('A' for Active; 'I' for Inactive)
REMARK    1  A    between atoms: C_2  and  S_1 
REMARK    2  A    between atoms: O_5  and  S_1 
REMARK    3  A    between atoms: C_11  and  C_4 
REMARK    4  A    between atoms: C_8  and  O_5 
ROOT
ATOM      1  C   UNL d   1       0.556  -1.694   0.448  0.00  0.00     0.128 A 
ATOM      2  S   UNL d   1      -0.572  -1.885   1.716  0.00  0.00    -0.074 SA
ATOM      3  C   UNL d   1      -0.414  -3.596   1.722  0.00  0.00     0.033 A 
ATOM      4  C   UNL d   1       1.072  -2.911   0.047  0.00  0.00     0.035 A 
ATOM      5  C   UNL d   1       0.518  -3.999   0.780  0.00  0.00     0.023 A 
ENDROOT
BRANCH   1   6
ATOM      6  S   UNL d   1       0.870  -0.033  -0.112  0.00  0.00     0.309 S 
ATOM      7  O   UNL d   1      -0.365   0.710   0.042  0.00  0.00    -0.192 OA
ATOM      8  O   UNL d   1       1.519  -0.197  -1.397  0.00  0.00    -0.192 OA
BRANCH   6   9
ATOM      9  O   UNL d   1       1.962   0.465   0.991  0.00  0.00    -0.229 OA
BRANCH   9  10
ATOM     10  C   UNL d   1       2.590   1.686   0.900  0.00  0.00     0.092 A 
ATOM     11  C   UNL d   1       2.335   2.657  -0.070  0.00  0.00     0.062 A 
ATOM     12  C   UNL d   1       3.045   3.861  -0.052  0.00  0.00     0.038 A 
ATOM     13 CL   UNL d   1       2.727   5.053  -1.254  0.00  0.00    -0.084 Cl
ATOM     14  C   UNL d   1       4.005   4.112   0.923  0.00  0.00     0.048 A 
ATOM     15  C   UNL d   1       4.254   3.143   1.889  0.00  0.00     0.038 A 
ATOM     16  C   UNL d   1       3.554   1.935   1.883  0.00  0.00     0.062 A 
ATOM     17 CL   UNL d   1       5.437   3.437   3.104  0.00  0.00    -0.084 Cl
ENDBRANCH   9  10
ENDBRANCH   6   9
ENDBRANCH   1   6
BRANCH   3  18
ATOM     18  C   UNL d   1      -1.159  -4.432   2.676  0.00  0.00     0.049 A 
ATOM     19  N   UNL d   1      -0.514  -5.572   3.030  0.00  0.00    -0.365 N 
ATOM     20  C   UNL d   1      -1.112  -6.369   3.943  0.00  0.00     0.088 A 
ATOM     21  HN  UNL d   1       0.389  -5.818   2.623  1.00  0.00     0.165 HD
ATOM     22  C   UNL d   1      -2.340  -6.093   4.520  0.00  0.00     0.017 A 
ATOM     23  C   UNL d   1      -3.002  -4.938   4.127  0.00  0.00     0.004 A 
ATOM     24  C   UNL d   1      -2.409  -4.094   3.189  0.00  0.00     0.031 A 
ENDBRANCH   3  18
TORSDOF 4
