REMARK  4 active torsions:
REMARK  status: ('A' for Active; 'I' for Inactive)
REMARK    1  A    between atoms: C_3  and  C_1 
REMARK    2  A    between atoms: O_10  and  C_2 
REMARK    3  A    between atoms: O_9  and  C_3 
REMARK    4  A    between atoms: O_12  and  C_4 
ROOT
ATOM      1  C   UNL d   1       2.240  -1.253  -0.051  0.00  0.00     0.105 A 
ATOM      2  C   UNL d   1       0.822  -1.190   0.039  0.00  0.00     0.105 A 
ATOM      3  C   UNL d   1       3.027  -0.079  -0.087  0.00  0.00     0.087 A 
ATOM      4  C   UNL d   1       0.215   0.078   0.040  0.00  0.00     0.045 A 
ATOM      5  C   UNL d   1       2.400   1.162  -0.063  0.00  0.00     0.039 A 
ATOM      6  C   UNL d   1       1.008   1.236  -0.021  0.00  0.00     0.025 A 
ATOM      7 BR   UNL d   1      -1.646   0.449   0.176  0.00  0.00    -0.048 Br
ENDROOT
BRANCH   1   8
ATOM      8  C   UNL d   1       2.903  -2.592  -0.169  0.00  0.00     0.181 C 
ATOM      9  O   UNL d   1       2.467  -3.505  -0.851  0.00  0.00    -0.646 OA
BRANCH   8  10
ATOM     10  O   UNL d   1       4.030  -2.715   0.567  0.00  0.00    -0.772 OA
ATOM     11  H   UNL d   1       4.363  -1.851   0.888  0.00  0.00     0.167 HD
ENDBRANCH   8  10
ENDBRANCH   1   8
BRANCH   2  12
ATOM     12  O   UNL d   1       0.233  -2.410   0.217  0.00  0.00    -0.353 OA
ATOM     13  C   UNL d   1      -1.145  -2.637  -0.003  0.00  0.00     0.210 C 
ENDBRANCH   2  12
BRANCH   3  14
ATOM     14  O   UNL d   1       4.392  -0.229  -0.079  0.00  0.00    -0.355 OA
ATOM     15  C   UNL d   1       5.167   0.874  -0.545  0.00  0.00     0.210 C 
ENDBRANCH   3  14
TORSDOF 4
