REMARK  9 active torsions:
REMARK  status: ('A' for Active; 'I' for Inactive)
REMARK    1  A    between atoms: C_7  and  C_1 
REMARK    2  A    between atoms: C_9  and  N_2 
REMARK    3  A    between atoms: C_14  and  C_3 
REMARK       I    between atoms: N_13  and  C_7 
REMARK    4  A    between atoms: C_8  and  C_15 
REMARK    5  A    between atoms: C_24  and  N_13 
REMARK    6  A    between atoms: C_26  and  C_14 
REMARK    7  A    between atoms: C_15  and  S_18 
REMARK    8  A    between atoms: S_18  and  C_25 
REMARK    9  A    between atoms: C_25  and  C_24 
ROOT
ATOM      1  C   UNL d   1      -0.771   2.568  -0.041  0.00  0.00     0.255 C 
ATOM      2  O   UNL d   1       0.018   3.515  -0.048  0.00  0.00    -0.268 OA
ATOM      3  N   UNL d   1      -2.131   2.789  -0.046  0.00  0.00    -0.356 N 
ATOM      4  H   UNL d   1      -2.779   2.022   0.093  0.00  0.00     0.162 HD
ENDROOT
BRANCH   1   5
ATOM      5  C   UNL d   1      -0.333   1.182  -0.021  0.00  0.00     0.073 A 
ATOM      6  C   UNL d   1       0.989   0.724  -0.015  0.00  0.00     0.051 A 
ATOM      7  N   UNL d   1       0.927  -0.667   0.060  0.00  0.00    -0.260 N 
ATOM      8  N   UNL d   1      -0.364  -1.091   0.131  0.00  0.00    -0.304 N 
ATOM      9  C   UNL d   1      -1.101   0.006   0.012  0.00  0.00     0.126 A 
ATOM     10  HN  UNL d   1      -0.695  -2.049   0.250  1.00  0.00     0.186 HD
BRANCH   6  11
ATOM     11  C   UNL d   1       2.248   1.547   0.022  0.00  0.00     0.060 C 
BRANCH  11  12
ATOM     12  C   UNL d   1       2.662   2.035  -1.373  0.00  0.00     0.002 C 
ATOM     13  C   UNL d   1       3.909   2.905  -1.325  0.00  0.00     0.005 C 
ENDBRANCH  11  12
ENDBRANCH   6  11
BRANCH   7  14
ATOM     14  C   UNL d   1       1.945  -1.669   0.006  0.00  0.00     0.056 A 
ATOM     15  C   UNL d   1       1.667  -2.937   0.549  0.00  0.00     0.031 A 
ATOM     16  C   UNL d   1       2.563  -3.996   0.387  0.00  0.00     0.002 A 
ATOM     17  C   UNL d   1       3.734  -3.807  -0.340  0.00  0.00     0.000 A 
ATOM     18  C   UNL d   1       4.036  -2.549  -0.853  0.00  0.00     0.002 A 
ATOM     19  C   UNL d   1       3.156  -1.478  -0.663  0.00  0.00     0.031 A 
ENDBRANCH   7  14
ENDBRANCH   1   5
BRANCH   3  20
ATOM     20  C   UNL d   1      -2.638   4.145   0.004  0.00  0.00     0.133 C 
BRANCH  20  21
ATOM     21  C   UNL d   1      -4.157   4.233   0.117  0.00  0.00     0.093 C 
BRANCH  21  22
ATOM     22  S   UNL d   1      -4.836   3.345   1.569  0.00  0.00    -0.163 SA
BRANCH  22  23
ATOM     23  C   UNL d   1      -4.042   4.295   2.908  0.00  0.00     0.117 C 
BRANCH  23  24
ATOM     24  C   UNL d   1      -4.324   3.708   4.264  0.00  0.00     0.011 A 
ATOM     25  C   UNL d   1      -3.533   2.704   4.842  0.00  0.00     0.044 A 
ATOM     26 CL   UNL d   1      -2.176   2.018   4.015  0.00  0.00    -0.084 Cl
ATOM     27  C   UNL d   1      -3.811   2.225   6.128  0.00  0.00     0.024 A 
ATOM     28  C   UNL d   1      -4.892   2.731   6.850  0.00  0.00     0.005 A 
ATOM     29  C   UNL d   1      -5.700   3.709   6.280  0.00  0.00     0.043 A 
ATOM     30  C   UNL d   1      -5.413   4.185   5.003  0.00  0.00     0.125 A 
ATOM     31  F   UNL d   1      -6.200   5.141   4.488  0.00  0.00    -0.205 F 
ENDBRANCH  23  24
ENDBRANCH  22  23
ENDBRANCH  21  22
ENDBRANCH  20  21
ENDBRANCH   3  20
TORSDOF 9
