REMARK  3 active torsions:
REMARK  status: ('A' for Active; 'I' for Inactive)
REMARK    1  A    between atoms: N_8  and  C_4 
REMARK    2  A    between atoms: S_9  and  C_4 
REMARK    3  A    between atoms: C_10  and  N_8 
ROOT
ATOM      1  N   UNL d   1       1.012   0.143  -0.092  0.00  0.00    -0.274 N 
ATOM      2  HN  UNL d   1       0.581   0.839   0.517  1.00  0.00     0.180 HD
ATOM      3  C   UNL d   1       0.263  -0.652  -0.856  0.00  0.00     0.183 C 
ATOM      4  C   UNL d   1       2.296   0.012  -0.140  0.00  0.00     0.149 C 
ATOM      5  N   UNL d   1      -0.363  -1.368  -1.518  0.00  0.00    -0.172 NA
ENDROOT
BRANCH   4   6
ATOM      6  N   UNL d   1       3.033  -0.850  -0.924  0.00  0.00    -0.360 N 
ATOM      7  H   UNL d   1       2.499  -1.500  -1.493  0.00  0.00     0.162 HD
BRANCH   6   8
ATOM      8  C   UNL d   1       4.327  -1.384  -0.541  0.00  0.00     0.215 C 
ATOM      9  C   UNL d   1       4.854  -2.289  -1.574  0.00  0.00    -0.098 C 
ATOM     10  C   UNL d   1       5.351  -3.029  -2.378  0.00  0.00     0.014 C 
ENDBRANCH   6   8
ENDBRANCH   4   6
BRANCH   4  11
ATOM     11  S   UNL d   1       3.234   1.090   0.918  0.00  0.00    -0.098 SA
ATOM     12  C   UNL d   1       1.943   2.023   1.765  0.00  0.00     0.099 C 
ENDBRANCH   4  11
TORSDOF 3
