REMARK  1 active torsions:
REMARK  status: ('A' for Active; 'I' for Inactive)
REMARK    1  A    between atoms: O_14  and  C_3 
ROOT
ATOM      1  N   UNL d   1       1.204  -0.646   0.008  0.00  0.00    -0.217 N 
ATOM      2  C   UNL d   1       1.139   0.747   0.011  0.00  0.00     0.131 A 
ATOM      3  C   UNL d   1       0.036  -1.423   0.004  0.00  0.00     0.172 A 
ATOM      4  C   UNL d   1      -1.155  -0.810   0.001  0.00  0.00     0.027 A 
ATOM      5  N   UNL d   1      -0.052   1.421   0.011  0.00  0.00    -0.343 N 
ATOM      6  HN  UNL d   1      -0.097   2.440   0.016  1.00  0.00     0.167 HD
ATOM      7  N   UNL d   1       2.486  -1.102   0.007  0.00  0.00    -0.295 N 
ATOM      8  HN  UNL d   1       2.807  -2.070   0.008  1.00  0.00     0.187 HD
ATOM      9  C   UNL d   1       2.442   1.181   0.009  0.00  0.00     0.076 A 
ATOM     10  C   UNL d   1      -1.124   0.681   0.007  0.00  0.00     0.031 A 
ATOM     11  C   UNL d   1       3.232   0.011   0.005  0.00  0.00     0.026 A 
ATOM     12  S   UNL d   1      -3.703  -0.027   0.004  0.00  0.00    -0.158 SA
ATOM     13  C   UNL d   1      -2.510  -1.401  -0.008  0.00  0.00     0.119 A 
ATOM     14  C   UNL d   1      -2.485   1.319   0.008  0.00  0.00     0.132 A 
ATOM     15  C   UNL d   1       4.713  -0.066  -0.001  0.00  0.00     0.070 C 
ENDROOT
BRANCH   3  16
ATOM     16  O   UNL d   1       0.144  -2.805   0.001  0.00  0.00    -0.344 OA
ATOM     17  H   UNL d   1       1.109  -2.990   0.004  0.00  0.00     0.219 HD
ENDBRANCH   3  16
TORSDOF 1
