REMARK  2 active torsions:
REMARK  status: ('A' for Active; 'I' for Inactive)
REMARK    1  A    between atoms: C_4  and  C_1 
REMARK    2  A    between atoms: C_10  and  C_3 
ROOT
ATOM      1  C   UNL d   1      -0.072   1.141  -0.033  0.00  0.00     0.089 A 
ATOM      2  O   UNL d   1      -0.965   0.105  -0.031  0.00  0.00    -0.306 OA
ATOM      3  C   UNL d   1      -0.251  -1.062  -0.009  0.00  0.00     0.121 A 
ATOM      4  C   UNL d   1       1.214   0.637  -0.034  0.00  0.00     0.041 A 
ATOM      5  C   UNL d   1       1.099  -0.772  -0.018  0.00  0.00     0.044 A 
ENDROOT
BRANCH   1   6
ATOM      6  C   UNL d   1      -0.638   2.483   0.005  0.00  0.00     0.036 A 
ATOM      7  C   UNL d   1       0.096   3.556   0.532  0.00  0.00     0.132 A 
ATOM      8  C   UNL d   1      -0.438   4.839   0.613  0.00  0.00     0.085 A 
ATOM      9  F   UNL d   1       1.343   3.369   0.994  0.00  0.00    -0.205 F 
ATOM     10  C   UNL d   1      -1.727   5.061   0.152  0.00  0.00     0.119 A 
ATOM     11  C   UNL d   1      -2.478   4.027  -0.394  0.00  0.00     0.043 A 
ATOM     12  F   UNL d   1      -2.255   6.287   0.239  0.00  0.00    -0.206 F 
ATOM     13  C   UNL d   1      -1.936   2.739  -0.468  0.00  0.00     0.020 A 
ENDBRANCH   1   6
BRANCH   3  14
ATOM     14  C   UNL d   1      -0.938  -2.336   0.023  0.00  0.00     0.179 C 
ATOM     15  O   UNL d   1      -0.335  -3.413   0.025  0.00  0.00    -0.291 OA
ATOM     16  C   UNL d   1      -2.446  -2.335   0.054  0.00  0.00     0.099 C 
ENDBRANCH   3  14
TORSDOF 2
