REMARK  3 active torsions:
REMARK  status: ('A' for Active; 'I' for Inactive)
REMARK    1  A    between atoms: C_5  and  C_1 
REMARK    2  A    between atoms: C_8  and  C_4 
REMARK    3  A    between atoms: C_10  and  C_5 
ROOT
ATOM      1  C   UNL d   1       0.001  -1.257  -0.057  0.00  0.00     0.075 A 
ATOM      2  N   UNL d   1      -1.351   0.570   0.114  0.00  0.00    -0.259 N 
ATOM      3  HN  UNL d   1      -2.170   1.172   0.206  1.00  0.00     0.195 HD
ATOM      4  C   UNL d   1      -1.347  -0.772   0.041  0.00  0.00     0.082 A 
ATOM      5  O   UNL d   1      -0.044   0.975   0.041  0.00  0.00    -0.241 OA
ATOM      6  C   UNL d   1       0.767  -0.104  -0.081  0.00  0.00     0.089 A 
ATOM      7  C   UNL d   1       2.202   0.211  -0.240  0.00  0.00     0.080 C 
ENDROOT
BRANCH   1   8
ATOM      8  C   UNL d   1       0.460  -2.626  -0.210  0.00  0.00     0.197 C 
ATOM      9  O   UNL d   1      -0.168  -3.443  -0.880  0.00  0.00    -0.286 OA
BRANCH   8  10
ATOM     10  C   UNL d   1       1.718  -3.084   0.448  0.00  0.00     0.015 A 
ATOM     11  C   UNL d   1       2.415  -4.155  -0.130  0.00  0.00     0.015 A 
ATOM     12  C   UNL d   1       3.608  -4.610   0.434  0.00  0.00     0.001 A 
ATOM     13  C   UNL d   1       4.111  -3.999   1.582  0.00  0.00     0.000 A 
ATOM     14  C   UNL d   1       3.408  -2.957   2.183  0.00  0.00     0.001 A 
ATOM     15  C   UNL d   1       2.203  -2.512   1.631  0.00  0.00     0.015 A 
ENDBRANCH   8  10
ENDBRANCH   1   8
BRANCH   4  16
ATOM     16  C   UNL d   1      -2.617  -1.505   0.084  0.00  0.00    -0.006 A 
ATOM     17  C   UNL d   1      -3.764  -0.955  -0.516  0.00  0.00     0.014 A 
ATOM     18  C   UNL d   1      -4.988  -1.627  -0.473  0.00  0.00     0.001 A 
ATOM     19  C   UNL d   1      -5.085  -2.857   0.172  0.00  0.00     0.000 A 
ATOM     20  C   UNL d   1      -3.960  -3.412   0.777  0.00  0.00     0.001 A 
ATOM     21  C   UNL d   1      -2.735  -2.738   0.739  0.00  0.00     0.014 A 
ENDBRANCH   4  16
TORSDOF 3
