REMARK  5 active torsions:
REMARK  status: ('A' for Active; 'I' for Inactive)
REMARK    1  A    between atoms: C_2  and  S_1 
REMARK    2  A    between atoms: N_18  and  S_1 
REMARK    3  A    between atoms: N_3  and  C_19 
REMARK    4  A    between atoms: C_10  and  C_7 
REMARK    5  A    between atoms: C_32  and  N_18 
ROOT
ATOM      1  C   UNL d   1       1.506   1.588   5.020  0.00  0.00     0.057 A 
ATOM      2  C   UNL d   1       0.874   1.307   2.309  0.00  0.00     0.042 A 
ATOM      3  C   UNL d   1       2.493   1.218   4.095  0.00  0.00     0.034 A 
ATOM      4  C   UNL d   1       0.184   1.758   4.588  0.00  0.00     0.034 A 
ATOM      5  C   UNL d   1      -0.122   1.644   3.226  0.00  0.00     0.032 A 
ATOM      6  C   UNL d   1       2.176   1.075   2.743  0.00  0.00     0.032 A 
ENDROOT
BRANCH   2   7
ATOM      7  N   UNL d   1       0.551   1.135   0.942  0.00  0.00    -0.281 N 
ATOM      8  H   UNL d   1       0.659   0.219   0.511  0.00  0.00     0.179 HD
BRANCH   7   9
ATOM      9  S   UNL d   1       0.514   2.434  -0.119  0.00  0.00     0.265 S 
ATOM     10  O   UNL d   1       0.212   1.900  -1.431  0.00  0.00    -0.200 OA
ATOM     11  O   UNL d   1      -0.313   3.467   0.464  0.00  0.00    -0.200 OA
BRANCH   9  12
ATOM     12  C   UNL d   1       2.153   3.048  -0.181  0.00  0.00     0.110 A 
ATOM     13  C   UNL d   1       3.252   2.274  -0.584  0.00  0.00     0.108 A 
ATOM     14  C   UNL d   1       4.596   2.845  -0.665  0.00  0.00     0.086 A 
ATOM     15  N   UNL d   1       3.339   0.983  -0.934  0.00  0.00    -0.238 N 
ATOM     16  N   UNL d   1       5.440   1.889  -1.067  0.00  0.00    -0.239 N 
ATOM     17  C   UNL d   1       4.871   4.190  -0.352  0.00  0.00     0.034 A 
ATOM     18  O   UNL d   1       4.667   0.757  -1.251  0.00  0.00    -0.156 OA
ATOM     19  HN  UNL d   1       6.446   1.976  -1.208  1.00  0.00     0.197 HD
ATOM     20  C   UNL d   1       3.751   4.945   0.039  0.00  0.00     0.004 A 
ATOM     21  C   UNL d   1       2.442   4.399   0.121  0.00  0.00     0.028 A 
ATOM     22  HN  UNL d   1       2.578   0.303  -0.962  1.00  0.00     0.197 HD
ENDBRANCH   9  12
ENDBRANCH   7   9
ENDBRANCH   2   7
BRANCH   1  23
ATOM     23  N   UNL d   1       1.835   1.788   6.391  0.00  0.00    -0.255 N 
ATOM     24  C   UNL d   1       3.023   2.260   6.944  0.00  0.00     0.076 C 
ATOM     25  C   UNL d   1       2.927   1.999   8.297  0.00  0.00     0.069 C 
ATOM     26  C   UNL d   1       4.083   2.933   6.235  0.00  0.00     0.033 A 
ATOM     27  C   UNL d   1       1.621   1.493   8.509  0.00  0.00     0.135 C 
ATOM     28  N   UNL d   1       0.927   1.471   7.355  0.00  0.00    -0.289 N 
ATOM     29  HN  UNL d   1      -0.063   1.263   7.230  1.00  0.00     0.187 HD
ATOM     30  S   UNL d   1       5.726   2.752   6.697  0.00  0.00    -0.100 SA
ATOM     31  C   UNL d   1       3.967   3.790   5.155  0.00  0.00     0.021 A 
ATOM     32  C   UNL d   1       6.271   3.735   5.410  0.00  0.00     0.050 A 
ATOM     33  C   UNL d   1       5.230   4.217   4.651  0.00  0.00     0.008 A 
BRANCH  27  34
ATOM     34  C   UNL d   1       1.053   1.066   9.839  0.00  0.00     0.434 C 
ATOM     35  F   UNL d   1      -0.220   0.598   9.770  0.00  0.00    -0.165 F 
ATOM     36  F   UNL d   1       1.803   0.076  10.398  0.00  0.00    -0.165 F 
ATOM     37  F   UNL d   1       1.049   2.091  10.734  0.00  0.00    -0.165 F 
ENDBRANCH  27  34
ENDBRANCH   1  23
TORSDOF 5
