REMARK  1 active torsions:
REMARK  status: ('A' for Active; 'I' for Inactive)
REMARK    1  A    between atoms: C_4  and  C_1 
ROOT
ATOM      1  C   UNL d   1       0.925  -0.671  -0.057  0.00  0.00     0.088 A 
ATOM      2  N   UNL d   1       0.884   0.543   0.463  0.00  0.00    -0.341 N 
ATOM      3  HN  UNL d   1       1.675   1.021   0.895  1.00  0.00     0.167 HD
ATOM      4  S   UNL d   1      -0.595  -1.249  -0.642  0.00  0.00    -0.080 SA
ATOM      5  C   UNL d   1      -0.390   1.073   0.335  0.00  0.00     0.121 A 
ATOM      6  C   UNL d   1      -1.324   0.247  -0.247  0.00  0.00     0.092 A 
ATOM      7  N   UNL d   1      -0.923   3.471   1.170  0.00  0.00    -0.190 NA
ATOM      8  C   UNL d   1      -0.663   2.401   0.802  0.00  0.00     0.118 C 
ENDROOT
BRANCH   1   9
ATOM      9  C   UNL d   1       2.126  -1.519  -0.074  0.00  0.00     0.036 A 
ATOM     10  C   UNL d   1       2.402  -2.434  -1.102  0.00  0.00     0.132 A 
ATOM     11  C   UNL d   1       3.542  -3.233  -1.085  0.00  0.00     0.085 A 
ATOM     12  F   UNL d   1       1.581  -2.553  -2.157  0.00  0.00    -0.205 F 
ATOM     13  C   UNL d   1       4.435  -3.114  -0.031  0.00  0.00     0.119 A 
ATOM     14  C   UNL d   1       4.210  -2.203   0.994  0.00  0.00     0.043 A 
ATOM     15  F   UNL d   1       5.531  -3.882  -0.005  0.00  0.00    -0.206 F 
ATOM     16  C   UNL d   1       3.062  -1.404   0.970  0.00  0.00     0.020 A 
ENDBRANCH   1   9
TORSDOF 1
