REMARK  4 active torsions:
REMARK  status: ('A' for Active; 'I' for Inactive)
REMARK    1  A    between atoms: C_4  and  C_1 
REMARK    2  A    between atoms: N_3  and  C_2 
REMARK       I    between atoms: N_6  and  C_4 
REMARK       I    between atoms: C_8  and  N_6 
REMARK       I    between atoms: N_14  and  C_8 
REMARK    3  A    between atoms: C_11  and  C_20 
REMARK    4  A    between atoms: C_20  and  N_14 
ROOT
ATOM      1  C   UNL d   1       2.568  -1.302  -0.188  0.00  0.00     0.260 C 
ATOM      2  N   UNL d   1       2.290  -2.667  -0.135  0.00  0.00    -0.275 N 
ATOM      3  C   UNL d   1       1.323  -3.640  -0.100  0.00  0.00     0.323 C 
ATOM      4  N   UNL d   1       0.019  -3.313   0.091  0.00  0.00    -0.338 N 
ATOM      5  O   UNL d   1       3.760  -0.996  -0.085  0.00  0.00    -0.267 OA
ATOM      6  O   UNL d   1       1.694  -4.805  -0.260  0.00  0.00    -0.247 OA
ATOM      7  H   UNL d   1       3.183  -3.144  -0.162  0.00  0.00     0.173 HD
ATOM      8  H   UNL d   1      -0.174  -2.550   0.724  0.00  0.00     0.164 HD
ENDROOT
BRANCH   1   9
ATOM      9  C   UNL d   1       1.569  -0.252  -0.349  0.00  0.00     0.042 A 
ATOM     10  C   UNL d   1       1.909   1.143  -0.144  0.00  0.00     0.061 A 
ATOM     11  C   UNL d   1       0.849   1.990  -0.364  0.00  0.00     0.144 A 
ATOM     12  S   UNL d   1      -0.557   1.163  -0.822  0.00  0.00    -0.077 SA
ATOM     13  C   UNL d   1       0.269  -0.348  -0.801  0.00  0.00     0.069 A 
BRANCH  11  14
ATOM     14  N   UNL d   1       0.868   3.422  -0.281  0.00  0.00    -0.108 N 
ATOM     15  O   UNL d   1       1.952   3.972  -0.507  0.00  0.00    -0.531 OA
ATOM     16  O   UNL d   1      -0.184   3.998   0.033  0.00  0.00    -0.531 OA
ENDBRANCH  11  14
ENDBRANCH   1   9
BRANCH   4  17
ATOM     17  C   UNL d   1      -0.906  -4.432   0.128  0.00  0.00     0.170 C 
BRANCH  17  18
ATOM     18  C   UNL d   1      -2.350  -4.056   0.236  0.00  0.00     0.000 A 
ATOM     19  S   UNL d   1      -3.006  -2.639  -0.465  0.00  0.00    -0.105 SA
ATOM     20  C   UNL d   1      -4.598  -3.059  -0.000  0.00  0.00     0.050 A 
ATOM     21  C   UNL d   1      -4.641  -4.259   0.671  0.00  0.00     0.008 A 
ATOM     22  C   UNL d   1      -3.345  -4.831   0.810  0.00  0.00     0.017 A 
ENDBRANCH  17  18
ENDBRANCH   4  17
TORSDOF 4
