REMARK  7 active torsions:
REMARK  status: ('A' for Active; 'I' for Inactive)
REMARK    1  A    between atoms: N_2  and  C_1 
REMARK    2  A    between atoms: C_3  and  C_1 
REMARK    3  A    between atoms: C_5  and  C_1 
REMARK    4  A    between atoms: O_8  and  C_1 
REMARK       I    between atoms: C_4  and  N_2 
REMARK    5  A    between atoms: C_6  and  C_4 
REMARK    6  A    between atoms: O_15  and  C_5 
REMARK    7  A    between atoms: C_19  and  O_15 
ROOT
ATOM      1  C   UNL d   1       0.852  -0.049   0.040  0.00  0.00     0.325 C 
ENDROOT
BRANCH   1   2
ATOM      2  N   UNL d   1       0.456   0.325  -1.322  0.00  0.00    -0.309 N 
ATOM      3  C   UNL d   1       0.963   1.432  -1.949  0.00  0.00     0.254 C 
ATOM      4  O   UNL d   1       1.734   2.182  -1.361  0.00  0.00    -0.268 OA
ATOM      5  H   UNL d   1      -0.230  -0.274  -1.762  0.00  0.00     0.166 HD
BRANCH   3   6
ATOM      6  C   UNL d   1       0.500   1.713  -3.346  0.00  0.00     0.032 A 
ATOM      7  C   UNL d   1      -0.283   0.820  -4.091  0.00  0.00     0.017 A 
ATOM      8  C   UNL d   1      -0.713   1.163  -5.378  0.00  0.00     0.007 A 
ATOM      9  C   UNL d   1      -0.364   2.394  -5.943  0.00  0.00    -0.062 A 
ATOM     10  C   UNL d   1       0.435   3.276  -5.206  0.00  0.00     0.007 A 
ATOM     11  C   UNL d   1      -0.832   2.743  -7.324  0.00  0.00     0.048 C 
ATOM     12  C   UNL d   1       0.861   2.938  -3.917  0.00  0.00     0.017 A 
ENDBRANCH   3   6
ENDBRANCH   1   2
BRANCH   1  13
ATOM     13  C   UNL d   1       2.359  -0.371   0.272  0.00  0.00     0.448 C 
ATOM     14  F   UNL d   1       3.095  -0.268  -0.862  0.00  0.00    -0.166 F 
ATOM     15  F   UNL d   1       2.906   0.482   1.176  0.00  0.00    -0.166 F 
ATOM     16  F   UNL d   1       2.571  -1.623   0.748  0.00  0.00    -0.166 F 
ENDBRANCH   1  13
BRANCH   1  17
ATOM     17  C   UNL d   1       0.090  -1.355   0.323  0.00  0.00     0.325 C 
ATOM     18  O   UNL d   1      -0.292  -2.118  -0.565  0.00  0.00    -0.259 OA
BRANCH  17  19
ATOM     19  O   UNL d   1      -0.201  -1.500   1.646  0.00  0.00    -0.318 OA
BRANCH  19  20
ATOM     20  C   UNL d   1      -1.216  -2.466   1.951  0.00  0.00     0.174 C 
ATOM     21  C   UNL d   1      -2.581  -1.823   1.769  0.00  0.00     0.034 C 
ENDBRANCH  19  20
ENDBRANCH  17  19
ENDBRANCH   1  17
BRANCH   1  22
ATOM     22  O   UNL d   1       0.357   1.011   0.865  0.00  0.00    -0.356 OA
ATOM     23  H   UNL d   1       0.913   1.780   0.628  0.00  0.00     0.213 HD
ENDBRANCH   1  22
TORSDOF 7
