REMARK  4 active torsions:
REMARK  status: ('A' for Active; 'I' for Inactive)
REMARK    1  A    between atoms: C_7  and  C_1 
REMARK    2  A    between atoms: C_10  and  C_6 
REMARK    3  A    between atoms: O_11  and  C_10 
REMARK    4  A    between atoms: C_12  and  O_11 
ROOT
ATOM      1  C   UNL d   1      -0.525  -0.809   0.445  0.00  0.00     0.074 A 
ATOM      2  N   UNL d   1       0.232   0.704  -1.175  0.00  0.00    -0.355 N 
ATOM      3  HN  UNL d   1       0.367   1.095  -2.107  1.00  0.00     0.166 HD
ATOM      4  C   UNL d   1      -0.469  -0.460  -0.899  0.00  0.00     0.026 A 
ATOM      5  S   UNL d   1       0.328   0.359   1.365  0.00  0.00    -0.069 SA
ATOM      6  C   UNL d   1       0.700   1.232  -0.065  0.00  0.00     0.076 A 
ATOM      7  C   UNL d   1      -1.075  -1.192  -2.045  0.00  0.00     0.070 C 
ENDROOT
BRANCH   6   8
ATOM      8  C   UNL d   1       1.437   2.535   0.010  0.00  0.00     0.240 C 
BRANCH   8   9
ATOM      9  O   UNL d   1       2.836   2.252   0.036  0.00  0.00    -0.345 OA
BRANCH   9  10
ATOM     10  C   UNL d   1       3.672   3.338   0.081  0.00  0.00     0.070 A 
ATOM     11  C   UNL d   1       3.274   4.675   0.125  0.00  0.00     0.060 A 
ATOM     12  C   UNL d   1       4.235   5.687   0.181  0.00  0.00     0.036 A 
ATOM     13 CL   UNL d   1       3.732   7.332   0.243  0.00  0.00    -0.084 Cl
ATOM     14  C   UNL d   1       5.593   5.379   0.191  0.00  0.00     0.024 A 
ATOM     15  C   UNL d   1       5.996   4.047   0.140  0.00  0.00     0.004 A 
ATOM     16  C   UNL d   1       5.038   3.031   0.085  0.00  0.00     0.037 A 
ENDBRANCH   9  10
ENDBRANCH   8   9
ENDBRANCH   6   8
BRANCH   1  17
ATOM     17  C   UNL d   1      -1.209  -1.950   1.038  0.00  0.00     0.164 C 
ATOM     18  O   UNL d   1      -2.013  -2.634   0.399  0.00  0.00    -0.292 OA
ATOM     19  C   UNL d   1      -0.956  -2.327   2.481  0.00  0.00     0.097 C 
ENDBRANCH   1  17
TORSDOF 4
