REMARK  6 active torsions:
REMARK  status: ('A' for Active; 'I' for Inactive)
REMARK    1  A    between atoms: C_3  and  C_1 
REMARK    2  A    between atoms: C_2  and  O_9 
REMARK    3  A    between atoms: C_7  and  C_3 
REMARK    4  A    between atoms: N_8  and  C_4 
REMARK    5  A    between atoms: C_16  and  N_8 
REMARK    6  A    between atoms: O_9  and  C_17 
ROOT
ATOM      1  C   UNL d   1       0.970  -0.066  -0.122  0.00  0.00     0.110 C 
ATOM      2  C   UNL d   1       0.271   0.962  -0.640  0.00  0.00     0.115 C 
ATOM      3  C   UNL d   1       0.298  -1.183   0.443  0.00  0.00     0.105 C 
ATOM      4  N   UNL d   1      -0.276  -2.068   0.933  0.00  0.00    -0.191 NA
ENDROOT
BRANCH   1   5
ATOM      5  C   UNL d   1       2.470  -0.020  -0.155  0.00  0.00     0.204 C 
ATOM      6  O   UNL d   1       3.079   0.623  -1.005  0.00  0.00    -0.286 OA
BRANCH   5   7
ATOM      7  C   UNL d   1       3.239  -0.787   0.873  0.00  0.00     0.016 A 
ATOM      8  C   UNL d   1       4.474  -1.353   0.534  0.00  0.00     0.018 A 
ATOM      9  C   UNL d   1       5.181  -2.127   1.468  0.00  0.00     0.038 A 
ATOM     10  C   UNL d   1       4.652  -2.358   2.737  0.00  0.00     0.078 A 
ATOM     11  C   UNL d   1       3.466  -1.718   3.101  0.00  0.00     0.038 A 
ATOM     12  C   UNL d   1       2.770  -0.927   2.183  0.00  0.00     0.018 A 
BRANCH  10  13
ATOM     13  O   UNL d   1       5.223  -3.101   3.722  0.00  0.00    -0.255 OA
BRANCH  13  14
ATOM     14  C   UNL d   1       5.959  -4.271   3.386  0.00  0.00     0.530 C 
ATOM     15  F   UNL d   1       6.034  -4.528   2.064  0.00  0.00    -0.144 F 
ATOM     16  F   UNL d   1       7.214  -4.151   3.873  0.00  0.00    -0.144 F 
ATOM     17  F   UNL d   1       5.378  -5.336   3.983  0.00  0.00    -0.144 F 
ENDBRANCH  13  14
ENDBRANCH  10  13
ENDBRANCH   5   7
ENDBRANCH   1   5
BRANCH   2  18
ATOM     18  N   UNL d   1      -1.097   1.153  -0.592  0.00  0.00    -0.364 N 
ATOM     19  H   UNL d   1      -1.636   0.523  -0.001  0.00  0.00     0.165 HD
BRANCH  18  20
ATOM     20  C   UNL d   1      -1.861   2.174  -1.182  0.00  0.00     0.031 A 
ATOM     21  C   UNL d   1      -1.474   2.839  -2.348  0.00  0.00     0.030 A 
ATOM     22  C   UNL d   1      -2.249   3.884  -2.868  0.00  0.00     0.009 A 
ATOM     23  C   UNL d   1      -3.410   4.307  -2.213  0.00  0.00    -0.062 A 
ATOM     24  C   UNL d   1      -3.796   3.656  -1.040  0.00  0.00     0.009 A 
ATOM     25  C   UNL d   1      -4.212   5.448  -2.765  0.00  0.00     0.048 C 
ATOM     26  C   UNL d   1      -3.029   2.601  -0.534  0.00  0.00     0.030 A 
ENDBRANCH  18  20
ENDBRANCH   2  18
TORSDOF 6
