REMARK  6 active torsions:
REMARK  status: ('A' for Active; 'I' for Inactive)
REMARK    1  A    between atoms: S_5  and  C_1 
REMARK       I    between atoms: N_9  and  C_1 
REMARK    2  A    between atoms: O_13  and  C_2 
REMARK    3  A    between atoms: C_8  and  C_3 
REMARK    4  A    between atoms: C_14  and  C_4 
REMARK    5  A    between atoms: C_6  and  S_5 
REMARK    6  A    between atoms: C_18  and  C_14 
ROOT
ATOM      1  C   UNL d   1       3.398  -3.403   2.185  0.00  0.00     0.087 A 
ATOM      2  C   UNL d   1       2.978  -4.734   2.046  0.00  0.00     0.043 A 
ATOM      3  C   UNL d   1       2.557  -2.318   1.825  0.00  0.00    -0.007 A 
ATOM      4  C   UNL d   1       1.285  -2.609   1.266  0.00  0.00     0.019 A 
ATOM      5  C   UNL d   1       1.722  -4.994   1.490  0.00  0.00     0.019 A 
ATOM      6  C   UNL d   1       0.886  -3.945   1.107  0.00  0.00     0.021 A 
ENDROOT
BRANCH   4   7
ATOM      7  S   UNL d   1       0.083  -1.340   0.841  0.00  0.00    -0.029 SA
BRANCH   7   8
ATOM      8  C   UNL d   1      -0.131  -1.520  -0.904  0.00  0.00     0.286 C 
ATOM      9  N   UNL d   1      -1.178  -0.791  -1.478  0.00  0.00    -0.351 N 
ATOM     10  C   UNL d   1      -1.335  -0.840  -2.925  0.00  0.00     0.152 C 
ATOM     11  C   UNL d   1      -2.257  -0.117  -0.763  0.00  0.00     0.152 C 
ATOM     12  O   UNL d   1       0.628  -2.222  -1.558  0.00  0.00    -0.260 OA
ENDBRANCH   7   8
ENDBRANCH   4   7
BRANCH   3  13
ATOM     13  C   UNL d   1       3.014  -0.883   2.035  0.00  0.00     0.042 C 
BRANCH  13  14
ATOM     14  C   UNL d   1       2.533  -0.254   3.352  0.00  0.00     0.000 C 
ATOM     15  C   UNL d   1       3.146  -0.866   4.604  0.00  0.00     0.005 C 
ENDBRANCH  13  14
ENDBRANCH   3  13
BRANCH   1  16
ATOM     16  O   UNL d   1       4.670  -3.181   2.644  0.00  0.00    -0.359 OA
ATOM     17  H   UNL d   1       4.698  -2.354   3.147  0.00  0.00     0.217 HD
ENDBRANCH   1  16
BRANCH   2  18
ATOM     18  C   UNL d   1       3.782  -5.916   2.479  0.00  0.00     0.158 C 
ATOM     19  O   UNL d   1       3.617  -6.994   1.906  0.00  0.00    -0.293 OA
ATOM     20  C   UNL d   1       4.724  -5.818   3.653  0.00  0.00     0.097 C 
ENDBRANCH   2  18
TORSDOF 6
