REMARK  5 active torsions:
REMARK  status: ('A' for Active; 'I' for Inactive)
REMARK    1  A    between atoms: N_5  and  C_1 
REMARK    2  A    between atoms: C_8  and  C_16 
REMARK       I    between atoms: N_11  and  C_8 
REMARK    3  A    between atoms: C_16  and  N_9 
REMARK    4  A    between atoms: C_25  and  N_11 
REMARK    5  A    between atoms: C_12  and  C_13 
ROOT
ATOM      1  N   UNL d   1       4.229  -1.380   0.226  0.00  0.00    -0.358 N 
ATOM      2  N   UNL d   1       5.799  -3.838   0.814  0.00  0.00     0.100 N 
ATOM      3  C   UNL d   1       4.492  -2.343  -0.847  0.00  0.00     0.155 C 
ATOM      4  C   UNL d   1       5.243  -1.347   1.276  0.00  0.00     0.155 C 
ATOM      5  C   UNL d   1       4.758  -3.754  -0.258  0.00  0.00     0.293 C 
ATOM      6  C   UNL d   1       5.508  -2.777   1.816  0.00  0.00     0.293 C 
ENDROOT
BRANCH   2   7
ATOM      7  C   UNL d   1       7.143  -3.709   0.203  0.00  0.00     0.375 C 
BRANCH   7   8
ATOM      8  C   UNL d   1       8.295  -3.777   1.214  0.00  0.00     0.250 C 
ATOM      9  N   UNL d   1       8.191  -4.791   2.154  0.00  0.00    -0.326 N 
ATOM     10  H   UNL d   1       7.338  -5.341   2.102  0.00  0.00     0.169 HD
ATOM     11  O   UNL d   1       9.226  -2.979   1.112  0.00  0.00    -0.271 OA
BRANCH   9  12
ATOM     12  C   UNL d   1       9.068  -5.031   3.240  0.00  0.00     0.034 A 
ATOM     13  C   UNL d   1      10.217  -4.272   3.483  0.00  0.00     0.030 A 
ATOM     14  C   UNL d   1      10.990  -4.475   4.632  0.00  0.00     0.017 A 
ATOM     15  C   UNL d   1      10.623  -5.447   5.562  0.00  0.00     0.009 A 
ATOM     16  C   UNL d   1       9.523  -6.266   5.298  0.00  0.00     0.017 A 
ATOM     17  C   UNL d   1       8.751  -6.057   4.141  0.00  0.00     0.030 A 
BRANCH  15  18
ATOM     18  C   UNL d   1      11.417  -5.546   6.817  0.00  0.00     0.155 C 
ATOM     19  O   UNL d   1      12.617  -5.282   6.803  0.00  0.00    -0.293 OA
ATOM     20  C   UNL d   1      10.713  -5.915   8.097  0.00  0.00     0.096 C 
ENDBRANCH  15  18
ENDBRANCH   9  12
ENDBRANCH   7   8
ENDBRANCH   2   7
BRANCH   1  21
ATOM     21  C   UNL d   1       3.014  -0.755   0.299  0.00  0.00     0.148 A 
ATOM     22  N   UNL d   1       2.010  -1.028  -0.506  0.00  0.00    -0.335 N 
ATOM     23  C   UNL d   1       0.905  -0.234  -0.243  0.00  0.00     0.053 A 
ATOM     24  HN  UNL d   1       2.041  -1.739  -1.236  1.00  0.00     0.168 HD
ATOM     25  C   UNL d   1      -0.331  -0.278  -0.919  0.00  0.00     0.054 A 
ATOM     26  C   UNL d   1       1.073   0.684   0.791  0.00  0.00     0.035 A 
ATOM     27  C   UNL d   1      -1.353   0.597  -0.540  0.00  0.00     0.036 A 
ATOM     28 CL   UNL d   1      -2.867   0.540  -1.360  0.00  0.00    -0.084 Cl
ATOM     29  C   UNL d   1      -1.168   1.512   0.491  0.00  0.00     0.025 A 
ATOM     30  C   UNL d   1       0.051   1.571   1.175  0.00  0.00     0.023 A 
ATOM     31  S   UNL d   1       2.655   0.510   1.431  0.00  0.00    -0.052 SA
ENDBRANCH   1  21
TORSDOF 5
