REMARK  2 active torsions:
REMARK  status: ('A' for Active; 'I' for Inactive)
REMARK    1  A    between atoms: S_10  and  C_4 
REMARK    2  A    between atoms: C_8  and  C_5 
ROOT
ATOM      1  C   UNL d   1      -0.342  -1.162  -0.222  0.00  0.00     0.081 A 
ATOM      2  C   UNL d   1      -0.598   1.085   0.297  0.00  0.00     0.088 A 
ATOM      3  S   UNL d   1       1.082   0.919   0.249  0.00  0.00    -0.069 SA
ATOM      4  C   UNL d   1       0.983  -0.760  -0.123  0.00  0.00     0.064 A 
ATOM      5  C   UNL d   1      -1.279  -0.083   0.025  0.00  0.00     0.025 A 
ATOM      6  C   UNL d   1      -0.758  -2.495  -0.547  0.00  0.00     0.102 C 
ATOM      7  N   UNL d   1      -1.109  -3.578  -0.768  0.00  0.00    -0.191 NA
ATOM      8 CL   UNL d   1      -1.225   2.645   0.684  0.00  0.00    -0.075 Cl
ENDROOT
BRANCH   4   9
ATOM      9  S   UNL d   1       2.511  -1.615  -0.362  0.00  0.00    -0.126 SA
ATOM     10  C   UNL d   1       2.181  -3.346   0.003  0.00  0.00     0.096 C 
ENDBRANCH   4   9
BRANCH   5  11
ATOM     11  C   UNL d   1      -2.744  -0.162   0.011  0.00  0.00    -0.022 A 
ATOM     12  C   UNL d   1      -3.505   0.700  -0.793  0.00  0.00     0.014 A 
ATOM     13  C   UNL d   1      -4.901   0.627  -0.791  0.00  0.00     0.024 A 
ATOM     14  C   UNL d   1      -5.545  -0.325  -0.005  0.00  0.00     0.034 A 
ATOM     15  C   UNL d   1      -4.803  -1.202   0.781  0.00  0.00     0.024 A 
ATOM     16 CL   UNL d   1      -7.263  -0.414  -0.004  0.00  0.00    -0.084 Cl
ATOM     17  C   UNL d   1      -3.407  -1.117   0.796  0.00  0.00     0.014 A 
ENDBRANCH   5  11
TORSDOF 2
