REMARK  9 active torsions:
REMARK  status: ('A' for Active; 'I' for Inactive)
REMARK    1  A    between atoms: C_10  and  N_2 
REMARK    2  A    between atoms: N_8  and  C_19 
REMARK    3  A    between atoms: C_16  and  N_8 
REMARK    4  A    between atoms: O_17  and  C_9 
REMARK    5  A    between atoms: C_22  and  C_10 
REMARK    6  A    between atoms: C_20  and  O_17 
REMARK    7  A    between atoms: C_18  and  C_20 
REMARK    8  A    between atoms: C_19  and  C_18 
REMARK    9  A    between atoms: O_23  and  C_18 
ROOT
ATOM      1  N   UNL d   1       4.477  -3.266  -1.357  0.00  0.00     0.090 N 
ATOM      2  H   UNL d   1       3.603  -2.785  -1.141  0.00  0.00     0.316 HD
ENDROOT
BRANCH   1   3
ATOM      3  C   UNL d   1       5.578  -2.303  -1.381  0.00  0.00     0.303 C 
BRANCH   3   4
ATOM      4  C   UNL d   1       5.678  -1.534  -0.043  0.00  0.00     0.170 C 
BRANCH   4   5
ATOM      5  C   UNL d   1       6.862  -0.557  -0.095  0.00  0.00     0.209 C 
BRANCH   5   6
ATOM      6  O   UNL d   1       6.900   0.207   1.113  0.00  0.00    -0.348 OA
BRANCH   6   7
ATOM      7  C   UNL d   1       7.945   1.079   1.256  0.00  0.00     0.071 A 
ATOM      8  C   UNL d   1       7.992   1.733   2.493  0.00  0.00     0.076 A 
ATOM      9  C   UNL d   1       9.017   2.630   2.713  0.00  0.00     0.107 A 
ATOM     10  C   UNL d   1       9.967   2.890   1.756  0.00  0.00     0.105 A 
ATOM     11  O   UNL d   1       9.221   3.346   3.851  0.00  0.00    -0.323 OA
ATOM     12  O   UNL d   1      10.888   3.801   2.168  0.00  0.00    -0.323 OA
ATOM     13  C   UNL d   1       9.949   2.268   0.531  0.00  0.00     0.042 A 
ATOM     14  C   UNL d   1      10.440   4.043   3.517  0.00  0.00     0.352 A 
ATOM     15  C   UNL d   1       8.924   1.345   0.280  0.00  0.00     0.039 A 
ENDBRANCH   6   7
ENDBRANCH   5   6
ENDBRANCH   4   5
BRANCH   4  16
ATOM     16  O   UNL d   1       5.856  -2.448   1.051  0.00  0.00    -0.392 OA
ATOM     17  H   UNL d   1       6.524  -3.102   0.788  0.00  0.00     0.210 HD
ENDBRANCH   4  16
ENDBRANCH   3   4
ENDBRANCH   1   3
BRANCH   1  18
ATOM     18  C   UNL d   1       4.328  -4.069  -2.581  0.00  0.00     0.224 C 
ATOM     19  C   UNL d   1       3.118  -5.003  -2.423  0.00  0.00     0.066 C 
ATOM     20  C   UNL d   1       3.370  -6.093  -1.373  0.00  0.00     0.275 C 
ATOM     21  N   UNL d   1       4.583  -6.884  -1.663  0.00  0.00     0.092 N 
ATOM     22  C   UNL d   1       5.756  -5.999  -1.789  0.00  0.00     0.275 C 
ATOM     23  C   UNL d   1       5.544  -4.951  -2.883  0.00  0.00     0.066 C 
BRANCH  21  24
ATOM     24  C   UNL d   1       4.778  -7.880  -0.586  0.00  0.00     0.311 C 
BRANCH  24  25
ATOM     25  C   UNL d   1       5.986  -8.773  -0.782  0.00  0.00    -0.030 A 
ATOM     26  C   UNL d   1       7.046  -8.743   0.139  0.00  0.00     0.009 A 
ATOM     27  C   UNL d   1       8.183  -9.527  -0.063  0.00  0.00     0.001 A 
ATOM     28  C   UNL d   1       8.268 -10.358  -1.178  0.00  0.00     0.000 A 
ATOM     29  C   UNL d   1       7.213 -10.412  -2.088  0.00  0.00     0.001 A 
ATOM     30  C   UNL d   1       6.078  -9.623  -1.893  0.00  0.00     0.009 A 
ENDBRANCH  24  25
ENDBRANCH  21  24
ENDBRANCH   1  18
TORSDOF 9
