REMARK  3 active torsions:
REMARK  status: ('A' for Active; 'I' for Inactive)
REMARK    1  A    between atoms: C_4  and  C_1 
REMARK    2  A    between atoms: S_7  and  C_4 
REMARK    3  A    between atoms: C_10  and  S_7 
ROOT
ATOM      1  C   UNL d   1      -2.539  -1.373   0.103  0.00  0.00     0.242 C 
ATOM      2  O   UNL d   1      -1.646  -0.683   0.587  0.00  0.00    -0.278 OA
ENDROOT
BRANCH   1   3
ATOM      3  C   UNL d   1      -2.332  -2.783  -0.231  0.00  0.00     0.114 A 
ATOM      4  N   UNL d   1      -3.294  -3.603  -0.695  0.00  0.00    -0.257 N 
ATOM      5  O   UNL d   1      -2.707  -4.843  -0.855  0.00  0.00    -0.242 OA
ATOM      6  HN  UNL d   1      -4.264  -3.357  -0.890  1.00  0.00     0.195 HD
ATOM      7  C   UNL d   1      -1.398  -4.777  -0.499  0.00  0.00     0.075 A 
ATOM      8  C   UNL d   1      -1.105  -3.497  -0.107  0.00  0.00     0.070 A 
ATOM      9  C   UNL d   1      -0.626  -6.030  -0.588  0.00  0.00     0.079 C 
ENDBRANCH   1   3
BRANCH   1  10
ATOM     10  S   UNL d   1      -4.155  -0.738  -0.225  0.00  0.00    -0.046 SA
BRANCH  10  11
ATOM     11  C   UNL d   1      -3.965   1.035  -0.180  0.00  0.00     0.008 A 
ATOM     12  C   UNL d   1      -2.881   1.697  -0.763  0.00  0.00     0.019 A 
ATOM     13  C   UNL d   1      -2.797   3.094  -0.732  0.00  0.00     0.008 A 
ATOM     14  C   UNL d   1      -3.810   3.856  -0.142  0.00  0.00    -0.062 A 
ATOM     15  C   UNL d   1      -4.907   3.199   0.422  0.00  0.00     0.008 A 
ATOM     16  C   UNL d   1      -3.688   5.350  -0.084  0.00  0.00     0.048 C 
ATOM     17  C   UNL d   1      -4.985   1.801   0.398  0.00  0.00     0.019 A 
ENDBRANCH  10  11
ENDBRANCH   1  10
TORSDOF 3
