REMARK  0 active torsions:
REMARK  status: ('A' for Active; 'I' for Inactive)
ROOT
ATOM      1  N   UNL d   1       0.901   0.524  -0.002  0.00  0.00    -0.090 N 
ATOM      2  C   UNL d   1       1.639  -0.610  -0.002  0.00  0.00     0.722 A 
ATOM      3  C   UNL d   1       1.789   1.561  -0.001  0.00  0.00     0.360 A 
ATOM      4  N   UNL d   1       1.067  -1.856  -0.003  0.00  0.00    -0.130 N 
ATOM      5  HN  UNL d   1       1.659  -2.687  -0.005  1.00  0.00     0.205 HD
ATOM      6  N   UNL d   1       2.929  -0.414  -0.003  0.00  0.00    -0.126 N 
ATOM      7  HN  UNL d   1       3.673  -1.111  -0.003  1.00  0.00     0.206 HD
ATOM      8  N   UNL d   1      -0.188  -1.978  -0.001  0.00  0.00    -0.284 N 
ATOM      9  HN  UNL d   1      -0.610  -2.907  -0.001  1.00  0.00     0.187 HD
ATOM     10  N   UNL d   1       3.048   0.956  -0.002  0.00  0.00    -0.236 N 
ATOM     11  C   UNL d   1      -0.481   0.470  -0.001  0.00  0.00     0.090 A 
ATOM     12  C   UNL d   1      -1.011  -0.828  -0.000  0.00  0.00     0.076 A 
ATOM     13  O   UNL d   1       1.584   2.764   0.001  0.00  0.00    -0.244 OA
ATOM     14  C   UNL d   1      -1.313   1.590  -0.000  0.00  0.00     0.033 A 
ATOM     15  C   UNL d   1      -2.400  -0.988   0.002  0.00  0.00     0.033 A 
ATOM     16  C   UNL d   1      -2.698   1.413   0.001  0.00  0.00     0.002 A 
ATOM     17  C   UNL d   1      -3.241   0.127   0.002  0.00  0.00     0.002 A 
ATOM     18  H   UNL d   1       3.942   1.430  -0.000  0.00  0.00     0.192 HD
ENDROOT
TORSDOF 0
