REMARK  7 active torsions:
REMARK  status: ('A' for Active; 'I' for Inactive)
REMARK    1  A    between atoms: S_8  and  C_3 
REMARK    2  A    between atoms: C_10  and  C_5 
REMARK    3  A    between atoms: C_13  and  S_8 
REMARK    4  A    between atoms: C_9  and  C_13 
REMARK    5  A    between atoms: C_11  and  C_9 
REMARK    6  A    between atoms: O_22  and  C_10 
REMARK    7  A    between atoms: O_23  and  C_10 
ROOT
ATOM      1  N   UNL d   1      -1.451  -1.069  -0.105  0.00  0.00    -0.349 N 
ATOM      2  HN  UNL d   1      -1.935  -1.965  -0.152  1.00  0.00     0.166 HD
ATOM      3  C   UNL d   1      -0.102  -1.030  -0.025  0.00  0.00     0.091 A 
ATOM      4  C   UNL d   1       0.593   0.176  -0.006  0.00  0.00     0.078 A 
ATOM      5  C   UNL d   1      -2.162   0.093  -0.124  0.00  0.00     0.065 A 
ATOM      6  C   UNL d   1       2.019   0.242   0.089  0.00  0.00     0.102 C 
ATOM      7  N   UNL d   1       3.170   0.354   0.163  0.00  0.00    -0.191 NA
ATOM      8  C   UNL d   1      -0.140   1.369  -0.071  0.00  0.00     0.027 A 
ATOM      9  C   UNL d   1      -1.532   1.332  -0.127  0.00  0.00     0.032 A 
ENDROOT
BRANCH   3  10
ATOM     10  S   UNL d   1       0.699  -2.616   0.173  0.00  0.00    -0.103 SA
BRANCH  10  11
ATOM     11  C   UNL d   1      -0.611  -3.734  -0.439  0.00  0.00     0.164 C 
BRANCH  11  12
ATOM     12  C   UNL d   1      -0.275  -5.200  -0.200  0.00  0.00     0.169 C 
ATOM     13  O   UNL d   1       0.638  -5.588   0.525  0.00  0.00    -0.291 OA
BRANCH  12  14
ATOM     14  C   UNL d   1      -1.132  -6.234  -0.870  0.00  0.00     0.011 A 
ATOM     15  C   UNL d   1      -2.267  -5.902  -1.622  0.00  0.00     0.017 A 
ATOM     16  C   UNL d   1      -3.009  -6.903  -2.260  0.00  0.00     0.025 A 
ATOM     17  C   UNL d   1      -2.627  -8.239  -2.142  0.00  0.00     0.034 A 
ATOM     18  C   UNL d   1      -1.518  -8.585  -1.378  0.00  0.00     0.025 A 
ATOM     19 CL   UNL d   1      -3.528  -9.459  -2.952  0.00  0.00    -0.084 Cl
ATOM     20  C   UNL d   1      -0.773  -7.588  -0.742  0.00  0.00     0.017 A 
ENDBRANCH  12  14
ENDBRANCH  11  12
ENDBRANCH  10  11
ENDBRANCH   3  10
BRANCH   5  21
ATOM     21  C   UNL d   1      -3.690  -0.002  -0.065  0.00  0.00     0.309 C 
BRANCH  21  22
ATOM     22  O   UNL d   1      -4.169  -0.027  -1.414  0.00  0.00    -0.360 OA
ATOM     23  C   UNL d   1      -5.588  -0.027  -1.482  0.00  0.00     0.205 C 
ENDBRANCH  21  22
BRANCH  21  24
ATOM     24  O   UNL d   1      -4.122  -1.177   0.636  0.00  0.00    -0.360 OA
ATOM     25  C   UNL d   1      -3.769  -1.177   2.013  0.00  0.00     0.205 C 
ENDBRANCH  21  24
ENDBRANCH   5  21
TORSDOF 7
