REMARK  3 active torsions:
REMARK  status: ('A' for Active; 'I' for Inactive)
REMARK    1  A    between atoms: N_7  and  C_1 
REMARK    2  A    between atoms: C_11  and  N_7 
REMARK    3  A    between atoms: N_13  and  C_12 
ROOT
ATOM      1  C   UNL d   1      -1.105  -1.490  -0.227  0.00  0.00     0.090 A 
ATOM      2  C   UNL d   1      -1.569  -0.221  -0.178  0.00  0.00     0.110 A 
ATOM      3  C   UNL d   1       0.379  -1.721  -0.156  0.00  0.00     0.206 A 
ATOM      4  C   UNL d   1      -0.683   0.964  -0.076  0.00  0.00     0.206 A 
ATOM      5  C   UNL d   1       1.282  -0.554  -0.071  0.00  0.00     0.030 A 
ATOM      6  C   UNL d   1       0.769   0.738  -0.047  0.00  0.00     0.030 A 
ATOM      7  O   UNL d   1       0.831  -2.861  -0.196  0.00  0.00    -0.285 OA
ATOM      8  O   UNL d   1      -1.118   2.109  -0.016  0.00  0.00    -0.286 OA
ATOM      9 CL   UNL d   1      -3.269   0.129  -0.195  0.00  0.00    -0.078 Cl
ATOM     10  C   UNL d   1       1.637   1.840   0.006  0.00  0.00     0.016 A 
ATOM     11  C   UNL d   1       2.671  -0.747  -0.028  0.00  0.00     0.016 A 
ATOM     12  C   UNL d   1       3.017   1.645   0.037  0.00  0.00     0.001 A 
ATOM     13  C   UNL d   1       3.533   0.352   0.025  0.00  0.00     0.001 A 
ENDROOT
BRANCH   1  14
ATOM     14  N   UNL d   1      -1.893  -2.646  -0.313  0.00  0.00    -0.255 NA
ATOM     15  H   UNL d   1      -1.325  -3.487  -0.163  0.00  0.00     0.134 HD
BRANCH  14  16
ATOM     16  C   UNL d   1      -2.779  -2.862  -1.402  0.00  0.00     0.013 A 
ATOM     17  C   UNL d   1      -2.488  -2.442  -2.707  0.00  0.00     0.025 A 
ATOM     18  C   UNL d   1      -3.385  -2.688  -3.753  0.00  0.00     0.025 A 
ATOM     19  C   UNL d   1      -4.596  -3.338  -3.518  0.00  0.00     0.005 A 
ATOM     20  C   UNL d   1      -4.845  -3.833  -2.236  0.00  0.00     0.025 A 
ATOM     21  C   UNL d   1      -3.949  -3.594  -1.187  0.00  0.00     0.025 A 
BRANCH  19  22
ATOM     22  N   UNL d   1      -5.428  -3.687  -4.588  0.00  0.00    -0.303 NA
ATOM     23  H   UNL d   1      -6.392  -3.854  -4.317  0.00  0.00     0.124 HD
ATOM     24  H   UNL d   1      -5.360  -3.055  -5.379  0.00  0.00     0.124 HD
ENDBRANCH  19  22
ENDBRANCH  14  16
ENDBRANCH   1  14
TORSDOF 3
