REMARK  4 active torsions:
REMARK  status: ('A' for Active; 'I' for Inactive)
REMARK    1  A    between atoms: C_6  and  C_1 
REMARK    2  A    between atoms: S_12  and  C_2 
REMARK    3  A    between atoms: C_7  and  C_4 
REMARK    4  A    between atoms: O_16  and  C_7 
ROOT
ATOM      1  C   UNL d   1       0.655   1.275   0.020  0.00  0.00     0.031 A 
ATOM      2  C   UNL d   1      -0.737   1.245   0.005  0.00  0.00     0.055 A 
ATOM      3  C   UNL d   1       1.242  -0.059   0.013  0.00  0.00    -0.024 A 
ATOM      4  C   UNL d   1       0.252  -1.046   0.020  0.00  0.00     0.088 A 
ATOM      5  S   UNL d   1      -1.315  -0.361   0.020  0.00  0.00    -0.076 SA
ATOM      6  C   UNL d   1       2.708  -0.378  -0.066  0.00  0.00     0.050 C 
ENDROOT
BRANCH   1   7
ATOM      7  C   UNL d   1       1.424   2.578   0.014  0.00  0.00     0.112 A 
ATOM      8  O   UNL d   1       0.951   3.752  -0.516  0.00  0.00    -0.237 OA
ATOM      9  N   UNL d   1       1.905   4.748  -0.413  0.00  0.00    -0.272 N 
ATOM     10  C   UNL d   1       2.931   4.181   0.218  0.00  0.00     0.117 A 
ATOM     11  HN  UNL d   1       1.837   5.709  -0.747  1.00  0.00     0.194 HD
ATOM     12  C   UNL d   1       2.679   2.833   0.525  0.00  0.00     0.059 A 
ENDBRANCH   1   7
BRANCH   2  13
ATOM     13  S   UNL d   1      -1.817   2.655   0.029  0.00  0.00    -0.126 SA
ATOM     14  C   UNL d   1      -3.487   1.999   0.165  0.00  0.00     0.096 C 
ENDBRANCH   2  13
BRANCH   4  15
ATOM     15  C   UNL d   1       0.348  -2.506   0.008  0.00  0.00     0.300 C 
ATOM     16  O   UNL d   1      -0.590  -3.300   0.013  0.00  0.00    -0.259 OA
BRANCH  15  17
ATOM     17  O   UNL d   1       1.654  -2.896  -0.012  0.00  0.00    -0.322 OA
ATOM     18  C   UNL d   1       1.881  -4.305  -0.051  0.00  0.00     0.213 C 
ENDBRANCH  15  17
ENDBRANCH   4  15
TORSDOF 4
