REMARK  4 active torsions:
REMARK  status: ('A' for Active; 'I' for Inactive)
REMARK    1  A    between atoms: C_9  and  C_3 
REMARK    2  A    between atoms: C_8  and  C_7 
REMARK    3  A    between atoms: C_13  and  C_9 
REMARK    4  A    between atoms: O_23  and  C_15 
ROOT
ATOM      1  N   UNL d   1       1.295  -1.150  -0.046  0.00  0.00    -0.297 N 
ATOM      2  HN  UNL d   1       1.838  -2.013  -0.029  1.00  0.00     0.187 HD
ATOM      3  C   UNL d   1      -0.220   1.256  -0.066  0.00  0.00     0.018 A 
ATOM      4  N   UNL d   1      -0.068  -1.164  -0.140  0.00  0.00    -0.266 N 
ATOM      5  C   UNL d   1      -0.888  -0.064  -0.200  0.00  0.00     0.266 A 
ATOM      6  C   UNL d   1       1.114   1.293   0.042  0.00  0.00     0.045 A 
ATOM      7  C   UNL d   1       1.864   0.015   0.020  0.00  0.00     0.059 A 
ATOM      8  O   UNL d   1      -2.102  -0.162  -0.356  0.00  0.00    -0.266 OA
ATOM      9  H   UNL d   1      -0.507  -2.074  -0.225  0.00  0.00     0.190 HD
ENDROOT
BRANCH   3  10
ATOM     10  C   UNL d   1      -1.067   2.494  -0.106  0.00  0.00     0.083 C 
BRANCH  10  11
ATOM     11  C   UNL d   1      -1.504   2.961   1.264  0.00  0.00    -0.054 A 
ATOM     12  C   UNL d   1      -0.683   3.797   2.034  0.00  0.00     0.010 A 
ATOM     13  C   UNL d   1      -1.076   4.200   3.315  0.00  0.00     0.037 A 
ATOM     14  C   UNL d   1      -2.292   3.767   3.840  0.00  0.00     0.068 A 
ATOM     15  C   UNL d   1      -3.127   2.961   3.066  0.00  0.00     0.037 A 
ATOM     16  C   UNL d   1      -2.732   2.546   1.793  0.00  0.00     0.010 A 
BRANCH  14  17
ATOM     17  O   UNL d   1      -2.776   4.105   5.074  0.00  0.00    -0.356 OA
ATOM     18  C   UNL d   1      -1.787   4.290   6.081  0.00  0.00     0.210 C 
ENDBRANCH  14  17
ENDBRANCH  10  11
ENDBRANCH   3  10
BRANCH   7  19
ATOM     19  C   UNL d   1       3.354   0.108   0.097  0.00  0.00    -0.008 A 
ATOM     20  C   UNL d   1       4.072  -0.942   0.689  0.00  0.00     0.017 A 
ATOM     21  C   UNL d   1       5.464  -0.872   0.792  0.00  0.00     0.043 A 
ATOM     22  C   UNL d   1       6.134   0.242   0.299  0.00  0.00     0.116 A 
ATOM     23  C   UNL d   1       5.442   1.281  -0.310  0.00  0.00     0.043 A 
ATOM     24  F   UNL d   1       7.467   0.314   0.406  0.00  0.00    -0.206 F 
ATOM     25  C   UNL d   1       4.052   1.212  -0.421  0.00  0.00     0.017 A 
ENDBRANCH   7  19
TORSDOF 4
