REMARK  5 active torsions:
REMARK  status: ('A' for Active; 'I' for Inactive)
REMARK    1  A    between atoms: C_2  and  C_1 
REMARK    2  A    between atoms: C_4  and  C_1 
REMARK    3  A    between atoms: S_11  and  C_3 
REMARK    4  A    between atoms: S_12  and  C_3 
REMARK    5  A    between atoms: N_6  and  C_4 
ROOT
ATOM      1  C   UNL d   1       0.973  -0.048   0.083  0.00  0.00     0.061 C 
ATOM      2  C   UNL d   1       0.262   1.072   0.374  0.00  0.00     0.056 C 
ENDROOT
BRANCH   1   3
ATOM      3  C   UNL d   1       0.363  -1.381  -0.133  0.00  0.00     0.007 A 
ATOM      4  C   UNL d   1      -0.073  -1.822  -1.395  0.00  0.00     0.047 A 
ATOM      5  C   UNL d   1      -0.643  -3.090  -1.543  0.00  0.00     0.048 A 
ATOM      6 CL   UNL d   1       0.084  -0.835  -2.804  0.00  0.00    -0.083 Cl
ATOM      7  C   UNL d   1      -0.780  -3.921  -0.434  0.00  0.00     0.035 A 
ATOM      8  C   UNL d   1      -0.348  -3.504   0.823  0.00  0.00     0.025 A 
ATOM      9 CL   UNL d   1      -1.483  -5.481  -0.616  0.00  0.00    -0.084 Cl
ATOM     10  C   UNL d   1       0.225  -2.240   0.972  0.00  0.00     0.016 A 
ENDBRANCH   1   3
BRANCH   1  11
ATOM     11  C   UNL d   1       2.493  -0.048   0.083  0.00  0.00    -0.034 C 
BRANCH  11  12
ATOM     12  N   UNL d   1       3.754  -0.048   0.083  0.00  0.00    -0.365 N 
ATOM     13  HN2 UNL d   1       2.734  -0.048   0.083  1.00  0.00     0.165 HD
ATOM     14  HN1 UNL d   1       4.774  -0.048   0.083  1.00  0.00     0.165 HD
ENDBRANCH  11  12
ENDBRANCH   1  11
BRANCH   2  15
ATOM     15  S   UNL d   1       1.088   2.582   0.741  0.00  0.00    -0.126 SA
ATOM     16  C   UNL d   1      -0.029   3.852   0.106  0.00  0.00     0.096 C 
ENDBRANCH   2  15
BRANCH   2  17
ATOM     17  S   UNL d   1      -1.494   1.022   0.490  0.00  0.00    -0.126 SA
ATOM     18  C   UNL d   1      -1.677   0.825   2.280  0.00  0.00     0.096 C 
ENDBRANCH   2  17
TORSDOF 5
