REMARK  3 active torsions:
REMARK  status: ('A' for Active; 'I' for Inactive)
REMARK    1  A    between atoms: C_4  and  C_1 
REMARK       I    between atoms: N_9  and  C_4 
REMARK       I    between atoms: C_8  and  N_10 
REMARK    2  A    between atoms: C_11  and  C_8 
REMARK    3  A    between atoms: N_10  and  N_9 
ROOT
ATOM      1  C   UNL d   1       2.102  -2.238  -0.029  0.00  0.00     0.287 C 
ATOM      2  N   UNL d   1       3.468  -2.168   0.142  0.00  0.00    -0.262 N 
ATOM      3  O   UNL d   1       1.441  -1.304  -0.478  0.00  0.00    -0.264 OA
ATOM      4  H   UNL d   1       4.010  -2.970   0.466  0.00  0.00     0.190 HD
ENDROOT
BRANCH   2   5
ATOM      5  N   UNL d   1       4.156  -1.003  -0.239  0.00  0.00    -0.263 N 
ATOM      6  C   UNL d   1       5.526  -0.969  -0.069  0.00  0.00     0.270 C 
ATOM      7  O   UNL d   1       6.166  -1.909   0.391  0.00  0.00    -0.266 OA
ATOM      8  H   UNL d   1       3.588  -0.178  -0.417  0.00  0.00     0.190 HD
BRANCH   6   9
ATOM      9  C   UNL d   1       6.224   0.287  -0.465  0.00  0.00     0.033 A 
ATOM     10  C   UNL d   1       7.396   0.643   0.219  0.00  0.00     0.019 A 
ATOM     11  C   UNL d   1       8.124   1.774  -0.165  0.00  0.00     0.025 A 
ATOM     12  C   UNL d   1       7.688   2.543  -1.243  0.00  0.00     0.034 A 
ATOM     13  C   UNL d   1       6.526   2.196  -1.930  0.00  0.00     0.025 A 
ATOM     14 CL   UNL d   1       8.602   3.914  -1.740  0.00  0.00    -0.084 Cl
ATOM     15  C   UNL d   1       5.789   1.071  -1.543  0.00  0.00     0.019 A 
ENDBRANCH   6   9
ENDBRANCH   2   5
BRANCH   1  16
ATOM     16  C   UNL d   1       1.505  -3.517   0.379  0.00  0.00     0.109 A 
ATOM     17  N   UNL d   1       2.259  -4.560   0.932  0.00  0.00    -0.349 N 
ATOM     18  C   UNL d   1       1.471  -5.571   1.241  0.00  0.00     0.047 A 
ATOM     19  HN  UNL d   1       3.269  -4.541   1.074  1.00  0.00     0.166 HD
ATOM     20  C   UNL d   1       1.914  -6.841   1.882  0.00  0.00     0.076 C 
ATOM     21  S   UNL d   1      -0.194  -5.355   0.868  0.00  0.00    -0.087 SA
ATOM     22  C   UNL d   1       0.154  -3.793   0.267  0.00  0.00     0.086 A 
ENDBRANCH   1  16
TORSDOF 3
