REMARK  7 active torsions:
REMARK  status: ('A' for Active; 'I' for Inactive)
REMARK    1  A    between atoms: S_10  and  C_3 
REMARK    2  A    between atoms: O_15  and  C_4 
REMARK    3  A    between atoms: C_8  and  C_13 
REMARK       I    between atoms: N_11  and  C_8 
REMARK    4  A    between atoms: C_22  and  C_9 
REMARK    5  A    between atoms: C_13  and  S_10 
REMARK    6  A    between atoms: C_14  and  N_11 
REMARK    7  A    between atoms: C_23  and  C_22 
ROOT
ATOM      1  N   UNL d   1       0.555  -0.077   1.219  0.00  0.00    -0.318 N 
ATOM      2  HN  UNL d   1       0.301  -0.297   2.182  1.00  0.00     0.170 HD
ATOM      3  C   UNL d   1       1.381  -0.843   0.495  0.00  0.00     0.146 A 
ATOM      4  C   UNL d   1       0.091   0.998   0.578  0.00  0.00     0.143 A 
ATOM      5  N   UNL d   1       1.725  -0.614  -0.780  0.00  0.00    -0.340 N 
ATOM      6  HN  UNL d   1       2.323  -1.264  -1.291  1.00  0.00     0.167 HD
ATOM      7  C   UNL d   1       0.408   1.366  -0.703  0.00  0.00     0.081 A 
ATOM      8  C   UNL d   1       1.254   0.506  -1.365  0.00  0.00     0.015 A 
ENDROOT
BRANCH   3   9
ATOM      9  S   UNL d   1       2.210  -2.155   1.363  0.00  0.00    -0.085 SA
BRANCH   9  10
ATOM     10  C   UNL d   1       3.624  -2.424   0.244  0.00  0.00     0.185 C 
BRANCH  10  11
ATOM     11  C   UNL d   1       4.452  -1.176  -0.045  0.00  0.00     0.231 C 
ATOM     12  N   UNL d   1       4.577  -0.289   1.013  0.00  0.00    -0.327 N 
ATOM     13  H   UNL d   1       4.209  -0.598   1.905  0.00  0.00     0.169 HD
ATOM     14  O   UNL d   1       5.018  -1.060  -1.130  0.00  0.00    -0.272 OA
BRANCH  12  15
ATOM     15  C   UNL d   1       5.122   1.011   0.965  0.00  0.00     0.034 A 
ATOM     16  C   UNL d   1       5.462   1.661  -0.225  0.00  0.00     0.031 A 
ATOM     17  C   UNL d   1       5.959   2.969  -0.208  0.00  0.00     0.021 A 
ATOM     18  C   UNL d   1       6.122   3.632   1.003  0.00  0.00     0.011 A 
ATOM     19  C   UNL d   1       5.791   2.999   2.199  0.00  0.00     0.021 A 
ATOM     20 BR   UNL d   1       6.786   5.401   1.023  0.00  0.00    -0.051 Br
ATOM     21  C   UNL d   1       5.284   1.695   2.178  0.00  0.00     0.031 A 
ENDBRANCH  12  15
ENDBRANCH  10  11
ENDBRANCH   9  10
ENDBRANCH   3   9
BRANCH   4  22
ATOM     22  O   UNL d   1      -0.738   1.773   1.323  0.00  0.00    -0.346 OA
ATOM     23  H   UNL d   1      -0.764   1.265   2.154  0.00  0.00     0.219 HD
ENDBRANCH   4  22
BRANCH   8  24
ATOM     24  C   UNL d   1       1.760   0.816  -2.749  0.00  0.00     0.057 C 
BRANCH  24  25
ATOM     25  C   UNL d   1       1.320  -0.197  -3.808  0.00  0.00     0.002 C 
ATOM     26  C   UNL d   1      -0.180  -0.174  -4.064  0.00  0.00     0.005 C 
ENDBRANCH  24  25
ENDBRANCH   8  24
TORSDOF 7
