REMARK  1 active torsions:
REMARK  status: ('A' for Active; 'I' for Inactive)
REMARK       I    between atoms: N_2  and  C_1 
REMARK       I    between atoms: N_3  and  C_1 
REMARK    1  A    between atoms: C_5  and  N_3 
ROOT
ATOM      1  C   UNL d   1       0.955   0.245   0.086  0.00  0.00     0.322 C 
ATOM      2  N   UNL d   1       0.235   0.771   1.159  0.00  0.00    -0.334 N 
ATOM      3  N   UNL d   1       0.609  -1.027  -0.305  0.00  0.00    -0.309 N 
ATOM      4  O   UNL d   1       1.835   0.912  -0.457  0.00  0.00    -0.247 OA
ATOM      5  C   UNL d   1      -0.896   0.180   1.877  0.00  0.00     0.127 C 
ATOM      6  C   UNL d   1       0.641   2.086   1.663  0.00  0.00     0.127 C 
ATOM      7  C   UNL d   1      -2.097   1.131   1.915  0.00  0.00     0.020 C 
ATOM      8  C   UNL d   1      -0.520   3.070   1.590  0.00  0.00     0.020 C 
ATOM      9  C   UNL d   1      -1.720   2.540   2.370  0.00  0.00     0.003 C 
ATOM     10  H   UNL d   1      -0.057  -1.521   0.254  0.00  0.00     0.170 HD
ENDROOT
BRANCH   3  11
ATOM     11  C   UNL d   1       1.125  -1.757  -1.405  0.00  0.00     0.036 A 
ATOM     12  C   UNL d   1       2.122  -1.290  -2.265  0.00  0.00     0.029 A 
ATOM     13  C   UNL d   1       2.549  -2.058  -3.352  0.00  0.00     0.002 A 
ATOM     14  C   UNL d   1       1.982  -3.306  -3.594  0.00  0.00     0.000 A 
ATOM     15  C   UNL d   1       0.998  -3.792  -2.738  0.00  0.00     0.002 A 
ATOM     16  C   UNL d   1       0.576  -3.025  -1.647  0.00  0.00     0.029 A 
ENDBRANCH   3  11
TORSDOF 1
