REMARK  5 active torsions:
REMARK  status: ('A' for Active; 'I' for Inactive)
REMARK    1  A    between atoms: O_3  and  C_4 
REMARK    2  A    between atoms: C_7  and  O_3 
REMARK    3  A    between atoms: C_5  and  C_7 
REMARK    4  A    between atoms: O_18  and  C_6 
REMARK    5  A    between atoms: C_8  and  C_17 
ROOT
ATOM      1  N   UNL d   1       3.504  -0.507   1.280  0.00  0.00    -0.197 NA
ATOM      2  C   UNL d   1       2.877  -0.307   0.322  0.00  0.00     0.063 C 
ATOM      3  C   UNL d   1       2.076  -0.065  -0.886  0.00  0.00     0.162 C 
ENDROOT
BRANCH   3   4
ATOM      4  C   UNL d   1       2.761   0.887  -1.836  0.00  0.00    -0.045 A 
ATOM      5  C   UNL d   1       3.626   0.400  -2.826  0.00  0.00     0.011 A 
ATOM      6  C   UNL d   1       4.304   1.281  -3.672  0.00  0.00     0.037 A 
ATOM      7  C   UNL d   1       4.117   2.657  -3.548  0.00  0.00     0.069 A 
ATOM      8  C   UNL d   1       3.272   3.147  -2.552  0.00  0.00     0.037 A 
ATOM      9  C   UNL d   1       2.594   2.271  -1.702  0.00  0.00     0.011 A 
BRANCH   7  10
ATOM     10  O   UNL d   1       4.713   3.613  -4.322  0.00  0.00    -0.347 OA
BRANCH  10  11
ATOM     11  C   UNL d   1       5.269   3.163  -5.555  0.00  0.00     0.214 C 
BRANCH  11  12
ATOM     12  C   UNL d   1       5.471   4.362  -6.443  0.00  0.00    -0.034 A 
ATOM     13  C   UNL d   1       6.727   4.972  -6.557  0.00  0.00     0.012 A 
ATOM     14  C   UNL d   1       6.901   6.088  -7.381  0.00  0.00     0.037 A 
ATOM     15  C   UNL d   1       5.818   6.613  -8.088  0.00  0.00     0.068 A 
ATOM     16  C   UNL d   1       4.567   6.005  -7.981  0.00  0.00     0.037 A 
ATOM     17  C   UNL d   1       4.389   4.897  -7.155  0.00  0.00     0.012 A 
BRANCH  15  18
ATOM     18  O   UNL d   1       5.871   7.689  -8.932  0.00  0.00    -0.356 OA
ATOM     19  C   UNL d   1       6.892   8.637  -8.649  0.00  0.00     0.210 C 
ENDBRANCH  15  18
ENDBRANCH  11  12
ENDBRANCH  10  11
ENDBRANCH   7  10
ENDBRANCH   3   4
TORSDOF 5
