REMARK  2 active torsions:
REMARK  status: ('A' for Active; 'I' for Inactive)
REMARK    1  A    between atoms: C_14  and  C_3 
REMARK    2  A    between atoms: C_12  and  C_8 
ROOT
ATOM      1  C   UNL d   1      -2.700   0.671  -0.590  0.00  0.00     0.150 C 
ATOM      2  C   UNL d   1      -1.365   1.361  -0.333  0.00  0.00     0.195 C 
ATOM      3  C   UNL d   1      -2.715  -0.543   0.407  0.00  0.00     0.200 C 
ATOM      4  O   UNL d   1      -1.558  -1.410   0.299  0.00  0.00    -0.337 OA
ATOM      5  N   UNL d   1      -2.740   0.158  -1.987  0.00  0.00    -0.319 N 
ATOM      6  HN  UNL d   1      -1.929  -0.185  -2.501  1.00  0.00     0.181 HD
ATOM      7  C   UNL d   1      -0.179   0.504  -0.258  0.00  0.00     0.046 A 
ATOM      8  C   UNL d   1      -3.920   1.625  -0.554  0.00  0.00     0.078 C 
ATOM      9  C   UNL d   1      -0.352  -0.834   0.061  0.00  0.00     0.083 A 
ATOM     10  N   UNL d   1      -3.917   0.207  -2.449  0.00  0.00    -0.339 N 
ATOM     11  HN  UNL d   1      -4.192  -0.165  -3.358  1.00  0.00     0.179 HD
ATOM     12  O   UNL d   1      -1.206   2.552  -0.082  0.00  0.00    -0.289 OA
ATOM     13  C   UNL d   1      -4.845   0.872  -1.505  0.00  0.00     0.151 C 
ATOM     14  C   UNL d   1       1.103   1.035  -0.443  0.00  0.00     0.018 A 
ATOM     15  C   UNL d   1       0.764  -1.665   0.159  0.00  0.00     0.038 A 
ATOM     16  C   UNL d   1       2.217   0.205  -0.331  0.00  0.00     0.001 A 
ATOM     17  C   UNL d   1       2.047  -1.147  -0.035  0.00  0.00     0.003 A 
ENDROOT
BRANCH   3  18
ATOM     18  C   UNL d   1      -3.878  -1.524   0.301  0.00  0.00    -0.026 A 
ATOM     19  C   UNL d   1      -3.930  -2.462  -0.753  0.00  0.00     0.010 A 
ATOM     20  C   UNL d   1      -5.004  -3.337  -0.893  0.00  0.00     0.001 A 
ATOM     21  C   UNL d   1      -6.043  -3.307   0.031  0.00  0.00     0.000 A 
ATOM     22  C   UNL d   1      -5.995  -2.409   1.099  0.00  0.00     0.001 A 
ATOM     23  C   UNL d   1      -4.922  -1.524   1.236  0.00  0.00     0.010 A 
ENDBRANCH   3  18
BRANCH   8  24
ATOM     24  C   UNL d   1      -3.745   3.053  -1.101  0.00  0.00    -0.049 A 
ATOM     25  C   UNL d   1      -3.378   3.301  -2.436  0.00  0.00     0.008 A 
ATOM     26  C   UNL d   1      -3.246   4.601  -2.929  0.00  0.00     0.007 A 
ATOM     27  C   UNL d   1      -3.466   5.696  -2.097  0.00  0.00    -0.062 A 
ATOM     28  C   UNL d   1      -3.813   5.469  -0.761  0.00  0.00     0.007 A 
ATOM     29  C   UNL d   1      -3.294   7.081  -2.647  0.00  0.00     0.048 C 
ATOM     30  C   UNL d   1      -3.957   4.162  -0.269  0.00  0.00     0.008 A 
ENDBRANCH   8  24
TORSDOF 2
