REMARK  4 active torsions:
REMARK  status: ('A' for Active; 'I' for Inactive)
REMARK    1  A    between atoms: C_10  and  N_1 
REMARK    2  A    between atoms: C_8  and  C_2 
REMARK    3  A    between atoms: C_3  and  C_9 
REMARK    4  A    between atoms: C_18  and  C_10 
ROOT
ATOM      1  N   UNL d   1       0.863  -0.651   0.083  0.00  0.00    -0.337 N 
ATOM      2  C   UNL d   1       0.909   0.736   0.061  0.00  0.00     0.117 A 
ATOM      3  N   UNL d   1      -0.325   1.213   0.018  0.00  0.00    -0.350 N 
ATOM      4  HN  UNL d   1      -0.593   2.196  -0.027  1.00  0.00     0.166 HD
ATOM      5  C   UNL d   1      -1.173   0.140   0.045  0.00  0.00     0.107 A 
ATOM      6  C   UNL d   1      -0.460  -1.031   0.067  0.00  0.00     0.110 A 
ENDROOT
BRANCH   2   7
ATOM      7  C   UNL d   1       2.112   1.589   0.046  0.00  0.00     0.008 A 
ATOM      8  C   UNL d   1       2.101   2.800  -0.662  0.00  0.00     0.016 A 
ATOM      9  C   UNL d   1       3.233   3.629  -0.701  0.00  0.00     0.017 A 
ATOM     10  C   UNL d   1       4.411   3.258  -0.036  0.00  0.00     0.048 A 
ATOM     11  C   UNL d   1       4.413   2.068   0.697  0.00  0.00     0.017 A 
ATOM     12  C   UNL d   1       3.269   1.272   0.760  0.00  0.00     0.016 A 
BRANCH  10  13
ATOM     13  C   UNL d   1       5.640   4.130  -0.078  0.00  0.00     0.417 C 
ATOM     14  F   UNL d   1       6.705   3.595   0.582  0.00  0.00    -0.166 F 
ATOM     15  F   UNL d   1       6.073   4.362  -1.349  0.00  0.00    -0.166 F 
ATOM     16  F   UNL d   1       5.433   5.354   0.479  0.00  0.00    -0.166 F 
ENDBRANCH  10  13
ENDBRANCH   2   7
BRANCH   1  17
ATOM     17  C   UNL d   1       1.965  -1.608   0.033  0.00  0.00     0.168 C 
BRANCH  17  18
ATOM     18  C   UNL d   1       2.524  -1.961   1.399  0.00  0.00    -0.040 A 
ATOM     19  C   UNL d   1       1.720  -2.019   2.551  0.00  0.00     0.012 A 
ATOM     20  C   UNL d   1       2.284  -2.281   3.801  0.00  0.00     0.043 A 
ATOM     21  C   UNL d   1       3.649  -2.503   3.906  0.00  0.00     0.116 A 
ATOM     22  C   UNL d   1       4.462  -2.486   2.780  0.00  0.00     0.043 A 
ATOM     23  F   UNL d   1       4.191  -2.733   5.109  0.00  0.00    -0.206 F 
ATOM     24  C   UNL d   1       3.900  -2.230   1.527  0.00  0.00     0.012 A 
ENDBRANCH  17  18
ENDBRANCH   1  17
TORSDOF 4
