REMARK  3 active torsions:
REMARK  status: ('A' for Active; 'I' for Inactive)
REMARK    1  A    between atoms: C_5  and  N_1 
REMARK    2  A    between atoms: C_3  and  C_5 
REMARK       I    between atoms: N_7  and  C_3 
REMARK    3  A    between atoms: C_13  and  N_7 
ROOT
ATOM      1  N   UNL d   1      -1.522   1.736   0.215  0.00  0.00    -0.372 N 
ATOM      2  C   UNL d   1      -0.231   1.200   0.303  0.00  0.00     0.036 A 
ATOM      3  C   UNL d   1      -0.002  -0.186   0.263  0.00  0.00    -0.031 A 
ATOM      4  C   UNL d   1       0.883   2.050   0.381  0.00  0.00     0.030 A 
ATOM      5  C   UNL d   1       1.310  -0.679   0.169  0.00  0.00     0.016 A 
ATOM      6  C   UNL d   1      -2.647   0.824   0.465  0.00  0.00     0.124 C 
ATOM      7  C   UNL d   1       2.185   1.558   0.287  0.00  0.00     0.009 A 
ATOM      8  C   UNL d   1       2.405   0.190   0.132  0.00  0.00    -0.061 A 
ATOM      9  C   UNL d   1      -1.150  -1.157   0.347  0.00  0.00     0.042 C 
ATOM     10  C   UNL d   1      -2.438  -0.539  -0.173  0.00  0.00     0.024 C 
ATOM     11  C   UNL d   1       3.790  -0.351  -0.057  0.00  0.00     0.048 C 
ENDROOT
BRANCH   1  12
ATOM     12  C   UNL d   1      -1.725   2.742  -0.854  0.00  0.00     0.226 C 
BRANCH  12  13
ATOM     13  C   UNL d   1      -1.693   2.159  -2.276  0.00  0.00     0.240 C 
ATOM     14  N   UNL d   1      -0.420   2.067  -2.820  0.00  0.00    -0.326 N 
ATOM     15  H   UNL d   1       0.348   2.065  -2.159  0.00  0.00     0.169 HD
ATOM     16  O   UNL d   1      -2.739   1.831  -2.840  0.00  0.00    -0.271 OA
BRANCH  14  17
ATOM     17  C   UNL d   1      -0.095   1.792  -4.165  0.00  0.00     0.034 A 
ATOM     18  C   UNL d   1      -1.025   1.861  -5.205  0.00  0.00     0.029 A 
ATOM     19  C   UNL d   1      -0.642   1.596  -6.523  0.00  0.00     0.002 A 
ATOM     20  C   UNL d   1       0.677   1.260  -6.815  0.00  0.00     0.000 A 
ATOM     21  C   UNL d   1       1.618   1.206  -5.790  0.00  0.00     0.002 A 
ATOM     22  C   UNL d   1       1.236   1.478  -4.471  0.00  0.00     0.029 A 
ENDBRANCH  14  17
ENDBRANCH  12  13
ENDBRANCH   1  12
TORSDOF 3
