REMARK  7 active torsions:
REMARK  status: ('A' for Active; 'I' for Inactive)
REMARK    1  A    between atoms: C_7  and  C_1 
REMARK    2  A    between atoms: C_8  and  N_2 
REMARK       I    between atoms: N_10  and  C_7 
REMARK    3  A    between atoms: C_27  and  N_10 
REMARK    4  A    between atoms: C_18  and  C_26 
REMARK    5  A    between atoms: S_21  and  C_28 
REMARK    6  A    between atoms: C_26  and  S_21 
REMARK    7  A    between atoms: C_28  and  C_27 
ROOT
ATOM      1  C   UNL d   1      -0.789   2.600   0.086  0.00  0.00     0.255 C 
ATOM      2  O   UNL d   1      -0.001   3.535   0.188  0.00  0.00    -0.268 OA
ATOM      3  N   UNL d   1      -2.145   2.816   0.016  0.00  0.00    -0.356 N 
ATOM      4  H   UNL d   1      -2.800   2.047  -0.020  0.00  0.00     0.162 HD
ENDROOT
BRANCH   1   5
ATOM      5  C   UNL d   1      -0.346   1.213   0.020  0.00  0.00     0.073 A 
ATOM      6  C   UNL d   1       0.985   0.801   0.007  0.00  0.00     0.048 A 
ATOM      7  N   UNL d   1       0.976  -0.586  -0.049  0.00  0.00    -0.260 N 
ATOM      8  C   UNL d   1       2.200   1.664  -0.063  0.00  0.00     0.071 C 
ATOM      9  N   UNL d   1      -0.285  -1.060  -0.222  0.00  0.00    -0.304 N 
ATOM     10  C   UNL d   1      -1.068   0.013  -0.108  0.00  0.00     0.126 A 
ATOM     11  HN  UNL d   1      -0.570  -2.023  -0.400  1.00  0.00     0.186 HD
BRANCH   7  12
ATOM     12  C   UNL d   1       2.071  -1.494   0.003  0.00  0.00     0.056 A 
ATOM     13  C   UNL d   1       3.226  -1.194   0.737  0.00  0.00     0.033 A 
ATOM     14  C   UNL d   1       4.329  -2.050   0.691  0.00  0.00     0.026 A 
ATOM     15  C   UNL d   1       4.271  -3.215  -0.071  0.00  0.00     0.034 A 
ATOM     16  C   UNL d   1       3.105  -3.552  -0.756  0.00  0.00     0.026 A 
ATOM     17 CL   UNL d   1       5.649  -4.240  -0.164  0.00  0.00    -0.084 Cl
ATOM     18  C   UNL d   1       1.995  -2.702  -0.706  0.00  0.00     0.033 A 
ENDBRANCH   7  12
ENDBRANCH   1   5
BRANCH   3  19
ATOM     19  C   UNL d   1      -2.653   4.176   0.009  0.00  0.00     0.133 C 
BRANCH  19  20
ATOM     20  C   UNL d   1      -4.172   4.266   0.133  0.00  0.00     0.093 C 
BRANCH  20  21
ATOM     21  S   UNL d   1      -4.843   3.393   1.593  0.00  0.00    -0.163 SA
BRANCH  21  22
ATOM     22  C   UNL d   1      -4.012   4.329   2.917  0.00  0.00     0.112 C 
BRANCH  22  23
ATOM     23  C   UNL d   1      -4.339   3.768   4.277  0.00  0.00    -0.049 A 
ATOM     24  C   UNL d   1      -3.542   2.752   4.831  0.00  0.00     0.011 A 
ATOM     25  C   UNL d   1      -3.836   2.231   6.091  0.00  0.00     0.043 A 
ATOM     26  C   UNL d   1      -4.930   2.720   6.794  0.00  0.00     0.116 A 
ATOM     27  C   UNL d   1      -5.738   3.717   6.261  0.00  0.00     0.043 A 
ATOM     28  F   UNL d   1      -5.210   2.221   8.006  0.00  0.00    -0.206 F 
ATOM     29  C   UNL d   1      -5.446   4.240   5.000  0.00  0.00     0.011 A 
ENDBRANCH  22  23
ENDBRANCH  21  22
ENDBRANCH  20  21
ENDBRANCH  19  20
ENDBRANCH   3  19
TORSDOF 7
