REMARK  11 active torsions:
REMARK  status: ('A' for Active; 'I' for Inactive)
REMARK    1  A    between atoms: C_9  and  C_1 
REMARK    2  A    between atoms: C_11  and  C_2 
REMARK    3  A    between atoms: C_12  and  C_2 
REMARK    4  A    between atoms: C_14  and  C_8 
REMARK    5  A    between atoms: C_10  and  N_13 
REMARK    6  A    between atoms: O_25  and  C_11 
REMARK    7  A    between atoms: O_24  and  C_12 
REMARK    8  A    between atoms: N_13  and  C_15 
REMARK    9  A    between atoms: C_16  and  C_17 
REMARK   10  A    between atoms: C_32  and  O_24 
REMARK   11  A    between atoms: C_31  and  O_25 
ROOT
ATOM      1  C   UNL d   1      -0.609  -2.387   0.025  0.00  0.00     0.043 A 
ATOM      2  C   UNL d   1      -1.400  -2.817  -1.074  0.00  0.00     0.046 A 
ATOM      3  C   UNL d   1      -0.247  -3.329   1.013  0.00  0.00     0.018 A 
ATOM      4  C   UNL d   1      -1.774  -4.179  -1.132  0.00  0.00     0.030 A 
ATOM      5  C   UNL d   1      -0.625  -4.669   0.922  0.00  0.00     0.001 A 
ATOM      6  C   UNL d   1      -1.381  -5.095  -0.157  0.00  0.00     0.002 A 
ENDROOT
BRANCH   1   7
ATOM      7  C   UNL d   1      -0.153  -1.002   0.172  0.00  0.00     0.177 A 
ATOM      8  O   UNL d   1       0.448  -0.654   1.366  0.00  0.00    -0.273 OA
ATOM      9  C   UNL d   1       0.739   0.671   1.167  0.00  0.00     0.174 A 
ATOM     10  N   UNL d   1       0.376   1.087  -0.032  0.00  0.00    -0.277 N 
ATOM     11  N   UNL d   1      -0.199   0.008  -0.674  0.00  0.00    -0.277 N 
ATOM     12  HN  UNL d   1       0.498   2.025  -0.412  1.00  0.00     0.189 HD
ATOM     13  HN  UNL d   1      -0.584  -0.005  -1.618  1.00  0.00     0.189 HD
BRANCH   9  14
ATOM     14  C   UNL d   1       1.325   1.430   2.273  0.00  0.00     0.017 A 
ATOM     15  C   UNL d   1       1.709   0.863   3.495  0.00  0.00     0.016 A 
ATOM     16  C   UNL d   1       2.211   1.665   4.542  0.00  0.00     0.009 A 
ATOM     17  C   UNL d   1       2.344   3.061   4.406  0.00  0.00    -0.051 A 
ATOM     18  C   UNL d   1       1.978   3.608   3.167  0.00  0.00     0.009 A 
ATOM     19  C   UNL d   1       1.486   2.811   2.124  0.00  0.00     0.016 A 
BRANCH  17  20
ATOM     20  C   UNL d   1       2.856   3.941   5.566  0.00  0.00    -0.024 C 
ATOM     21  C   UNL d   1       2.924   5.446   5.205  0.00  0.00     0.019 C 
ATOM     22  C   UNL d   1       1.922   3.813   6.790  0.00  0.00     0.019 C 
ATOM     23  C   UNL d   1       4.279   3.514   5.987  0.00  0.00     0.019 C 
ENDBRANCH  17  20
ENDBRANCH   9  14
ENDBRANCH   1   7
BRANCH   2  24
ATOM     24  N   UNL d   1      -1.901  -1.905  -2.037  0.00  0.00    -0.364 N 
ATOM     25  H   UNL d   1      -1.300  -1.100  -2.240  0.00  0.00     0.165 HD
BRANCH  24  26
ATOM     26  C   UNL d   1      -3.018  -2.057  -2.835  0.00  0.00     0.112 C 
ATOM     27  C   UNL d   1      -3.475  -1.353  -3.890  0.00  0.00     0.129 C 
BRANCH  27  28
ATOM     28  C   UNL d   1      -2.784  -0.184  -4.481  0.00  0.00     0.300 C 
ATOM     29  O   UNL d   1      -3.289   0.592  -5.273  0.00  0.00    -0.259 OA
BRANCH  28  30
ATOM     30  O   UNL d   1      -1.480  -0.166  -4.092  0.00  0.00    -0.318 OA
BRANCH  30  31
ATOM     31  C   UNL d   1      -0.594   0.580  -4.935  0.00  0.00     0.174 C 
ATOM     32  C   UNL d   1      -0.154  -0.337  -6.063  0.00  0.00     0.034 C 
ENDBRANCH  30  31
ENDBRANCH  28  30
ENDBRANCH  27  28
BRANCH  27  33
ATOM     33  C   UNL d   1      -4.687  -1.927  -4.529  0.00  0.00     0.300 C 
ATOM     34  O   UNL d   1      -5.470  -2.678  -3.958  0.00  0.00    -0.259 OA
BRANCH  33  35
ATOM     35  O   UNL d   1      -4.687  -1.680  -5.863  0.00  0.00    -0.318 OA
BRANCH  35  36
ATOM     36  C   UNL d   1      -5.446  -2.594  -6.670  0.00  0.00     0.174 C 
ATOM     37  C   UNL d   1      -4.485  -3.666  -7.152  0.00  0.00     0.034 C 
ENDBRANCH  35  36
ENDBRANCH  33  35
ENDBRANCH  27  33
ENDBRANCH  24  26
ENDBRANCH   2  24
TORSDOF 11
