REMARK  1 active torsions:
REMARK  status: ('A' for Active; 'I' for Inactive)
REMARK    1  A    between atoms: S_6  and  C_1 
ROOT
ATOM      1  C   UNL d   1       1.960   0.828  -0.088  0.00  0.00     0.087 A 
ATOM      2  C   UNL d   1       0.587   0.635  -0.073  0.00  0.00     0.044 A 
ATOM      3  S   UNL d   1       2.822  -0.645  -0.019  0.00  0.00    -0.067 SA
ATOM      4  C   UNL d   1       1.394  -1.545   0.006  0.00  0.00     0.083 A 
ATOM      5  C   UNL d   1       0.257  -0.774  -0.006  0.00  0.00    -0.014 A 
ATOM      6  C   UNL d   1      -0.459   1.659  -0.058  0.00  0.00     0.162 C 
ATOM      7 CL   UNL d   1       1.488  -3.260   0.080  0.00  0.00    -0.076 Cl
ATOM      8  O   UNL d   1      -0.227   2.853  -0.236  0.00  0.00    -0.292 OA
ATOM      9  C   UNL d   1      -1.160  -1.258   0.084  0.00  0.00     0.042 C 
ATOM     10  C   UNL d   1      -1.867   1.172   0.265  0.00  0.00     0.084 C 
ATOM     11  C   UNL d   1      -2.151  -0.185  -0.379  0.00  0.00     0.012 C 
ENDROOT
BRANCH   1  12
ATOM     12  S   UNL d   1       2.765   2.385  -0.083  0.00  0.00     0.053 S 
ATOM     13  O   UNL d   1       4.205   2.131   0.251  0.00  0.00    -0.253 OA
ATOM     14  C   UNL d   1       2.730   2.669  -1.875  0.00  0.00     0.133 C 
ENDBRANCH   1  12
TORSDOF 1
