REMARK  6 active torsions:
REMARK  status: ('A' for Active; 'I' for Inactive)
REMARK    1  A    between atoms: C_10  and  C_3 
REMARK    2  A    between atoms: C_9  and  C_6 
REMARK    3  A    between atoms: S_8  and  C_9 
REMARK    4  A    between atoms: C_12  and  S_8 
REMARK    5  A    between atoms: O_11  and  C_10 
REMARK    6  A    between atoms: C_13  and  O_11 
ROOT
ATOM      1  N   UNL d   1       1.324   0.136  -0.034  0.00  0.00    -0.324 N 
ATOM      2  HN  UNL d   1       2.339   0.235  -0.063  1.00  0.00     0.169 HD
ATOM      3  C   UNL d   1       0.358   1.120  -0.004  0.00  0.00     0.128 A 
ATOM      4  N   UNL d   1      -0.902   0.667   0.000  0.00  0.00    -0.245 N 
ATOM      5  HN  UNL d   1      -1.769   1.205   0.001  1.00  0.00     0.196 HD
ATOM      6  C   UNL d   1       0.600  -0.964  -0.016  0.00  0.00     0.158 A 
ATOM      7  O   UNL d   1      -0.743  -0.717   0.004  0.00  0.00    -0.222 OA
ENDROOT
BRANCH   3   8
ATOM      8  C   UNL d   1       0.684   2.572   0.015  0.00  0.00     0.254 C 
BRANCH   8   9
ATOM      9  O   UNL d   1       0.716   3.069   1.357  0.00  0.00    -0.344 OA
BRANCH   9  10
ATOM     10  C   UNL d   1       0.932   4.411   1.500  0.00  0.00     0.069 A 
ATOM     11  C   UNL d   1       0.441   4.965   2.685  0.00  0.00     0.038 A 
ATOM     12  C   UNL d   1       0.619   6.321   2.962  0.00  0.00     0.026 A 
ATOM     13  C   UNL d   1       1.306   7.123   2.055  0.00  0.00     0.034 A 
ATOM     14  C   UNL d   1       1.813   6.577   0.877  0.00  0.00     0.026 A 
ATOM     15 CL   UNL d   1       1.541   8.793   2.392  0.00  0.00    -0.084 Cl
ATOM     16  C   UNL d   1       1.627   5.219   0.599  0.00  0.00     0.038 A 
ENDBRANCH   9  10
ENDBRANCH   8   9
ENDBRANCH   3   8
BRANCH   6  17
ATOM     17  C   UNL d   1       1.061  -2.387  -0.024  0.00  0.00     0.166 C 
BRANCH  17  18
ATOM     18  S   UNL d   1      -0.310  -3.589  -0.164  0.00  0.00    -0.122 SA
BRANCH  18  19
ATOM     19  C   UNL d   1       0.491  -5.169   0.025  0.00  0.00     0.001 A 
ATOM     20  C   UNL d   1      -0.247  -6.181   0.658  0.00  0.00     0.020 A 
ATOM     21  C   UNL d   1       0.256  -7.480   0.757  0.00  0.00     0.025 A 
ATOM     22  C   UNL d   1       1.503  -7.777   0.219  0.00  0.00     0.034 A 
ATOM     23  C   UNL d   1       2.253  -6.782  -0.406  0.00  0.00     0.025 A 
ATOM     24 CL   UNL d   1       2.110  -9.384   0.305  0.00  0.00    -0.084 Cl
ATOM     25  C   UNL d   1       1.747  -5.480  -0.504  0.00  0.00     0.020 A 
ENDBRANCH  18  19
ENDBRANCH  17  18
ENDBRANCH   6  17
TORSDOF 6
