REMARK  5 active torsions:
REMARK  status: ('A' for Active; 'I' for Inactive)
REMARK    1  A    between atoms: C_2  and  S_1 
REMARK    2  A    between atoms: N_10  and  S_1 
REMARK    3  A    between atoms: C_14  and  N_10 
REMARK    4  A    between atoms: C_13  and  C_17 
REMARK    5  A    between atoms: C_17  and  C_14 
ROOT
ATOM      1  S   UNL d   1       0.917   0.118  -0.062  0.00  0.00     0.259 S 
ATOM      2  O   UNL d   1       0.016   1.062  -0.690  0.00  0.00    -0.201 OA
ATOM      3  O   UNL d   1       1.173  -1.143  -0.713  0.00  0.00    -0.201 OA
ENDROOT
BRANCH   1   4
ATOM      4  C   UNL d   1       0.404  -0.085   1.673  0.00  0.00     0.092 A 
ATOM      5  C   UNL d   1       0.136   1.105   2.425  0.00  0.00    -0.032 A 
ATOM      6  C   UNL d   1      -0.258   0.999   3.788  0.00  0.00    -0.048 A 
ATOM      7  C   UNL d   1       0.256   2.508   1.863  0.00  0.00     0.050 C 
ATOM      8  C   UNL d   1      -0.582   2.228   4.620  0.00  0.00     0.049 C 
ATOM      9  C   UNL d   1      -0.351  -0.271   4.407  0.00  0.00    -0.049 A 
ATOM     10  C   UNL d   1      -0.103  -1.448   3.659  0.00  0.00    -0.048 A 
ATOM     11  C   UNL d   1      -0.708  -0.334   5.881  0.00  0.00     0.049 C 
ATOM     12  C   UNL d   1       0.299  -1.369   2.288  0.00  0.00    -0.032 A 
ATOM     13  C   UNL d   1      -0.264  -2.787   4.360  0.00  0.00     0.049 C 
ATOM     14  C   UNL d   1       0.561  -2.692   1.603  0.00  0.00     0.050 C 
ENDBRANCH   1   4
BRANCH   1  15
ATOM     15  N   UNL d   1       2.414   0.882   0.081  0.00  0.00    -0.315 N 
ATOM     16  H   UNL d   1       2.372   1.881  -0.107  0.00  0.00     0.172 HD
BRANCH  15  17
ATOM     17  C   UNL d   1       3.416   0.437   1.069  0.00  0.00     0.138 C 
BRANCH  17  18
ATOM     18  C   UNL d   1       3.929  -0.979   0.829  0.00  0.00     0.077 C 
BRANCH  18  19
ATOM     19  C   UNL d   1       4.905  -1.417   1.894  0.00  0.00     0.010 A 
ATOM     20  N   UNL d   1       5.665  -0.463   2.486  0.00  0.00    -0.369 N 
ATOM     21  C   UNL d   1       6.559  -0.862   3.415  0.00  0.00     0.088 A 
ATOM     22  HN  UNL d   1       5.564   0.522   2.238  1.00  0.00     0.165 HD
ATOM     23  C   UNL d   1       6.745  -2.182   3.786  0.00  0.00     0.017 A 
ATOM     24  C   UNL d   1       5.966  -3.151   3.167  0.00  0.00     0.003 A 
ATOM     25  C   UNL d   1       5.035  -2.769   2.206  0.00  0.00     0.025 A 
ENDBRANCH  18  19
ENDBRANCH  17  18
ENDBRANCH  15  17
ENDBRANCH   1  15
TORSDOF 5
