REMARK  4 active torsions:
REMARK  status: ('A' for Active; 'I' for Inactive)
REMARK    1  A    between atoms: C_8  and  C_3 
REMARK    2  A    between atoms: O_14  and  C_17 
REMARK    3  A    between atoms: C_19  and  O_14 
REMARK    4  A    between atoms: C_15  and  C_19 
ROOT
ATOM      1  C   UNL d   1       2.081  -2.378  -0.053  0.00  0.00    -0.009 A 
ATOM      2  C   UNL d   1       1.964  -3.283  -1.116  0.00  0.00     0.016 A 
ATOM      3  C   UNL d   1       3.072  -2.605   0.911  0.00  0.00     0.016 A 
ATOM      4  C   UNL d   1       3.849  -4.564  -0.295  0.00  0.00     0.069 A 
ATOM      5  C   UNL d   1       2.842  -4.366  -1.239  0.00  0.00     0.037 A 
ATOM      6  C   UNL d   1       3.942  -3.695   0.793  0.00  0.00     0.037 A 
ENDROOT
BRANCH   4   7
ATOM      7  O   UNL d   1       4.756  -5.589  -0.307  0.00  0.00    -0.347 OA
BRANCH   7   8
ATOM      8  C   UNL d   1       5.105  -6.083  -1.601  0.00  0.00     0.214 C 
BRANCH   8   9
ATOM      9  C   UNL d   1       6.157  -7.161  -1.458  0.00  0.00    -0.032 A 
ATOM     10  C   UNL d   1       7.380  -6.894  -0.824  0.00  0.00     0.035 A 
ATOM     11  C   UNL d   1       8.361  -7.889  -0.718  0.00  0.00     0.056 A 
ATOM     12 CL   UNL d   1       9.841  -7.479   0.075  0.00  0.00    -0.083 Cl
ATOM     13  C   UNL d   1       8.126  -9.161  -1.251  0.00  0.00     0.055 A 
ATOM     14  C   UNL d   1       6.911  -9.433  -1.884  0.00  0.00     0.026 A 
ATOM     15 CL   UNL d   1       9.290 -10.435  -1.167  0.00  0.00    -0.083 Cl
ATOM     16  C   UNL d   1       5.935  -8.439  -1.988  0.00  0.00     0.011 A 
ENDBRANCH   8   9
ENDBRANCH   7   8
ENDBRANCH   4   7
BRANCH   1  17
ATOM     17  C   UNL d   1       1.176  -1.236   0.021  0.00  0.00     0.049 A 
ATOM     18  N   UNL d   1      -0.103  -1.293  -0.515  0.00  0.00    -0.353 N 
ATOM     19  C   UNL d   1      -0.719  -0.143  -0.339  0.00  0.00     0.047 A 
ATOM     20  HN  UNL d   1      -0.507  -2.108  -0.978  1.00  0.00     0.166 HD
ATOM     21  S   UNL d   1       0.203   1.077   0.443  0.00  0.00    -0.087 SA
ATOM     22  C   UNL d   1      -2.113   0.144  -0.773  0.00  0.00     0.076 C 
ATOM     23  C   UNL d   1       1.517  -0.015   0.570  0.00  0.00     0.081 A 
ENDBRANCH   1  17
TORSDOF 4
