REMARK  3 active torsions:
REMARK  status: ('A' for Active; 'I' for Inactive)
REMARK    1  A    between atoms: N_7  and  C_1 
REMARK    2  A    between atoms: C_9  and  C_6 
REMARK       I    between atoms: C_8  and  N_7 
REMARK       I    between atoms: N_10  and  C_8 
REMARK    3  A    between atoms: C_12  and  N_10 
ROOT
ATOM      1  N   UNL d   1      -0.364  -2.351  -0.061  0.00  0.00    -0.293 N 
ATOM      2  C   UNL d   1      -0.235  -3.343  -1.076  0.00  0.00     0.326 C 
ATOM      3  N   UNL d   1       0.793  -3.220  -1.962  0.00  0.00    -0.309 N 
ATOM      4  O   UNL d   1      -1.123  -4.179  -1.060  0.00  0.00    -0.247 OA
ATOM      5  H   UNL d   1      -1.221  -2.511   0.460  0.00  0.00     0.172 HD
ATOM      6  H   UNL d   1       1.481  -2.521  -1.776  0.00  0.00     0.170 HD
ENDROOT
BRANCH   1   7
ATOM      7  C   UNL d   1       0.339  -1.188   0.210  0.00  0.00     0.127 C 
ATOM      8  C   UNL d   1       1.603  -0.788  -0.165  0.00  0.00     0.077 C 
ATOM      9  C   UNL d   1       1.733   0.557   0.273  0.00  0.00     0.037 C 
ATOM     10  N   UNL d   1       0.669   0.922   0.994  0.00  0.00    -0.301 N 
ATOM     11  N   UNL d   1      -0.135  -0.148   0.983  0.00  0.00    -0.281 N 
ATOM     12  HN  UNL d   1       0.505   1.819   1.452  1.00  0.00     0.187 HD
ATOM     13  C   UNL d   1      -1.395  -0.065   1.684  0.00  0.00     0.179 C 
BRANCH   9  14
ATOM     14  C   UNL d   1       2.840   1.563  -0.002  0.00  0.00    -0.007 C 
ATOM     15  C   UNL d   1       3.967   0.962  -0.867  0.00  0.00     0.021 C 
ATOM     16  C   UNL d   1       2.251   2.768  -0.769  0.00  0.00     0.021 C 
ATOM     17  C   UNL d   1       3.461   2.055   1.320  0.00  0.00     0.021 C 
ENDBRANCH   9  14
ENDBRANCH   1   7
BRANCH   3  18
ATOM     18  C   UNL d   1       0.939  -3.869  -3.202  0.00  0.00     0.036 A 
ATOM     19  C   UNL d   1      -0.028  -4.706  -3.763  0.00  0.00     0.031 A 
ATOM     20  C   UNL d   1       0.103  -5.146  -5.085  0.00  0.00     0.026 A 
ATOM     21  C   UNL d   1       1.213  -4.773  -5.839  0.00  0.00     0.034 A 
ATOM     22  C   UNL d   1       2.223  -4.009  -5.265  0.00  0.00     0.026 A 
ATOM     23 CL   UNL d   1       1.319  -5.227  -7.494  0.00  0.00    -0.084 Cl
ATOM     24  C   UNL d   1       2.087  -3.560  -3.948  0.00  0.00     0.031 A 
ENDBRANCH   3  18
TORSDOF 3
