REMARK  5 active torsions:
REMARK  status: ('A' for Active; 'I' for Inactive)
REMARK    1  A    between atoms: C_3  and  C_1 
REMARK    2  A    between atoms: C_2  and  C_4 
REMARK       I    between atoms: N_5  and  C_3 
REMARK       I    between atoms: C_4  and  N_6 
REMARK    3  A    between atoms: N_6  and  N_5 
REMARK    4  A    between atoms: N_14  and  C_9 
REMARK    5  A    between atoms: O_18  and  C_13 
ROOT
ATOM      1  C   UNL d   1       0.451  -2.564  -0.068  0.00  0.00     0.271 C 
ATOM      2  N   UNL d   1       1.042  -3.751   0.304  0.00  0.00    -0.263 N 
ATOM      3  O   UNL d   1       1.103  -1.585  -0.423  0.00  0.00    -0.266 OA
ATOM      4  H   UNL d   1       0.519  -4.603   0.510  0.00  0.00     0.190 HD
ENDROOT
BRANCH   2   5
ATOM      5  N   UNL d   1       2.426  -3.906   0.151  0.00  0.00    -0.263 N 
ATOM      6  C   UNL d   1       2.958  -5.167   0.332  0.00  0.00     0.271 C 
ATOM      7  O   UNL d   1       2.274  -6.125   0.682  0.00  0.00    -0.266 OA
ATOM      8  H   UNL d   1       2.989  -3.074  -0.024  0.00  0.00     0.190 HD
BRANCH   6   9
ATOM      9  C   UNL d   1       4.419  -5.330   0.085  0.00  0.00     0.054 A 
ATOM     10  C   UNL d   1       5.121  -4.635  -0.922  0.00  0.00     0.021 A 
ATOM     11  C   UNL d   1       6.499  -4.880  -1.055  0.00  0.00     0.024 A 
ATOM     12  C   UNL d   1       7.144  -5.854  -0.287  0.00  0.00     0.002 A 
ATOM     13  C   UNL d   1       6.433  -6.566   0.672  0.00  0.00     0.001 A 
ATOM     14  C   UNL d   1       5.077  -6.301   0.861  0.00  0.00     0.019 A 
BRANCH  10  15
ATOM     15  N   UNL d   1       4.562  -3.580  -1.669  0.00  0.00    -0.302 NA
ATOM     16  H   UNL d   1       3.571  -3.707  -1.878  0.00  0.00     0.124 HD
ATOM     17  H   UNL d   1       5.080  -3.368  -2.518  0.00  0.00     0.124 HD
ENDBRANCH  10  15
ENDBRANCH   6   9
ENDBRANCH   2   5
BRANCH   1  18
ATOM     18  C   UNL d   1      -1.036  -2.471   0.035  0.00  0.00     0.053 A 
ATOM     19  C   UNL d   1      -1.938  -3.514  -0.222  0.00  0.00     0.026 A 
ATOM     20  C   UNL d   1      -3.314  -3.296  -0.067  0.00  0.00     0.023 A 
ATOM     21 BR   UNL d   1      -1.436  -5.230  -0.860  0.00  0.00    -0.050 Br
ATOM     22  C   UNL d   1      -3.794  -2.047   0.334  0.00  0.00     0.038 A 
ATOM     23  C   UNL d   1      -2.910  -0.995   0.573  0.00  0.00     0.069 A 
ATOM     24  C   UNL d   1      -1.540  -1.208   0.415  0.00  0.00     0.055 A 
BRANCH  23  25
ATOM     25  O   UNL d   1      -3.510   0.171   0.957  0.00  0.00    -0.356 OA
ATOM     26  C   UNL d   1      -2.660   1.276   1.241  0.00  0.00     0.210 C 
ENDBRANCH  23  25
ENDBRANCH   1  18
TORSDOF 5
