REMARK  2 active torsions:
REMARK  status: ('A' for Active; 'I' for Inactive)
REMARK    1  A    between atoms: C_8  and  C_3 
REMARK    2  A    between atoms: C_12  and  C_4 
ROOT
ATOM      1  N   UNL d   1       0.290   0.639  -0.008  0.00  0.00    -0.202 N 
ATOM      2  C   UNL d   1       0.283  -0.740   0.049  0.00  0.00     0.144 A 
ATOM      3  C   UNL d   1       2.356   0.065  -0.053  0.00  0.00     0.147 A 
ATOM      4  C   UNL d   1       1.600  -1.159   0.028  0.00  0.00     0.053 A 
ATOM      5  N   UNL d   1       1.543   1.147  -0.052  0.00  0.00    -0.284 N 
ATOM      6  HN  UNL d   1       1.816   2.129  -0.079  1.00  0.00     0.187 HD
ATOM      7  C   UNL d   1      -0.863   1.444  -0.025  0.00  0.00     0.270 A 
ATOM      8  N   UNL d   1      -0.919  -1.366   0.111  0.00  0.00    -0.344 N 
ATOM      9  C   UNL d   1      -2.138   0.680  -0.004  0.00  0.00     0.101 A 
ATOM     10  C   UNL d   1      -2.115  -0.665   0.059  0.00  0.00     0.012 A 
ATOM     11  O   UNL d   1      -0.810   2.667  -0.066  0.00  0.00    -0.266 OA
ATOM     12  C   UNL d   1      -3.386  -1.466   0.057  0.00  0.00     0.068 C 
ATOM     13  H   UNL d   1      -0.988  -2.379   0.221  0.00  0.00     0.167 HD
ENDROOT
BRANCH   4  14
ATOM     14  C   UNL d   1       2.020  -2.553   0.066  0.00  0.00    -0.020 A 
ATOM     15  C   UNL d   1       1.359  -3.522  -0.705  0.00  0.00     0.012 A 
ATOM     16  C   UNL d   1       1.754  -4.862  -0.663  0.00  0.00     0.001 A 
ATOM     17  C   UNL d   1       2.834  -5.245   0.126  0.00  0.00     0.000 A 
ATOM     18  C   UNL d   1       3.509  -4.293   0.886  0.00  0.00     0.001 A 
ATOM     19  C   UNL d   1       3.094  -2.957   0.869  0.00  0.00     0.012 A 
ENDBRANCH   4  14
BRANCH   3  20
ATOM     20  C   UNL d   1       3.852   0.249  -0.140  0.00  0.00     0.434 C 
ATOM     21  F   UNL d   1       4.521  -0.898  -0.430  0.00  0.00    -0.165 F 
ATOM     22  F   UNL d   1       4.212   1.141  -1.102  0.00  0.00    -0.165 F 
ATOM     23  F   UNL d   1       4.370   0.703   1.033  0.00  0.00    -0.165 F 
ENDBRANCH   3  20
TORSDOF 2
