REMARK  3 active torsions:
REMARK  status: ('A' for Active; 'I' for Inactive)
REMARK    1  A    between atoms: C_8  and  C_3 
REMARK    2  A    between atoms: C_9  and  C_4 
REMARK    3  A    between atoms: S_14  and  C_7 
ROOT
ATOM      1  N   UNL d   1      -1.290  -0.036  -0.005  0.00  0.00    -0.355 N 
ATOM      2  HN  UNL d   1      -2.309  -0.074  -0.009  1.00  0.00     0.166 HD
ATOM      3  C   UNL d   1      -0.644   1.157  -0.032  0.00  0.00     0.044 A 
ATOM      4  C   UNL d   1      -0.557  -1.179   0.028  0.00  0.00     0.044 A 
ATOM      5  C   UNL d   1       0.748   1.235  -0.015  0.00  0.00     0.049 A 
ATOM      6  C   UNL d   1       0.835  -1.151   0.009  0.00  0.00     0.049 A 
ATOM      7  C   UNL d   1       1.505   0.070  -0.005  0.00  0.00     0.004 A 
ENDROOT
BRANCH   3   8
ATOM      8  C   UNL d   1      -1.495   2.369  -0.048  0.00  0.00    -0.009 A 
ATOM      9  C   UNL d   1      -2.763   2.375   0.566  0.00  0.00     0.015 A 
ATOM     10  C   UNL d   1      -3.550   3.534   0.605  0.00  0.00     0.024 A 
ATOM     11  C   UNL d   1      -3.086   4.708   0.023  0.00  0.00     0.034 A 
ATOM     12  C   UNL d   1      -1.850   4.730  -0.614  0.00  0.00     0.024 A 
ATOM     13 CL   UNL d   1      -4.037   6.139   0.090  0.00  0.00    -0.084 Cl
ATOM     14  C   UNL d   1      -1.069   3.569  -0.654  0.00  0.00     0.015 A 
ENDBRANCH   3   8
BRANCH   4  15
ATOM     15  C   UNL d   1      -1.323  -2.442   0.090  0.00  0.00    -0.007 A 
ATOM     16  C   UNL d   1      -2.587  -2.552  -0.505  0.00  0.00     0.030 A 
ATOM     17  C   UNL d   1      -3.271  -3.756  -0.435  0.00  0.00     0.088 A 
ATOM     18  N   UNL d   1      -2.796  -4.856   0.185  0.00  0.00    -0.375 N 
ATOM     19  C   UNL d   1      -1.587  -4.741   0.768  0.00  0.00     0.088 A 
ATOM     20  HN  UNL d   1      -3.324  -5.728   0.212  1.00  0.00     0.164 HD
ATOM     21  C   UNL d   1      -0.829  -3.579   0.749  0.00  0.00     0.030 A 
ENDBRANCH   4  15
BRANCH   7  22
ATOM     22  S   UNL d   1       3.294   0.016   0.002  0.00  0.00    -0.134 SA
ATOM     23  C   UNL d   1       3.772   1.765  -0.040  0.00  0.00     0.095 C 
ENDBRANCH   7  22
TORSDOF 3
