REMARK  5 active torsions:
REMARK  status: ('A' for Active; 'I' for Inactive)
REMARK    1  A    between atoms: C_2  and  C_1 
REMARK    2  A    between atoms: C_4  and  C_1 
REMARK    3  A    between atoms: C_5  and  C_1 
REMARK    4  A    between atoms: N_6  and  C_1 
REMARK    5  A    between atoms: O_7  and  C_2 
ROOT
ATOM      1  C   UNL d   1       0.909  -0.148  -0.041  0.00  0.00     0.269 C 
ENDROOT
BRANCH   1   2
ATOM      2  C   UNL d   1       0.434   1.001   0.923  0.00  0.00     0.185 C 
ATOM      3  O   UNL d   1      -0.672   1.514   0.967  0.00  0.00    -0.648 OA
BRANCH   2   4
ATOM      4  O   UNL d   1       1.438   1.355   1.780  0.00  0.00    -0.774 OA
ATOM      5  H   UNL d   1       2.214   0.789   1.540  0.00  0.00     0.167 HD
ENDBRANCH   2   4
ENDBRANCH   1   2
BRANCH   1   6
ATOM      6  C   UNL d   1       0.443   0.054  -1.496  0.00  0.00    -0.009 A 
ATOM      7  C   UNL d   1       0.256   1.350  -2.020  0.00  0.00     0.010 A 
ATOM      8  C   UNL d   1      -0.125   1.552  -3.352  0.00  0.00     0.001 A 
ATOM      9  C   UNL d   1      -0.308   0.466  -4.200  0.00  0.00     0.000 A 
ATOM     10  C   UNL d   1      -0.102  -0.822  -3.721  0.00  0.00     0.001 A 
ATOM     11  C   UNL d   1       0.282  -1.023  -2.391  0.00  0.00     0.010 A 
ENDBRANCH   1   6
BRANCH   1  12
ATOM     12  C   UNL d   1       0.460  -1.522   0.512  0.00  0.00     0.040 C 
ATOM     13  C   UNL d   1      -1.062  -1.783   0.726  0.00  0.00     0.008 C 
ATOM     14  C   UNL d   1      -0.672  -2.674   1.921  0.00  0.00     0.001 C 
ATOM     15  C   UNL d   1       0.627  -1.849   2.029  0.00  0.00     0.008 C 
ENDBRANCH   1  12
BRANCH   1  16
ATOM     16  N   UNL d   1       2.416  -0.112  -0.023  0.00  0.00     0.103 N 
ATOM     17  H   UNL d   1       2.696   0.728  -0.544  0.00  0.00     0.315 HD
ATOM     18  H   UNL d   1       2.739  -0.875  -0.624  0.00  0.00     0.315 HD
ENDBRANCH   1  16
TORSDOF 5
