REMARK  5 active torsions:
REMARK  status: ('A' for Active; 'I' for Inactive)
REMARK    1  A    between atoms: C_4  and  C_1 
REMARK       I    between atoms: N_6  and  C_1 
REMARK    2  A    between atoms: C_2  and  C_3 
REMARK       I    between atoms: N_7  and  C_2 
REMARK    3  A    between atoms: C_11  and  C_5 
REMARK    4  A    between atoms: C_19  and  N_6 
REMARK    5  A    between atoms: C_18  and  N_7 
ROOT
ATOM      1  C   UNL d   1      -0.275  -3.068  -1.816  0.00  0.00     0.033 A 
ATOM      2  C   UNL d   1       0.242  -0.943  -0.759  0.00  0.00     0.033 A 
ATOM      3  C   UNL d   1      -1.605  -1.080  -2.372  0.00  0.00    -0.049 A 
ATOM      4  C   UNL d   1       0.529  -2.292  -0.964  0.00  0.00     0.034 A 
ATOM      5  C   UNL d   1      -0.802  -0.347  -1.482  0.00  0.00     0.025 A 
ATOM      6  C   UNL d   1      -1.362  -2.465  -2.471  0.00  0.00     0.025 A 
ENDROOT
BRANCH   1   7
ATOM      7  C   UNL d   1       0.069  -4.524  -1.945  0.00  0.00     0.256 C 
ATOM      8  N   UNL d   1      -0.596  -5.269  -2.905  0.00  0.00    -0.322 N 
ATOM      9  H   UNL d   1      -1.206  -4.801  -3.553  0.00  0.00     0.169 HD
ATOM     10  O   UNL d   1       0.940  -4.960  -1.197  0.00  0.00    -0.267 OA
BRANCH   8  11
ATOM     11  C   UNL d   1      -0.491  -6.674  -3.085  0.00  0.00     0.050 A 
ATOM     12  C   UNL d   1       0.283  -7.526  -2.299  0.00  0.00     0.117 A 
ATOM     13  N   UNL d   1       0.339  -8.875  -2.456  0.00  0.00    -0.373 N 
ATOM     14  C   UNL d   1      -0.411  -9.403  -3.438  0.00  0.00     0.088 A 
ATOM     15  HN  UNL d   1       0.921  -9.459  -1.856  1.00  0.00     0.164 HD
ATOM     16  C   UNL d   1      -1.202  -8.649  -4.288  0.00  0.00     0.019 A 
ATOM     17  C   UNL d   1      -1.240  -7.265  -4.106  0.00  0.00     0.032 A 
ENDBRANCH   8  11
ENDBRANCH   1   7
BRANCH   2  18
ATOM     18  C   UNL d   1       0.968  -0.083   0.221  0.00  0.00     0.256 C 
ATOM     19  N   UNL d   1       1.490  -0.719   1.333  0.00  0.00    -0.322 N 
ATOM     20  H   UNL d   1       1.520  -1.730   1.351  0.00  0.00     0.169 HD
ATOM     21  O   UNL d   1       1.009   1.124   0.009  0.00  0.00    -0.267 OA
BRANCH  19  22
ATOM     22  C   UNL d   1       1.915  -0.074   2.518  0.00  0.00     0.050 A 
ATOM     23  C   UNL d   1       1.704   1.272   2.809  0.00  0.00     0.117 A 
ATOM     24  N   UNL d   1       2.053   1.866   3.981  0.00  0.00    -0.373 N 
ATOM     25  C   UNL d   1       2.651   1.087   4.902  0.00  0.00     0.088 A 
ATOM     26  HN  UNL d   1       1.870   2.854   4.155  1.00  0.00     0.164 HD
ATOM     27  C   UNL d   1       2.916  -0.259   4.710  0.00  0.00     0.019 A 
ATOM     28  C   UNL d   1       2.535  -0.846   3.503  0.00  0.00     0.032 A 
ENDBRANCH  19  22
ENDBRANCH   2  18
BRANCH   3  29
ATOM     29  C   UNL d   1      -2.686  -0.365  -3.205  0.00  0.00    -0.024 C 
ATOM     30  C   UNL d   1      -2.124   0.947  -3.805  0.00  0.00     0.019 C 
ATOM     31  C   UNL d   1      -3.183  -1.218  -4.394  0.00  0.00     0.019 C 
ATOM     32  C   UNL d   1      -3.898  -0.024  -2.317  0.00  0.00     0.019 C 
ENDBRANCH   3  29
TORSDOF 5
