REMARK  7 active torsions:
REMARK  status: ('A' for Active; 'I' for Inactive)
REMARK    1  A    between atoms: S_10  and  C_1 
REMARK    2  A    between atoms: C_21  and  N_4 
REMARK    3  A    between atoms: C_7  and  C_9 
REMARK    4  A    between atoms: C_8  and  C_11 
REMARK       I    between atoms: C_9  and  N_14 
REMARK    5  A    between atoms: C_23  and  S_10 
REMARK    6  A    between atoms: C_12  and  C_23 
REMARK       I    between atoms: N_16  and  C_12 
REMARK    7  A    between atoms: N_14  and  N_16 
ROOT
ATOM      1  S   UNL d   1       4.000   0.156  -0.070  0.00  0.00    -0.084 SA
ENDROOT
BRANCH   1   2
ATOM      2  C   UNL d   1       2.269   0.115   0.011  0.00  0.00     0.148 A 
ATOM      3  N   UNL d   1       1.577  -0.996   0.098  0.00  0.00    -0.335 N 
ATOM      4  C   UNL d   1       0.265  -0.606   0.066  0.00  0.00     0.062 A 
ATOM      5  HN  UNL d   1       1.939  -1.947   0.173  1.00  0.00     0.168 HD
ATOM      6  C   UNL d   1      -0.889  -1.406   0.076  0.00  0.00     0.048 A 
ATOM      7  C   UNL d   1       0.151   0.781  -0.000  0.00  0.00     0.063 A 
ATOM      8  C   UNL d   1      -2.153  -0.793   0.029  0.00  0.00     0.050 A 
ATOM      9  C   UNL d   1      -2.239   0.607  -0.014  0.00  0.00     0.018 A 
ATOM     10  C   UNL d   1      -1.096   1.419  -0.029  0.00  0.00     0.033 A 
ATOM     11  N   UNL d   1       1.461   1.231  -0.055  0.00  0.00    -0.321 N 
BRANCH   8  12
ATOM     12  C   UNL d   1      -3.413  -1.622   0.016  0.00  0.00     0.417 C 
ATOM     13  F   UNL d   1      -3.197  -2.965   0.062  0.00  0.00    -0.166 F 
ATOM     14  F   UNL d   1      -4.224  -1.341   1.076  0.00  0.00    -0.166 F 
ATOM     15  F   UNL d   1      -4.170  -1.401  -1.095  0.00  0.00    -0.166 F 
ENDBRANCH   8  12
BRANCH  11  16
ATOM     16  C   UNL d   1       1.892   2.616  -0.242  0.00  0.00     0.084 C 
ATOM     17  C   UNL d   1       1.408   3.195  -1.574  0.00  0.00     0.032 C 
ATOM     18  C   UNL d   1       1.529   3.522   0.935  0.00  0.00     0.032 C 
ENDBRANCH  11  16
ENDBRANCH   1   2
BRANCH   1  19
ATOM     19  C   UNL d   1       4.436  -1.547   0.370  0.00  0.00     0.186 C 
BRANCH  19  20
ATOM     20  C   UNL d   1       4.365  -2.478  -0.824  0.00  0.00     0.245 C 
ATOM     21  N   UNL d   1       3.106  -2.956  -1.125  0.00  0.00    -0.267 N 
ATOM     22  H   UNL d   1       2.262  -2.470  -0.792  0.00  0.00     0.190 HD
ATOM     23  O   UNL d   1       5.369  -2.834  -1.445  0.00  0.00    -0.271 OA
BRANCH  21  24
ATOM     24  N   UNL d   1       2.972  -3.778  -2.248  0.00  0.00    -0.263 N 
ATOM     25  C   UNL d   1       1.713  -4.141  -2.683  0.00  0.00     0.276 C 
ATOM     26  O   UNL d   1       0.685  -3.717  -2.160  0.00  0.00    -0.266 OA
ATOM     27  H   UNL d   1       3.839  -4.161  -2.629  0.00  0.00     0.190 HD
BRANCH  25  28
ATOM     28  C   UNL d   1       1.657  -5.077  -3.831  0.00  0.00     0.110 A 
ATOM     29  C   UNL d   1       2.712  -5.943  -4.135  0.00  0.00     0.135 A 
ATOM     30  F   UNL d   1       3.831  -5.951  -3.396  0.00  0.00    -0.205 F 
ATOM     31  C   UNL d   1       2.639  -6.830  -5.211  0.00  0.00     0.043 A 
ATOM     32  C   UNL d   1       1.498  -6.863  -6.008  0.00  0.00     0.006 A 
ATOM     33  C   UNL d   1       0.437  -6.005  -5.720  0.00  0.00     0.043 A 
ATOM     34  C   UNL d   1       0.520  -5.124  -4.639  0.00  0.00     0.135 A 
ATOM     35  F   UNL d   1      -0.521  -4.306  -4.428  0.00  0.00    -0.205 F 
ENDBRANCH  25  28
ENDBRANCH  21  24
ENDBRANCH  19  20
ENDBRANCH   1  19
TORSDOF 7
