REMARK  6 active torsions:
REMARK  status: ('A' for Active; 'I' for Inactive)
REMARK       I    between atoms: N_5  and  C_1 
REMARK       I    between atoms: N_7  and  C_1 
REMARK    1  A    between atoms: C_2  and  C_9 
REMARK    2  A    between atoms: C_11  and  N_5 
REMARK    3  A    between atoms: C_9  and  N_7 
REMARK    4  A    between atoms: O_12  and  C_13 
REMARK    5  A    between atoms: C_14  and  O_12 
REMARK    6  A    between atoms: C_19  and  C_14 
ROOT
ATOM      1  C   UNL d   1       0.933  -0.838  -2.341  0.00  0.00     0.036 A 
ATOM      2  C   UNL d   1       2.267  -1.745  -4.638  0.00  0.00     0.069 A 
ATOM      3  C   UNL d   1       2.073  -1.634  -2.225  0.00  0.00     0.032 A 
ATOM      4  C   UNL d   1       0.422  -0.552  -3.610  0.00  0.00     0.032 A 
ATOM      5  C   UNL d   1       1.100  -0.989  -4.751  0.00  0.00     0.039 A 
ATOM      6  C   UNL d   1       2.726  -2.107  -3.370  0.00  0.00     0.039 A 
ENDROOT
BRANCH   1   7
ATOM      7  N   UNL d   1       0.262  -0.306  -1.222  0.00  0.00    -0.309 N 
ATOM      8  C   UNL d   1       0.913   0.228  -0.126  0.00  0.00     0.321 C 
ATOM      9  N   UNL d   1       0.008   0.748   0.768  0.00  0.00    -0.338 N 
ATOM     10  O   UNL d   1       2.125   0.324   0.010  0.00  0.00    -0.247 OA
ATOM     11  H   UNL d   1      -0.903   0.318   0.807  0.00  0.00     0.164 HD
ATOM     12  H   UNL d   1      -0.636   0.120  -1.401  0.00  0.00     0.170 HD
BRANCH   9  13
ATOM     13  C   UNL d   1       0.424   1.510   1.926  0.00  0.00     0.171 C 
BRANCH  13  14
ATOM     14  C   UNL d   1       0.173   0.709   3.168  0.00  0.00     0.006 A 
ATOM     15  C   UNL d   1       1.039  -0.123   3.869  0.00  0.00    -0.047 A 
ATOM     16  C   UNL d   1       0.397  -0.675   5.027  0.00  0.00     0.015 A 
ATOM     17  C   UNL d   1       2.457  -0.425   3.509  0.00  0.00     0.049 C 
ATOM     18  C   UNL d   1      -0.905  -0.256   5.172  0.00  0.00     0.051 A 
ATOM     19  S   UNL d   1      -1.374   0.794   3.913  0.00  0.00    -0.104 SA
ENDBRANCH  13  14
ENDBRANCH   9  13
ENDBRANCH   1   7
BRANCH   2  20
ATOM     20  O   UNL d   1       2.863  -2.071  -5.825  0.00  0.00    -0.347 OA
BRANCH  20  21
ATOM     21  C   UNL d   1       4.254  -2.396  -5.762  0.00  0.00     0.214 C 
BRANCH  21  22
ATOM     22  C   UNL d   1       4.904  -2.091  -7.092  0.00  0.00    -0.034 A 
ATOM     23  C   UNL d   1       4.832  -0.797  -7.631  0.00  0.00     0.009 A 
ATOM     24  C   UNL d   1       5.488  -0.486  -8.822  0.00  0.00     0.001 A 
ATOM     25  C   UNL d   1       6.225  -1.462  -9.489  0.00  0.00     0.000 A 
ATOM     26  C   UNL d   1       6.300  -2.753  -8.967  0.00  0.00     0.001 A 
ATOM     27  C   UNL d   1       5.645  -3.066  -7.774  0.00  0.00     0.009 A 
ENDBRANCH  21  22
ENDBRANCH  20  21
ENDBRANCH   2  20
TORSDOF 6
