REMARK  5 active torsions:
REMARK  status: ('A' for Active; 'I' for Inactive)
REMARK    1  A    between atoms: C_5  and  S_1 
REMARK    2  A    between atoms: C_8  and  S_1 
REMARK    3  A    between atoms: N_4  and  C_11 
REMARK    4  A    between atoms: C_6  and  C_8 
REMARK    5  A    between atoms: C_13  and  C_7 
ROOT
ATOM      1  N   UNL d   1       1.968   2.161  -2.635  0.00  0.00    -0.352 N 
ATOM      2  HN  UNL d   1       2.643   1.448  -2.913  1.00  0.00     0.166 HD
ATOM      3  C   UNL d   1       0.852   1.922  -1.978  0.00  0.00     0.065 A 
ATOM      4  C   UNL d   1       2.098   3.516  -2.897  0.00  0.00     0.049 A 
ATOM      5  S   UNL d   1      -0.090   3.317  -1.617  0.00  0.00    -0.085 SA
ATOM      6  C   UNL d   1       1.074   4.299  -2.402  0.00  0.00     0.081 A 
ENDROOT
BRANCH   3   7
ATOM      7  C   UNL d   1       0.429   0.592  -1.471  0.00  0.00     0.211 C 
BRANCH   7   8
ATOM      8  S   UNL d   1       0.044  -0.482  -2.825  0.00  0.00     0.187 S 
ATOM      9  O   UNL d   1      -0.262  -1.797  -2.290  0.00  0.00    -0.222 OA
ATOM     10  O   UNL d   1      -0.888   0.176  -3.724  0.00  0.00    -0.222 OA
BRANCH   8  11
ATOM     11  C   UNL d   1       1.533  -0.699  -3.773  0.00  0.00     0.100 A 
ATOM     12  S   UNL d   1       2.848  -1.458  -2.982  0.00  0.00    -0.090 SA
ATOM     13  C   UNL d   1       3.825  -1.373  -4.385  0.00  0.00     0.051 A 
ATOM     14  C   UNL d   1       3.167  -0.774  -5.436  0.00  0.00     0.009 A 
ATOM     15  C   UNL d   1       1.845  -0.381  -5.082  0.00  0.00     0.031 A 
ENDBRANCH   8  11
ENDBRANCH   7   8
ENDBRANCH   3   7
BRANCH   4  16
ATOM     16  C   UNL d   1       3.219   4.033  -3.672  0.00  0.00    -0.007 A 
ATOM     17  C   UNL d   1       3.774   3.242  -4.688  0.00  0.00     0.049 A 
ATOM     18  C   UNL d   1       4.822   3.743  -5.473  0.00  0.00     0.103 A 
ATOM     19  C   UNL d   1       5.336   5.025  -5.242  0.00  0.00     0.036 A 
ATOM     20  C   UNL d   1       4.801   5.804  -4.218  0.00  0.00     0.003 A 
ATOM     21  C   UNL d   1       3.750   5.311  -3.438  0.00  0.00     0.014 A 
BRANCH  18  22
ATOM     22  N   UNL d   1       5.376   2.927  -6.559  0.00  0.00    -0.116 N 
ATOM     23  O   UNL d   1       4.876   1.812  -6.762  0.00  0.00    -0.532 OA
ATOM     24  O   UNL d   1       6.312   3.404  -7.218  0.00  0.00    -0.532 OA
ENDBRANCH  18  22
ENDBRANCH   4  16
TORSDOF 5
