REMARK  4 active torsions:
REMARK  status: ('A' for Active; 'I' for Inactive)
REMARK    1  A    between atoms: C_7  and  C_3 
REMARK    2  A    between atoms: C_9  and  C_4 
REMARK    3  A    between atoms: O_10  and  C_9 
REMARK    4  A    between atoms: C_11  and  O_10 
ROOT
ATOM      1  N   UNL d   1       0.501  -0.419  -1.002  0.00  0.00    -0.349 N 
ATOM      2  HN  UNL d   1       0.547  -0.759  -1.962  1.00  0.00     0.166 HD
ATOM      3  C   UNL d   1       0.660   0.911  -0.621  0.00  0.00     0.085 A 
ATOM      4  C   UNL d   1       0.282  -1.177   0.056  0.00  0.00     0.075 A 
ATOM      5  C   UNL d   1       0.531   1.132   0.738  0.00  0.00     0.084 A 
ATOM      6  S   UNL d   1       0.235  -0.340   1.559  0.00  0.00    -0.084 SA
ENDROOT
BRANCH   4   7
ATOM      7  C   UNL d   1       0.018  -2.653   0.012  0.00  0.00     0.240 C 
BRANCH   7   8
ATOM      8  O   UNL d   1       1.274  -3.324   0.135  0.00  0.00    -0.345 OA
BRANCH   8   9
ATOM      9  C   UNL d   1       1.233  -4.692   0.083  0.00  0.00     0.069 A 
ATOM     10  C   UNL d   1       0.079  -5.473  -0.021  0.00  0.00     0.037 A 
ATOM     11  C   UNL d   1       0.172  -6.867  -0.066  0.00  0.00     0.003 A 
ATOM     12  C   UNL d   1       1.417  -7.489  -0.010  0.00  0.00     0.000 A 
ATOM     13  C   UNL d   1       2.572  -6.717   0.094  0.00  0.00     0.003 A 
ATOM     14  C   UNL d   1       2.478  -5.324   0.143  0.00  0.00     0.037 A 
ENDBRANCH   8   9
ENDBRANCH   7   8
ENDBRANCH   4   7
BRANCH   3  15
ATOM     15  C   UNL d   1       0.929   1.978  -1.590  0.00  0.00     0.172 C 
ATOM     16  O   UNL d   1       1.044   3.154  -1.234  0.00  0.00    -0.291 OA
ATOM     17  C   UNL d   1       1.062   1.620  -3.049  0.00  0.00     0.098 C 
ENDBRANCH   3  15
TORSDOF 4
