REMARK  7 active torsions:
REMARK  status: ('A' for Active; 'I' for Inactive)
REMARK    1  A    between atoms: S_2  and  C_1 
REMARK    2  A    between atoms: N_3  and  C_1 
REMARK    3  A    between atoms: C_10  and  S_2 
REMARK    4  A    between atoms: N_14  and  N_4 
REMARK    5  A    between atoms: C_6  and  C_8 
REMARK    6  A    between atoms: C_7  and  C_9 
REMARK    7  A    between atoms: C_17  and  N_14 
ROOT
ATOM      1  C   UNL d   1       0.992   0.120   0.084  0.00  0.00     0.288 C 
ATOM      2  N   UNL d   1       2.283  -0.044  -0.001  0.00  0.00    -0.270 N 
ATOM      3  HN  UNL d   1       2.816   0.549  -0.638  1.00  0.00     0.189 HD
ENDROOT
BRANCH   2   4
ATOM      4  N   UNL d   1       2.939  -0.983   0.735  0.00  0.00    -0.299 N 
ATOM      5  H   UNL d   1       2.634  -1.229   1.685  0.00  0.00     0.187 HD
BRANCH   4   6
ATOM      6  C   UNL d   1       4.295  -1.221   0.439  0.00  0.00     0.049 A 
ATOM      7  C   UNL d   1       4.896  -0.684  -0.709  0.00  0.00     0.047 A 
ATOM      8  C   UNL d   1       6.204  -1.019  -1.087  0.00  0.00     0.050 A 
ATOM      9  C   UNL d   1       6.926  -1.919  -0.294  0.00  0.00     0.032 A 
ATOM     10  C   UNL d   1       6.356  -2.470   0.866  0.00  0.00     0.050 A 
ATOM     11  C   UNL d   1       5.039  -2.116   1.217  0.00  0.00     0.047 A 
BRANCH   8  12
ATOM     12  C   UNL d   1       6.784  -0.412  -2.341  0.00  0.00     0.417 C 
ATOM     13  F   UNL d   1       8.052  -0.827  -2.608  0.00  0.00    -0.166 F 
ATOM     14  F   UNL d   1       6.051  -0.710  -3.449  0.00  0.00    -0.166 F 
ATOM     15  F   UNL d   1       6.839   0.947  -2.282  0.00  0.00    -0.166 F 
ENDBRANCH   8  12
BRANCH  10  16
ATOM     16  C   UNL d   1       7.133  -3.436   1.730  0.00  0.00     0.417 C 
ATOM     17  F   UNL d   1       8.352  -3.762   1.220  0.00  0.00    -0.166 F 
ATOM     18  F   UNL d   1       7.369  -2.938   2.975  0.00  0.00    -0.166 F 
ATOM     19  F   UNL d   1       6.478  -4.614   1.915  0.00  0.00    -0.166 F 
ENDBRANCH  10  16
ENDBRANCH   4   6
ENDBRANCH   2   4
BRANCH   1  20
ATOM     20  S   UNL d   1       0.057   1.245  -0.815  0.00  0.00     0.245 S 
ATOM     21  O   UNL d   1      -0.708   0.517  -1.810  0.00  0.00    -0.214 OA
ATOM     22  O   UNL d   1      -0.591   2.130   0.140  0.00  0.00    -0.214 OA
BRANCH  20  23
ATOM     23  C   UNL d   1       1.234   2.232  -1.724  0.00  0.00     0.067 A 
ATOM     24  C   UNL d   1       1.675   1.790  -2.976  0.00  0.00     0.024 A 
ATOM     25  C   UNL d   1       2.533   2.594  -3.730  0.00  0.00     0.008 A 
ATOM     26  C   UNL d   1       2.942   3.845  -3.247  0.00  0.00    -0.062 A 
ATOM     27  C   UNL d   1       2.492   4.276  -1.992  0.00  0.00     0.008 A 
ATOM     28  C   UNL d   1       3.829   4.714  -4.091  0.00  0.00     0.048 C 
ATOM     29  C   UNL d   1       1.633   3.477  -1.230  0.00  0.00     0.024 A 
ENDBRANCH  20  23
ENDBRANCH   1  20
BRANCH   1  30
ATOM     30  N   UNL d   1       0.213  -0.678   0.994  0.00  0.00    -0.084 N 
ATOM     31  O   UNL d   1      -0.853  -1.148   0.583  0.00  0.00    -0.530 OA
ATOM     32  O   UNL d   1       0.685  -0.873   2.131  0.00  0.00    -0.530 OA
ENDBRANCH   1  30
TORSDOF 7
