REMARK  9 active torsions:
REMARK  status: ('A' for Active; 'I' for Inactive)
REMARK    1  A    between atoms: C_8  and  N_1 
REMARK    2  A    between atoms: C_10  and  C_2 
REMARK    3  A    between atoms: S_9  and  C_5 
REMARK    4  A    between atoms: C_14  and  C_8 
REMARK    5  A    between atoms: C_15  and  S_9 
REMARK    6  A    between atoms: C_11  and  C_15 
REMARK       I    between atoms: N_12  and  C_11 
REMARK    7  A    between atoms: C_19  and  N_12 
REMARK    8  A    between atoms: O_23  and  C_14 
REMARK    9  A    between atoms: O_24  and  C_14 
ROOT
ATOM      1  N   UNL d   1      -0.163  -1.257  -0.143  0.00  0.00    -0.306 N 
ATOM      2  C   UNL d   1       0.928  -0.496  -0.542  0.00  0.00     0.134 C 
ATOM      3  N   UNL d   1       0.476   0.716  -0.838  0.00  0.00    -0.283 N 
ATOM      4  HN  UNL d   1       1.007   1.452  -1.302  1.00  0.00     0.188 HD
ATOM      5  C   UNL d   1      -1.144  -0.338   0.118  0.00  0.00     0.163 C 
ATOM      6  N   UNL d   1      -0.821   0.813  -0.419  0.00  0.00    -0.278 N 
ATOM      7  HN  UNL d   1      -1.425   1.629  -0.507  1.00  0.00     0.189 HD
ENDROOT
BRANCH   5   8
ATOM      8  S   UNL d   1      -2.503  -0.607   1.149  0.00  0.00    -0.083 SA
BRANCH   8   9
ATOM      9  C   UNL d   1      -3.381   0.973   1.023  0.00  0.00     0.185 C 
BRANCH   9  10
ATOM     10  C   UNL d   1      -2.782   2.016   1.955  0.00  0.00     0.231 C 
ATOM     11  N   UNL d   1      -1.718   2.700   1.397  0.00  0.00    -0.327 N 
ATOM     12  H   UNL d   1      -1.381   2.358   0.496  0.00  0.00     0.169 HD
ATOM     13  O   UNL d   1      -3.268   2.206   3.068  0.00  0.00    -0.272 OA
BRANCH  11  14
ATOM     14  C   UNL d   1      -0.998   3.780   1.939  0.00  0.00     0.034 A 
ATOM     15  C   UNL d   1      -1.210   4.300   3.217  0.00  0.00     0.029 A 
ATOM     16  C   UNL d   1      -0.471   5.400   3.663  0.00  0.00     0.002 A 
ATOM     17  C   UNL d   1       0.478   5.993   2.833  0.00  0.00     0.000 A 
ATOM     18  C   UNL d   1       0.703   5.475   1.561  0.00  0.00     0.002 A 
ATOM     19  C   UNL d   1      -0.024   4.367   1.121  0.00  0.00     0.029 A 
ENDBRANCH  11  14
ENDBRANCH   9  10
ENDBRANCH   8   9
ENDBRANCH   5   8
BRANCH   1  20
ATOM     20  C   UNL d   1      -0.209  -2.699  -0.021  0.00  0.00     0.193 C 
BRANCH  20  21
ATOM     21  C   UNL d   1      -1.531  -3.410  -0.384  0.00  0.00     0.276 C 
BRANCH  21  22
ATOM     22  O   UNL d   1      -1.873  -3.086  -1.733  0.00  0.00    -0.364 OA
ATOM     23  C   UNL d   1      -3.208  -3.480  -2.051  0.00  0.00     0.204 C 
ENDBRANCH  21  22
BRANCH  21  24
ATOM     24  O   UNL d   1      -1.388  -4.833  -0.268  0.00  0.00    -0.364 OA
ATOM     25  C   UNL d   1      -1.255  -5.281   1.075  0.00  0.00     0.204 C 
ENDBRANCH  21  24
ENDBRANCH  20  21
ENDBRANCH   1  20
BRANCH   2  26
ATOM     26  C   UNL d   1       2.353  -0.863  -0.553  0.00  0.00     0.010 A 
ATOM     27  C   UNL d   1       3.229  -0.172  -1.408  0.00  0.00     0.017 A 
ATOM     28  C   UNL d   1       4.612  -0.376  -1.346  0.00  0.00     0.025 A 
ATOM     29  C   UNL d   1       5.139  -1.279  -0.427  0.00  0.00     0.034 A 
ATOM     30  C   UNL d   1       4.291  -1.985   0.420  0.00  0.00     0.025 A 
ATOM     31 CL   UNL d   1       6.841  -1.491  -0.307  0.00  0.00    -0.084 Cl
ATOM     32  C   UNL d   1       2.907  -1.772   0.363  0.00  0.00     0.017 A 
ENDBRANCH   2  26
TORSDOF 9
