REMARK  6 active torsions:
REMARK  status: ('A' for Active; 'I' for Inactive)
REMARK       I    between atoms: C_4  and  N_1 
REMARK    1  A    between atoms: N_5  and  C_3 
REMARK    2  A    between atoms: S_11  and  C_3 
REMARK    3  A    between atoms: O_7  and  C_4 
REMARK       I    between atoms: C_6  and  N_5 
REMARK    4  A    between atoms: O_8  and  C_6 
REMARK    5  A    between atoms: C_13  and  O_7 
REMARK    6  A    between atoms: C_12  and  O_8 
ROOT
ATOM      1  N   UNL d   1       0.291  -0.283   0.033  0.00  0.00    -0.283 N 
ATOM      2  HN  UNL d   1       1.308  -0.247  -0.036  1.00  0.00     0.173 HD
ATOM      3  C   UNL d   1      -0.326   0.798   0.355  0.00  0.00     0.152 C 
ATOM      4  C   UNL d   1      -0.321  -1.475  -0.222  0.00  0.00     0.367 C 
ATOM      5  O   UNL d   1      -1.336  -1.653  -0.873  0.00  0.00    -0.238 OA
ENDROOT
BRANCH   3   6
ATOM      6  N   UNL d   1       0.543   1.851   0.582  0.00  0.00    -0.283 N 
ATOM      7  C   UNL d   1       0.559   3.188   0.946  0.00  0.00     0.367 C 
ATOM      8  O   UNL d   1       1.642   3.765   0.952  0.00  0.00    -0.238 OA
ATOM      9  H   UNL d   1       1.492   1.546   0.417  0.00  0.00     0.173 HD
BRANCH   7  10
ATOM     10  O   UNL d   1      -0.629   3.769   1.245  0.00  0.00    -0.294 OA
BRANCH  10  11
ATOM     11  C   UNL d   1      -0.650   5.197   1.559  0.00  0.00     0.061 C 
ATOM     12  C   UNL d   1      -0.171   6.028   0.358  0.00  0.00     0.046 C 
ATOM     13  C   UNL d   1      -2.120   5.555   1.834  0.00  0.00     0.046 C 
ATOM     14  C   UNL d   1       0.157   5.528   2.825  0.00  0.00     0.046 C 
ENDBRANCH  10  11
ENDBRANCH   7  10
ENDBRANCH   3   6
BRANCH   3  15
ATOM     15  S   UNL d   1      -2.020   1.058   0.570  0.00  0.00    -0.098 SA
ATOM     16  C   UNL d   1      -2.426   1.623  -1.098  0.00  0.00     0.099 C 
ENDBRANCH   3  15
BRANCH   4  17
ATOM     17  O   UNL d   1       0.489  -2.455   0.261  0.00  0.00    -0.294 OA
BRANCH  17  18
ATOM     18  C   UNL d   1       0.267  -3.870   0.027  0.00  0.00     0.061 C 
ATOM     19  C   UNL d   1       0.470  -4.232  -1.448  0.00  0.00     0.046 C 
ATOM     20  C   UNL d   1       1.361  -4.569   0.854  0.00  0.00     0.046 C 
ATOM     21  C   UNL d   1      -1.100  -4.330   0.536  0.00  0.00     0.046 C 
ENDBRANCH  17  18
ENDBRANCH   4  17
TORSDOF 6
