REMARK  6 active torsions:
REMARK  status: ('A' for Active; 'I' for Inactive)
REMARK    1  A    between atoms: C_9  and  C_1 
REMARK    2  A    between atoms: S_23  and  C_2 
REMARK    3  A    between atoms: C_6  and  C_3 
REMARK    4  A    between atoms: C_13  and  C_16 
REMARK    5  A    between atoms: S_20  and  C_14 
REMARK    6  A    between atoms: C_16  and  S_20 
ROOT
ATOM      1  C   UNL d   1       1.426   2.578  -0.112  0.00  0.00     0.048 A 
ATOM      2  N   UNL d   1       0.897   3.639   0.528  0.00  0.00    -0.336 N 
ATOM      3  HN  UNL d   1       0.038   3.550   1.072  1.00  0.00     0.168 HD
ATOM      4  C   UNL d   1       1.534   4.813   0.429  0.00  0.00     0.144 A 
ATOM      5  N   UNL d   1       2.718   4.983  -0.175  0.00  0.00    -0.347 N 
ATOM      6  HN  UNL d   1       3.194   5.885  -0.184  1.00  0.00     0.167 HD
ATOM      7  C   UNL d   1       2.620   2.672  -0.795  0.00  0.00     0.047 A 
ATOM      8  C   UNL d   1       3.240   3.899  -0.769  0.00  0.00     0.092 A 
ENDROOT
BRANCH   1   9
ATOM      9  C   UNL d   1       0.662   1.313  -0.050  0.00  0.00     0.022 A 
ATOM     10  C   UNL d   1      -0.729   1.282  -0.104  0.00  0.00     0.054 A 
ATOM     11  S   UNL d   1      -1.347  -0.307  -0.038  0.00  0.00    -0.079 SA
ATOM     12  C   UNL d   1       0.204  -1.015   0.061  0.00  0.00     0.046 A 
ATOM     13  C   UNL d   1       1.207  -0.047   0.061  0.00  0.00    -0.028 A 
ATOM     14  C   UNL d   1       2.672  -0.371   0.172  0.00  0.00     0.050 C 
BRANCH  10  15
ATOM     15  S   UNL d   1      -1.885   2.610  -0.292  0.00  0.00    -0.126 SA
ATOM     16  C   UNL d   1      -2.155   3.036   1.448  0.00  0.00     0.096 C 
ENDBRANCH  10  15
BRANCH  12  17
ATOM     17  C   UNL d   1       0.361  -2.456   0.109  0.00  0.00     0.092 A 
ATOM     18  N   UNL d   1       1.393  -3.067  -0.443  0.00  0.00    -0.353 N 
ATOM     19  C   UNL d   1       1.325  -4.434  -0.228  0.00  0.00     0.012 A 
ATOM     20  HN  UNL d   1       2.138  -2.597  -0.958  1.00  0.00     0.166 HD
ATOM     21  C   UNL d   1       2.404  -5.302  -0.764  0.00  0.00     0.068 C 
ATOM     22  C   UNL d   1       0.226  -4.850   0.497  0.00  0.00     0.076 A 
ATOM     23  S   UNL d   1      -0.742  -3.505   0.920  0.00  0.00    -0.081 SA
ENDBRANCH  12  17
ENDBRANCH   1   9
BRANCH   4  24
ATOM     24  S   UNL d   1       0.679   6.229   1.080  0.00  0.00    -0.089 SA
BRANCH  24  25
ATOM     25  C   UNL d   1       1.831   7.547   0.583  0.00  0.00     0.124 C 
BRANCH  25  26
ATOM     26  C   UNL d   1       1.281   8.927   0.869  0.00  0.00    -0.005 A 
ATOM     27  C   UNL d   1       1.403   9.513   2.145  0.00  0.00     0.042 A 
ATOM     28 CL   UNL d   1       2.168   8.693   3.465  0.00  0.00    -0.084 Cl
ATOM     29  C   UNL d   1       0.917  10.798   2.405  0.00  0.00     0.024 A 
ATOM     30  C   UNL d   1       0.294  11.532   1.397  0.00  0.00     0.003 A 
ATOM     31  C   UNL d   1       0.146  10.970   0.136  0.00  0.00     0.024 A 
ATOM     32  C   UNL d   1       0.626   9.680  -0.128  0.00  0.00     0.042 A 
ATOM     33 CL   UNL d   1       0.376   9.075  -1.730  0.00  0.00    -0.084 Cl
ENDBRANCH  25  26
ENDBRANCH  24  25
ENDBRANCH   4  24
TORSDOF 6
