REMARK  6 active torsions:
REMARK  status: ('A' for Active; 'I' for Inactive)
REMARK    1  A    between atoms: S_8  and  C_3 
REMARK    2  A    between atoms: S_9  and  C_4 
REMARK    3  A    between atoms: C_15  and  S_8 
REMARK    4  A    between atoms: C_14  and  S_9 
REMARK    5  A    between atoms: C_12  and  C_14 
REMARK    6  A    between atoms: C_13  and  C_15 
ROOT
ATOM      1  N   UNL d   1       1.486  -0.558   0.112  0.00  0.00    -0.324 N 
ATOM      2  HN  UNL d   1       2.423  -0.955   0.181  1.00  0.00     0.169 HD
ATOM      3  C   UNL d   1       1.168   0.794   0.086  0.00  0.00     0.152 A 
ATOM      4  C   UNL d   1       0.359  -1.235   0.033  0.00  0.00     0.130 A 
ATOM      5  N   UNL d   1      -0.107   1.178   0.015  0.00  0.00    -0.305 N 
ATOM      6  HN  UNL d   1      -0.455   2.136  -0.008  1.00  0.00     0.176 HD
ATOM      7  S   UNL d   1      -1.019  -0.215  -0.028  0.00  0.00     0.013 SA
ENDROOT
BRANCH   3   8
ATOM      8  S   UNL d   1       2.387   2.056   0.096  0.00  0.00    -0.086 SA
BRANCH   8   9
ATOM      9  C   UNL d   1       3.930   1.135   0.021  0.00  0.00     0.160 C 
BRANCH   9  10
ATOM     10  C   UNL d   1       4.087   0.318  -1.243  0.00  0.00     0.132 C 
ATOM     11  O   UNL d   1       4.353  -0.884  -1.191  0.00  0.00    -0.298 OA
ATOM     12  C   UNL d   1       4.039   1.036  -2.569  0.00  0.00     0.091 C 
ENDBRANCH   9  10
ENDBRANCH   8   9
ENDBRANCH   3   8
BRANCH   4  13
ATOM     13  S   UNL d   1       0.253  -2.972  -0.061  0.00  0.00    -0.096 SA
BRANCH  13  14
ATOM     14  C   UNL d   1       1.713  -3.476   0.873  0.00  0.00     0.159 C 
BRANCH  14  15
ATOM     15  C   UNL d   1       1.709  -2.951   2.296  0.00  0.00     0.132 C 
ATOM     16  O   UNL d   1       0.682  -2.694   2.925  0.00  0.00    -0.298 OA
ATOM     17  C   UNL d   1       3.060  -2.830   2.953  0.00  0.00     0.091 C 
ENDBRANCH  14  15
ENDBRANCH  13  14
ENDBRANCH   4  13
TORSDOF 6
