REMARK  5 active torsions:
REMARK  status: ('A' for Active; 'I' for Inactive)
REMARK    1  A    between atoms: C_8  and  C_1 
REMARK    2  A    between atoms: S_11  and  C_5 
REMARK    3  A    between atoms: C_20  and  S_11 
REMARK    4  A    between atoms: C_15  and  C_16 
REMARK    5  A    between atoms: C_21  and  C_20 
ROOT
ATOM      1  C   UNL d   1      -1.552   0.303   0.506  0.00  0.00     0.132 A 
ATOM      2  N   UNL d   1      -1.630  -1.070   0.612  0.00  0.00    -0.317 N 
ATOM      3  N   UNL d   1      -0.450   0.591  -0.175  0.00  0.00    -0.285 N 
ATOM      4  HN  UNL d   1      -0.161   1.526  -0.460  1.00  0.00     0.188 HD
ATOM      5  C   UNL d   1      -0.473  -1.553   0.043  0.00  0.00     0.162 A 
ATOM      6  N   UNL d   1       0.235  -0.560  -0.434  0.00  0.00    -0.278 N 
ATOM      7  HN  UNL d   1       1.134  -0.634  -0.912  1.00  0.00     0.189 HD
ATOM      8  C   UNL d   1      -2.685  -1.878   1.160  0.00  0.00     0.160 C 
ENDROOT
BRANCH   5   9
ATOM      9  S   UNL d   1      -0.048  -3.231  -0.061  0.00  0.00    -0.088 SA
BRANCH   9  10
ATOM     10  C   UNL d   1       1.766  -3.112  -0.244  0.00  0.00     0.121 C 
BRANCH  10  11
ATOM     11  C   UNL d   1       2.433  -4.466  -0.392  0.00  0.00    -0.049 A 
ATOM     12  C   UNL d   1       2.317  -5.214  -1.566  0.00  0.00     0.008 A 
ATOM     13  C   UNL d   1       2.959  -6.458  -1.698  0.00  0.00     0.008 A 
ATOM     14  C   UNL d   1       3.748  -6.996  -0.662  0.00  0.00    -0.051 A 
ATOM     15  C   UNL d   1       3.862  -6.228   0.513  0.00  0.00     0.008 A 
ATOM     16  C   UNL d   1       3.211  -4.982   0.638  0.00  0.00     0.008 A 
BRANCH  14  17
ATOM     17  C   UNL d   1       4.423  -8.376  -0.819  0.00  0.00    -0.024 C 
ATOM     18  C   UNL d   1       5.262  -8.795   0.413  0.00  0.00     0.019 C 
ATOM     19  C   UNL d   1       3.347  -9.458  -1.028  0.00  0.00     0.019 C 
ATOM     20  C   UNL d   1       5.378  -8.371  -2.033  0.00  0.00     0.019 C 
ENDBRANCH  14  17
ENDBRANCH  10  11
ENDBRANCH   9  10
ENDBRANCH   5   9
BRANCH   1  21
ATOM     21  C   UNL d   1      -2.466   1.387   1.052  0.00  0.00     0.222 C 
ATOM     22  O   UNL d   1      -3.215   1.003   2.227  0.00  0.00    -0.333 OA
ATOM     23  C   UNL d   1      -2.481   1.096   3.387  0.00  0.00     0.103 C 
ATOM     24  C   UNL d   1      -3.068   0.680   4.575  0.00  0.00     0.040 C 
ATOM     25  C   UNL d   1      -1.150   1.510   3.381  0.00  0.00     0.102 C 
ATOM     26  C   UNL d   1      -2.261   0.462   5.695  0.00  0.00     0.003 C 
ATOM     27  C   UNL d   1      -0.876   0.612   5.592  0.00  0.00     0.003 C 
ATOM     28  C   UNL d   1      -0.322   1.167   4.440  0.00  0.00     0.039 C 
ATOM     29  O   UNL d   1      -0.607   2.244   2.360  0.00  0.00    -0.345 OA
ATOM     30  C   UNL d   1      -1.625   2.623   1.407  0.00  0.00     0.216 C 
ENDBRANCH   1  21
TORSDOF 5
