REMARK  5 active torsions:
REMARK  status: ('A' for Active; 'I' for Inactive)
REMARK    1  A    between atoms: C_5  and  C_1 
REMARK    2  A    between atoms: C_8  and  N_2 
REMARK       I    between atoms: N_9  and  C_5 
REMARK    3  A    between atoms: N_10  and  N_9 
REMARK    4  A    between atoms: C_15  and  N_10 
REMARK    5  A    between atoms: C_16  and  C_12 
ROOT
ATOM      1  C   UNL d   1      -0.743  -2.658   0.528  0.00  0.00     0.284 C 
ATOM      2  N   UNL d   1       0.049  -3.759   0.173  0.00  0.00    -0.281 N 
ATOM      3  O   UNL d   1      -1.819  -2.850   1.092  0.00  0.00    -0.265 OA
ATOM      4  H   UNL d   1       0.706  -3.665  -0.592  0.00  0.00     0.184 HD
ENDROOT
BRANCH   1   5
ATOM      5  C   UNL d   1      -0.182  -1.355   0.196  0.00  0.00     0.122 A 
ATOM      6  N   UNL d   1      -0.770  -0.092   0.200  0.00  0.00    -0.278 N 
ATOM      7  N   UNL d   1       0.131   0.880  -0.125  0.00  0.00    -0.302 N 
ATOM      8  C   UNL d   1       1.286   0.262  -0.325  0.00  0.00     0.024 A 
ATOM      9  HN  UNL d   1      -0.048   1.881  -0.199  1.00  0.00     0.186 HD
ATOM     10  C   UNL d   1       1.147  -1.119  -0.155  0.00  0.00     0.063 A 
ATOM     11  C   UNL d   1       2.494   1.048  -0.667  0.00  0.00     0.070 C 
BRANCH   6  12
ATOM     12  C   UNL d   1      -2.132   0.437   0.455  0.00  0.00     0.043 C 
ATOM     13  C   UNL d   1      -3.255  -0.576   0.718  0.00  0.00     0.039 C 
ATOM     14  C   UNL d   1      -2.080   1.379   1.685  0.00  0.00     0.039 C 
ATOM     15  C   UNL d   1      -2.583   1.270  -0.776  0.00  0.00     0.039 C 
ENDBRANCH   6  12
ENDBRANCH   1   5
BRANCH   2  16
ATOM     16  N   UNL d   1      -0.571  -5.028   0.267  0.00  0.00    -0.203 NA
ATOM     17  H   UNL d   1      -1.441  -4.956   0.812  0.00  0.00     0.153 HD
BRANCH  16  18
ATOM     18  C   UNL d   1       0.241  -6.096   0.727  0.00  0.00     0.027 A 
ATOM     19  C   UNL d   1      -0.392  -7.213   1.291  0.00  0.00     0.026 A 
ATOM     20  C   UNL d   1       0.315  -8.385   1.599  0.00  0.00     0.009 A 
ATOM     21  C   UNL d   1       1.678  -8.492   1.312  0.00  0.00    -0.055 A 
ATOM     22  C   UNL d   1       2.321  -7.372   0.774  0.00  0.00     0.009 A 
ATOM     23  C   UNL d   1       1.612  -6.196   0.474  0.00  0.00     0.026 A 
BRANCH  21  24
ATOM     24  C   UNL d   1       2.434  -9.799   1.501  0.00  0.00     0.010 C 
ATOM     25  C   UNL d   1       2.551 -10.210   2.971  0.00  0.00     0.015 C 
ATOM     26  C   UNL d   1       1.798 -10.930   0.681  0.00  0.00     0.015 C 
ENDBRANCH  21  24
ENDBRANCH  16  18
ENDBRANCH   2  16
TORSDOF 5
