REMARK  3 active torsions:
REMARK  status: ('A' for Active; 'I' for Inactive)
REMARK    1  A    between atoms: C_2  and  C_1 
REMARK       I    between atoms: N_5  and  C_2 
REMARK    2  A    between atoms: C_20  and  N_9 
REMARK    3  A    between atoms: C_19  and  C_20 
ROOT
ATOM      1  C   UNL d   1       0.012   2.726  -0.108  0.00  0.00     0.258 C 
ATOM      2  N   UNL d   1      -1.294   3.195  -0.306  0.00  0.00    -0.344 N 
ATOM      3  N   UNL d   1      -4.133   4.018  -0.634  0.00  0.00     0.095 N 
ATOM      4  O   UNL d   1       0.300   2.091   0.908  0.00  0.00    -0.267 OA
ATOM      5  C   UNL d   1      -2.263   3.044   0.791  0.00  0.00     0.156 C 
ATOM      6  C   UNL d   1      -1.704   4.107  -1.375  0.00  0.00     0.156 C 
ATOM      7  C   UNL d   1      -3.719   2.951   0.303  0.00  0.00     0.292 C 
ATOM      8  C   UNL d   1      -3.190   4.031  -1.763  0.00  0.00     0.292 C 
ENDROOT
BRANCH   1   9
ATOM      9  C   UNL d   1       1.026   2.906  -1.148  0.00  0.00     0.087 A 
ATOM     10  C   UNL d   1       1.915   1.912  -1.528  0.00  0.00     0.090 A 
ATOM     11  O   UNL d   1       2.722   2.368  -2.518  0.00  0.00    -0.242 OA
ATOM     12  C   UNL d   1       2.185   0.522  -1.108  0.00  0.00     0.080 C 
ATOM     13  N   UNL d   1       2.432   3.683  -2.782  0.00  0.00    -0.265 N 
ATOM     14  C   UNL d   1       1.463   4.028  -1.926  0.00  0.00     0.047 A 
ATOM     15  HN  UNL d   1       2.866   4.277  -3.488  1.00  0.00     0.194 HD
ATOM     16  C   UNL d   1       1.054   5.453  -1.907  0.00  0.00     0.071 C 
ENDBRANCH   1   9
BRANCH   3  17
ATOM     17  C   UNL d   1      -4.235   5.345  -0.006  0.00  0.00     0.311 C 
BRANCH  17  18
ATOM     18  C   UNL d   1      -5.343   5.431   1.021  0.00  0.00    -0.027 A 
ATOM     19  C   UNL d   1      -5.044   5.730   2.360  0.00  0.00     0.048 A 
ATOM     20  C   UNL d   1      -6.088   5.791   3.257  0.00  0.00     0.105 A 
ATOM     21  O   UNL d   1      -5.973   6.063   4.585  0.00  0.00    -0.323 OA
ATOM     22  C   UNL d   1      -7.390   5.575   2.875  0.00  0.00     0.105 A 
ATOM     23  C   UNL d   1      -7.354   5.980   4.996  0.00  0.00     0.352 A 
ATOM     24  O   UNL d   1      -8.261   5.684   3.914  0.00  0.00    -0.323 OA
ATOM     25  C   UNL d   1      -7.726   5.285   1.571  0.00  0.00     0.040 A 
ATOM     26  C   UNL d   1      -6.688   5.212   0.637  0.00  0.00     0.012 A 
ENDBRANCH  17  18
ENDBRANCH   3  17
TORSDOF 3
