REMARK  6 active torsions:
REMARK  status: ('A' for Active; 'I' for Inactive)
REMARK    1  A    between atoms: C_7  and  C_1 
REMARK    2  A    between atoms: C_12  and  N_2 
REMARK    3  A    between atoms: C_13  and  C_6 
REMARK       I    between atoms: N_11  and  C_7 
REMARK    4  A    between atoms: C_8  and  C_15 
REMARK    5  A    between atoms: C_15  and  N_11 
REMARK    6  A    between atoms: C_24  and  C_12 
ROOT
ATOM      1  C   UNL d   1      -0.788  -0.936   0.067  0.00  0.00     0.115 C 
ATOM      2  N   UNL d   1       0.483  -0.392   0.082  0.00  0.00    -0.283 N 
ATOM      3  N   UNL d   1       0.496   0.939  -0.172  0.00  0.00    -0.301 N 
ATOM      4  HN  UNL d   1       1.307   1.528  -0.363  1.00  0.00     0.187 HD
ATOM      5  C   UNL d   1      -1.623   0.166  -0.041  0.00  0.00     0.063 C 
ATOM      6  C   UNL d   1      -0.781   1.308  -0.118  0.00  0.00     0.036 C 
ENDROOT
BRANCH   1   7
ATOM      7  C   UNL d   1      -1.097  -2.335   0.273  0.00  0.00     0.249 C 
ATOM      8  N   UNL d   1      -2.421  -2.736   0.266  0.00  0.00    -0.253 NA
ATOM      9  H   UNL d   1      -2.460  -3.662   0.671  0.00  0.00     0.131 HD
ATOM     10  O   UNL d   1      -0.257  -3.191   0.542  0.00  0.00    -0.272 OA
BRANCH   8  11
ATOM     11  C   UNL d   1      -3.258  -2.656  -0.928  0.00  0.00     0.137 C 
BRANCH  11  12
ATOM     12  C   UNL d   1      -4.690  -2.234  -0.666  0.00  0.00    -0.008 A 
ATOM     13  C   UNL d   1      -5.620  -2.184  -1.728  0.00  0.00     0.087 A 
ATOM     14  C   UNL d   1      -6.903  -1.642  -1.547  0.00  0.00     0.003 A 
ATOM     15  O   UNL d   1      -5.220  -2.659  -2.952  0.00  0.00    -0.325 OA
ATOM     16  C   UNL d   1      -7.835  -1.505  -2.713  0.00  0.00     0.212 C 
ATOM     17  C   UNL d   1      -7.302  -1.230  -0.273  0.00  0.00     0.054 A 
ATOM     18  O   UNL d   1      -7.129  -1.633  -3.940  0.00  0.00    -0.362 OA
ATOM     19  C   UNL d   1      -6.295  -2.782  -3.889  0.00  0.00     0.345 C 
ATOM     20  C   UNL d   1      -6.416  -1.341   0.790  0.00  0.00     0.117 A 
ATOM     21  C   UNL d   1      -5.123  -1.828   0.606  0.00  0.00     0.053 A 
ATOM     22  F   UNL d   1      -6.803  -0.948   2.009  0.00  0.00    -0.206 F 
ENDBRANCH  11  12
ENDBRANCH   8  11
ENDBRANCH   1   7
BRANCH   2  23
ATOM     23  C   UNL d   1       1.767  -1.018   0.394  0.00  0.00     0.188 C 
BRANCH  23  24
ATOM     24  C   UNL d   1       2.094  -0.962   1.873  0.00  0.00    -0.038 A 
ATOM     25  C   UNL d   1       2.500  -2.121   2.547  0.00  0.00     0.009 A 
ATOM     26  C   UNL d   1       2.814  -2.081   3.913  0.00  0.00     0.001 A 
ATOM     27  C   UNL d   1       2.730  -0.880   4.614  0.00  0.00     0.000 A 
ATOM     28  C   UNL d   1       2.356   0.286   3.956  0.00  0.00     0.001 A 
ATOM     29  C   UNL d   1       2.053   0.247   2.591  0.00  0.00     0.009 A 
ENDBRANCH  23  24
ENDBRANCH   2  23
BRANCH   6  30
ATOM     30  C   UNL d   1      -1.131   2.788  -0.113  0.00  0.00    -0.007 C 
ATOM     31  C   UNL d   1      -2.648   3.021  -0.018  0.00  0.00     0.021 C 
ATOM     32  C   UNL d   1      -0.470   3.477   1.106  0.00  0.00     0.021 C 
ATOM     33  C   UNL d   1      -0.608   3.465  -1.396  0.00  0.00     0.021 C 
ENDBRANCH   6  30
TORSDOF 6
