REMARK  1 active torsions:
REMARK  status: ('A' for Active; 'I' for Inactive)
REMARK    1  A    between atoms: C_13  and  C_7 
ROOT
ATOM      1  C   UNL d   1       0.286  -0.750   0.040  0.00  0.00     0.058 A 
ATOM      2  C   UNL d   1       0.293   0.663   0.046  0.00  0.00     0.139 A 
ATOM      3  N   UNL d   1       1.529   1.169   0.035  0.00  0.00    -0.255 N 
ATOM      4  HN  UNL d   1       1.798   2.152   0.062  1.00  0.00     0.195 HD
ATOM      5  N   UNL d   1      -2.091  -0.769   0.015  0.00  0.00    -0.296 N 
ATOM      6  HN  UNL d   1      -2.987  -1.255  -0.004  1.00  0.00     0.187 HD
ATOM      7  C   UNL d   1      -0.979  -1.460   0.057  0.00  0.00     0.073 A 
ATOM      8  C   UNL d   1      -0.935   1.431   0.033  0.00  0.00     0.289 A 
ATOM      9  N   UNL d   1      -2.060   0.618  -0.005  0.00  0.00    -0.264 N 
ATOM     10  O   UNL d   1       2.362   0.069  -0.022  0.00  0.00    -0.241 OA
ATOM     11  C   UNL d   1       1.623  -1.080  -0.048  0.00  0.00     0.087 A 
ATOM     12  O   UNL d   1      -1.013   2.652   0.037  0.00  0.00    -0.264 OA
ATOM     13  C   UNL d   1       2.438  -2.307  -0.178  0.00  0.00     0.080 C 
ATOM     14  H   UNL d   1      -2.959   1.088  -0.033  0.00  0.00     0.190 HD
ENDROOT
BRANCH   7  15
ATOM     15  C   UNL d   1      -1.058  -2.945   0.093  0.00  0.00    -0.007 A 
ATOM     16  C   UNL d   1      -2.063  -3.597  -0.635  0.00  0.00     0.014 A 
ATOM     17  C   UNL d   1      -2.101  -4.993  -0.682  0.00  0.00     0.001 A 
ATOM     18  C   UNL d   1      -1.131  -5.741  -0.016  0.00  0.00     0.000 A 
ATOM     19  C   UNL d   1      -0.171  -5.098   0.761  0.00  0.00     0.001 A 
ATOM     20  C   UNL d   1      -0.169  -3.706   0.855  0.00  0.00     0.014 A 
ENDBRANCH   7  15
TORSDOF 1
