REMARK  2 active torsions:
REMARK  status: ('A' for Active; 'I' for Inactive)
REMARK    1  A    between atoms: C_7  and  C_4 
REMARK    2  A    between atoms: N_8  and  C_5 
ROOT
ATOM      1  C   UNL d   1      -0.085  -1.062   0.588  0.00  0.00     0.081 A 
ATOM      2  N   UNL d   1      -1.348   0.431  -0.578  0.00  0.00    -0.298 N 
ATOM      3  HN  UNL d   1      -2.109   0.888  -1.080  1.00  0.00     0.187 HD
ATOM      4  C   UNL d   1      -1.362  -0.769   0.028  0.00  0.00     0.062 A 
ATOM      5  C   UNL d   1       0.701   0.026   0.315  0.00  0.00     0.115 A 
ATOM      6  N   UNL d   1      -0.102   0.893  -0.370  0.00  0.00    -0.285 N 
ATOM      7  H   UNL d   1       0.137   1.808  -0.729  0.00  0.00     0.188 HD
ENDROOT
BRANCH   4   8
ATOM      8  C   UNL d   1      -2.560  -1.611   0.057  0.00  0.00    -0.008 A 
ATOM      9  C   UNL d   1      -3.521  -1.520  -0.958  0.00  0.00     0.014 A 
ATOM     10  C   UNL d   1      -4.649  -2.349  -0.948  0.00  0.00     0.007 A 
ATOM     11  C   UNL d   1      -4.840  -3.275   0.083  0.00  0.00    -0.062 A 
ATOM     12  C   UNL d   1      -3.892  -3.355   1.108  0.00  0.00     0.007 A 
ATOM     13  C   UNL d   1      -6.042  -4.171   0.074  0.00  0.00     0.048 C 
ATOM     14  C   UNL d   1      -2.763  -2.531   1.094  0.00  0.00     0.014 A 
ENDBRANCH   4   8
BRANCH   5  15
ATOM     15  N   UNL d   1       1.985   0.296   0.607  0.00  0.00    -0.384 N 
ATOM     16  H   UNL d   1       2.580  -0.397   1.055  0.00  0.00     0.157 HD
ATOM     17  H   UNL d   1       2.481   1.120   0.281  0.00  0.00     0.157 HD
ENDBRANCH   5  15
TORSDOF 2
