REMARK  10 active torsions:
REMARK  status: ('A' for Active; 'I' for Inactive)
REMARK    1  A    between atoms: N_7  and  C_1 
REMARK    2  A    between atoms: S_3  and  C_2 
REMARK    3  A    between atoms: C_9  and  S_3 
REMARK    4  A    between atoms: C_12  and  C_4 
REMARK    5  A    between atoms: N_10  and  N_7 
REMARK    6  A    between atoms: C_13  and  C_8 
REMARK    7  A    between atoms: C_16  and  C_9 
REMARK    8  A    between atoms: O_25  and  C_12 
REMARK    9  A    between atoms: O_26  and  C_13 
REMARK   10  A    between atoms: C_27  and  O_26 
ROOT
ATOM      1  C   UNL d   1       3.571   3.889   0.501  0.00  0.00     0.204 C 
ATOM      2  N   UNL d   1       2.506   3.133   0.591  0.00  0.00    -0.285 N 
ATOM      3  HN  UNL d   1       2.542   2.253   1.104  1.00  0.00     0.188 HD
ATOM      4  C   UNL d   1       3.523   5.117  -0.263  0.00  0.00     0.125 C 
ATOM      5  N   UNL d   1       3.475   6.101  -0.876  0.00  0.00    -0.190 NA
ENDROOT
BRANCH   1   6
ATOM      6  C   UNL d   1       4.867   3.517   1.192  0.00  0.00     0.322 C 
ATOM      7  O   UNL d   1       5.629   4.376   1.602  0.00  0.00    -0.257 OA
BRANCH   6   8
ATOM      8  O   UNL d   1       5.047   2.184   1.241  0.00  0.00    -0.316 OA
BRANCH   8   9
ATOM      9  C   UNL d   1       6.292   1.750   1.819  0.00  0.00     0.175 C 
ATOM     10  C   UNL d   1       6.220   1.740   3.336  0.00  0.00     0.034 C 
ENDBRANCH   8   9
ENDBRANCH   6   8
ENDBRANCH   1   6
BRANCH   2  11
ATOM     11  N   UNL d   1       1.338   3.538  -0.013  0.00  0.00    -0.297 N 
ATOM     12  H   UNL d   1       1.195   4.559  -0.117  0.00  0.00     0.187 HD
BRANCH  11  13
ATOM     13  C   UNL d   1       0.185   2.795   0.001  0.00  0.00     0.093 A 
ATOM     14  C   UNL d   1      -1.119   3.414  -0.005  0.00  0.00     0.095 A 
ATOM     15  C   UNL d   1      -2.149   2.502  -0.025  0.00  0.00     0.076 A 
ATOM     16  S   UNL d   1      -1.579   0.907   0.051  0.00  0.00    -0.092 SA
ATOM     17  C   UNL d   1       0.077   1.409   0.038  0.00  0.00     0.109 A 
BRANCH  14  18
ATOM     18  S   UNL d   1      -1.439   5.121   0.029  0.00  0.00     0.184 S 
ATOM     19  O   UNL d   1      -0.140   5.750   0.184  0.00  0.00    -0.222 OA
ATOM     20  O   UNL d   1      -2.236   5.333  -1.165  0.00  0.00    -0.222 OA
BRANCH  18  21
ATOM     21  C   UNL d   1      -2.464   5.413   1.457  0.00  0.00     0.210 C 
BRANCH  21  22
ATOM     22  C   UNL d   1      -1.747   5.073   2.703  0.00  0.00     0.066 A 
ATOM     23  O   UNL d   1      -1.904   3.801   3.168  0.00  0.00    -0.326 OA
ATOM     24  C   UNL d   1      -1.219   3.717   4.337  0.00  0.00     0.142 A 
ATOM     25  C   UNL d   1      -0.633   4.923   4.638  0.00  0.00     0.027 A 
ATOM     26  C   UNL d   1      -0.972   5.802   3.581  0.00  0.00     0.035 A 
ENDBRANCH  21  22
ENDBRANCH  18  21
ENDBRANCH  14  18
BRANCH  17  27
ATOM     27  C   UNL d   1       1.046   0.329   0.061  0.00  0.00     0.302 C 
ATOM     28  O   UNL d   1       0.860  -0.775   0.568  0.00  0.00    -0.259 OA
BRANCH  27  29
ATOM     29  O   UNL d   1       2.177   0.648  -0.632  0.00  0.00    -0.322 OA
ATOM     30  C   UNL d   1       3.154  -0.393  -0.628  0.00  0.00     0.213 C 
ENDBRANCH  27  29
ENDBRANCH  17  27
ENDBRANCH  11  13
ENDBRANCH   2  11
TORSDOF 10
