REMARK  2 active torsions:
REMARK  status: ('A' for Active; 'I' for Inactive)
REMARK    1  A    between atoms: C_7  and  N_2 
REMARK    2  A    between atoms: C_10  and  C_6 
ROOT
ATOM      1  C   UNL d   1       2.175  -1.377   0.165  0.00  0.00     0.056 A 
ATOM      2  C   UNL d   1       5.410  -1.725   1.992  0.00  0.00    -0.078 C 
ATOM      3  C   UNL d   1       6.343  -1.468   2.703  0.00  0.00     0.018 C 
ATOM      4  C   UNL d   1       3.281  -1.079   0.972  0.00  0.00     0.051 A 
ATOM      5  C   UNL d   1       4.292  -2.029   1.153  0.00  0.00     0.019 A 
ATOM      6  C   UNL d   1       2.074  -2.643  -0.431  0.00  0.00     0.031 A 
ATOM      7  C   UNL d   1       3.095  -3.581  -0.260  0.00  0.00     0.004 A 
ATOM      8  C   UNL d   1       4.203  -3.274   0.530  0.00  0.00     0.021 A 
ENDROOT
BRANCH   1   9
ATOM      9  N   UNL d   1       1.135  -0.431  -0.029  0.00  0.00    -0.242 N 
ATOM     10  N   UNL d   1      -0.129  -0.849  -0.292  0.00  0.00    -0.014 NA
ATOM     11  N   UNL d   1      -0.935   0.200  -0.234  0.00  0.00    -0.281 N 
ATOM     12  C   UNL d   1      -0.175   1.315  -0.040  0.00  0.00     0.080 C 
ATOM     13  HN  UNL d   1      -1.951   0.177  -0.320  1.00  0.00     0.184 HD
ATOM     14  C   UNL d   1       1.166   0.957   0.006  0.00  0.00     0.057 C 
ATOM     15  C   UNL d   1       2.393   1.790  -0.048  0.00  0.00     0.072 C 
BRANCH  12  16
ATOM     16  C   UNL d   1      -0.728   2.660  -0.010  0.00  0.00    -0.006 A 
ATOM     17  C   UNL d   1      -0.128   3.688   0.731  0.00  0.00     0.014 A 
ATOM     18  C   UNL d   1      -0.648   4.984   0.712  0.00  0.00     0.001 A 
ATOM     19  C   UNL d   1      -1.794   5.261  -0.027  0.00  0.00     0.000 A 
ATOM     20  C   UNL d   1      -2.425   4.243  -0.738  0.00  0.00     0.001 A 
ATOM     21  C   UNL d   1      -1.896   2.949  -0.730  0.00  0.00     0.014 A 
ENDBRANCH  12  16
ENDBRANCH   1   9
TORSDOF 2
