REMARK  3 active torsions:
REMARK  status: ('A' for Active; 'I' for Inactive)
REMARK    1  A    between atoms: S_5  and  C_1 
REMARK    2  A    between atoms: C_7  and  C_3 
REMARK    3  A    between atoms: O_14  and  C_7 
ROOT
ATOM      1  C   UNL d   1      -1.186   1.531   0.006  0.00  0.00     0.111 A 
ATOM      2  S   UNL d   1      -2.628   0.599  -0.021  0.00  0.00    -0.070 SA
ATOM      3  C   UNL d   1      -1.791  -0.893  -0.009  0.00  0.00     0.086 A 
ATOM      4  C   UNL d   1      -0.079   0.703   0.018  0.00  0.00    -0.000 A 
ATOM      5  C   UNL d   1      -0.419  -0.694   0.007  0.00  0.00    -0.022 A 
ATOM      6  C   UNL d   1       1.290   1.109   0.028  0.00  0.00     0.010 A 
ATOM      7  C   UNL d   1       2.292   0.212   0.010  0.00  0.00    -0.025 A 
ATOM      8  C   UNL d   1       0.628  -1.779   0.018  0.00  0.00     0.045 A 
ATOM      9  C   UNL d   1       2.084  -1.278  -0.029  0.00  0.00     0.032 A 
ENDROOT
BRANCH   1  10
ATOM     10  S   UNL d   1      -1.451   3.296  -0.025  0.00  0.00     0.179 S 
ATOM     11  O   UNL d   1      -0.145   3.903   0.122  0.00  0.00    -0.222 OA
ATOM     12  O   UNL d   1      -2.281   3.545  -1.186  0.00  0.00    -0.222 OA
ATOM     13  C   UNL d   1      -2.390   3.648   1.440  0.00  0.00     0.167 C 
ENDBRANCH   1  10
BRANCH   3  14
ATOM     14  C   UNL d   1      -2.507  -2.164  -0.016  0.00  0.00     0.183 C 
ATOM     15  O   UNL d   1      -1.989  -3.271   0.001  0.00  0.00    -0.646 OA
BRANCH  14  16
ATOM     16  O   UNL d   1      -3.859  -2.020  -0.025  0.00  0.00    -0.772 OA
ATOM     17  H   UNL d   1      -4.125  -1.081  -0.053  0.00  0.00     0.167 HD
ENDBRANCH  14  16
ENDBRANCH   3  14
TORSDOF 3
