REMARK  1 active torsions:
REMARK  status: ('A' for Active; 'I' for Inactive)
REMARK    1  A    between atoms: C_7  and  C_2 
ROOT
ATOM      1  C   UNL d   1      -0.009  -0.684  -0.060  0.00  0.00     0.024 C 
ATOM      2  C   UNL d   1      -1.284  -1.505   0.072  0.00  0.00     0.103 C 
ATOM      3  C   UNL d   1      -2.555  -0.656  -0.059  0.00  0.00     0.057 C 
ATOM      4  C   UNL d   1      -0.034   0.664  -0.076  0.00  0.00     0.020 C 
ATOM      5  N   UNL d   1      -1.247   1.330  -0.026  0.00  0.00    -0.362 N 
ATOM      6  C   UNL d   1      -2.480   0.697  -0.072  0.00  0.00     0.023 C 
ATOM      7  C   UNL d   1      -3.810  -1.335  -0.137  0.00  0.00     0.098 C 
ATOM      8  C   UNL d   1       1.283  -1.410  -0.221  0.00  0.00     0.158 C 
ATOM      9  N   UNL d   1      -4.833  -1.876  -0.214  0.00  0.00    -0.192 NA
ATOM     10  O   UNL d   1       1.307  -2.637  -0.294  0.00  0.00    -0.293 OA
ATOM     11  C   UNL d   1       1.215   1.510  -0.121  0.00  0.00     0.058 C 
ATOM     12  C   UNL d   1      -3.703   1.579  -0.117  0.00  0.00     0.069 C 
ATOM     13  C   UNL d   1       2.544  -0.597  -0.410  0.00  0.00     0.084 C 
ATOM     14  C   UNL d   1       2.453   0.733   0.317  0.00  0.00     0.014 C 
ATOM     15  H   UNL d   1      -1.233   2.345  -0.089  0.00  0.00     0.165 HD
ENDROOT
BRANCH   2  16
ATOM     16  C   UNL d   1      -1.308  -2.269   1.399  0.00  0.00    -0.041 A 
ATOM     17  C   UNL d   1      -1.272  -1.575   2.624  0.00  0.00     0.048 A 
ATOM     18  C   UNL d   1      -1.331  -2.308   3.789  0.00  0.00     0.105 A 
ATOM     19  O   UNL d   1      -1.319  -1.793   5.047  0.00  0.00    -0.323 OA
ATOM     20  C   UNL d   1      -1.417  -3.678   3.780  0.00  0.00     0.105 A 
ATOM     21  C   UNL d   1      -1.446  -2.998   5.828  0.00  0.00     0.352 A 
ATOM     22  O   UNL d   1      -1.471  -4.201   5.034  0.00  0.00    -0.323 OA
ATOM     23  C   UNL d   1      -1.445  -4.396   2.604  0.00  0.00     0.040 A 
ATOM     24  C   UNL d   1      -1.390  -3.682   1.402  0.00  0.00     0.011 A 
ENDBRANCH   2  16
TORSDOF 1
