REMARK  7 active torsions:
REMARK  status: ('A' for Active; 'I' for Inactive)
REMARK    1  A    between atoms: C_8  and  C_2 
REMARK    2  A    between atoms: C_9  and  C_2 
REMARK    3  A    between atoms: C_7  and  N_10 
REMARK    4  A    between atoms: O_15  and  C_8 
REMARK    5  A    between atoms: O_14  and  C_9 
REMARK    6  A    between atoms: C_19  and  O_14 
REMARK    7  A    between atoms: C_18  and  O_15 
ROOT
ATOM      1  C   UNL d   1       2.010  -4.758  -0.120  0.00  0.00     0.129 C 
ATOM      2  C   UNL d   1       1.165  -3.708  -0.097  0.00  0.00     0.113 C 
ENDROOT
BRANCH   1   3
ATOM      3  C   UNL d   1       3.488  -4.640  -0.067  0.00  0.00     0.300 C 
ATOM      4  O   UNL d   1       4.266  -5.507  -0.426  0.00  0.00    -0.259 OA
BRANCH   3   5
ATOM      5  O   UNL d   1       3.840  -3.484   0.558  0.00  0.00    -0.318 OA
BRANCH   5   6
ATOM      6  C   UNL d   1       5.167  -3.428   1.090  0.00  0.00     0.174 C 
ATOM      7  C   UNL d   1       5.077  -3.887   2.533  0.00  0.00     0.034 C 
ENDBRANCH   5   6
ENDBRANCH   3   5
ENDBRANCH   1   3
BRANCH   1   8
ATOM      8  C   UNL d   1       1.349  -6.086  -0.088  0.00  0.00     0.300 C 
ATOM      9  O   UNL d   1       0.177  -6.278  -0.386  0.00  0.00    -0.259 OA
BRANCH   8  10
ATOM     10  O   UNL d   1       2.164  -7.001   0.493  0.00  0.00    -0.318 OA
BRANCH  10  11
ATOM     11  C   UNL d   1       1.532  -8.183   1.004  0.00  0.00     0.174 C 
ATOM     12  C   UNL d   1       1.207  -7.930   2.465  0.00  0.00     0.034 C 
ENDBRANCH  10  11
ENDBRANCH   8  10
ENDBRANCH   1   8
BRANCH   2  13
ATOM     13  N   UNL d   1       1.393  -2.347  -0.018  0.00  0.00    -0.350 N 
ATOM     14  C   UNL d   1       1.632  -1.535  -1.079  0.00  0.00     0.123 A 
ATOM     15  N   UNL d   1       1.972  -0.206  -0.965  0.00  0.00    -0.281 N 
ATOM     16  C   UNL d   1       1.592  -1.781  -2.434  0.00  0.00     0.076 A 
ATOM     17  N   UNL d   1       2.136   0.409  -2.156  0.00  0.00    -0.302 N 
ATOM     18  C   UNL d   1       2.156   0.587   0.226  0.00  0.00     0.179 C 
ATOM     19  C   UNL d   1       1.901  -0.552  -3.055  0.00  0.00     0.025 A 
ATOM     20  HN  UNL d   1       2.384   1.383  -2.330  1.00  0.00     0.186 HD
ATOM     21  C   UNL d   1       1.974  -0.255  -4.504  0.00  0.00     0.070 C 
ATOM     22  H   UNL d   1       1.668  -2.055   0.919  0.00  0.00     0.166 HD
ENDBRANCH   2  13
TORSDOF 7
