REMARK  3 active torsions:
REMARK  status: ('A' for Active; 'I' for Inactive)
REMARK    1  A    between atoms: C_4  and  C_1 
REMARK    2  A    between atoms: C_10  and  C_4 
REMARK    3  A    between atoms: O_17  and  N_11 
ROOT
ATOM      1  C   UNL d   1       2.078  -0.394  -1.990  0.00  0.00     0.066 C 
ATOM      2  C   UNL d   1       2.421  -1.651  -2.601  0.00  0.00     0.101 C 
ATOM      3  N   UNL d   1       2.713  -2.651  -3.106  0.00  0.00    -0.191 NA
ENDROOT
BRANCH   1   4
ATOM      4  C   UNL d   1       1.115  -0.260  -1.031  0.00  0.00     0.009 C 
ATOM      5  C   UNL d   1       0.313  -1.372  -0.462  0.00  0.00     0.070 C 
ATOM      6  C   UNL d   1      -0.932  -1.142   0.002  0.00  0.00     0.085 C 
ATOM      7 CL   UNL d   1       1.043  -2.936  -0.232  0.00  0.00    -0.082 Cl
ATOM      8 CL   UNL d   1      -1.974  -2.388   0.615  0.00  0.00    -0.080 Cl
ATOM      9  C   UNL d   1      -1.461   0.264   0.098  0.00  0.00     0.077 C 
ATOM     10  C   UNL d   1      -0.417   1.333   0.019  0.00  0.00     0.034 C 
ATOM     11  N   UNL d   1      -2.728   0.484   0.305  0.00  0.00    -0.268 N 
ATOM     12  C   UNL d   1       0.790   1.074  -0.500  0.00  0.00     0.017 C 
ATOM     13  HN  UNL d   1      -3.426  -0.256   0.383  1.00  0.00     0.194 HD
BRANCH  11  14
ATOM     14  O   UNL d   1      -3.028   1.847   0.408  0.00  0.00    -0.289 OA
ATOM     15  H   UNL d   1      -3.989   1.833   0.584  0.00  0.00     0.244 HD
ENDBRANCH  11  14
ENDBRANCH   1   4
BRANCH   1  16
ATOM     16  C   UNL d   1       2.809   0.771  -2.559  0.00  0.00    -0.015 A 
ATOM     17  C   UNL d   1       4.065   1.131  -2.053  0.00  0.00     0.013 A 
ATOM     18  C   UNL d   1       4.782   2.190  -2.620  0.00  0.00     0.007 A 
ATOM     19  C   UNL d   1       4.258   2.909  -3.700  0.00  0.00    -0.062 A 
ATOM     20  C   UNL d   1       3.000   2.558  -4.202  0.00  0.00     0.007 A 
ATOM     21  C   UNL d   1       5.067   4.005  -4.335  0.00  0.00     0.048 C 
ATOM     22  C   UNL d   1       2.279   1.498  -3.636  0.00  0.00     0.013 A 
ENDBRANCH   1  16
TORSDOF 3
