REMARK  4 active torsions:
REMARK  status: ('A' for Active; 'I' for Inactive)
REMARK    1  A    between atoms: N_4  and  C_2 
REMARK    2  A    between atoms: S_16  and  C_8 
REMARK    3  A    between atoms: C_12  and  C_15 
REMARK    4  A    between atoms: C_15  and  S_16 
ROOT
ATOM      1  C   UNL d   1       0.427  -0.862   0.581  0.00  0.00     0.199 A 
ATOM      2  C   UNL d   1       3.119  -2.788   1.948  0.00  0.00     0.215 A 
ATOM      3  O   UNL d   1       0.726   0.478   0.527  0.00  0.00    -0.265 OA
ATOM      4  N   UNL d   1      -0.801  -1.108   0.161  0.00  0.00    -0.275 N 
ATOM      5  HN  UNL d   1      -1.250  -2.021   0.097  1.00  0.00     0.189 HD
ATOM      6  C   UNL d   1       1.327  -1.874   1.056  0.00  0.00     0.130 A 
ATOM      7  C   UNL d   1      -0.439   1.022   0.053  0.00  0.00     0.204 A 
ATOM      8  O   UNL d   1       2.572  -1.598   1.577  0.00  0.00    -0.284 OA
ATOM      9  N   UNL d   1      -1.359   0.108  -0.173  0.00  0.00    -0.272 N 
ATOM     10  HN  UNL d   1      -2.303   0.268  -0.528  1.00  0.00     0.189 HD
ATOM     11  C   UNL d   1       2.278  -3.838   1.679  0.00  0.00     0.066 A 
ATOM     12  C   UNL d   1       1.125  -3.249   1.101  0.00  0.00     0.046 A 
ENDROOT
BRANCH   7  13
ATOM     13  S   UNL d   1      -0.647   2.729  -0.208  0.00  0.00    -0.080 SA
BRANCH  13  14
ATOM     14  C   UNL d   1      -2.457   2.858  -0.073  0.00  0.00     0.125 C 
BRANCH  14  15
ATOM     15  C   UNL d   1      -2.937   4.294  -0.130  0.00  0.00    -0.005 A 
ATOM     16  C   UNL d   1      -3.364   4.883  -1.337  0.00  0.00     0.042 A 
ATOM     17 CL   UNL d   1      -3.349   4.024  -2.838  0.00  0.00    -0.084 Cl
ATOM     18  C   UNL d   1      -3.827   6.206  -1.377  0.00  0.00     0.024 A 
ATOM     19  C   UNL d   1      -3.863   6.975  -0.218  0.00  0.00     0.003 A 
ATOM     20  C   UNL d   1      -3.428   6.423   0.982  0.00  0.00     0.024 A 
ATOM     21  C   UNL d   1      -2.968   5.100   1.027  0.00  0.00     0.042 A 
ATOM     22 CL   UNL d   1      -2.449   4.513   2.570  0.00  0.00    -0.084 Cl
ENDBRANCH  14  15
ENDBRANCH  13  14
ENDBRANCH   7  13
BRANCH   2  23
ATOM     23  N   UNL d   1       4.420  -2.745   2.541  0.00  0.00    -0.090 N 
ATOM     24  O   UNL d   1       4.894  -3.832   2.895  0.00  0.00    -0.530 OA
ATOM     25  O   UNL d   1       4.967  -1.641   2.656  0.00  0.00    -0.530 OA
ENDBRANCH   2  23
TORSDOF 4
