REMARK  2 active torsions:
REMARK  status: ('A' for Active; 'I' for Inactive)
REMARK    1  A    between atoms: C_2  and  C_1 
REMARK       I    between atoms: N_7  and  C_2 
REMARK    2  A    between atoms: N_9  and  N_7 
ROOT
ATOM      1  C   UNL d   1       0.020  -1.147   0.335  0.00  0.00     0.042 C 
ATOM      2  C   UNL d   1       0.024  -0.009   1.363  0.00  0.00     0.024 C 
ATOM      3  C   UNL d   1      -1.249  -0.828  -0.479  0.00  0.00     0.020 C 
ATOM      4  C   UNL d   1       1.255  -0.798  -0.522  0.00  0.00     0.020 C 
ATOM      5  C   UNL d   1      -0.002   1.083   0.298  0.00  0.00    -0.013 C 
ATOM      6  C   UNL d   1      -1.264   0.710  -0.499  0.00  0.00     0.006 C 
ATOM      7  C   UNL d   1       1.242   0.737  -0.535  0.00  0.00     0.006 C 
ENDROOT
BRANCH   1   8
ATOM      8  C   UNL d   1       0.073  -2.536   0.941  0.00  0.00     0.240 C 
ATOM      9  O   UNL d   1       0.158  -2.742   2.149  0.00  0.00    -0.271 OA
ATOM     10  N   UNL d   1       0.062  -3.562   0.005  0.00  0.00    -0.293 N 
ATOM     11  H   UNL d   1      -0.194  -3.375  -0.962  0.00  0.00     0.183 HD
BRANCH  10  12
ATOM     12  N   UNL d   1       0.087  -4.901   0.455  0.00  0.00    -0.247 NA
ATOM     13  H   UNL d   1       0.004  -4.867   1.482  0.00  0.00     0.143 HD
ATOM     14  H   UNL d   1       1.030  -5.266   0.300  0.00  0.00     0.143 HD
ENDBRANCH  10  12
ENDBRANCH   1   8
TORSDOF 2
