REMARK  3 active torsions:
REMARK  status: ('A' for Active; 'I' for Inactive)
REMARK    1  A    between atoms: N_2  and  C_1 
REMARK       I    between atoms: C_4  and  N_2 
REMARK    2  A    between atoms: O_5  and  C_3 
REMARK    3  A    between atoms: C_8  and  O_5 
ROOT
ATOM      1  C   UNL d   1      -0.617   1.288   0.066  0.00  0.00     0.142 A 
ATOM      2  C   UNL d   1       0.783   1.233   0.011  0.00  0.00     0.123 A 
ATOM      3  N   UNL d   1      -1.354   0.156   0.067  0.00  0.00    -0.350 N 
ATOM      4  HN  UNL d   1      -2.372   0.202   0.102  1.00  0.00     0.166 HD
ATOM      5  C   UNL d   1      -0.723  -1.036   0.021  0.00  0.00     0.090 A 
ATOM      6  C   UNL d   1       1.416  -0.016  -0.014  0.00  0.00     0.042 A 
ATOM      7  C   UNL d   1       0.650  -1.174  -0.017  0.00  0.00     0.020 A 
ENDROOT
BRANCH   1   8
ATOM      8  N   UNL d   1      -1.291   2.516   0.114  0.00  0.00    -0.311 N 
ATOM      9  C   UNL d   1      -2.629   2.702   0.375  0.00  0.00     0.219 C 
ATOM     10  O   UNL d   1      -3.448   1.858   0.727  0.00  0.00    -0.274 OA
ATOM     11  C   UNL d   1      -3.053   4.144   0.239  0.00  0.00     0.117 C 
ATOM     12  H   UNL d   1      -0.756   3.326  -0.173  0.00  0.00     0.170 HD
ENDBRANCH   1   8
BRANCH   2  13
ATOM     13  O   UNL d   1       1.695   2.317   0.125  0.00  0.00    -0.275 OA
BRANCH  13  14
ATOM     14  C   UNL d   1       1.515   3.599  -0.383  0.00  0.00     0.260 C 
ATOM     15  O   UNL d   1       0.534   3.991  -0.999  0.00  0.00    -0.265 OA
ATOM     16  C   UNL d   1       2.683   4.469  -0.029  0.00  0.00     0.126 C 
ENDBRANCH  13  14
ENDBRANCH   2  13
TORSDOF 3
