REMARK  3 active torsions:
REMARK  status: ('A' for Active; 'I' for Inactive)
REMARK    1  A    between atoms: O_9  and  C_4 
REMARK    2  A    between atoms: O_10  and  C_5 
REMARK    3  A    between atoms: O_8  and  C_6 
ROOT
ATOM      1  C   UNL d   1       0.927  -1.351  -0.009  0.00  0.00     0.061 A 
ATOM      2  C   UNL d   1       2.262   1.046   0.023  0.00  0.00     0.077 A 
ATOM      3  C   UNL d   1       0.187  -0.151  -0.001  0.00  0.00     0.047 A 
ATOM      4  C   UNL d   1       0.857   1.073   0.013  0.00  0.00     0.088 A 
ATOM      5  C   UNL d   1       3.008  -0.145   0.017  0.00  0.00     0.104 A 
ATOM      6  C   UNL d   1       2.329  -1.368  -0.001  0.00  0.00     0.102 A 
ATOM      7 BR   UNL d   1      -1.697  -0.413  -0.008  0.00  0.00    -0.048 Br
ENDROOT
BRANCH   4   8
ATOM      8  O   UNL d   1       0.397   2.358   0.021  0.00  0.00    -0.354 OA
ATOM      9  C   UNL d   1      -0.987   2.647   0.004  0.00  0.00     0.210 C 
ENDBRANCH   4   8
BRANCH   5  10
ATOM     10  O   UNL d   1       4.358   0.089   0.031  0.00  0.00    -0.353 OA
ATOM     11  C   UNL d   1       5.250  -1.014   0.037  0.00  0.00     0.210 C 
ENDBRANCH   5  10
BRANCH   6  12
ATOM     12  O   UNL d   1       3.059  -2.525  -0.012  0.00  0.00    -0.353 OA
ATOM     13  C   UNL d   1       2.367  -3.766  -0.033  0.00  0.00     0.210 C 
ENDBRANCH   6  12
TORSDOF 3
