REMARK  7 active torsions:
REMARK  status: ('A' for Active; 'I' for Inactive)
REMARK    1  A    between atoms: C_13  and  C_3 
REMARK    2  A    between atoms: C_12  and  C_4 
REMARK    3  A    between atoms: C_5  and  C_9 
REMARK    4  A    between atoms: C_8  and  O_20 
REMARK    5  A    between atoms: C_10  and  C_8 
REMARK    6  A    between atoms: O_20  and  N_14 
REMARK    7  A    between atoms: C_23  and  C_24 
ROOT
ATOM      1  C   UNL d   1      -0.074  -2.656  -0.050  0.00  0.00    -0.002 A 
ATOM      2  C   UNL d   1       0.460  -3.455   0.977  0.00  0.00     0.015 A 
ATOM      3  C   UNL d   1      -0.801  -3.296  -1.068  0.00  0.00     0.015 A 
ATOM      4  C   UNL d   1      -0.473  -5.458  -0.020  0.00  0.00    -0.019 A 
ATOM      5  C   UNL d   1       0.258  -4.845   1.000  0.00  0.00     0.014 A 
ATOM      6  C   UNL d   1      -1.002  -4.681  -1.054  0.00  0.00     0.014 A 
ENDROOT
BRANCH   4   7
ATOM      7  C   UNL d   1      -0.663  -6.928  -0.015  0.00  0.00     0.126 C 
ATOM      8  N   UNL d   1      -1.293  -7.521  -0.977  0.00  0.00    -0.268 N 
ATOM      9  HN  UNL d   1      -1.706  -7.042  -1.777  1.00  0.00     0.194 HD
BRANCH   8  10
ATOM     10  O   UNL d   1      -1.334  -8.918  -0.774  0.00  0.00    -0.195 OA
BRANCH  10  11
ATOM     11  C   UNL d   1      -1.991  -9.499  -1.825  0.00  0.00     0.315 C 
ATOM     12  O   UNL d   1      -2.485  -8.932  -2.795  0.00  0.00    -0.257 OA
BRANCH  11  13
ATOM     13  C   UNL d   1      -2.079 -10.981  -1.674  0.00  0.00     0.042 A 
ATOM     14  C   UNL d   1      -2.813 -11.695  -2.640  0.00  0.00     0.034 A 
ATOM     15  C   UNL d   1      -2.972 -13.088  -2.552  0.00  0.00     0.048 A 
ATOM     16  C   UNL d   1      -2.358 -13.769  -1.491  0.00  0.00     0.016 A 
ATOM     17  C   UNL d   1      -1.616 -13.071  -0.535  0.00  0.00     0.002 A 
ATOM     18  C   UNL d   1      -1.479 -11.681  -0.621  0.00  0.00     0.018 A 
BRANCH  15  19
ATOM     19  C   UNL d   1      -3.802 -13.848  -3.560  0.00  0.00     0.417 C 
ATOM     20  F   UNL d   1      -4.366 -13.057  -4.514  0.00  0.00    -0.166 F 
ATOM     21  F   UNL d   1      -3.081 -14.788  -4.230  0.00  0.00    -0.166 F 
ATOM     22  F   UNL d   1      -4.835 -14.518  -2.975  0.00  0.00    -0.166 F 
ENDBRANCH  15  19
ENDBRANCH  11  13
ENDBRANCH  10  11
ENDBRANCH   8  10
ENDBRANCH   4   7
BRANCH   1  23
ATOM     23  C   UNL d   1       0.156  -1.198  -0.042  0.00  0.00     0.084 A 
ATOM     24  N   UNL d   1       1.217  -0.603   0.474  0.00  0.00    -0.352 N 
ATOM     25  C   UNL d   1       1.149   0.779   0.311  0.00  0.00     0.024 A 
ATOM     26  HN  UNL d   1       1.986  -1.093   0.932  1.00  0.00     0.166 HD
ATOM     27  C   UNL d   1      -0.016   1.212  -0.297  0.00  0.00     0.077 A 
ATOM     28  S   UNL d   1      -1.019  -0.113  -0.689  0.00  0.00    -0.081 SA
BRANCH  25  29
ATOM     29  C   UNL d   1       2.298   1.663   0.783  0.00  0.00    -0.008 C 
ATOM     30  C   UNL d   1       3.439   0.828   1.397  0.00  0.00     0.021 C 
ATOM     31  C   UNL d   1       2.877   2.460  -0.406  0.00  0.00     0.021 C 
ATOM     32  C   UNL d   1       1.804   2.658   1.852  0.00  0.00     0.021 C 
ENDBRANCH  25  29
ENDBRANCH   1  23
TORSDOF 7
