REMARK  11 active torsions:
REMARK  status: ('A' for Active; 'I' for Inactive)
REMARK       I    between atoms: N_3  and  C_1 
REMARK    1  A    between atoms: C_5  and  C_1 
REMARK    2  A    between atoms: N_4  and  N_3 
REMARK    3  A    between atoms: C_6  and  C_5 
REMARK    4  A    between atoms: C_14  and  C_6 
REMARK    5  A    between atoms: C_7  and  C_8 
REMARK    6  A    between atoms: C_8  and  C_12 
REMARK    7  A    between atoms: C_9  and  C_11 
REMARK    8  A    between atoms: C_13  and  C_9 
REMARK    9  A    between atoms: C_10  and  C_13 
REMARK   10  A    between atoms: C_12  and  C_10 
REMARK   11  A    between atoms: C_11  and  C_14 
ROOT
ATOM      1  C   UNL d   1       3.032   0.556   1.202  0.00  0.00     0.009 C 
ENDROOT
BRANCH   1   2
ATOM      2  C   UNL d   1       2.455  -0.047  -0.075  0.00  0.00     0.104 C 
BRANCH   2   3
ATOM      3  C   UNL d   1       0.940  -0.046  -0.045  0.00  0.00     0.231 C 
ATOM      4  O   UNL d   1       0.263   0.368   0.890  0.00  0.00    -0.272 OA
ATOM      5  N   UNL d   1       0.380  -0.604  -1.191  0.00  0.00    -0.294 N 
ATOM      6  H   UNL d   1       0.943  -0.709  -2.032  0.00  0.00     0.183 HD
BRANCH   5   7
ATOM      7  N   UNL d   1      -1.026  -0.651  -1.305  0.00  0.00    -0.247 NA
ATOM      8  H   UNL d   1      -1.405  -0.139  -0.494  0.00  0.00     0.143 HD
ATOM      9  H   UNL d   1      -1.319  -1.617  -1.137  0.00  0.00     0.143 HD
ENDBRANCH   5   7
ENDBRANCH   2   3
ENDBRANCH   1   2
BRANCH   1  10
ATOM     10  C   UNL d   1       4.559   0.551   1.197  0.00  0.00     0.000 C 
BRANCH  10  11
ATOM     11  C   UNL d   1       5.096   1.166   2.489  0.00  0.00     0.000 C 
BRANCH  11  12
ATOM     12  C   UNL d   1       6.622   1.175   2.512  0.00  0.00     0.000 C 
BRANCH  12  13
ATOM     13  C   UNL d   1       7.142   1.793   3.809  0.00  0.00     0.000 C 
BRANCH  13  14
ATOM     14  C   UNL d   1       8.668   1.806   3.835  0.00  0.00     0.000 C 
BRANCH  14  15
ATOM     15  C   UNL d   1       9.194   2.420   5.131  0.00  0.00     0.000 C 
BRANCH  15  16
ATOM     16  C   UNL d   1      10.721   2.427   5.149  0.00  0.00    -0.000 C 
BRANCH  16  17
ATOM     17  C   UNL d   1      11.259   3.040   6.439  0.00  0.00    -0.005 C 
ATOM     18  C   UNL d   1      12.779   3.045   6.452  0.00  0.00     0.005 C 
ENDBRANCH  16  17
ENDBRANCH  15  16
ENDBRANCH  14  15
ENDBRANCH  13  14
ENDBRANCH  12  13
ENDBRANCH  11  12
ENDBRANCH  10  11
ENDBRANCH   1  10
TORSDOF 11
