REMARK  5 active torsions:
REMARK  status: ('A' for Active; 'I' for Inactive)
REMARK    1  A    between atoms: N_2  and  C_1 
REMARK    2  A    between atoms: S_7  and  C_3 
REMARK    3  A    between atoms: C_6  and  C_5 
REMARK    4  A    between atoms: O_16  and  C_6 
REMARK    5  A    between atoms: C_9  and  S_7 
ROOT
ATOM      1  C   UNL d   1       1.390  -0.118  -0.151  0.00  0.00     0.121 A 
ATOM      2  C   UNL d   1       0.616  -1.283  -0.059  0.00  0.00     0.040 A 
ATOM      3  C   UNL d   1       0.812   1.163  -0.093  0.00  0.00     0.055 A 
ATOM      4  C   UNL d   1      -0.572   1.288   0.055  0.00  0.00     0.040 A 
ATOM      5  C   UNL d   1      -0.776  -1.131   0.039  0.00  0.00     0.022 A 
ATOM      6  C   UNL d   1      -1.370   0.139   0.082  0.00  0.00     0.020 A 
ENDROOT
BRANCH   2   7
ATOM      7  S   UNL d   1       1.252  -2.949   0.041  0.00  0.00    -0.070 SA
BRANCH   7   8
ATOM      8  C   UNL d   1       1.405  -3.448  -1.663  0.00  0.00     0.074 A 
ATOM      9  N   UNL d   1       1.139  -2.547  -2.635  0.00  0.00    -0.360 N 
ATOM     10  C   UNL d   1       1.294  -2.962  -3.913  0.00  0.00     0.089 A 
ATOM     11  HN  UNL d   1       0.834  -1.599  -2.415  1.00  0.00     0.166 HD
ATOM     12  C   UNL d   1       1.700  -4.240  -4.271  0.00  0.00     0.017 A 
ATOM     13  C   UNL d   1       1.956  -5.153  -3.258  0.00  0.00     0.004 A 
ATOM     14  C   UNL d   1       1.807  -4.753  -1.933  0.00  0.00     0.037 A 
ENDBRANCH   7   8
ENDBRANCH   2   7
BRANCH   1  15
ATOM     15  N   UNL d   1       2.834  -0.177  -0.297  0.00  0.00    -0.114 N 
ATOM     16  O   UNL d   1       3.471  -0.730   0.608  0.00  0.00    -0.532 OA
ATOM     17  O   UNL d   1       3.322   0.403  -1.276  0.00  0.00    -0.532 OA
ENDBRANCH   1  15
BRANCH   4  18
ATOM     18  C   UNL d   1      -1.147   2.654   0.146  0.00  0.00     0.176 C 
ATOM     19  O   UNL d   1      -0.616   3.624  -0.367  0.00  0.00    -0.646 OA
BRANCH  18  20
ATOM     20  O   UNL d   1      -2.269   2.734   0.888  0.00  0.00    -0.773 OA
ATOM     21  H   UNL d   1      -2.499   1.942   1.406  0.00  0.00     0.167 HD
ENDBRANCH  18  20
ENDBRANCH   4  18
TORSDOF 5
