REMARK  2 active torsions:
REMARK  status: ('A' for Active; 'I' for Inactive)
REMARK    1  A    between atoms: C_2  and  C_1 
REMARK       I    between atoms: N_3  and  C_1 
REMARK    2  A    between atoms: C_4  and  N_3 
ROOT
ATOM      1  C   UNL d   1       0.935   0.014   0.103  0.00  0.00     0.259 C 
ATOM      2  N   UNL d   1       0.147  -1.119   0.006  0.00  0.00    -0.320 N 
ATOM      3  O   UNL d   1       2.150   0.048  -0.069  0.00  0.00    -0.267 OA
ATOM      4  H   UNL d   1      -0.850  -0.975  -0.110  0.00  0.00     0.169 HD
ENDROOT
BRANCH   2   5
ATOM      5  C   UNL d   1       0.615  -2.443  -0.151  0.00  0.00     0.074 A 
ATOM      6  C   UNL d   1       1.878  -2.896   0.262  0.00  0.00     0.146 A 
ATOM      7  C   UNL d   1       2.287  -4.205   0.026  0.00  0.00     0.086 A 
ATOM      8  F   UNL d   1       2.698  -2.123   0.986  0.00  0.00    -0.204 F 
ATOM      9  C   UNL d   1       1.420  -5.081  -0.608  0.00  0.00     0.119 A 
ATOM     10  C   UNL d   1       0.143  -4.677  -0.980  0.00  0.00     0.044 A 
ATOM     11  F   UNL d   1       1.810  -6.339  -0.849  0.00  0.00    -0.206 F 
ATOM     12  C   UNL d   1      -0.266  -3.362  -0.740  0.00  0.00     0.036 A 
ENDBRANCH   2   5
BRANCH   1  13
ATOM     13  C   UNL d   1       0.234   1.305   0.370  0.00  0.00     0.070 A 
ATOM     14  C   UNL d   1      -1.153   1.415   0.491  0.00  0.00     0.132 A 
ATOM     15  F   UNL d   1      -1.948   0.346   0.328  0.00  0.00    -0.205 F 
ATOM     16  C   UNL d   1      -1.757   2.640   0.773  0.00  0.00     0.043 A 
ATOM     17  C   UNL d   1      -0.973   3.782   0.936  0.00  0.00     0.003 A 
ATOM     18  C   UNL d   1       0.412   3.695   0.804  0.00  0.00     0.001 A 
ATOM     19  C   UNL d   1       1.012   2.465   0.522  0.00  0.00     0.020 A 
ENDBRANCH   1  13
TORSDOF 2
