REMARK  3 active torsions:
REMARK  status: ('A' for Active; 'I' for Inactive)
REMARK    1  A    between atoms: C_7  and  C_4 
REMARK    2  A    between atoms: C_9  and  C_8 
REMARK    3  A    between atoms: C_11  and  C_10 
ROOT
ATOM      1  C   UNL d   1      -0.770   2.474  -0.039  0.00  0.00     0.031 C 
ATOM      2  C   UNL d   1      -0.005   3.578  -0.055  0.00  0.00     0.002 C 
ENDROOT
BRANCH   2   3
ATOM      3  C   UNL d   1      -0.541   4.920  -0.025  0.00  0.00     0.001 C 
ATOM      4  C   UNL d   1       0.244   6.010  -0.009  0.00  0.00     0.011 C 
BRANCH   4   5
ATOM      5  C   UNL d   1      -0.247   7.395   0.067  0.00  0.00    -0.036 A 
ATOM      6  C   UNL d   1      -1.422   7.739   0.749  0.00  0.00     0.011 A 
ATOM      7  C   UNL d   1      -1.828   9.072   0.845  0.00  0.00     0.001 A 
ATOM      8  C   UNL d   1      -1.057  10.079   0.270  0.00  0.00     0.000 A 
ATOM      9  C   UNL d   1       0.120   9.754  -0.399  0.00  0.00     0.001 A 
ATOM     10  C   UNL d   1       0.525   8.420  -0.496  0.00  0.00     0.011 A 
ENDBRANCH   4   5
ENDBRANCH   2   3
BRANCH   1  11
ATOM     11  C   UNL d   1      -0.265   1.134  -0.033  0.00  0.00     0.049 A 
ATOM     12  N   UNL d   1       1.034   0.805  -0.035  0.00  0.00    -0.301 N 
ATOM     13  N   UNL d   1       1.041  -0.535  -0.014  0.00  0.00    -0.311 N 
ATOM     14  HN  UNL d   1       1.838   1.434  -0.050  1.00  0.00     0.187 HD
ATOM     15  C   UNL d   1      -0.205  -1.085  -0.001  0.00  0.00     0.109 A 
ATOM     16  H   UNL d   1       1.938  -1.009  -0.007  0.00  0.00     0.186 HD
ATOM     17  C   UNL d   1      -1.080  -0.026  -0.014  0.00  0.00     0.049 A 
ENDBRANCH   1  11
TORSDOF 3
