REMARK  5 active torsions:
REMARK  status: ('A' for Active; 'I' for Inactive)
REMARK    1  A    between atoms: S_6  and  C_1 
REMARK    2  A    between atoms: C_12  and  S_6 
REMARK    3  A    between atoms: O_13  and  N_7 
REMARK    4  A    between atoms: C_9  and  C_10 
REMARK    5  A    between atoms: C_15  and  C_12 
ROOT
ATOM      1  C   UNL d   1       0.084   1.297  -0.052  0.00  0.00     0.144 A 
ATOM      2  N   UNL d   1      -1.046   0.859  -0.623  0.00  0.00    -0.336 N 
ATOM      3  HN  UNL d   1      -1.737   1.496  -1.019  1.00  0.00     0.168 HD
ATOM      4  N   UNL d   1       1.026   0.503   0.485  0.00  0.00    -0.347 N 
ATOM      5  HN  UNL d   1       1.870   0.889   0.906  1.00  0.00     0.167 HD
ATOM      6  C   UNL d   1      -1.210  -0.479  -0.639  0.00  0.00     0.052 A 
ATOM      7  C   UNL d   1       0.805  -0.823   0.443  0.00  0.00     0.092 A 
ATOM      8  C   UNL d   1      -0.313  -1.382  -0.116  0.00  0.00     0.048 A 
ENDROOT
BRANCH   1   9
ATOM      9  S   UNL d   1       0.412   3.038  -0.030  0.00  0.00    -0.089 SA
BRANCH   9  10
ATOM     10  C   UNL d   1      -1.292   3.666   0.024  0.00  0.00     0.121 C 
BRANCH  10  11
ATOM     11  C   UNL d   1      -1.321   5.175   0.071  0.00  0.00    -0.049 A 
ATOM     12  C   UNL d   1      -1.370   5.921  -1.116  0.00  0.00     0.008 A 
ATOM     13  C   UNL d   1      -1.380   7.316  -1.077  0.00  0.00     0.001 A 
ATOM     14  C   UNL d   1      -1.335   7.980   0.147  0.00  0.00     0.000 A 
ATOM     15  C   UNL d   1      -1.279   7.251   1.334  0.00  0.00     0.001 A 
ATOM     16  C   UNL d   1      -1.269   5.855   1.297  0.00  0.00     0.008 A 
ENDBRANCH  10  11
ENDBRANCH   9  10
ENDBRANCH   1   9
BRANCH   6  17
ATOM     17  C   UNL d   1      -2.457  -0.941  -1.277  0.00  0.00     0.143 C 
ATOM     18  N   UNL d   1      -2.775  -2.196  -1.357  0.00  0.00    -0.278 N 
ATOM     19  HN  UNL d   1      -2.219  -2.973  -1.002  1.00  0.00     0.193 HD
BRANCH  18  20
ATOM     20  O   UNL d   1      -4.008  -2.308  -2.011  0.00  0.00    -0.290 OA
ATOM     21  H   UNL d   1      -4.157  -3.272  -2.022  0.00  0.00     0.244 HD
ENDBRANCH  18  20
ENDBRANCH   6  17
TORSDOF 5
