REMARK  7 active torsions:
REMARK  status: ('A' for Active; 'I' for Inactive)
REMARK    1  A    between atoms: C_3  and  S_1 
REMARK    2  A    between atoms: C_6  and  S_1 
REMARK       I    between atoms: C_2  and  N_4 
REMARK       I    between atoms: N_5  and  C_2 
REMARK    3  A    between atoms: C_12  and  C_3 
REMARK    4  A    between atoms: N_4  and  C_12 
REMARK    5  A    between atoms: C_11  and  N_4 
REMARK    6  A    between atoms: C_19  and  N_5 
REMARK    7  A    between atoms: C_7  and  C_11 
ROOT
ATOM      1  C   UNL d   1      -0.057  -4.556  -0.018  0.00  0.00     0.323 C 
ATOM      2  N   UNL d   1       0.263  -3.781  -1.147  0.00  0.00    -0.328 N 
ATOM      3  N   UNL d   1       0.160  -3.956   1.204  0.00  0.00    -0.309 N 
ATOM      4  O   UNL d   1      -0.512  -5.694  -0.136  0.00  0.00    -0.247 OA
ATOM      5  H   UNL d   1       0.315  -2.962   1.198  0.00  0.00     0.170 HD
ENDROOT
BRANCH   2   6
ATOM      6  C   UNL d   1       0.856  -2.420  -1.166  0.00  0.00     0.143 C 
BRANCH   6   7
ATOM      7  C   UNL d   1      -0.089  -1.339  -1.715  0.00  0.00     0.165 C 
BRANCH   7   8
ATOM      8  S   UNL d   1       0.697   0.257  -1.653  0.00  0.00     0.177 S 
ATOM      9  O   UNL d   1       1.895   0.199  -2.466  0.00  0.00    -0.223 OA
ATOM     10  O   UNL d   1       0.764   0.652  -0.260  0.00  0.00    -0.223 OA
BRANCH   8  11
ATOM     11  C   UNL d   1      -0.433   1.378  -2.470  0.00  0.00     0.059 A 
ATOM     12  C   UNL d   1      -1.375   2.089  -1.717  0.00  0.00     0.025 A 
ATOM     13  C   UNL d   1      -2.187   3.043  -2.340  0.00  0.00     0.025 A 
ATOM     14  C   UNL d   1      -2.050   3.292  -3.706  0.00  0.00     0.034 A 
ATOM     15  C   UNL d   1      -1.103   2.590  -4.458  0.00  0.00     0.025 A 
ATOM     16 CL   UNL d   1      -3.032   4.484  -4.463  0.00  0.00    -0.084 Cl
ATOM     17  C   UNL d   1      -0.287   1.636  -3.840  0.00  0.00     0.025 A 
ENDBRANCH   8  11
ENDBRANCH   7   8
ENDBRANCH   6   7
ENDBRANCH   2   6
BRANCH   2  18
ATOM     18  C   UNL d   1      -0.059  -4.371  -2.457  0.00  0.00     0.173 C 
BRANCH  18  19
ATOM     19  C   UNL d   1       0.985  -5.286  -3.040  0.00  0.00     0.000 C 
ATOM     20  S   UNL d   1       1.556  -4.995  -4.640  0.00  0.00    -0.105 SA
ATOM     21  C   UNL d   1       2.279  -6.541  -4.742  0.00  0.00     0.050 C 
ATOM     22  C   UNL d   1       2.186  -7.227  -3.554  0.00  0.00     0.008 C 
ATOM     23  C   UNL d   1       1.477  -6.486  -2.559  0.00  0.00     0.017 C 
ENDBRANCH  18  19
ENDBRANCH   2  18
BRANCH   3  24
ATOM     24  C   UNL d   1       0.046  -4.515   2.499  0.00  0.00     0.036 A 
ATOM     25  C   UNL d   1      -0.220  -5.860   2.784  0.00  0.00     0.031 A 
ATOM     26  C   UNL d   1      -0.294  -6.309   4.115  0.00  0.00     0.026 A 
ATOM     27  C   UNL d   1      -0.097  -5.418   5.166  0.00  0.00     0.034 A 
ATOM     28  C   UNL d   1       0.171  -4.080   4.903  0.00  0.00     0.026 A 
ATOM     29 CL   UNL d   1      -0.181  -5.968   6.794  0.00  0.00    -0.084 Cl
ATOM     30  C   UNL d   1       0.242  -3.635   3.576  0.00  0.00     0.031 A 
ENDBRANCH   3  24
TORSDOF 7
