REMARK  6 active torsions:
REMARK  status: ('A' for Active; 'I' for Inactive)
REMARK    1  A    between atoms: C_8  and  C_1 
REMARK    2  A    between atoms: C_2  and  C_4 
REMARK    3  A    between atoms: C_3  and  C_2 
REMARK       I    between atoms: C_4  and  N_6 
REMARK    4  A    between atoms: N_6  and  C_8 
REMARK    5  A    between atoms: O_17  and  C_7 
REMARK    6  A    between atoms: O_18  and  C_15 
ROOT
ATOM      1  C   UNL d   1       2.718  -0.588   0.543  0.00  0.00     0.164 C 
ENDROOT
BRANCH   1   2
ATOM      2  N   UNL d   1       3.450   0.651   0.705  0.00  0.00    -0.356 N 
ATOM      3  C   UNL d   1       4.041   1.297  -0.361  0.00  0.00     0.222 C 
ATOM      4  O   UNL d   1       4.101   0.823  -1.492  0.00  0.00    -0.273 OA
ATOM      5  H   UNL d   1       3.462   1.082   1.620  0.00  0.00     0.162 HD
BRANCH   3   6
ATOM      6  C   UNL d   1       4.573   2.680  -0.036  0.00  0.00     0.148 C 
BRANCH   6   7
ATOM      7  C   UNL d   1       5.916   2.591   0.615  0.00  0.00    -0.009 A 
ATOM      8  S   UNL d   1       6.072   2.812   2.307  0.00  0.00    -0.106 SA
ATOM      9  C   UNL d   1       7.773   2.651   2.234  0.00  0.00     0.050 A 
ATOM     10  C   UNL d   1       8.215   2.416   0.952  0.00  0.00     0.008 A 
ATOM     11  C   UNL d   1       7.141   2.375   0.017  0.00  0.00     0.015 A 
ENDBRANCH   6   7
ENDBRANCH   3   6
ENDBRANCH   1   2
BRANCH   1  12
ATOM     12  C   UNL d   1       1.225  -0.411   0.345  0.00  0.00    -0.004 A 
ATOM     13  C   UNL d   1       0.364  -1.515   0.259  0.00  0.00     0.076 A 
ATOM     14  C   UNL d   1      -1.018  -1.331   0.105  0.00  0.00     0.040 A 
ATOM     15  C   UNL d   1      -1.567  -0.049   0.023  0.00  0.00     0.039 A 
ATOM     16  C   UNL d   1      -0.737   1.060   0.117  0.00  0.00     0.069 A 
ATOM     17  C   UNL d   1       0.642   0.871   0.263  0.00  0.00     0.048 A 
BRANCH  13  18
ATOM     18  O   UNL d   1       0.756  -2.814   0.455  0.00  0.00    -0.355 OA
ATOM     19  C   UNL d   1       1.678  -3.309  -0.513  0.00  0.00     0.210 C 
ENDBRANCH  13  18
BRANCH  16  20
ATOM     20  O   UNL d   1      -1.129   2.370   0.100  0.00  0.00    -0.356 OA
ATOM     21  C   UNL d   1      -2.525   2.626   0.021  0.00  0.00     0.210 C 
ENDBRANCH  16  20
ENDBRANCH   1  12
TORSDOF 6
