REMARK  5 active torsions:
REMARK  status: ('A' for Active; 'I' for Inactive)
REMARK    1  A    between atoms: S_23  and  C_3 
REMARK    2  A    between atoms: C_9  and  C_4 
REMARK       I    between atoms: C_11  and  N_6 
REMARK    3  A    between atoms: C_15  and  C_11 
REMARK    4  A    between atoms: C_12  and  C_17 
REMARK    5  A    between atoms: O_28  and  N_21 
ROOT
ATOM      1  N   UNL d   1       3.146   4.249   0.014  0.00  0.00    -0.231 N 
ATOM      2  N   UNL d   1       2.079   3.394  -0.100  0.00  0.00    -0.290 N 
ATOM      3  HN  UNL d   1       1.093   3.636  -0.194  1.00  0.00     0.187 HD
ATOM      4  C   UNL d   1       2.626   2.166  -0.060  0.00  0.00     0.067 A 
ATOM      5  C   UNL d   1       2.998   5.650   0.104  0.00  0.00     0.276 C 
ATOM      6  C   UNL d   1       4.045   2.240  -0.031  0.00  0.00     0.051 A 
ATOM      7  C   UNL d   1       4.341   3.571   0.054  0.00  0.00     0.122 A 
ATOM      8  O   UNL d   1       3.961   6.290   0.522  0.00  0.00    -0.265 OA
ENDROOT
BRANCH   4   9
ATOM      9  C   UNL d   1       1.855   0.857  -0.036  0.00  0.00     0.041 A 
ATOM     10  C   UNL d   1       0.481   0.657   0.007  0.00  0.00    -0.024 A 
ATOM     11  C   UNL d   1       0.148  -0.770   0.033  0.00  0.00     0.020 A 
ATOM     12  C   UNL d   1      -0.607   1.714   0.012  0.00  0.00     0.050 C 
ATOM     13  C   UNL d   1       1.274  -1.569  -0.023  0.00  0.00     0.054 A 
ATOM     14  C   UNL d   1      -1.248  -1.209   0.097  0.00  0.00     0.045 C 
ATOM     15  S   UNL d   1       2.698  -0.639  -0.037  0.00  0.00    -0.080 SA
ATOM     16  C   UNL d   1      -2.271  -0.182  -0.353  0.00  0.00     0.069 C 
ATOM     17  N   UNL d   1      -1.524  -2.379   0.589  0.00  0.00    -0.271 N 
ATOM     18  C   UNL d   1      -2.021   1.159   0.373  0.00  0.00    -0.038 C 
ATOM     19  C   UNL d   1      -3.105   2.155  -0.078  0.00  0.00     0.015 C 
ATOM     20  C   UNL d   1      -2.159   0.975   1.901  0.00  0.00     0.015 C 
ATOM     21  HN  UNL d   1      -0.821  -3.044   0.910  1.00  0.00     0.194 HD
BRANCH  13  22
ATOM     22  S   UNL d   1       1.388  -3.323  -0.168  0.00  0.00    -0.126 SA
ATOM     23  C   UNL d   1       1.729  -3.778   1.546  0.00  0.00     0.096 C 
ENDBRANCH  13  22
BRANCH  17  24
ATOM     24  O   UNL d   1      -2.905  -2.616   0.626  0.00  0.00    -0.285 OA
ATOM     25  C   UNL d   1      -3.137  -3.846   1.300  0.00  0.00     0.237 C 
ENDBRANCH  17  24
ENDBRANCH   4   9
BRANCH   5  26
ATOM     26  C   UNL d   1       1.801   6.411  -0.322  0.00  0.00     0.035 A 
ATOM     27  C   UNL d   1       1.439   7.566   0.386  0.00  0.00     0.033 A 
ATOM     28  C   UNL d   1       0.394   8.384  -0.076  0.00  0.00     0.048 A 
ATOM     29  C   UNL d   1      -0.261   8.035  -1.269  0.00  0.00     0.016 A 
ATOM     30  C   UNL d   1       0.114   6.894  -1.981  0.00  0.00     0.002 A 
ATOM     31  C   UNL d   1       1.142   6.080  -1.509  0.00  0.00     0.017 A 
BRANCH  28  32
ATOM     32  C   UNL d   1      -0.021   9.629   0.670  0.00  0.00     0.417 C 
ATOM     33  F   UNL d   1       0.706   9.861   1.798  0.00  0.00    -0.166 F 
ATOM     34  F   UNL d   1       0.095  10.754  -0.088  0.00  0.00    -0.166 F 
ATOM     35  F   UNL d   1      -1.322   9.581   1.069  0.00  0.00    -0.166 F 
ENDBRANCH  28  32
ENDBRANCH   5  26
TORSDOF 5
