REMARK  5 active torsions:
REMARK  status: ('A' for Active; 'I' for Inactive)
REMARK    1  A    between atoms: C_7  and  C_2 
REMARK    2  A    between atoms: C_3  and  C_10 
REMARK    3  A    between atoms: S_15  and  C_4 
REMARK    4  A    between atoms: O_22  and  C_10 
REMARK    5  A    between atoms: C_14  and  S_15 
ROOT
ATOM      1  C   UNL d   1      -0.491  -2.931  -0.204  0.00  0.00     0.094 A 
ATOM      2  C   UNL d   1      -1.391  -1.852  -0.107  0.00  0.00     0.079 A 
ATOM      3  C   UNL d   1       0.883  -2.678  -0.265  0.00  0.00     0.096 A 
ATOM      4  N   UNL d   1       1.392  -1.418  -0.197  0.00  0.00    -0.352 N 
ATOM      5  HN  UNL d   1       2.399  -1.260  -0.226  1.00  0.00     0.166 HD
ATOM      6  C   UNL d   1      -0.866  -0.536  -0.028  0.00  0.00    -0.019 A 
ATOM      7  C   UNL d   1       0.525  -0.372  -0.089  0.00  0.00     0.017 A 
ATOM      8  C   UNL d   1      -0.958  -4.289  -0.224  0.00  0.00     0.103 C 
ATOM      9  N   UNL d   1      -1.335  -5.381  -0.218  0.00  0.00    -0.191 NA
ATOM     10  C   UNL d   1      -1.793   0.662   0.029  0.00  0.00     0.041 C 
ATOM     11  C   UNL d   1       1.146   1.006   0.016  0.00  0.00     0.057 C 
ATOM     12  C   UNL d   1      -1.118   1.963   0.451  0.00  0.00     0.005 C 
ATOM     13  C   UNL d   1       0.180   2.144  -0.317  0.00  0.00     0.006 C 
ENDROOT
BRANCH   2  14
ATOM     14  C   UNL d   1      -2.892  -2.063  -0.099  0.00  0.00     0.419 C 
ATOM     15  F   UNL d   1      -3.309  -3.345  -0.243  0.00  0.00    -0.166 F 
ATOM     16  F   UNL d   1      -3.465  -1.627   1.056  0.00  0.00    -0.166 F 
ATOM     17  F   UNL d   1      -3.502  -1.376  -1.105  0.00  0.00    -0.166 F 
ENDBRANCH   2  14
BRANCH   3  18
ATOM     18  S   UNL d   1       2.022  -4.078  -0.392  0.00  0.00    -0.080 SA
BRANCH  18  19
ATOM     19  C   UNL d   1       3.423  -3.396  -1.117  0.00  0.00     0.091 C 
ATOM     20  C   UNL d   1       4.033  -3.883  -2.216  0.00  0.00     0.106 C 
BRANCH  20  21
ATOM     21  C   UNL d   1       5.291  -3.332  -2.635  0.00  0.00     0.110 A 
ATOM     22  O   UNL d   1       6.201  -3.961  -3.475  0.00  0.00    -0.307 OA
ATOM     23  C   UNL d   1       7.342  -3.197  -3.512  0.00  0.00     0.086 A 
ATOM     24  C   UNL d   1       8.530  -3.475  -4.191  0.00  0.00     0.038 A 
ATOM     25  C   UNL d   1       7.172  -2.062  -2.736  0.00  0.00     0.001 A 
ATOM     26  C   UNL d   1       9.579  -2.553  -4.023  0.00  0.00     0.003 A 
ATOM     27  C   UNL d   1       9.438  -1.422  -3.213  0.00  0.00     0.001 A 
ATOM     28  C   UNL d   1       8.229  -1.161  -2.568  0.00  0.00     0.014 A 
ATOM     29  C   UNL d   1       5.851  -2.120  -2.258  0.00  0.00     0.054 A 
ENDBRANCH  20  21
BRANCH  20  30
ATOM     30  O   UNL d   1       3.545  -4.944  -2.949  0.00  0.00    -0.357 OA
ATOM     31  H   UNL d   1       4.202  -5.153  -3.638  0.00  0.00     0.217 HD
ENDBRANCH  20  30
ENDBRANCH  18  19
ENDBRANCH   3  18
TORSDOF 5
