REMARK  4 active torsions:
REMARK  status: ('A' for Active; 'I' for Inactive)
REMARK    1  A    between atoms: N_6  and  C_1 
REMARK    2  A    between atoms: C_9  and  C_2 
REMARK    3  A    between atoms: N_14  and  C_5 
REMARK    4  A    between atoms: C_15  and  N_10 
ROOT
ATOM      1  C   UNL d   1       0.038  -1.256   0.199  0.00  0.00     0.117 A 
ATOM      2  C   UNL d   1      -1.289  -0.790   0.072  0.00  0.00     0.061 A 
ATOM      3  N   UNL d   1      -1.352   0.548   0.024  0.00  0.00    -0.300 N 
ATOM      4  HN  UNL d   1      -2.179   1.141  -0.053  1.00  0.00     0.186 HD
ATOM      5  C   UNL d   1       0.824  -0.123   0.184  0.00  0.00     0.144 A 
ATOM      6  N   UNL d   1      -0.060   0.920   0.100  0.00  0.00    -0.284 N 
ATOM      7  H   UNL d   1       0.156   1.909   0.088  0.00  0.00     0.188 HD
ENDROOT
BRANCH   1   8
ATOM      8  N   UNL d   1       0.405  -2.607   0.261  0.00  0.00    -0.295 N 
ATOM      9  N   UNL d   1       1.539  -2.807   0.746  0.00  0.00    -0.300 N 
ATOM     10  HN  UNL d   1       2.154  -2.070   1.089  1.00  0.00     0.187 HD
ATOM     11  HN  UNL d   1      -0.201  -3.362  -0.062  1.00  0.00     0.187 HD
BRANCH   9  12
ATOM     12  C   UNL d   1       1.862  -4.178   0.759  0.00  0.00     0.048 A 
ATOM     13  C   UNL d   1       1.640  -5.019  -0.344  0.00  0.00     0.032 A 
ATOM     14  C   UNL d   1       2.016  -6.364  -0.306  0.00  0.00     0.026 A 
ATOM     15  C   UNL d   1       2.629  -6.878   0.834  0.00  0.00     0.034 A 
ATOM     16  C   UNL d   1       2.869  -6.057   1.934  0.00  0.00     0.026 A 
ATOM     17 CL   UNL d   1       3.101  -8.531   0.879  0.00  0.00    -0.084 Cl
ATOM     18  C   UNL d   1       2.488  -4.712   1.892  0.00  0.00     0.032 A 
ENDBRANCH   9  12
ENDBRANCH   1   8
BRANCH   2  19
ATOM     19  C   UNL d   1      -2.512  -1.694  -0.011  0.00  0.00     0.040 A 
ATOM     20  C   UNL d   1      -3.707  -1.225  -0.819  0.00  0.00     0.011 A 
ATOM     21  C   UNL d   1      -3.793  -1.254   0.669  0.00  0.00     0.011 A 
ENDBRANCH   2  19
BRANCH   5  22
ATOM     22  N   UNL d   1       2.160   0.075   0.234  0.00  0.00    -0.382 N 
ATOM     23  H   UNL d   1       2.773  -0.738   0.169  0.00  0.00     0.157 HD
ATOM     24  H   UNL d   1       2.605   0.946  -0.040  0.00  0.00     0.157 HD
ENDBRANCH   5  22
TORSDOF 4
