REMARK  5 active torsions:
REMARK  status: ('A' for Active; 'I' for Inactive)
REMARK    1  A    between atoms: C_7  and  C_1 
REMARK       I    between atoms: C_8  and  N_12 
REMARK    2  A    between atoms: C_9  and  C_8 
REMARK    3  A    between atoms: C_10  and  C_11 
REMARK    4  A    between atoms: O_18  and  C_10 
REMARK    5  A    between atoms: N_12  and  C_14 
ROOT
ATOM      1  C   UNL d   1       2.144  -1.630   0.391  0.00  0.00    -0.004 C 
ATOM      2  C   UNL d   1       2.199  -2.602  -0.616  0.00  0.00     0.043 C 
ATOM      3  C   UNL d   1       3.407  -3.186  -1.001  0.00  0.00     0.035 C 
ATOM      4  C   UNL d   1       3.296  -1.397   1.153  0.00  0.00     0.014 C 
ATOM      5  C   UNL d   1       4.489  -2.058   0.853  0.00  0.00     0.003 C 
ATOM      6  C   UNL d   1       4.552  -2.924  -0.242  0.00  0.00     0.029 C 
ENDROOT
BRANCH   3   7
ATOM      7  N   UNL d   1       3.551  -3.968  -2.172  0.00  0.00    -0.324 N 
ATOM      8  C   UNL d   1       2.576  -4.215  -3.119  0.00  0.00     0.245 C 
ATOM      9  O   UNL d   1       1.391  -3.910  -3.069  0.00  0.00    -0.268 OA
ATOM     10  H   UNL d   1       4.493  -4.275  -2.377  0.00  0.00     0.169 HD
BRANCH   8  11
ATOM     11  C   UNL d   1       3.102  -4.924  -4.313  0.00  0.00     0.081 C 
ATOM     12  C   UNL d   1       2.259  -5.186  -5.327  0.00  0.00     0.086 C 
BRANCH  12  13
ATOM     13  C   UNL d   1       2.757  -5.910  -6.500  0.00  0.00     0.165 C 
ATOM     14  O   UNL d   1       3.913  -6.277  -6.639  0.00  0.00    -0.647 OA
BRANCH  13  15
ATOM     15  O   UNL d   1       1.793  -6.140  -7.413  0.00  0.00    -0.773 OA
ATOM     16  H   UNL d   1       0.906  -5.803  -7.181  0.00  0.00     0.167 HD
ENDBRANCH  13  15
ENDBRANCH  12  13
ENDBRANCH   8  11
ENDBRANCH   3   7
BRANCH   1  17
ATOM     17  C   UNL d   1       0.948  -0.789   0.567  0.00  0.00     0.077 A 
ATOM     18  C   UNL d   1      -0.021  -0.369  -0.394  0.00  0.00     0.057 A 
ATOM     19  C   UNL d   1      -0.864   0.496   0.249  0.00  0.00     0.131 A 
ATOM     20 BR   UNL d   1      -0.137  -0.740  -2.230  0.00  0.00    -0.047 Br
ATOM     21  N   UNL d   1      -0.377   0.593   1.513  0.00  0.00    -0.306 N 
ATOM     22  N   UNL d   1       0.697  -0.182   1.747  0.00  0.00    -0.297 N 
ATOM     23  C   UNL d   1      -0.860   1.506   2.521  0.00  0.00     0.177 C 
ATOM     24  HN  UNL d   1       1.209  -0.289   2.623  1.00  0.00     0.187 HD
ENDBRANCH   1  17
TORSDOF 5
