REMARK  1 active torsions:
REMARK  status: ('A' for Active; 'I' for Inactive)
REMARK    1  A    between atoms: C_2  and  C_1 
REMARK       I    between atoms: N_4  and  C_2 
ROOT
ATOM      1  C   UNL d   1       1.436  -1.586  -0.117  0.00  0.00     0.067 A 
ATOM      2  C   UNL d   1       2.078  -0.395  -0.425  0.00  0.00     0.090 A 
ATOM      3  C   UNL d   1       1.462   0.835  -0.219  0.00  0.00    -0.020 A 
ATOM      4  C   UNL d   1       0.113  -1.510   0.356  0.00  0.00     0.039 A 
ATOM      5  O   UNL d   1       3.335  -0.273  -0.957  0.00  0.00    -0.349 OA
ATOM      6  C   UNL d   1       0.168   0.921   0.266  0.00  0.00     0.029 A 
ATOM      7  C   UNL d   1      -0.509  -0.267   0.540  0.00  0.00     0.012 A 
ATOM      8 BR   UNL d   1      -2.298  -0.198   1.148  0.00  0.00    -0.051 Br
ATOM      9  C   UNL d   1       3.503   1.134  -1.237  0.00  0.00     0.180 C 
ATOM     10  C   UNL d   1       2.393   1.932  -0.559  0.00  0.00     0.068 C 
ENDROOT
BRANCH   1  11
ATOM     11  C   UNL d   1       1.986  -2.934  -0.399  0.00  0.00     0.256 C 
ATOM     12  N   UNL d   1       3.283  -3.287  -0.063  0.00  0.00    -0.344 N 
ATOM     13  C   UNL d   1       3.815  -4.569  -0.530  0.00  0.00     0.152 C 
ATOM     14  C   UNL d   1       4.253  -2.530   0.736  0.00  0.00     0.152 C 
ATOM     15  C   UNL d   1       5.130  -4.341  -1.284  0.00  0.00     0.187 C 
ATOM     16  O   UNL d   1       6.083  -3.641  -0.463  0.00  0.00    -0.388 OA
ATOM     17  C   UNL d   1       5.560  -2.362  -0.055  0.00  0.00     0.187 C 
ATOM     18  O   UNL d   1       1.212  -3.728  -0.940  0.00  0.00    -0.267 OA
ENDBRANCH   1  11
TORSDOF 1
