REMARK  2 active torsions:
REMARK  status: ('A' for Active; 'I' for Inactive)
REMARK    1  A    between atoms: C_7  and  N_1 
REMARK    2  A    between atoms: C_8  and  C_2 
ROOT
ATOM      1  N   UNL d   1      -0.107  -1.393  -0.292  0.00  0.00    -0.207 N 
ATOM      2  C   UNL d   1       1.121  -0.761  -0.127  0.00  0.00     0.150 C 
ATOM      3  N   UNL d   1      -1.040  -0.444  -0.559  0.00  0.00     0.002 NA
ATOM      4  N   UNL d   1      -0.427   0.719  -0.419  0.00  0.00    -0.007 NA
ATOM      5  N   UNL d   1       0.899   0.544  -0.142  0.00  0.00    -0.269 N 
ATOM      6  HN  UNL d   1       1.587   1.279   0.022  1.00  0.00     0.185 HD
ENDROOT
BRANCH   1   7
ATOM      7  C   UNL d   1      -0.455  -2.760  -0.176  0.00  0.00     0.142 A 
ATOM      8  N   UNL d   1       0.434  -3.641   0.360  0.00  0.00    -0.349 N 
ATOM      9  C   UNL d   1       0.018  -4.925   0.455  0.00  0.00     0.106 A 
ATOM     10  HN  UNL d   1       1.360  -3.350   0.672  1.00  0.00     0.167 HD
ATOM     11  C   UNL d   1      -1.228  -5.333   0.015  0.00  0.00     0.104 A 
ATOM     12  N   UNL d   1      -2.117  -4.471  -0.524  0.00  0.00    -0.371 N 
ATOM     13  C   UNL d   1      -1.712  -3.177  -0.600  0.00  0.00     0.138 A 
ATOM     14  HN  UNL d   1      -3.035  -4.772  -0.853  1.00  0.00     0.164 HD
ENDBRANCH   1   7
BRANCH   2  15
ATOM     15  C   UNL d   1       2.444  -1.373  -0.017  0.00  0.00     0.011 A 
ATOM     16  C   UNL d   1       2.860  -2.387  -0.894  0.00  0.00     0.017 A 
ATOM     17  C   UNL d   1       4.143  -2.935  -0.798  0.00  0.00     0.025 A 
ATOM     18  C   UNL d   1       5.029  -2.451   0.160  0.00  0.00     0.034 A 
ATOM     19  C   UNL d   1       4.646  -1.426   1.021  0.00  0.00     0.025 A 
ATOM     20 CL   UNL d   1       6.609  -3.124   0.276  0.00  0.00    -0.084 Cl
ATOM     21  C   UNL d   1       3.360  -0.885   0.929  0.00  0.00     0.017 A 
ENDBRANCH   2  15
TORSDOF 2
