REMARK  2 active torsions:
REMARK  status: ('A' for Active; 'I' for Inactive)
REMARK    1  A    between atoms: N_7  and  C_1 
REMARK    2  A    between atoms: C_4  and  C_10 
REMARK       I    between atoms: C_10  and  N_7 
ROOT
ATOM      1  C   UNL d   1      -0.982   1.640  -0.024  0.00  0.00     0.135 A 
ATOM      2  N   UNL d   1      -2.004   0.786  -0.060  0.00  0.00    -0.282 N 
ATOM      3  HN  UNL d   1      -2.999   1.009  -0.078  1.00  0.00     0.189 HD
ATOM      4  N   UNL d   1      -1.440  -0.427  -0.066  0.00  0.00    -0.294 N 
ATOM      5  C   UNL d   1       0.267   0.946  -0.012  0.00  0.00     0.038 A 
ATOM      6  C   UNL d   1      -0.071  -0.407  -0.035  0.00  0.00     0.064 A 
ATOM      7  C   UNL d   1      -2.287  -1.594  -0.110  0.00  0.00     0.178 C 
ATOM      8  C   UNL d   1       1.631   1.301   0.018  0.00  0.00     0.017 A 
ATOM      9  C   UNL d   1       0.885  -1.432  -0.028  0.00  0.00     0.032 A 
ATOM     10  C   UNL d   1       2.600   0.288   0.028  0.00  0.00     0.001 A 
ATOM     11  C   UNL d   1       2.230  -1.055   0.007  0.00  0.00     0.002 A 
ENDROOT
BRANCH   1  12
ATOM     12  N   UNL d   1      -1.126   3.012  -0.015  0.00  0.00    -0.306 N 
ATOM     13  C   UNL d   1      -2.339   3.673  -0.026  0.00  0.00     0.275 C 
ATOM     14  O   UNL d   1      -3.460   3.176   0.009  0.00  0.00    -0.266 OA
ATOM     15  H   UNL d   1      -0.288   3.578  -0.025  0.00  0.00     0.170 HD
BRANCH  13  16
ATOM     16  C   UNL d   1      -2.197   5.132  -0.105  0.00  0.00     0.125 A 
ATOM     17  N   UNL d   1      -1.002   5.752  -0.092  0.00  0.00    -0.256 N 
ATOM     18  O   UNL d   1      -1.281   7.105  -0.222  0.00  0.00    -0.242 OA
ATOM     19  HN  UNL d   1      -0.083   5.317  -0.006  1.00  0.00     0.195 HD
ATOM     20  C   UNL d   1      -2.626   7.287  -0.315  0.00  0.00     0.075 A 
ATOM     21  C   UNL d   1      -3.251   6.072  -0.225  0.00  0.00     0.071 A 
ATOM     22  C   UNL d   1      -3.101   8.669  -0.498  0.00  0.00     0.079 C 
ENDBRANCH  13  16
ENDBRANCH   1  12
TORSDOF 2
