REMARK  5 active torsions:
REMARK  status: ('A' for Active; 'I' for Inactive)
REMARK    1  A    between atoms: C_7  and  S_1 
REMARK    2  A    between atoms: C_8  and  S_1 
REMARK    3  A    between atoms: C_2  and  S_12 
REMARK    4  A    between atoms: C_16  and  C_8 
REMARK    5  A    between atoms: S_12  and  C_16 
ROOT
ATOM      1  C   UNL d   1       0.394   1.516  -0.362  0.00  0.00     0.156 C 
ENDROOT
BRANCH   1   2
ATOM      2  S   UNL d   1       1.302  -0.014  -0.330  0.00  0.00     0.176 S 
ATOM      3  O   UNL d   1       2.590   0.205  -0.965  0.00  0.00    -0.223 OA
ATOM      4  O   UNL d   1       1.217  -0.561   1.010  0.00  0.00    -0.223 OA
BRANCH   2   5
ATOM      5  C   UNL d   1       0.341  -1.059  -1.399  0.00  0.00     0.059 A 
ATOM      6  C   UNL d   1       0.641  -1.129  -2.760  0.00  0.00     0.024 A 
ATOM      7  C   UNL d   1      -0.144  -1.923  -3.598  0.00  0.00     0.008 A 
ATOM      8  C   UNL d   1      -1.220  -2.657  -3.081  0.00  0.00    -0.062 A 
ATOM      9  C   UNL d   1      -1.494  -2.599  -1.707  0.00  0.00     0.008 A 
ATOM     10  C   UNL d   1      -2.074  -3.484  -4.000  0.00  0.00     0.048 C 
ATOM     11  C   UNL d   1      -0.713  -1.807  -0.862  0.00  0.00     0.024 A 
ENDBRANCH   2   5
ENDBRANCH   1   2
BRANCH   1  12
ATOM     12  C   UNL d   1       1.016   2.552   0.560  0.00  0.00     0.095 C 
BRANCH  12  13
ATOM     13  S   UNL d   1      -0.028   4.052   0.497  0.00  0.00    -0.122 SA
BRANCH  13  14
ATOM     14  C   UNL d   1       0.872   5.158   1.503  0.00  0.00     0.041 C 
ATOM     15  C   UNL d   1       0.459   5.354   2.757  0.00  0.00     0.075 C 
ATOM     16  C   UNL d   1       1.064   6.304   3.704  0.00  0.00     0.152 C 
ATOM     17  O   UNL d   1       0.738   6.217   4.890  0.00  0.00    -0.293 OA
ATOM     18  C   UNL d   1       2.042   7.364   3.262  0.00  0.00     0.103 C 
ATOM     19  C   UNL d   1       2.340   7.515   1.765  0.00  0.00     0.013 C 
ATOM     20  S   UNL d   1       2.237   5.957   0.817  0.00  0.00    -0.113 SA
ATOM     21  C   UNL d   1       1.430   8.577   1.121  0.00  0.00     0.027 C 
ATOM     22  C   UNL d   1       3.803   7.980   1.609  0.00  0.00     0.027 C 
ENDBRANCH  13  14
ENDBRANCH  12  13
ENDBRANCH   1  12
TORSDOF 5
