REMARK  6 active torsions:
REMARK  status: ('A' for Active; 'I' for Inactive)
REMARK    1  A    between atoms: C_17  and  N_3 
REMARK    2  A    between atoms: C_8  and  C_4 
REMARK    3  A    between atoms: O_10  and  C_8 
REMARK    4  A    between atoms: C_9  and  O_10 
REMARK    5  A    between atoms: O_22  and  C_12 
REMARK    6  A    between atoms: C_14  and  C_13 
ROOT
ATOM      1  C   UNL d   1      -2.722  -0.037  -0.622  0.00  0.00     0.319 C 
ATOM      2  O   UNL d   1      -1.578  -0.020  -0.179  0.00  0.00    -0.257 OA
ENDROOT
BRANCH   1   3
ATOM      3  C   UNL d   1      -3.312  -1.194  -1.301  0.00  0.00     0.149 A 
ATOM      4  N   UNL d   1      -4.587  -1.188  -1.743  0.00  0.00    -0.272 N 
ATOM      5  N   UNL d   1      -4.680  -2.358  -2.420  0.00  0.00    -0.196 N 
ATOM      6  HN  UNL d   1      -5.305  -0.478  -1.602  1.00  0.00     0.189 HD
ATOM      7  N   UNL d   1      -3.597  -3.170  -2.349  0.00  0.00    -0.281 N 
ATOM      8  C   UNL d   1      -2.711  -2.419  -1.679  0.00  0.00     0.058 A 
ATOM      9  HN  UNL d   1      -3.484  -4.115  -2.713  1.00  0.00     0.189 HD
ATOM     10  C   UNL d   1      -1.324  -2.904  -1.502  0.00  0.00     0.072 C 
BRANCH   5  11
ATOM     11  C   UNL d   1      -5.817  -2.679  -3.206  0.00  0.00     0.074 A 
ATOM     12  C   UNL d   1      -6.863  -1.754  -3.343  0.00  0.00     0.033 A 
ATOM     13  C   UNL d   1      -7.960  -2.058  -4.151  0.00  0.00     0.002 A 
ATOM     14  C   UNL d   1      -8.021  -3.284  -4.814  0.00  0.00     0.000 A 
ATOM     15  C   UNL d   1      -6.986  -4.209  -4.673  0.00  0.00     0.002 A 
ATOM     16  C   UNL d   1      -5.882  -3.910  -3.874  0.00  0.00     0.033 A 
ENDBRANCH   5  11
ENDBRANCH   1   3
BRANCH   1  17
ATOM     17  O   UNL d   1      -3.602   1.054  -0.623  0.00  0.00    -0.269 OA
BRANCH  17  18
ATOM     18  C   UNL d   1      -3.022   2.322  -0.484  0.00  0.00     0.130 A 
ATOM     19  C   UNL d   1      -2.213   2.833  -1.513  0.00  0.00     0.048 A 
ATOM     20  C   UNL d   1      -1.616   4.090  -1.385  0.00  0.00     0.031 A 
ATOM     21 BR   UNL d   1      -1.917   1.899  -3.145  0.00  0.00    -0.048 Br
ATOM     22  C   UNL d   1      -1.839   4.876  -0.246  0.00  0.00    -0.030 A 
ATOM     23  C   UNL d   1      -2.708   4.376   0.741  0.00  0.00     0.049 A 
ATOM     24  C   UNL d   1      -3.317   3.117   0.629  0.00  0.00     0.104 A 
BRANCH  22  25
ATOM     25  C   UNL d   1      -1.133   6.196  -0.022  0.00  0.00     0.141 C 
ATOM     26  S   UNL d   1      -1.317   7.379  -1.389  0.00  0.00    -0.148 SA
ATOM     27  C   UNL d   1       0.269   8.203  -1.109  0.00  0.00     0.085 C 
ATOM     28  C   UNL d   1       1.296   7.110  -0.892  0.00  0.00     0.085 C 
ATOM     29  S   UNL d   1       0.643   5.943   0.333  0.00  0.00    -0.148 SA
ENDBRANCH  22  25
BRANCH  24  30
ATOM     30  O   UNL d   1      -4.121   2.817   1.694  0.00  0.00    -0.353 OA
ATOM     31  C   UNL d   1      -5.201   1.919   1.479  0.00  0.00     0.210 C 
ENDBRANCH  24  30
ENDBRANCH  17  18
ENDBRANCH   1  17
TORSDOF 6
