REMARK  6 active torsions:
REMARK  status: ('A' for Active; 'I' for Inactive)
REMARK    1  A    between atoms: S_15  and  C_3 
REMARK    2  A    between atoms: C_9  and  C_4 
REMARK    3  A    between atoms: S_6  and  C_12 
REMARK    4  A    between atoms: C_16  and  S_6 
REMARK    5  A    between atoms: C_12  and  C_19 
REMARK    6  A    between atoms: C_19  and  S_15 
ROOT
ATOM      1  C   UNL d   1       0.027  -0.781   0.070  0.00  0.00     0.041 A 
ATOM      2  C   UNL d   1       0.413   0.618  -0.022  0.00  0.00    -0.021 A 
ATOM      3  C   UNL d   1       1.113  -1.630   0.091  0.00  0.00     0.056 A 
ATOM      4  C   UNL d   1       1.797   0.776  -0.070  0.00  0.00     0.059 A 
ATOM      5  S   UNL d   1       2.575  -0.746  -0.020  0.00  0.00    -0.078 SA
ATOM      6  C   UNL d   1      -1.385  -1.139   0.173  0.00  0.00     0.162 C 
ATOM      7  C   UNL d   1      -0.629   1.728  -0.036  0.00  0.00     0.050 C 
ATOM      8  C   UNL d   1      -2.058   1.230   0.348  0.00  0.00    -0.037 C 
ATOM      9  C   UNL d   1      -2.338  -0.105  -0.364  0.00  0.00     0.093 C 
ATOM     10  O   UNL d   1      -1.806  -2.156   0.728  0.00  0.00    -0.292 OA
ATOM     11  C   UNL d   1      -3.125   2.242  -0.095  0.00  0.00     0.015 C 
ATOM     12  C   UNL d   1      -2.175   1.056   1.880  0.00  0.00     0.015 C 
ENDROOT
BRANCH   3  13
ATOM     13  S   UNL d   1       1.184  -3.384   0.257  0.00  0.00    -0.121 SA
BRANCH  13  14
ATOM     14  C   UNL d   1      -0.055  -3.974  -0.937  0.00  0.00     0.095 C 
BRANCH  14  15
ATOM     15  C   UNL d   1      -0.061  -5.480  -1.094  0.00  0.00     0.156 C 
BRANCH  15  16
ATOM     16  S   UNL d   1       1.300  -6.063  -2.069  0.00  0.00     0.176 S 
ATOM     17  O   UNL d   1       1.272  -5.373  -3.346  0.00  0.00    -0.223 OA
ATOM     18  O   UNL d   1       2.502  -6.089  -1.262  0.00  0.00    -0.223 OA
BRANCH  16  19
ATOM     19  C   UNL d   1       0.850  -7.754  -2.380  0.00  0.00     0.059 A 
ATOM     20  C   UNL d   1       0.165  -8.080  -3.553  0.00  0.00     0.023 A 
ATOM     21  C   UNL d   1      -0.142  -9.413  -3.815  0.00  0.00     0.002 A 
ATOM     22  C   UNL d   1       0.239 -10.408  -2.913  0.00  0.00     0.000 A 
ATOM     23  C   UNL d   1       0.921 -10.074  -1.741  0.00  0.00     0.002 A 
ATOM     24  C   UNL d   1       1.231  -8.743  -1.469  0.00  0.00     0.023 A 
ENDBRANCH  16  19
ENDBRANCH  15  16
ENDBRANCH  14  15
ENDBRANCH  13  14
ENDBRANCH   3  13
BRANCH   4  25
ATOM     25  C   UNL d   1       2.550   2.035  -0.147  0.00  0.00     0.163 C 
ATOM     26  O   UNL d   1       1.976   3.126  -0.217  0.00  0.00    -0.292 OA
ATOM     27  C   UNL d   1       4.065   2.047  -0.137  0.00  0.00     0.097 C 
ENDBRANCH   4  25
TORSDOF 6
