REMARK  5 active torsions:
REMARK  status: ('A' for Active; 'I' for Inactive)
REMARK    1  A    between atoms: C_2  and  C_1 
REMARK    2  A    between atoms: C_5  and  C_15 
REMARK       I    between atoms: N_8  and  C_5 
REMARK    3  A    between atoms: S_9  and  C_6 
REMARK    4  A    between atoms: C_17  and  N_8 
REMARK    5  A    between atoms: C_15  and  S_9 
ROOT
ATOM      1  S   UNL d   1       0.719   3.592   4.809  0.00  0.00    -0.103 SA
ENDROOT
BRANCH   1   2
ATOM      2  C   UNL d   1       0.432   2.374   3.530  0.00  0.00     0.070 A 
ATOM      3  C   UNL d   1       1.455   2.036   2.654  0.00  0.00     0.038 A 
ATOM      4  C   UNL d   1       1.174   1.167   1.598  0.00  0.00     0.020 A 
ATOM      5  C   UNL d   1      -0.118   0.656   1.440  0.00  0.00     0.063 A 
ATOM      6  C   UNL d   1      -1.059   1.013   2.390  0.00  0.00     0.105 A 
ATOM      7  N   UNL d   1      -0.810   1.854   3.420  0.00  0.00    -0.360 N 
ATOM      8  HN  UNL d   1      -1.539   2.089   4.093  1.00  0.00     0.166 HD
BRANCH   5   9
ATOM      9  C   UNL d   1      -0.495  -0.211   0.277  0.00  0.00     0.418 C 
ATOM     10  F   UNL d   1      -1.808  -0.571   0.269  0.00  0.00    -0.166 F 
ATOM     11  F   UNL d   1       0.213  -1.371   0.236  0.00  0.00    -0.166 F 
ATOM     12  F   UNL d   1      -0.273   0.406  -0.916  0.00  0.00    -0.166 F 
ENDBRANCH   5   9
ENDBRANCH   1   2
BRANCH   1  13
ATOM     13  C   UNL d   1      -0.948   3.638   5.535  0.00  0.00     0.184 C 
BRANCH  13  14
ATOM     14  C   UNL d   1      -1.168   4.707   6.590  0.00  0.00     0.231 C 
ATOM     15  N   UNL d   1      -0.351   5.817   6.517  0.00  0.00    -0.327 N 
ATOM     16  H   UNL d   1       0.354   5.804   5.789  0.00  0.00     0.169 HD
ATOM     17  O   UNL d   1      -2.109   4.568   7.375  0.00  0.00    -0.272 OA
BRANCH  15  18
ATOM     18  C   UNL d   1      -0.428   6.985   7.309  0.00  0.00     0.034 A 
ATOM     19  C   UNL d   1      -1.290   7.126   8.402  0.00  0.00     0.029 A 
ATOM     20  C   UNL d   1      -1.349   8.326   9.119  0.00  0.00     0.002 A 
ATOM     21  C   UNL d   1      -0.544   9.399   8.754  0.00  0.00     0.000 A 
ATOM     22  C   UNL d   1       0.334   9.267   7.681  0.00  0.00     0.002 A 
ATOM     23  C   UNL d   1       0.396   8.063   6.967  0.00  0.00     0.029 A 
ENDBRANCH  15  18
ENDBRANCH  13  14
ENDBRANCH   1  13
TORSDOF 5
