REMARK  5 active torsions:
REMARK  status: ('A' for Active; 'I' for Inactive)
REMARK    1  A    between atoms: S_2  and  C_1 
REMARK    2  A    between atoms: C_9  and  S_2 
REMARK    3  A    between atoms: C_5  and  C_4 
REMARK       I    between atoms: N_8  and  C_5 
REMARK    4  A    between atoms: C_10  and  C_17 
REMARK    5  A    between atoms: C_13  and  C_10 
ROOT
ATOM      1  C   UNL d   1       0.599  -2.673  -0.002  0.00  0.00     0.261 C 
ATOM      2  N   UNL d   1      -0.512  -3.513   0.159  0.00  0.00    -0.347 N 
ATOM      3  O   UNL d   1       0.585  -1.796  -0.870  0.00  0.00    -0.267 OA
ATOM      4  C   UNL d   1      -0.808  -4.342   1.323  0.00  0.00     0.127 C 
ATOM      5  C   UNL d   1      -1.516  -3.593  -0.899  0.00  0.00     0.127 C 
ATOM      6  C   UNL d   1      -1.843  -6.058  -0.221  0.00  0.00     0.064 C 
ATOM      7  C   UNL d   1      -0.829  -5.813   0.904  0.00  0.00     0.032 C 
ATOM      8  C   UNL d   1      -1.663  -5.045  -1.370  0.00  0.00     0.032 C 
ENDROOT
BRANCH   1   9
ATOM      9  C   UNL d   1       1.783  -2.856   0.851  0.00  0.00     0.080 C 
ATOM     10  C   UNL d   1       2.648  -1.874   1.350  0.00  0.00    -0.017 C 
ATOM     11  C   UNL d   1       3.747  -2.481   2.082  0.00  0.00     0.078 C 
ATOM     12  C   UNL d   1       2.428  -0.410   1.101  0.00  0.00     0.051 C 
ATOM     13  C   UNL d   1       3.650  -3.856   2.113  0.00  0.00     0.075 C 
ATOM     14  S   UNL d   1       2.409  -4.431   1.120  0.00  0.00    -0.094 SA
BRANCH  11  15
ATOM     15  S   UNL d   1       5.103  -1.690   2.843  0.00  0.00     0.207 S 
ATOM     16  O   UNL d   1       6.111  -2.730   2.969  0.00  0.00    -0.217 OA
ATOM     17  O   UNL d   1       5.350  -0.489   2.082  0.00  0.00    -0.217 OA
BRANCH  15  18
ATOM     18  C   UNL d   1       4.562  -1.255   4.474  0.00  0.00     0.064 A 
ATOM     19  C   UNL d   1       4.807  -2.129   5.540  0.00  0.00     0.025 A 
ATOM     20  C   UNL d   1       4.447  -1.755   6.837  0.00  0.00     0.025 A 
ATOM     21  C   UNL d   1       3.856  -0.511   7.061  0.00  0.00     0.034 A 
ATOM     22  C   UNL d   1       3.627   0.366   6.000  0.00  0.00     0.025 A 
ATOM     23 CL   UNL d   1       3.419  -0.049   8.659  0.00  0.00    -0.084 Cl
ATOM     24  C   UNL d   1       3.987  -0.000   4.700  0.00  0.00     0.025 A 
ENDBRANCH  15  18
ENDBRANCH  11  15
ENDBRANCH   1   9
BRANCH   6  25
ATOM     25  C   UNL d   1      -3.255  -6.025   0.361  0.00  0.00     0.163 C 
ATOM     26  O   UNL d   1      -3.922  -4.994   0.407  0.00  0.00    -0.292 OA
BRANCH  25  27
ATOM     27  C   UNL d   1      -3.817  -7.251   0.994  0.00  0.00     0.010 A 
ATOM     28  C   UNL d   1      -4.657  -7.090   2.107  0.00  0.00     0.018 A 
ATOM     29  C   UNL d   1      -5.269  -8.200   2.692  0.00  0.00     0.043 A 
ATOM     30  C   UNL d   1      -5.041  -9.463   2.160  0.00  0.00     0.116 A 
ATOM     31  C   UNL d   1      -4.199  -9.639   1.068  0.00  0.00     0.043 A 
ATOM     32  F   UNL d   1      -5.653 -10.526   2.698  0.00  0.00    -0.206 F 
ATOM     33  C   UNL d   1      -3.580  -8.532   0.481  0.00  0.00     0.018 A 
ENDBRANCH  25  27
ENDBRANCH   6  25
TORSDOF 5
