REMARK  5 active torsions:
REMARK  status: ('A' for Active; 'I' for Inactive)
REMARK    1  A    between atoms: C_11  and  C_6 
REMARK    2  A    between atoms: C_13  and  C_7 
REMARK    3  A    between atoms: S_17  and  C_8 
REMARK    4  A    between atoms: C_9  and  O_14 
REMARK    5  A    between atoms: O_14  and  C_23 
ROOT
ATOM      1  N   UNL d   1       1.463   1.172   0.068  0.00  0.00    -0.340 N 
ATOM      2  HN  UNL d   1       1.965   2.057   0.144  1.00  0.00     0.167 HD
ATOM      3  C   UNL d   1      -0.588  -0.053  -0.130  0.00  0.00     0.105 A 
ATOM      4  N   UNL d   1       1.521  -1.190  -0.059  0.00  0.00    -0.335 N 
ATOM      5  HN  UNL d   1       2.061  -2.055  -0.063  1.00  0.00     0.168 HD
ATOM      6  C   UNL d   1       2.125   0.005   0.018  0.00  0.00     0.118 A 
ATOM      7  C   UNL d   1       0.106   1.144   0.014  0.00  0.00     0.067 A 
ATOM      8  C   UNL d   1       0.179  -1.207  -0.131  0.00  0.00     0.094 A 
ATOM      9  C   UNL d   1      -2.003  -0.105  -0.312  0.00  0.00     0.104 C 
ATOM     10  N   UNL d   1      -3.155  -0.132  -0.452  0.00  0.00    -0.191 NA
ENDROOT
BRANCH   7  11
ATOM     11  C   UNL d   1      -0.529   2.487   0.098  0.00  0.00    -0.008 A 
ATOM     12  C   UNL d   1      -1.712   2.723   0.825  0.00  0.00     0.016 A 
ATOM     13  C   UNL d   1      -2.346   3.975   0.824  0.00  0.00     0.038 A 
ATOM     14  C   UNL d   1      -1.805   5.029   0.098  0.00  0.00     0.078 A 
ATOM     15  C   UNL d   1      -0.577   4.851  -0.534  0.00  0.00     0.038 A 
ATOM     16  C   UNL d   1       0.049   3.597  -0.542  0.00  0.00     0.016 A 
BRANCH  14  17
ATOM     17  O   UNL d   1      -2.345   6.273  -0.016  0.00  0.00    -0.255 OA
BRANCH  17  18
ATOM     18  C   UNL d   1      -3.762   6.398  -0.060  0.00  0.00     0.530 C 
ATOM     19  F   UNL d   1      -4.414   5.231  -0.239  0.00  0.00    -0.144 F 
ATOM     20  F   UNL d   1      -4.198   6.971   1.083  0.00  0.00    -0.144 F 
ATOM     21  F   UNL d   1      -4.087   7.213  -1.090  0.00  0.00    -0.144 F 
ENDBRANCH  17  18
ENDBRANCH  14  17
ENDBRANCH   7  11
BRANCH   8  22
ATOM     22  S   UNL d   1      -0.578  -2.837  -0.215  0.00  0.00    -0.115 SA
ATOM     23  C   UNL d   1       0.877  -3.910  -0.101  0.00  0.00     0.097 C 
ENDBRANCH   8  22
BRANCH   6  24
ATOM     24  C   UNL d   1       3.592   0.016   0.039  0.00  0.00     0.023 A 
ATOM     25  C   UNL d   1       4.321   1.203   0.081  0.00  0.00     0.102 A 
ATOM     26  N   UNL d   1       5.681   1.284   0.099  0.00  0.00    -0.374 N 
ATOM     27  C   UNL d   1       6.360   0.121   0.072  0.00  0.00     0.087 A 
ATOM     28  HN  UNL d   1       6.161   2.183   0.130  1.00  0.00     0.164 HD
ATOM     29  C   UNL d   1       5.749  -1.117   0.026  0.00  0.00     0.018 A 
ATOM     30  C   UNL d   1       4.354  -1.161   0.009  0.00  0.00     0.018 A 
ENDBRANCH   6  24
TORSDOF 5
