REMARK  2 active torsions:
REMARK  status: ('A' for Active; 'I' for Inactive)
REMARK       I    between atoms: C_3  and  N_1 
REMARK    1  A    between atoms: C_5  and  N_1 
REMARK    2  A    between atoms: C_6  and  C_3 
ROOT
ATOM      1  N   UNL d   1      -1.909   0.397   1.755  0.00  0.00    -0.197 NA
ATOM      2  C   UNL d   1      -1.640  -0.366   0.922  0.00  0.00     0.068 C 
ATOM      3  C   UNL d   1      -1.238  -1.267  -0.156  0.00  0.00     0.226 C 
ENDROOT
BRANCH   3   4
ATOM      4  C   UNL d   1       0.233  -1.151  -0.528  0.00  0.00     0.235 C 
ATOM      5  N   UNL d   1       0.825   0.083  -0.302  0.00  0.00    -0.324 N 
ATOM      6  H   UNL d   1       0.309   0.758   0.251  0.00  0.00     0.169 HD
ATOM      7  O   UNL d   1       0.792  -2.136  -1.004  0.00  0.00    -0.272 OA
BRANCH   5   8
ATOM      8  C   UNL d   1       2.193   0.412  -0.483  0.00  0.00     0.073 A 
ATOM      9  C   UNL d   1       3.094  -0.248  -1.328  0.00  0.00     0.143 A 
ATOM     10  F   UNL d   1       2.693  -1.182  -2.200  0.00  0.00    -0.204 F 
ATOM     11  C   UNL d   1       4.445   0.105  -1.353  0.00  0.00     0.044 A 
ATOM     12  C   UNL d   1       4.915   1.141  -0.549  0.00  0.00     0.003 A 
ATOM     13  C   UNL d   1       4.022   1.849   0.250  0.00  0.00     0.002 A 
ATOM     14  C   UNL d   1       2.669   1.495   0.274  0.00  0.00     0.033 A 
ENDBRANCH   5   8
ENDBRANCH   3   4
TORSDOF 2
