REMARK  10 active torsions:
REMARK  status: ('A' for Active; 'I' for Inactive)
REMARK    1  A    between atoms: C_6  and  C_1 
REMARK    2  A    between atoms: C_7  and  C_1 
REMARK    3  A    between atoms: C_8  and  C_2 
REMARK    4  A    between atoms: N_11  and  C_3 
REMARK    5  A    between atoms: C_5  and  N_11 
REMARK    6  A    between atoms: O_16  and  C_6 
REMARK    7  A    between atoms: O_15  and  C_7 
REMARK    8  A    between atoms: O_17  and  C_8 
REMARK    9  A    between atoms: C_19  and  O_15 
REMARK   10  A    between atoms: C_18  and  O_16 
ROOT
ATOM      1  C   UNL d   1       1.146  -0.110  -0.032  0.00  0.00     0.129 C 
ATOM      2  C   UNL d   1       0.455  -0.921   0.794  0.00  0.00     0.114 C 
ENDROOT
BRANCH   2   3
ATOM      3  N   UNL d   1       0.916  -1.669   1.861  0.00  0.00    -0.345 N 
ATOM      4  H   UNL d   1       1.908  -1.518   2.076  0.00  0.00     0.167 HD
BRANCH   3   5
ATOM      5  C   UNL d   1       0.200  -2.492   2.648  0.00  0.00     0.148 A 
ATOM      6  O   UNL d   1      -0.970  -2.985   2.164  0.00  0.00    -0.288 OA
ATOM      7  C   UNL d   1      -1.473  -3.852   3.095  0.00  0.00     0.152 A 
ATOM      8  C   UNL d   1      -0.649  -3.853   4.206  0.00  0.00     0.048 A 
ATOM      9  C   UNL d   1       0.440  -2.997   3.905  0.00  0.00     0.059 A 
BRANCH   7  10
ATOM     10  C   UNL d   1      -2.677  -4.593   2.805  0.00  0.00     0.317 C 
ATOM     11  O   UNL d   1      -3.228  -5.371   3.575  0.00  0.00    -0.257 OA
BRANCH  10  12
ATOM     12  O   UNL d   1      -3.099  -4.329   1.535  0.00  0.00    -0.321 OA
ATOM     13  C   UNL d   1      -4.251  -5.068   1.133  0.00  0.00     0.213 C 
ENDBRANCH  10  12
ENDBRANCH   7  10
ENDBRANCH   3   5
ENDBRANCH   2   3
BRANCH   1  14
ATOM     14  C   UNL d   1       0.415   0.748  -1.000  0.00  0.00     0.300 C 
ATOM     15  O   UNL d   1       0.863   1.158  -2.056  0.00  0.00    -0.259 OA
BRANCH  14  16
ATOM     16  O   UNL d   1      -0.773   1.128  -0.453  0.00  0.00    -0.318 OA
BRANCH  16  17
ATOM     17  C   UNL d   1      -1.367   2.320  -0.986  0.00  0.00     0.174 C 
ATOM     18  C   UNL d   1      -0.957   3.476  -0.089  0.00  0.00     0.034 C 
ENDBRANCH  16  17
ENDBRANCH  14  16
ENDBRANCH   1  14
BRANCH   1  19
ATOM     19  C   UNL d   1       2.615  -0.018   0.134  0.00  0.00     0.300 C 
ATOM     20  O   UNL d   1       3.244  -0.637   0.988  0.00  0.00    -0.259 OA
BRANCH  19  21
ATOM     21  O   UNL d   1       3.142   0.916  -0.688  0.00  0.00    -0.318 OA
BRANCH  21  22
ATOM     22  C   UNL d   1       4.464   1.365  -0.371  0.00  0.00     0.174 C 
ATOM     23  C   UNL d   1       4.339   2.525   0.599  0.00  0.00     0.034 C 
ENDBRANCH  21  22
ENDBRANCH  19  21
ENDBRANCH   1  19
TORSDOF 10
