REMARK  7 active torsions:
REMARK  status: ('A' for Active; 'I' for Inactive)
REMARK    1  A    between atoms: C_11  and  C_1 
REMARK    2  A    between atoms: C_12  and  C_6 
REMARK    3  A    between atoms: C_13  and  C_9 
REMARK    4  A    between atoms: C_14  and  C_11 
REMARK    5  A    between atoms: O_20  and  C_12 
REMARK    6  A    between atoms: O_24  and  C_13 
REMARK    7  A    between atoms: O_25  and  C_13 
ROOT
ATOM      1  C   UNL d   1      -2.066  -0.154   0.129  0.00  0.00     0.085 C 
ATOM      2  C   UNL d   1       0.360  -0.487   0.326  0.00  0.00     0.088 A 
ATOM      3  C   UNL d   1       0.059   0.847   0.108  0.00  0.00     0.026 A 
ATOM      4  S   UNL d   1      -1.017  -1.456   0.518  0.00  0.00    -0.065 SA
ATOM      5  C   UNL d   1      -1.363   1.039   0.074  0.00  0.00     0.060 C 
ATOM      6  C   UNL d   1       2.462   1.174  -0.076  0.00  0.00     0.068 A 
ATOM      7  N   UNL d   1       1.581  -1.038   0.380  0.00  0.00    -0.348 N 
ATOM      8  HN  UNL d   1       1.717  -2.028   0.583  1.00  0.00     0.166 HD
ATOM      9  C   UNL d   1       2.631  -0.199   0.147  0.00  0.00     0.082 A 
ATOM     10  C   UNL d   1       1.160   1.711  -0.062  0.00  0.00     0.036 A 
ATOM     11  N   UNL d   1      -1.948   2.249  -0.081  0.00  0.00    -0.397 N 
ATOM     12  H   UNL d   1      -1.452   3.103   0.153  0.00  0.00     0.156 HD
ATOM     13  H   UNL d   1      -2.953   2.331   0.106  0.00  0.00     0.156 HD
ENDROOT
BRANCH   1  14
ATOM     14  C   UNL d   1      -3.502  -0.367  -0.016  0.00  0.00     0.201 C 
ATOM     15  O   UNL d   1      -4.335   0.478   0.309  0.00  0.00    -0.286 OA
BRANCH  14  16
ATOM     16  C   UNL d   1      -4.011  -1.639  -0.624  0.00  0.00     0.015 A 
ATOM     17  C   UNL d   1      -3.333  -2.287  -1.665  0.00  0.00     0.016 A 
ATOM     18  C   UNL d   1      -3.812  -3.497  -2.176  0.00  0.00     0.007 A 
ATOM     19  C   UNL d   1      -4.994  -4.057  -1.681  0.00  0.00    -0.062 A 
ATOM     20  C   UNL d   1      -5.697  -3.385  -0.673  0.00  0.00     0.007 A 
ATOM     21  C   UNL d   1      -5.489  -5.360  -2.237  0.00  0.00     0.048 C 
ATOM     22  C   UNL d   1      -5.211  -2.180  -0.150  0.00  0.00     0.016 A 
ENDBRANCH  14  16
ENDBRANCH   1  14
BRANCH   9  23
ATOM     23  C   UNL d   1       4.001  -0.885   0.126  0.00  0.00     0.310 C 
BRANCH  23  24
ATOM     24  O   UNL d   1       4.418  -1.001   1.493  0.00  0.00    -0.360 OA
ATOM     25  C   UNL d   1       5.696  -1.605   1.621  0.00  0.00     0.205 C 
ENDBRANCH  23  24
BRANCH  23  26
ATOM     26  O   UNL d   1       3.944  -2.196  -0.470  0.00  0.00    -0.360 OA
ATOM     27  C   UNL d   1       3.564  -2.188  -1.837  0.00  0.00     0.205 C 
ENDBRANCH  23  26
ENDBRANCH   9  23
BRANCH   6  28
ATOM     28  C   UNL d   1       3.603   2.080  -0.368  0.00  0.00     0.295 C 
ATOM     29  O   UNL d   1       4.735   1.940   0.050  0.00  0.00    -0.259 OA
BRANCH  28  30
ATOM     30  O   UNL d   1       3.179   3.048  -1.221  0.00  0.00    -0.322 OA
ATOM     31  C   UNL d   1       4.174   3.985  -1.643  0.00  0.00     0.213 C 
ENDBRANCH  28  30
ENDBRANCH   6  28
TORSDOF 7
