REMARK  6 active torsions:
REMARK  status: ('A' for Active; 'I' for Inactive)
REMARK       I    between atoms: N_2  and  C_1 
REMARK       I    between atoms: N_7  and  C_1 
REMARK    1  A    between atoms: S_4  and  N_2 
REMARK    2  A    between atoms: C_8  and  S_4 
REMARK    3  A    between atoms: C_5  and  O_6 
REMARK    4  A    between atoms: C_9  and  C_5 
REMARK    5  A    between atoms: O_6  and  C_16 
REMARK    6  A    between atoms: C_17  and  N_7 
ROOT
ATOM      1  C   UNL d   1       2.175   0.430   2.901  0.00  0.00     0.009 A 
ATOM      2  C   UNL d   1       1.874   1.686   2.362  0.00  0.00     0.022 A 
ATOM      3  C   UNL d   1       3.177   0.336   3.874  0.00  0.00     0.022 A 
ATOM      4  C   UNL d   1       3.542   2.714   3.779  0.00  0.00     0.079 A 
ATOM      5  C   UNL d   1       2.563   2.825   2.790  0.00  0.00     0.039 A 
ATOM      6  C   UNL d   1       3.867   1.470   4.310  0.00  0.00     0.039 A 
ENDROOT
BRANCH   1   7
ATOM      7  S   UNL d   1       1.367  -1.118   2.411  0.00  0.00    -0.093 SA
ATOM      8  C   UNL d   1      -0.309  -0.745   2.987  0.00  0.00     0.107 C 
BRANCH   7   9
ATOM      9  N   UNL d   1       1.137  -0.776   0.947  0.00  0.00    -0.288 N 
ATOM     10  C   UNL d   1       2.189  -0.782   0.107  0.00  0.00     0.330 C 
ATOM     11  N   UNL d   1       3.045  -1.857   0.274  0.00  0.00    -0.308 N 
ATOM     12  O   UNL d   1       2.319   0.040  -0.800  0.00  0.00    -0.246 OA
ATOM     13  H   UNL d   1       2.707  -2.499   0.976  0.00  0.00     0.170 HD
ATOM     14  HN  UNL d   1       0.203  -0.546   0.608  1.00  0.00     0.178 HD
BRANCH  11  15
ATOM     15  C   UNL d   1       4.260  -2.139  -0.360  0.00  0.00     0.036 A 
ATOM     16  C   UNL d   1       4.906  -1.257  -1.228  0.00  0.00     0.031 A 
ATOM     17  C   UNL d   1       6.117  -1.615  -1.830  0.00  0.00     0.026 A 
ATOM     18  C   UNL d   1       6.681  -2.859  -1.562  0.00  0.00     0.034 A 
ATOM     19  C   UNL d   1       6.057  -3.741  -0.683  0.00  0.00     0.026 A 
ATOM     20 CL   UNL d   1       8.157  -3.314  -2.323  0.00  0.00    -0.084 Cl
ATOM     21  C   UNL d   1       4.853  -3.375  -0.078  0.00  0.00     0.031 A 
ENDBRANCH  11  15
ENDBRANCH   7   9
ENDBRANCH   1   7
BRANCH   4  22
ATOM     22  O   UNL d   1       4.193   3.915   4.135  0.00  0.00    -0.275 OA
BRANCH  22  23
ATOM     23  C   UNL d   1       4.685   4.137   5.412  0.00  0.00     0.298 C 
ATOM     24  O   UNL d   1       4.670   3.374   6.363  0.00  0.00    -0.259 OA
BRANCH  23  25
ATOM     25  C   UNL d   1       5.233   5.523   5.514  0.00  0.00     0.040 A 
ATOM     26  C   UNL d   1       5.785   5.917   6.743  0.00  0.00     0.019 A 
ATOM     27  C   UNL d   1       6.260   7.219   6.925  0.00  0.00     0.025 A 
ATOM     28  C   UNL d   1       6.185   8.133   5.876  0.00  0.00     0.034 A 
ATOM     29  C   UNL d   1       5.659   7.748   4.643  0.00  0.00     0.025 A 
ATOM     30 CL   UNL d   1       6.733   9.747   6.109  0.00  0.00    -0.084 Cl
ATOM     31  C   UNL d   1       5.184   6.444   4.459  0.00  0.00     0.019 A 
ENDBRANCH  23  25
ENDBRANCH  22  23
ENDBRANCH   4  22
TORSDOF 6
