REMARK  5 active torsions:
REMARK  status: ('A' for Active; 'I' for Inactive)
REMARK    1  A    between atoms: N_2  and  S_1 
REMARK    2  A    between atoms: C_4  and  S_1 
REMARK    3  A    between atoms: C_3  and  N_2 
REMARK    4  A    between atoms: O_5  and  C_8 
REMARK    5  A    between atoms: C_7  and  O_5 
ROOT
ATOM      1  C   UNL d   1      -0.805  -0.822  -1.976  0.00  0.00     0.074 A 
ATOM      2  N   UNL d   1      -3.275  -5.616  -1.769  0.00  0.00    -0.191 NA
ATOM      3  C   UNL d   1      -2.739  -4.590  -1.814  0.00  0.00     0.099 C 
ATOM      4  C   UNL d   1      -2.077  -0.930  -1.399  0.00  0.00     0.026 A 
ATOM      5  C   UNL d   1      -0.173  -1.950  -2.508  0.00  0.00     0.026 A 
ATOM      6  C   UNL d   1      -2.081  -3.313  -1.862  0.00  0.00     0.044 A 
ATOM      7  C   UNL d   1      -0.815  -3.194  -2.452  0.00  0.00     0.024 A 
ATOM      8  C   UNL d   1      -2.708  -2.177  -1.334  0.00  0.00     0.024 A 
ENDROOT
BRANCH   1   9
ATOM      9  S   UNL d   1      -0.052   0.793  -2.138  0.00  0.00     0.245 S 
ATOM     10  O   UNL d   1       1.210   0.635  -2.823  0.00  0.00    -0.206 OA
ATOM     11  O   UNL d   1      -1.094   1.667  -2.641  0.00  0.00    -0.206 OA
BRANCH   9  12
ATOM     12  N   UNL d   1       0.250   1.198  -0.516  0.00  0.00    -0.179 NA
ATOM     13  H   UNL d   1      -0.552   0.973   0.069  0.00  0.00     0.146 HD
BRANCH  12  14
ATOM     14  C   UNL d   1       0.735   2.536  -0.283  0.00  0.00     0.056 A 
ATOM     15  C   UNL d   1       2.068   2.807   0.075  0.00  0.00     0.098 A 
ATOM     16  C   UNL d   1       2.476   4.134   0.275  0.00  0.00     0.039 A 
ATOM     17  C   UNL d   1       1.563   5.183   0.173  0.00  0.00     0.003 A 
ATOM     18  C   UNL d   1       0.234   4.913  -0.141  0.00  0.00     0.002 A 
ATOM     19  C   UNL d   1      -0.177   3.598  -0.367  0.00  0.00     0.027 A 
BRANCH  15  20
ATOM     20  O   UNL d   1       3.088   1.893   0.202  0.00  0.00    -0.307 OA
BRANCH  20  21
ATOM     21  C   UNL d   1       2.900   0.699   0.858  0.00  0.00     0.098 A 
ATOM     22  C   UNL d   1       3.768  -0.352   0.527  0.00  0.00     0.069 A 
ATOM     23  C   UNL d   1       3.590  -1.620   1.080  0.00  0.00     0.050 A 
ATOM     24 CL   UNL d   1       5.092  -0.117  -0.560  0.00  0.00    -0.081 Cl
ATOM     25  C   UNL d   1       2.545  -1.835   1.973  0.00  0.00     0.035 A 
ATOM     26  C   UNL d   1       1.727  -0.781   2.374  0.00  0.00     0.026 A 
ATOM     27 CL   UNL d   1       2.258  -3.415   2.589  0.00  0.00    -0.084 Cl
ATOM     28  C   UNL d   1       1.930   0.495   1.846  0.00  0.00     0.041 A 
ENDBRANCH  20  21
ENDBRANCH  15  20
ENDBRANCH  12  14
ENDBRANCH   9  12
ENDBRANCH   1   9
TORSDOF 5
