REMARK  5 active torsions:
REMARK  status: ('A' for Active; 'I' for Inactive)
REMARK    1  A    between atoms: C_2  and  S_1 
REMARK    2  A    between atoms: N_8  and  S_1 
REMARK    3  A    between atoms: C_3  and  C_7 
REMARK    4  A    between atoms: C_16  and  C_19 
REMARK    5  A    between atoms: O_23  and  C_20 
ROOT
ATOM      1  S   UNL d   1       0.890  -0.094  -0.021  0.00  0.00     0.267 S 
ATOM      2  O   UNL d   1      -0.151   0.819   0.418  0.00  0.00    -0.200 OA
ATOM      3  O   UNL d   1       2.252   0.050   0.436  0.00  0.00    -0.200 OA
ENDROOT
BRANCH   1   4
ATOM      4  C   UNL d   1       0.947   0.182  -1.794  0.00  0.00     0.121 A 
ATOM      5  S   UNL d   1       2.007  -0.786  -2.728  0.00  0.00    -0.074 SA
ATOM      6  C   UNL d   1       1.544  -0.029  -4.185  0.00  0.00     0.033 A 
ATOM      7  C   UNL d   1       0.621   0.970  -3.967  0.00  0.00     0.023 A 
ATOM      8  C   UNL d   1       0.278   1.091  -2.591  0.00  0.00     0.034 A 
BRANCH   6   9
ATOM      9  C   UNL d   1       2.051  -0.361  -5.558  0.00  0.00     0.056 A 
ATOM     10  N   UNL d   1       1.586   0.343  -6.659  0.00  0.00    -0.353 N 
ATOM     11  C   UNL d   1       2.161  -0.094  -7.759  0.00  0.00     0.047 A 
ATOM     12  HN  UNL d   1       0.897   1.093  -6.620  1.00  0.00     0.166 HD
ATOM     13  C   UNL d   1       1.897   0.459  -9.116  0.00  0.00     0.076 C 
ATOM     14  S   UNL d   1       3.268  -1.390  -7.543  0.00  0.00    -0.087 SA
ATOM     15  C   UNL d   1       2.970  -1.348  -5.850  0.00  0.00     0.082 A 
ENDBRANCH   6   9
ENDBRANCH   1   4
BRANCH   1  16
ATOM     16  N   UNL d   1       0.346  -1.681   0.319  0.00  0.00    -0.306 N 
ATOM     17  C   UNL d   1      -1.023  -1.978  -0.143  0.00  0.00     0.136 C 
ATOM     18  C   UNL d   1      -1.428  -3.449  -0.133  0.00  0.00     0.030 C 
ATOM     19  C   UNL d   1      -0.313  -4.453  -0.456  0.00  0.00     0.024 C 
ATOM     20  C   UNL d   1       0.850  -4.132   0.490  0.00  0.00     0.030 C 
ATOM     21  C   UNL d   1       1.388  -2.726   0.299  0.00  0.00     0.136 C 
BRANCH  19  22
ATOM     22  C   UNL d   1       0.102  -4.623  -1.919  0.00  0.00    -0.021 A 
ATOM     23  C   UNL d   1       0.911  -5.717  -2.307  0.00  0.00     0.074 A 
ATOM     24  C   UNL d   1       1.355  -5.848  -3.631  0.00  0.00     0.037 A 
ATOM     25  C   UNL d   1       0.931  -4.957  -4.609  0.00  0.00     0.003 A 
ATOM     26  C   UNL d   1       0.067  -3.926  -4.266  0.00  0.00     0.001 A 
ATOM     27  C   UNL d   1      -0.336  -3.760  -2.936  0.00  0.00     0.010 A 
BRANCH  23  28
ATOM     28  O   UNL d   1       1.240  -6.637  -1.342  0.00  0.00    -0.355 OA
ATOM     29  C   UNL d   1       1.251  -7.989  -1.802  0.00  0.00     0.210 C 
ENDBRANCH  23  28
ENDBRANCH  19  22
ENDBRANCH   1  16
TORSDOF 5
