REMARK  3 active torsions:
REMARK  status: ('A' for Active; 'I' for Inactive)
REMARK    1  A    between atoms: C_2  and  C_10 
REMARK    2  A    between atoms: C_10  and  C_5 
REMARK    3  A    between atoms: C_13  and  C_7 
ROOT
ATOM      1  C   UNL d   1       0.528  -3.535  -0.980  0.00  0.00     0.107 A 
ATOM      2  N   UNL d   1       1.456  -3.909  -1.877  0.00  0.00    -0.257 N 
ATOM      3  HN  UNL d   1       1.309  -4.099  -2.868  1.00  0.00     0.195 HD
ATOM      4  C   UNL d   1       1.110  -3.409   0.308  0.00  0.00     0.071 A 
ATOM      5  C   UNL d   1       2.449  -3.650   0.121  0.00  0.00     0.086 A 
ATOM      6  O   UNL d   1       2.649  -3.984  -1.186  0.00  0.00    -0.241 OA
ENDROOT
BRANCH   1   7
ATOM      7  C   UNL d   1      -0.870  -3.265  -1.314  0.00  0.00     0.203 C 
ATOM      8  O   UNL d   1      -1.707  -3.044  -0.447  0.00  0.00    -0.286 OA
BRANCH   7   9
ATOM      9  C   UNL d   1      -1.180  -3.284  -2.773  0.00  0.00     0.094 C 
ATOM     10  C   UNL d   1      -2.249  -2.728  -3.350  0.00  0.00     0.076 A 
ATOM     11  N   UNL d   1      -2.470  -2.820  -4.696  0.00  0.00    -0.321 N 
ATOM     12  S   UNL d   1      -3.499  -1.807  -2.599  0.00  0.00    -0.103 SA
ATOM     13  C   UNL d   1      -3.634  -2.295  -5.204  0.00  0.00     0.232 A 
ATOM     14  H   UNL d   1      -1.832  -3.277  -5.333  0.00  0.00     0.169 HD
ATOM     15  O   UNL d   1      -3.929  -2.336  -6.393  0.00  0.00    -0.272 OA
ATOM     16  C   UNL d   1      -4.499  -1.707  -4.115  0.00  0.00     0.184 A 
ENDBRANCH   7   9
ENDBRANCH   1   7
BRANCH   5  17
ATOM     17  C   UNL d   1       3.674  -3.553   0.987  0.00  0.00     0.000 C 
ATOM     18  C   UNL d   1       3.298  -3.145   2.424  0.00  0.00     0.021 C 
ATOM     19  C   UNL d   1       4.408  -4.902   1.034  0.00  0.00     0.021 C 
ATOM     20  C   UNL d   1       4.609  -2.477   0.403  0.00  0.00     0.021 C 
ENDBRANCH   5  17
TORSDOF 3
