REMARK  6 active torsions:
REMARK  status: ('A' for Active; 'I' for Inactive)
REMARK    1  A    between atoms: C_4  and  N_1 
REMARK    2  A    between atoms: C_2  and  C_3 
REMARK    3  A    between atoms: C_11  and  C_8 
REMARK    4  A    between atoms: C_10  and  S_14 
REMARK    5  A    between atoms: C_16  and  C_11 
REMARK    6  A    between atoms: S_14  and  C_16 
ROOT
ATOM      1  S   UNL d   1      -2.618   5.111   2.071  0.00  0.00    -0.104 SA
ENDROOT
BRANCH   1   2
ATOM      2  C   UNL d   1      -3.303   6.565   2.840  0.00  0.00     0.069 A 
ATOM      3  N   UNL d   1      -2.458   7.559   3.191  0.00  0.00    -0.360 N 
ATOM      4  C   UNL d   1      -2.977   8.622   3.848  0.00  0.00     0.105 A 
ATOM      5  HN  UNL d   1      -1.463   7.510   2.969  1.00  0.00     0.166 HD
ATOM      6  C   UNL d   1      -4.312   8.742   4.198  0.00  0.00     0.063 A 
ATOM      7  C   UNL d   1      -5.173   7.717   3.796  0.00  0.00     0.020 A 
ATOM      8  C   UNL d   1      -4.665   6.618   3.104  0.00  0.00     0.038 A 
BRANCH   6   9
ATOM      9  C   UNL d   1      -4.790   9.905   5.011  0.00  0.00     0.418 C 
ATOM     10  F   UNL d   1      -3.808  10.803   5.305  0.00  0.00    -0.166 F 
ATOM     11  F   UNL d   1      -5.773  10.613   4.392  0.00  0.00    -0.166 F 
ATOM     12  F   UNL d   1      -5.305   9.516   6.210  0.00  0.00    -0.166 F 
ENDBRANCH   6   9
ENDBRANCH   1   2
BRANCH   1  13
ATOM     13  C   UNL d   1      -0.848   5.528   2.130  0.00  0.00     0.164 C 
BRANCH  13  14
ATOM     14  C   UNL d   1      -0.038   4.386   1.556  0.00  0.00     0.169 C 
ATOM     15  O   UNL d   1       0.174   4.302   0.345  0.00  0.00    -0.291 OA
BRANCH  14  16
ATOM     16  C   UNL d   1       0.533   3.331   2.455  0.00  0.00     0.013 A 
ATOM     17  C   UNL d   1       1.402   2.387   1.883  0.00  0.00     0.051 A 
ATOM     18  C   UNL d   1       1.955   1.373   2.676  0.00  0.00     0.103 A 
ATOM     19  C   UNL d   1       1.652   1.289   4.040  0.00  0.00     0.036 A 
ATOM     20  C   UNL d   1       0.790   2.227   4.608  0.00  0.00     0.003 A 
ATOM     21  C   UNL d   1       0.230   3.241   3.821  0.00  0.00     0.015 A 
BRANCH  18  22
ATOM     22  N   UNL d   1       2.862   0.388   2.074  0.00  0.00    -0.116 N 
ATOM     23  O   UNL d   1       3.170   0.538   0.881  0.00  0.00    -0.532 OA
ATOM     24  O   UNL d   1       3.270  -0.534   2.792  0.00  0.00    -0.532 OA
ENDBRANCH  18  22
ENDBRANCH  14  16
ENDBRANCH  13  14
ENDBRANCH   1  13
TORSDOF 6
