REMARK  6 active torsions:
REMARK  status: ('A' for Active; 'I' for Inactive)
REMARK    1  A    between atoms: C_2  and  N_1 
REMARK       I    between atoms: C_3  and  N_1 
REMARK    2  A    between atoms: N_6  and  C_2 
REMARK    3  A    between atoms: C_4  and  C_3 
REMARK    4  A    between atoms: C_5  and  C_7 
REMARK    5  A    between atoms: O_17  and  C_5 
REMARK    6  A    between atoms: C_13  and  N_6 
ROOT
ATOM      1  N   UNL d   1       1.015   1.126  -2.163  0.00  0.00    -0.333 N 
ATOM      2  H   UNL d   1       0.604   0.513  -1.458  0.00  0.00     0.168 HD
ENDROOT
BRANCH   1   3
ATOM      3  C   UNL d   1       0.105   1.871  -2.873  0.00  0.00     0.179 C 
ATOM      4  S   UNL d   1       0.261   2.477  -4.426  0.00  0.00    -0.040 SA
BRANCH   3   5
ATOM      5  N   UNL d   1      -1.085   2.130  -2.228  0.00  0.00    -0.298 N 
ATOM      6  C   UNL d   1      -1.446   1.873  -0.913  0.00  0.00     0.281 C 
ATOM      7  O   UNL d   1      -0.856   1.062  -0.202  0.00  0.00    -0.265 OA
ATOM      8  H   UNL d   1      -1.702   2.757  -2.733  0.00  0.00     0.171 HD
BRANCH   6   9
ATOM      9  C   UNL d   1      -2.607   2.627  -0.488  0.00  0.00     0.142 A 
ATOM     10  O   UNL d   1      -3.245   3.432  -1.399  0.00  0.00    -0.317 OA
ATOM     11  C   UNL d   1      -4.281   4.029  -0.751  0.00  0.00     0.143 A 
ATOM     12  C   UNL d   1      -4.322   3.628   0.561  0.00  0.00     0.027 A 
ATOM     13  C   UNL d   1      -3.245   2.725   0.734  0.00  0.00     0.045 A 
ENDBRANCH   6   9
ENDBRANCH   3   5
ENDBRANCH   1   3
BRANCH   1  14
ATOM     14  C   UNL d   1       2.420   1.064  -2.284  0.00  0.00     0.035 A 
ATOM     15  C   UNL d   1       3.074  -0.075  -1.796  0.00  0.00     0.047 A 
ATOM     16  C   UNL d   1       4.475  -0.163  -1.839  0.00  0.00     0.041 A 
ATOM     17  C   UNL d   1       5.220   0.913  -2.337  0.00  0.00     0.018 A 
ATOM     18  C   UNL d   1       4.575   2.058  -2.796  0.00  0.00     0.003 A 
ATOM     19  C   UNL d   1       3.181   2.130  -2.771  0.00  0.00     0.029 A 
BRANCH  16  20
ATOM     20  C   UNL d   1       5.224  -1.360  -1.368  0.00  0.00     0.293 C 
ATOM     21  O   UNL d   1       6.444  -1.431  -1.368  0.00  0.00    -0.259 OA
BRANCH  20  22
ATOM     22  O   UNL d   1       4.376  -2.334  -0.955  0.00  0.00    -0.323 OA
ATOM     23  C   UNL d   1       5.040  -3.510  -0.487  0.00  0.00     0.213 C 
ENDBRANCH  20  22
ENDBRANCH  16  20
ENDBRANCH   1  14
TORSDOF 6
