REMARK  4 active torsions:
REMARK  status: ('A' for Active; 'I' for Inactive)
REMARK    1  A    between atoms: O_2  and  S_1 
REMARK    2  A    between atoms: C_5  and  S_1 
REMARK    3  A    between atoms: C_3  and  O_2 
REMARK    4  A    between atoms: C_8  and  C_4 
ROOT
ATOM      1  S   UNL d   1       0.158   0.331   0.166  0.00  0.00     0.303 S 
ATOM      2  O   UNL d   1      -0.914   1.311   0.106  0.00  0.00    -0.193 OA
ATOM      3  O   UNL d   1       1.489   0.702   0.617  0.00  0.00    -0.193 OA
ENDROOT
BRANCH   1   4
ATOM      4  O   UNL d   1       0.295  -0.430  -1.279  0.00  0.00    -0.228 OA
BRANCH   4   5
ATOM      5  C   UNL d   1       0.715   0.242  -2.407  0.00  0.00     0.103 A 
ATOM      6  C   UNL d   1       1.451  -0.444  -3.388  0.00  0.00     0.044 A 
ATOM      7  C   UNL d   1       1.913   0.245  -4.525  0.00  0.00     0.018 A 
ATOM      8  C   UNL d   1       1.618   1.593  -4.711  0.00  0.00     0.001 A 
ATOM      9  C   UNL d   1       0.857   2.264  -3.764  0.00  0.00     0.003 A 
ATOM     10  C   UNL d   1       0.406   1.593  -2.625  0.00  0.00     0.039 A 
BRANCH   6  11
ATOM     11  C   UNL d   1       1.818  -1.886  -3.321  0.00  0.00     0.158 C 
ATOM     12  O   UNL d   1       2.909  -2.247  -3.763  0.00  0.00    -0.293 OA
ATOM     13  C   UNL d   1       0.836  -2.892  -2.790  0.00  0.00     0.097 C 
ENDBRANCH   6  11
ENDBRANCH   4   5
ENDBRANCH   1   4
BRANCH   1  14
ATOM     14  C   UNL d   1      -0.445  -0.935   1.260  0.00  0.00     0.086 A 
ATOM     15  C   UNL d   1       0.255  -1.259   2.424  0.00  0.00     0.026 A 
ATOM     16  C   UNL d   1      -0.264  -2.228   3.284  0.00  0.00     0.008 A 
ATOM     17  C   UNL d   1      -1.475  -2.871   2.988  0.00  0.00    -0.062 A 
ATOM     18  C   UNL d   1      -2.176  -2.517   1.828  0.00  0.00     0.008 A 
ATOM     19  C   UNL d   1      -2.003  -3.930   3.911  0.00  0.00     0.048 C 
ATOM     20  C   UNL d   1      -1.665  -1.549   0.962  0.00  0.00     0.026 A 
ENDBRANCH   1  14
TORSDOF 4
