REMARK  1 active torsions:
REMARK  status: ('A' for Active; 'I' for Inactive)
REMARK    1  A    between atoms: C_10  and  C_5 
ROOT
ATOM      1  C   UNL d   1      -0.050   0.657   0.038  0.00  0.00     0.085 A 
ATOM      2  O   UNL d   1      -1.216   1.369   0.117  0.00  0.00    -0.340 OA
ATOM      3  C   UNL d   1       0.001  -0.735  -0.033  0.00  0.00     0.043 A 
ATOM      4  C   UNL d   1      -1.264  -1.494   0.037  0.00  0.00     0.165 C 
ATOM      5  C   UNL d   1      -2.374   0.646  -0.339  0.00  0.00     0.169 C 
ATOM      6  C   UNL d   1      -2.493  -0.696   0.371  0.00  0.00     0.121 C 
ATOM      7  C   UNL d   1       1.131   1.397   0.068  0.00  0.00     0.061 A 
ATOM      8  C   UNL d   1       1.230  -1.397  -0.115  0.00  0.00     0.020 A 
ATOM      9  O   UNL d   1      -1.279  -2.711  -0.109  0.00  0.00    -0.292 OA
ATOM     10  C   UNL d   1       2.358   0.738  -0.001  0.00  0.00     0.036 A 
ATOM     11  C   UNL d   1       2.413  -0.654  -0.099  0.00  0.00     0.025 A 
ATOM     12 CL   UNL d   1       3.817   1.648   0.041  0.00  0.00    -0.084 Cl
ENDROOT
BRANCH   5  13
ATOM     13  C   UNL d   1      -3.610   1.499  -0.111  0.00  0.00    -0.029 A 
ATOM     14  C   UNL d   1      -4.731   1.341  -0.942  0.00  0.00     0.010 A 
ATOM     15  C   UNL d   1      -5.866   2.136  -0.767  0.00  0.00     0.001 A 
ATOM     16  C   UNL d   1      -5.898   3.095   0.243  0.00  0.00     0.000 A 
ATOM     17  C   UNL d   1      -4.803   3.249   1.089  0.00  0.00     0.001 A 
ATOM     18  C   UNL d   1      -3.669   2.452   0.919  0.00  0.00     0.010 A 
ENDBRANCH   5  13
TORSDOF 1
