REMARK  4 active torsions:
REMARK  status: ('A' for Active; 'I' for Inactive)
REMARK    1  A    between atoms: N_3  and  C_2 
REMARK    2  A    between atoms: C_14  and  C_6 
REMARK    3  A    between atoms: C_15  and  C_7 
REMARK    4  A    between atoms: O_16  and  C_13 
ROOT
ATOM      1  C   UNL d   1       0.027   0.712  -0.156  0.00  0.00     0.069 A 
ATOM      2  C   UNL d   1       1.248   1.427  -0.157  0.00  0.00     0.132 A 
ATOM      3  N   UNL d   1      -1.231   1.337  -0.194  0.00  0.00    -0.379 N 
ATOM      4  C   UNL d   1       0.087  -0.700  -0.169  0.00  0.00    -0.018 A 
ATOM      5  C   UNL d   1      -1.187  -1.539  -0.125  0.00  0.00     0.056 C 
ATOM      6  C   UNL d   1      -2.334   0.640   0.470  0.00  0.00     0.116 C 
ATOM      7  C   UNL d   1      -2.477  -0.704  -0.249  0.00  0.00     0.044 C 
ATOM      8  C   UNL d   1       2.487   0.758  -0.092  0.00  0.00     0.075 A 
ATOM      9  C   UNL d   1       1.336  -1.347  -0.099  0.00  0.00     0.047 A 
ATOM     10  C   UNL d   1       2.530  -0.629  -0.051  0.00  0.00     0.071 A 
ATOM     11  H   UNL d   1      -1.209   2.345  -0.020  0.00  0.00     0.160 HD
ENDROOT
BRANCH   5  12
ATOM     12  C   UNL d   1      -1.231  -2.684  -1.133  0.00  0.00    -0.050 A 
ATOM     13  C   UNL d   1      -1.325  -4.011  -0.685  0.00  0.00     0.008 A 
ATOM     14  C   UNL d   1      -1.443  -5.062  -1.596  0.00  0.00     0.001 A 
ATOM     15  C   UNL d   1      -1.467  -4.801  -2.964  0.00  0.00     0.000 A 
ATOM     16  C   UNL d   1      -1.350  -3.492  -3.425  0.00  0.00     0.001 A 
ATOM     17  C   UNL d   1      -1.224  -2.440  -2.516  0.00  0.00     0.008 A 
ENDBRANCH   5  12
BRANCH   6  18
ATOM     18  C   UNL d   1      -2.189   0.597   1.994  0.00  0.00    -0.036 A 
ATOM     19  C   UNL d   1      -1.555   1.638   2.702  0.00  0.00     0.009 A 
ATOM     20  C   UNL d   1      -1.426   1.596   4.091  0.00  0.00     0.001 A 
ATOM     21  C   UNL d   1      -1.948   0.526   4.811  0.00  0.00     0.000 A 
ATOM     22  C   UNL d   1      -2.610  -0.496   4.138  0.00  0.00     0.001 A 
ATOM     23  C   UNL d   1      -2.736  -0.455   2.750  0.00  0.00     0.009 A 
ENDBRANCH   6  18
BRANCH   2  24
ATOM     24  N   UNL d   1       1.280   2.903  -0.151  0.00  0.00    -0.113 N 
ATOM     25  O   UNL d   1       0.208   3.526  -0.087  0.00  0.00    -0.532 OA
ATOM     26  O   UNL d   1       2.391   3.454  -0.180  0.00  0.00    -0.532 OA
ENDBRANCH   2  24
BRANCH  10  27
ATOM     27  O   UNL d   1       3.657  -1.397   0.041  0.00  0.00    -0.356 OA
ATOM     28  C   UNL d   1       4.899  -0.712   0.157  0.00  0.00     0.210 C 
ENDBRANCH  10  27
TORSDOF 4
