REMARK  9 active torsions:
REMARK  status: ('A' for Active; 'I' for Inactive)
REMARK    1  A    between atoms: C_8  and  C_1 
REMARK    2  A    between atoms: C_12  and  C_4 
REMARK    3  A    between atoms: S_11  and  C_6 
REMARK    4  A    between atoms: O_18  and  C_8 
REMARK    5  A    between atoms: C_15  and  S_11 
REMARK    6  A    between atoms: O_19  and  C_12 
REMARK    7  A    between atoms: O_20  and  C_12 
REMARK    8  A    between atoms: C_13  and  C_15 
REMARK    9  A    between atoms: C_14  and  C_13 
ROOT
ATOM      1  C   UNL d   1      -1.574   1.484   0.127  0.00  0.00     0.068 A 
ATOM      2  N   UNL d   1      -1.518  -0.881  -0.358  0.00  0.00    -0.348 N 
ATOM      3  HN  UNL d   1      -2.017  -1.745  -0.572  1.00  0.00     0.166 HD
ATOM      4  C   UNL d   1      -2.222   0.286  -0.183  0.00  0.00     0.082 A 
ATOM      5  C   UNL d   1       0.547   0.276  -0.022  0.00  0.00     0.079 A 
ATOM      6  C   UNL d   1      -0.164  -0.894  -0.250  0.00  0.00     0.091 A 
ATOM      7  C   UNL d   1      -0.167   1.467   0.160  0.00  0.00     0.045 A 
ATOM      8  C   UNL d   1       1.980   0.317   0.022  0.00  0.00     0.102 C 
ATOM      9  N   UNL d   1       3.135   0.405   0.055  0.00  0.00    -0.191 NA
ENDROOT
BRANCH   6  10
ATOM     10  S   UNL d   1       0.621  -2.498  -0.340  0.00  0.00    -0.103 SA
BRANCH  10  11
ATOM     11  C   UNL d   1      -0.702  -3.507  -1.085  0.00  0.00     0.160 C 
BRANCH  11  12
ATOM     12  C   UNL d   1      -0.172  -4.900  -1.386  0.00  0.00     0.144 C 
ATOM     13  O   UNL d   1       0.565  -5.074  -2.363  0.00  0.00    -0.296 OA
BRANCH  12  14
ATOM     14  C   UNL d   1      -0.633  -6.102  -0.525  0.00  0.00     0.010 C 
ATOM     15  C   UNL d   1      -1.982  -6.593  -1.067  0.00  0.00     0.022 C 
ATOM     16  C   UNL d   1       0.404  -7.235  -0.662  0.00  0.00     0.022 C 
ATOM     17  C   UNL d   1      -0.767  -5.763   0.965  0.00  0.00     0.022 C 
ENDBRANCH  12  14
ENDBRANCH  11  12
ENDBRANCH  10  11
ENDBRANCH   6  10
BRANCH   1  18
ATOM     18  C   UNL d   1      -2.270   2.774   0.383  0.00  0.00     0.295 C 
ATOM     19  O   UNL d   1      -3.248   3.188  -0.201  0.00  0.00    -0.259 OA
BRANCH  18  20
ATOM     20  O   UNL d   1      -1.584   3.460   1.339  0.00  0.00    -0.322 OA
ATOM     21  C   UNL d   1      -2.132   4.748   1.637  0.00  0.00     0.213 C 
ENDBRANCH  18  20
ENDBRANCH   1  18
BRANCH   4  22
ATOM     22  C   UNL d   1      -3.736   0.112  -0.295  0.00  0.00     0.310 C 
BRANCH  22  23
ATOM     23  O   UNL d   1      -4.264   0.072   1.037  0.00  0.00    -0.360 OA
ATOM     24  C   UNL d   1      -5.606  -0.400   1.049  0.00  0.00     0.205 C 
ENDBRANCH  22  23
BRANCH  22  25
ATOM     25  O   UNL d   1      -4.451   1.047  -1.095  0.00  0.00    -0.360 OA
ATOM     26  C   UNL d   1      -3.966   1.194  -2.417  0.00  0.00     0.205 C 
ENDBRANCH  22  25
ENDBRANCH   4  22
TORSDOF 9
