REMARK  2 active torsions:
REMARK  status: ('A' for Active; 'I' for Inactive)
REMARK    1  A    between atoms: C_6  and  C_1 
REMARK       I    between atoms: N_9  and  C_6 
REMARK    2  A    between atoms: C_15  and  N_9 
ROOT
ATOM      1  C   UNL d   1      -0.228  -1.210  -0.228  0.00  0.00     0.125 A 
ATOM      2  C   UNL d   1      -0.901   0.915  -0.365  0.00  0.00     0.118 A 
ATOM      3  C   UNL d   1      -1.371  -0.382  -0.327  0.00  0.00     0.077 A 
ATOM      4  N   UNL d   1       0.893  -0.469  -0.230  0.00  0.00    -0.255 N 
ATOM      5  HN  UNL d   1       1.854  -0.805  -0.180  1.00  0.00     0.195 HD
ATOM      6  O   UNL d   1       0.469   0.849  -0.314  0.00  0.00    -0.236 OA
ATOM      7  C   UNL d   1      -1.629   2.154  -0.430  0.00  0.00     0.040 A 
ATOM      8  S   UNL d   1      -3.345   2.199  -0.505  0.00  0.00    -0.099 SA
ATOM      9  C   UNL d   1      -1.103   3.432  -0.435  0.00  0.00     0.022 A 
ATOM     10  C   UNL d   1      -3.376   3.906  -0.530  0.00  0.00     0.050 A 
ATOM     11  C   UNL d   1      -2.109   4.442  -0.490  0.00  0.00     0.008 A 
ENDROOT
BRANCH   1  12
ATOM     12  C   UNL d   1      -0.224  -2.671  -0.115  0.00  0.00     0.270 C 
ATOM     13  N   UNL d   1       1.022  -3.248   0.022  0.00  0.00    -0.352 N 
ATOM     14  H   UNL d   1       1.826  -2.635  -0.072  0.00  0.00     0.163 HD
ATOM     15  O   UNL d   1      -1.267  -3.321  -0.121  0.00  0.00    -0.266 OA
BRANCH  13  16
ATOM     16  C   UNL d   1       1.198  -4.684   0.173  0.00  0.00     0.076 C 
ATOM     17  C   UNL d   1       1.275  -5.378  -1.185  0.00  0.00     0.032 C 
ATOM     18  C   UNL d   1       2.441  -4.981   1.004  0.00  0.00     0.032 C 
ENDBRANCH  13  16
ENDBRANCH   1  12
TORSDOF 2
