REMARK  4 active torsions:
REMARK  status: ('A' for Active; 'I' for Inactive)
REMARK    1  A    between atoms: C_2  and  S_1 
REMARK    2  A    between atoms: C_10  and  S_1 
REMARK    3  A    between atoms: N_15  and  C_5 
REMARK    4  A    between atoms: C_13  and  C_6 
ROOT
ATOM      1  C   UNL d   1       0.631   0.903   1.376  0.00  0.00     0.113 A 
ATOM      2  N   UNL d   1      -0.145   1.009   3.618  0.00  0.00    -0.331 N 
ATOM      3  HN  UNL d   1      -0.473   0.548   4.467  1.00  0.00     0.168 HD
ATOM      4  C   UNL d   1       0.150   0.299   2.514  0.00  0.00     0.102 A 
ATOM      5  C   UNL d   1       0.004   2.350   3.567  0.00  0.00     0.116 A 
ATOM      6  N   UNL d   1       0.408   3.017   2.469  0.00  0.00    -0.350 N 
ATOM      7  HN  UNL d   1       0.491   4.034   2.460  1.00  0.00     0.166 HD
ATOM      8  C   UNL d   1       0.696   2.275   1.385  0.00  0.00     0.116 A 
ENDROOT
BRANCH   1   9
ATOM      9  S   UNL d   1       1.062   0.030  -0.078  0.00  0.00     0.187 S 
ATOM     10  O   UNL d   1       0.922   0.973  -1.179  0.00  0.00    -0.222 OA
ATOM     11  O   UNL d   1       0.273  -1.193  -0.101  0.00  0.00    -0.222 OA
BRANCH   9  12
ATOM     12  C   UNL d   1       2.828  -0.395   0.077  0.00  0.00     0.058 C 
ATOM     13  C   UNL d   1       3.085  -1.248   1.324  0.00  0.00     0.031 C 
ATOM     14  C   UNL d   1       3.234  -1.201  -1.171  0.00  0.00     0.031 C 
ATOM     15  C   UNL d   1       3.688   0.878   0.136  0.00  0.00     0.031 C 
ENDBRANCH   9  12
ENDBRANCH   1   9
BRANCH   4  16
ATOM     16  N   UNL d   1       0.054  -1.080   2.675  0.00  0.00    -0.287 NA
ATOM     17  H   UNL d   1      -0.417  -1.281   3.554  0.00  0.00     0.125 HD
ATOM     18  H   UNL d   1      -0.385  -1.542   1.876  0.00  0.00     0.125 HD
ENDBRANCH   4  16
BRANCH   5  19
ATOM     19  C   UNL d   1      -0.218   3.127   4.804  0.00  0.00     0.009 A 
ATOM     20  C   UNL d   1      -0.629   2.508   6.003  0.00  0.00     0.022 A 
ATOM     21  C   UNL d   1      -0.802   3.236   7.192  0.00  0.00    -0.061 A 
ATOM     22  C   UNL d   1      -1.221   2.553   8.460  0.00  0.00     0.048 C 
ATOM     23  C   UNL d   1      -0.566   4.613   7.189  0.00  0.00     0.007 A 
ATOM     24  C   UNL d   1      -0.169   5.253   6.018  0.00  0.00     0.002 A 
ATOM     25  C   UNL d   1       0.001   4.517   4.843  0.00  0.00     0.015 A 
ENDBRANCH   5  19
TORSDOF 4
