REMARK  6 active torsions:
REMARK  status: ('A' for Active; 'I' for Inactive)
REMARK    1  A    between atoms: C_9  and  C_2 
REMARK    2  A    between atoms: S_8  and  C_5 
REMARK    3  A    between atoms: C_21  and  S_8 
REMARK    4  A    between atoms: C_10  and  C_21 
REMARK       I    between atoms: N_11  and  C_10 
REMARK    5  A    between atoms: C_14  and  N_11 
REMARK    6  A    between atoms: C_12  and  C_13 
ROOT
ATOM      1  N   UNL d   1       1.013   0.083   0.176  0.00  0.00    -0.315 N 
ATOM      2  C   UNL d   1       0.081   1.067  -0.098  0.00  0.00     0.134 A 
ATOM      3  N   UNL d   1      -1.117   0.501  -0.100  0.00  0.00    -0.283 N 
ATOM      4  HN  UNL d   1      -1.997   0.976  -0.301  1.00  0.00     0.188 HD
ATOM      5  C   UNL d   1       0.289  -1.052   0.426  0.00  0.00     0.163 A 
ATOM      6  N   UNL d   1      -0.982  -0.827   0.212  0.00  0.00    -0.278 N 
ATOM      7  HN  UNL d   1      -1.734  -1.513   0.268  1.00  0.00     0.189 HD
ATOM      8  C   UNL d   1       2.446   0.206   0.274  0.00  0.00     0.160 C 
ENDROOT
BRANCH   5   9
ATOM      9  S   UNL d   1       0.942  -2.453   1.202  0.00  0.00    -0.083 SA
BRANCH   9  10
ATOM     10  C   UNL d   1      -0.465  -3.583   1.270  0.00  0.00     0.185 C 
BRANCH  10  11
ATOM     11  C   UNL d   1      -1.610  -3.251   2.221  0.00  0.00     0.231 C 
ATOM     12  N   UNL d   1      -1.641  -1.988   2.769  0.00  0.00    -0.326 N 
ATOM     13  H   UNL d   1      -0.989  -1.323   2.378  0.00  0.00     0.169 HD
ATOM     14  O   UNL d   1      -2.466  -4.121   2.418  0.00  0.00    -0.272 OA
BRANCH  12  15
ATOM     15  C   UNL d   1      -2.672  -1.423   3.549  0.00  0.00     0.036 A 
ATOM     16  C   UNL d   1      -3.678  -2.171   4.162  0.00  0.00     0.053 A 
ATOM     17  C   UNL d   1      -4.709  -1.524   4.845  0.00  0.00     0.036 A 
ATOM     18 CL   UNL d   1      -5.964  -2.454   5.570  0.00  0.00    -0.084 Cl
ATOM     19  C   UNL d   1      -4.740  -0.135   4.937  0.00  0.00     0.024 A 
ATOM     20  C   UNL d   1      -3.720   0.617   4.360  0.00  0.00     0.004 A 
ATOM     21  C   UNL d   1      -2.686  -0.026   3.675  0.00  0.00     0.029 A 
ENDBRANCH  12  15
ENDBRANCH  10  11
ENDBRANCH   9  10
ENDBRANCH   5   9
BRANCH   2  22
ATOM     22  C   UNL d   1       0.321   2.511  -0.212  0.00  0.00     0.009 A 
ATOM     23  C   UNL d   1       1.440   3.046  -0.843  0.00  0.00     0.016 A 
ATOM     24  C   UNL d   1       1.708   4.418  -0.784  0.00  0.00     0.009 A 
ATOM     25  C   UNL d   1       0.836   5.314  -0.141  0.00  0.00    -0.051 A 
ATOM     26  C   UNL d   1      -0.340   4.777   0.407  0.00  0.00     0.009 A 
ATOM     27  C   UNL d   1      -0.591   3.399   0.374  0.00  0.00     0.016 A 
BRANCH  25  28
ATOM     28  C   UNL d   1       1.193   6.807  -0.049  0.00  0.00    -0.024 C 
ATOM     29  C   UNL d   1       0.094   7.671   0.606  0.00  0.00     0.019 C 
ATOM     30  C   UNL d   1       2.473   6.971   0.800  0.00  0.00     0.019 C 
ATOM     31  C   UNL d   1       1.447   7.379  -1.460  0.00  0.00     0.019 C 
ENDBRANCH  25  28
ENDBRANCH   2  22
TORSDOF 6
