REMARK  4 active torsions:
REMARK  status: ('A' for Active; 'I' for Inactive)
REMARK    1  A    between atoms: C_2  and  S_1 
REMARK    2  A    between atoms: O_14  and  S_1 
REMARK    3  A    between atoms: C_21  and  C_5 
REMARK    4  A    between atoms: C_13  and  O_14 
ROOT
ATOM      1  S   UNL d   1       0.910   0.134  -0.020  0.00  0.00     0.309 S 
ATOM      2  O   UNL d   1      -0.338   0.858   0.106  0.00  0.00    -0.192 OA
ATOM      3  O   UNL d   1       1.604   0.006  -1.286  0.00  0.00    -0.192 OA
ENDROOT
BRANCH   1   4
ATOM      4  C   UNL d   1       0.597  -1.543   0.494  0.00  0.00     0.128 A 
ATOM      5  S   UNL d   1      -0.582  -1.773   1.708  0.00  0.00    -0.074 SA
ATOM      6  C   UNL d   1      -0.402  -3.483   1.688  0.00  0.00     0.033 A 
ATOM      7  C   UNL d   1       0.572  -3.856   0.777  0.00  0.00     0.023 A 
ATOM      8  C   UNL d   1       1.144  -2.746   0.091  0.00  0.00     0.035 A 
BRANCH   6   9
ATOM      9  C   UNL d   1      -1.175  -4.345   2.595  0.00  0.00     0.049 A 
ATOM     10  N   UNL d   1      -0.532  -5.486   2.952  0.00  0.00    -0.365 N 
ATOM     11  C   UNL d   1      -1.156  -6.304   3.830  0.00  0.00     0.088 A 
ATOM     12  HN  UNL d   1       0.386  -5.717   2.573  1.00  0.00     0.165 HD
ATOM     13  C   UNL d   1      -2.405  -6.049   4.367  0.00  0.00     0.017 A 
ATOM     14  C   UNL d   1      -3.063  -4.893   3.969  0.00  0.00     0.004 A 
ATOM     15  C   UNL d   1      -2.446  -4.028   3.068  0.00  0.00     0.031 A 
ENDBRANCH   6   9
ENDBRANCH   1   4
BRANCH   1  16
ATOM     16  O   UNL d   1       1.957   0.623   1.130  0.00  0.00    -0.229 OA
BRANCH  16  17
ATOM     17  C   UNL d   1       2.577   1.859   1.093  0.00  0.00     0.092 A 
ATOM     18  C   UNL d   1       3.530   2.047   2.118  0.00  0.00     0.072 A 
ATOM     19  C   UNL d   1       4.178   3.297   2.108  0.00  0.00     0.088 A 
ATOM     20  N   UNL d   1       5.119   3.773   2.934  0.00  0.00    -0.239 N 
ATOM     21  C   UNL d   1       3.885   4.317   1.116  0.00  0.00     0.085 A 
ATOM     22  O   UNL d   1       5.408   5.050   2.478  0.00  0.00    -0.156 OA
ATOM     23  HN  UNL d   1       5.535   3.296   3.733  1.00  0.00     0.197 HD
ATOM     24  N   UNL d   1       4.654   5.384   1.366  0.00  0.00    -0.240 N 
ATOM     25  HN  UNL d   1       4.680   6.261   0.845  1.00  0.00     0.197 HD
ATOM     26  C   UNL d   1       2.933   4.122   0.100  0.00  0.00     0.037 A 
ATOM     27  C   UNL d   1       2.292   2.864   0.125  0.00  0.00     0.040 A 
ENDBRANCH  16  17
ENDBRANCH   1  16
TORSDOF 4
