REMARK  3 active torsions:
REMARK  status: ('A' for Active; 'I' for Inactive)
REMARK    1  A    between atoms: C_5  and  C_1 
REMARK       I    between atoms: N_8  and  C_5 
REMARK    2  A    between atoms: C_14  and  N_8 
REMARK    3  A    between atoms: C_9  and  C_14 
ROOT
ATOM      1  C   UNL d   1      -1.790  -1.279  -0.161  0.00  0.00     0.108 A 
ATOM      2  C   UNL d   1      -2.116   0.166  -0.179  0.00  0.00     0.304 A 
ATOM      3  C   UNL d   1      -0.512  -1.688  -0.084  0.00  0.00     0.037 A 
ATOM      4  O   UNL d   1      -1.054   1.065  -0.137  0.00  0.00    -0.274 OA
ATOM      5  C   UNL d   1       0.578  -0.730  -0.028  0.00  0.00    -0.001 A 
ATOM      6  C   UNL d   1       0.280   0.627  -0.061  0.00  0.00     0.089 A 
ATOM      7  O   UNL d   1      -3.276   0.570  -0.228  0.00  0.00    -0.259 OA
ATOM      8  C   UNL d   1       1.914  -1.127   0.054  0.00  0.00     0.014 A 
ATOM      9  C   UNL d   1       1.278   1.598  -0.021  0.00  0.00     0.038 A 
ATOM     10  C   UNL d   1       2.928  -0.164   0.096  0.00  0.00     0.001 A 
ATOM     11  C   UNL d   1       2.611   1.196   0.057  0.00  0.00     0.003 A 
ENDROOT
BRANCH   1  12
ATOM     12  C   UNL d   1      -2.832  -2.355  -0.205  0.00  0.00     0.257 C 
ATOM     13  N   UNL d   1      -4.123  -1.939  -0.392  0.00  0.00    -0.356 N 
ATOM     14  H   UNL d   1      -4.319  -0.940  -0.438  0.00  0.00     0.162 HD
ATOM     15  O   UNL d   1      -2.529  -3.538  -0.067  0.00  0.00    -0.267 OA
BRANCH  13  16
ATOM     16  C   UNL d   1      -5.255  -2.830  -0.290  0.00  0.00     0.127 C 
BRANCH  16  17
ATOM     17  C   UNL d   1      -6.122  -2.696  -1.500  0.00  0.00     0.003 A 
ATOM     18  C   UNL d   1      -6.832  -1.408  -1.839  0.00  0.00     0.007 A 
ATOM     19  C   UNL d   1      -7.620  -2.586  -1.339  0.00  0.00     0.007 A 
ENDBRANCH  16  17
ENDBRANCH  13  16
ENDBRANCH   1  12
TORSDOF 3
