REMARK  3 active torsions:
REMARK  status: ('A' for Active; 'I' for Inactive)
REMARK    1  A    between atoms: C_8  and  C_2 
REMARK    2  A    between atoms: C_3  and  C_8 
REMARK       I    between atoms: N_9  and  C_3 
REMARK    3  A    between atoms: N_10  and  N_9 
ROOT
ATOM      1  C   UNL d   1       2.224   3.140  -0.076  0.00  0.00     0.235 C 
ATOM      2  O   UNL d   1       2.141   3.764  -1.136  0.00  0.00    -0.272 OA
ATOM      3  N   UNL d   1       2.095   3.746   1.169  0.00  0.00    -0.294 N 
ATOM      4  H   UNL d   1       1.899   3.172   1.989  0.00  0.00     0.183 HD
ENDROOT
BRANCH   1   5
ATOM      5  C   UNL d   1       2.520   1.654  -0.012  0.00  0.00     0.143 C 
BRANCH   5   6
ATOM      6  C   UNL d   1       1.284   0.805  -0.019  0.00  0.00    -0.042 A 
ATOM      7  C   UNL d   1       0.940  -0.094   0.976  0.00  0.00     0.057 A 
ATOM      8  S   UNL d   1      -0.502  -0.948   0.634  0.00  0.00    -0.113 SA
ATOM      9  C   UNL d   1      -0.693  -0.135  -0.855  0.00  0.00     0.050 A 
ATOM     10  C   UNL d   1       0.319   0.771  -1.082  0.00  0.00     0.015 A 
ENDBRANCH   5   6
ENDBRANCH   1   5
BRANCH   3  11
ATOM     11  N   UNL d   1       1.816   5.130   1.238  0.00  0.00    -0.247 NA
ATOM     12  H   UNL d   1       1.526   5.424   0.293  0.00  0.00     0.143 HD
ATOM     13  H   UNL d   1       2.703   5.622   1.380  0.00  0.00     0.143 HD
ENDBRANCH   3  11
TORSDOF 3
