REMARK  4 active torsions:
REMARK  status: ('A' for Active; 'I' for Inactive)
REMARK    1  A    between atoms: S_9  and  C_2 
REMARK    2  A    between atoms: C_13  and  S_9 
REMARK    3  A    between atoms: O_10  and  C_14 
REMARK    4  A    between atoms: C_14  and  C_13 
ROOT
ATOM      1  C   UNL d   1      -0.506  -0.013   0.016  0.00  0.00     0.147 A 
ATOM      2  C   UNL d   1       0.151  -1.248   0.037  0.00  0.00     0.107 A 
ATOM      3  C   UNL d   1      -1.937   0.096   0.005  0.00  0.00     0.120 C 
ATOM      4  N   UNL d   1      -3.096   0.177   0.003  0.00  0.00    -0.190 NA
ATOM      5  N   UNL d   1       0.162   1.179   0.007  0.00  0.00    -0.354 N 
ATOM      6  HN  UNL d   1      -0.326   2.075   0.000  1.00  0.00     0.166 HD
ATOM      7  N   UNL d   1       1.510  -1.309   0.044  0.00  0.00    -0.357 N 
ATOM      8  HN  UNL d   1       2.007  -2.199   0.062  1.00  0.00     0.166 HD
ATOM      9  C   UNL d   1       1.508   1.093   0.007  0.00  0.00     0.106 A 
ATOM     10  C   UNL d   1       2.168  -0.123   0.026  0.00  0.00     0.106 A 
ENDROOT
BRANCH   2  11
ATOM     11  S   UNL d   1      -0.730  -2.799  -0.042  0.00  0.00    -0.107 SA
BRANCH  11  12
ATOM     12  C   UNL d   1       0.403  -3.907   0.859  0.00  0.00     0.107 C 
BRANCH  12  13
ATOM     13  C   UNL d   1      -0.244  -5.287   0.966  0.00  0.00     0.174 C 
BRANCH  13  14
ATOM     14  O   UNL d   1       0.619  -6.176   1.670  0.00  0.00    -0.400 OA
ATOM     15  H   UNL d   1       0.170  -7.039   1.694  0.00  0.00     0.209 HD
ENDBRANCH  13  14
ENDBRANCH  12  13
ENDBRANCH  11  12
ENDBRANCH   2  11
TORSDOF 4
