REMARK  6 active torsions:
REMARK  status: ('A' for Active; 'I' for Inactive)
REMARK    1  A    between atoms: C_10  and  C_1 
REMARK    2  A    between atoms: C_14  and  C_5 
REMARK    3  A    between atoms: S_16  and  C_9 
REMARK    4  A    between atoms: C_11  and  C_20 
REMARK       I    between atoms: N_15  and  C_11 
REMARK    5  A    between atoms: C_24  and  N_15 
REMARK    6  A    between atoms: C_20  and  S_16 
ROOT
ATOM      1  N   UNL d   1      -1.154   3.241  -0.614  0.00  0.00    -0.334 N 
ATOM      2  HN  UNL d   1      -0.392   3.123  -1.282  1.00  0.00     0.168 HD
ATOM      3  C   UNL d   1      -1.755   4.423  -0.430  0.00  0.00     0.145 A 
ATOM      4  C   UNL d   1      -1.613   2.217   0.131  0.00  0.00     0.071 A 
ATOM      5  N   UNL d   1      -2.756   4.660   0.428  0.00  0.00    -0.347 N 
ATOM      6  HN  UNL d   1      -3.176   5.585   0.524  1.00  0.00     0.167 HD
ATOM      7  C   UNL d   1      -2.632   2.356   1.051  0.00  0.00     0.049 A 
ATOM      8  C   UNL d   1      -3.175   3.611   1.154  0.00  0.00     0.092 A 
ENDROOT
BRANCH   4   9
ATOM      9  C   UNL d   1      -0.946   0.953  -0.123  0.00  0.00     0.127 A 
ATOM     10  C   UNL d   1       0.039   0.541  -0.988  0.00  0.00     0.074 A 
ATOM     11  C   UNL d   1       0.195  -0.851  -0.743  0.00  0.00     0.068 A 
ATOM     12  N   UNL d   1      -0.647  -1.236   0.232  0.00  0.00    -0.260 N 
ATOM     13  O   UNL d   1      -1.353  -0.115   0.609  0.00  0.00    -0.235 OA
ATOM     14  HN  UNL d   1      -0.743  -2.175   0.617  1.00  0.00     0.195 HD
BRANCH  11  15
ATOM     15  C   UNL d   1       1.093  -1.805  -1.402  0.00  0.00    -0.007 A 
ATOM     16  C   UNL d   1       1.974  -1.398  -2.417  0.00  0.00     0.015 A 
ATOM     17  C   UNL d   1       2.820  -2.322  -3.044  0.00  0.00     0.024 A 
ATOM     18  C   UNL d   1       2.792  -3.661  -2.662  0.00  0.00     0.034 A 
ATOM     19  C   UNL d   1       1.927  -4.085  -1.659  0.00  0.00     0.024 A 
ATOM     20 CL   UNL d   1       3.830  -4.794  -3.434  0.00  0.00    -0.084 Cl
ATOM     21  C   UNL d   1       1.083  -3.162  -1.034  0.00  0.00     0.015 A 
ENDBRANCH  11  15
ENDBRANCH   4   9
BRANCH   3  22
ATOM     22  S   UNL d   1      -1.023   5.798  -1.273  0.00  0.00    -0.085 SA
BRANCH  22  23
ATOM     23  C   UNL d   1      -0.902   6.942   0.132  0.00  0.00     0.185 C 
BRANCH  23  24
ATOM     24  C   UNL d   1      -0.076   6.453   1.318  0.00  0.00     0.231 C 
ATOM     25  N   UNL d   1       0.775   5.390   1.075  0.00  0.00    -0.327 N 
ATOM     26  H   UNL d   1       0.791   5.036   0.124  0.00  0.00     0.169 HD
ATOM     27  O   UNL d   1      -0.162   7.058   2.387  0.00  0.00    -0.272 OA
BRANCH  25  28
ATOM     28  C   UNL d   1       1.650   4.758   1.983  0.00  0.00     0.034 A 
ATOM     29  C   UNL d   1       1.721   5.067   3.342  0.00  0.00     0.029 A 
ATOM     30  C   UNL d   1       2.658   4.437   4.167  0.00  0.00     0.002 A 
ATOM     31  C   UNL d   1       3.528   3.486   3.642  0.00  0.00     0.000 A 
ATOM     32  C   UNL d   1       3.444   3.144   2.295  0.00  0.00     0.002 A 
ATOM     33  C   UNL d   1       2.503   3.770   1.471  0.00  0.00     0.029 A 
ENDBRANCH  25  28
ENDBRANCH  23  24
ENDBRANCH  22  23
ENDBRANCH   3  22
TORSDOF 6
