REMARK  4 active torsions:
REMARK  status: ('A' for Active; 'I' for Inactive)
REMARK    1  A    between atoms: C_10  and  C_2 
REMARK    2  A    between atoms: S_13  and  C_3 
REMARK    3  A    between atoms: C_6  and  C_9 
REMARK    4  A    between atoms: C_11  and  N_7 
ROOT
ATOM      1  C   UNL d   1       1.133  -0.237   0.158  0.00  0.00     0.094 C 
ATOM      2  C   UNL d   1       0.132   0.886   0.042  0.00  0.00     0.033 C 
ATOM      3  C   UNL d   1      -1.156   0.477   0.021  0.00  0.00     0.061 C 
ATOM      4  S   UNL d   1       0.353  -1.608   0.936  0.00  0.00    -0.033 SA
ATOM      5  S   UNL d   1      -1.421  -1.261   0.017  0.00  0.00    -0.043 SA
ATOM      6  N   UNL d   1       2.371  -0.143  -0.231  0.00  0.00    -0.349 N 
ATOM      7  HN  UNL d   1       2.693   0.742  -0.624  1.00  0.00     0.166 HD
ENDROOT
BRANCH   2   8
ATOM      8  C   UNL d   1       0.645   2.261   0.075  0.00  0.00    -0.021 A 
ATOM      9  C   UNL d   1       0.756   2.939   1.293  0.00  0.00     0.012 A 
ATOM     10  C   UNL d   1       1.346   4.204   1.337  0.00  0.00     0.001 A 
ATOM     11  C   UNL d   1       1.821   4.792   0.168  0.00  0.00     0.000 A 
ATOM     12  C   UNL d   1       1.699   4.128  -1.052  0.00  0.00     0.001 A 
ATOM     13  C   UNL d   1       1.116   2.860  -1.099  0.00  0.00     0.012 A 
ENDBRANCH   2   8
BRANCH   6  14
ATOM     14  C   UNL d   1       3.284  -1.205  -0.133  0.00  0.00     0.033 C 
ATOM     15  C   UNL d   1       2.985  -2.490  -0.595  0.00  0.00     0.045 C 
ATOM     16  C   UNL d   1       3.858  -3.565  -0.399  0.00  0.00     0.050 C 
ATOM     17  C   UNL d   1       5.131  -3.316   0.130  0.00  0.00     0.016 C 
ATOM     18  C   UNL d   1       5.488  -2.018   0.495  0.00  0.00     0.003 C 
ATOM     19  C   UNL d   1       4.565  -0.975   0.383  0.00  0.00     0.029 C 
BRANCH  16  20
ATOM     20  C   UNL d   1       3.406  -4.968  -0.715  0.00  0.00     0.417 C 
ATOM     21  F   UNL d   1       2.099  -5.040  -1.099  0.00  0.00    -0.166 F 
ATOM     22  F   UNL d   1       4.122  -5.545  -1.714  0.00  0.00    -0.166 F 
ATOM     23  F   UNL d   1       3.515  -5.800   0.359  0.00  0.00    -0.166 F 
ENDBRANCH  16  20
ENDBRANCH   6  14
BRANCH   3  24
ATOM     24  S   UNL d   1      -2.602   1.441   0.103  0.00  0.00    -0.126 SA
ATOM     25  C   UNL d   1      -2.321   2.859  -0.960  0.00  0.00     0.096 C 
ENDBRANCH   3  24
TORSDOF 4
