REMARK  7 active torsions:
REMARK  status: ('A' for Active; 'I' for Inactive)
REMARK    1  A    between atoms: C_3  and  C_1 
REMARK    2  A    between atoms: C_5  and  C_1 
REMARK    3  A    between atoms: C_6  and  C_1 
REMARK    4  A    between atoms: C_8  and  C_1 
REMARK    5  A    between atoms: N_2  and  C_7 
REMARK    6  A    between atoms: C_4  and  C_3 
REMARK    7  A    between atoms: C_17  and  C_8 
ROOT
ATOM      1  C   UNL d   1       1.060  -0.152  -0.094  0.00  0.00     0.088 C 
ENDROOT
BRANCH   1   2
ATOM      2  C   UNL d   1       0.581   0.433  -1.466  0.00  0.00     0.069 C 
BRANCH   2   3
ATOM      3  C   UNL d   1       0.785  -0.302  -2.786  0.00  0.00     0.004 A 
ATOM      4  C   UNL d   1       1.416  -1.547  -2.903  0.00  0.00     0.124 A 
ATOM      5  F   UNL d   1       1.755  -2.258  -1.825  0.00  0.00    -0.205 F 
ATOM      6  C   UNL d   1       1.712  -2.133  -4.131  0.00  0.00     0.043 A 
ATOM      7  C   UNL d   1       1.335  -1.505  -5.306  0.00  0.00     0.005 A 
ATOM      8  C   UNL d   1       0.627  -0.309  -5.236  0.00  0.00     0.024 A 
ATOM      9  C   UNL d   1       0.353   0.284  -3.994  0.00  0.00     0.043 A 
ATOM     10 CL   UNL d   1      -0.559   1.756  -4.022  0.00  0.00    -0.084 Cl
ENDBRANCH   2   3
ENDBRANCH   1   2
BRANCH   1  11
ATOM     11  C   UNL d   1       0.383  -1.510   0.194  0.00  0.00     0.139 C 
ATOM     12  O   UNL d   1       0.950  -2.368   0.886  0.00  0.00    -0.297 OA
ATOM     13  C   UNL d   1      -1.026  -1.788  -0.279  0.00  0.00     0.092 C 
ENDBRANCH   1  11
BRANCH   1  14
ATOM     14  C   UNL d   1       0.598   0.798   1.039  0.00  0.00     0.139 C 
ATOM     15  O   UNL d   1       0.001   1.851   0.801  0.00  0.00    -0.297 OA
ATOM     16  C   UNL d   1       0.881   0.424   2.482  0.00  0.00     0.092 C 
ENDBRANCH   1  14
BRANCH   1  17
ATOM     17  C   UNL d   1       2.631  -0.272  -0.021  0.00  0.00     0.064 C 
BRANCH  17  18
ATOM     18  C   UNL d   1       3.390   1.040  -0.112  0.00  0.00    -0.057 C 
ATOM     19  C   UNL d   1       3.731   1.732   1.058  0.00  0.00     0.009 C 
ATOM     20  C   UNL d   1       4.179   3.050   0.998  0.00  0.00     0.036 C 
ATOM     21  C   UNL d   1       4.334   3.664  -0.248  0.00  0.00     0.102 C 
ATOM     22  C   UNL d   1       4.149   2.935  -1.428  0.00  0.00     0.036 C 
ATOM     23  C   UNL d   1       3.687   1.619  -1.355  0.00  0.00     0.009 C 
BRANCH  21  24
ATOM     24  N   UNL d   1       4.633   5.098  -0.315  0.00  0.00    -0.116 N 
ATOM     25  O   UNL d   1       4.723   5.719   0.754  0.00  0.00    -0.532 OA
ATOM     26  O   UNL d   1       4.756   5.610  -1.437  0.00  0.00    -0.532 OA
ENDBRANCH  21  24
ENDBRANCH  17  18
ENDBRANCH   1  17
TORSDOF 7
