REMARK  5 active torsions:
REMARK  status: ('A' for Active; 'I' for Inactive)
REMARK       I    between atoms: C_4  and  N_1 
REMARK    1  A    between atoms: C_3  and  C_2 
REMARK    2  A    between atoms: C_12  and  C_4 
REMARK    3  A    between atoms: C_19  and  C_9 
REMARK    4  A    between atoms: O_20  and  C_19 
REMARK    5  A    between atoms: C_21  and  O_20 
ROOT
ATOM      1  C   UNL d   1      -0.833  -2.680   0.049  0.00  0.00     0.057 C 
ATOM      2  C   UNL d   1      -1.544  -3.304  -0.976  0.00  0.00     0.025 C 
ATOM      3  N   UNL d   1      -1.827  -4.649  -0.767  0.00  0.00    -0.355 N 
ATOM      4  HN  UNL d   1      -2.331  -5.246  -1.423  1.00  0.00     0.166 HD
ATOM      5  S   UNL d   1      -0.676  -3.801   1.353  0.00  0.00    -0.070 SA
ATOM      6  C   UNL d   1      -1.356  -5.046   0.395  0.00  0.00     0.076 C 
ATOM      7  C   UNL d   1      -2.047  -2.741  -2.259  0.00  0.00     0.070 C 
ENDROOT
BRANCH   1   8
ATOM      8  C   UNL d   1      -0.387  -1.306   0.149  0.00  0.00     0.080 A 
ATOM      9  N   UNL d   1       0.734  -0.816   0.834  0.00  0.00    -0.223 N 
ATOM     10  C   UNL d   1       1.802  -1.477   1.482  0.00  0.00     0.247 C 
ATOM     11  N   UNL d   1       0.775   0.557   0.802  0.00  0.00    -0.302 N 
ATOM     12  O   UNL d   1       2.074  -2.636   1.180  0.00  0.00    -0.271 OA
ATOM     13  C   UNL d   1      -0.239   0.911   0.021  0.00  0.00     0.110 A 
ATOM     14  HN  UNL d   1       1.438   1.170   1.275  1.00  0.00     0.186 HD
ATOM     15  C   UNL d   1      -1.014  -0.184  -0.369  0.00  0.00     0.052 A 
BRANCH  10  16
ATOM     16  C   UNL d   1       2.595  -0.750   2.528  0.00  0.00     0.080 A 
ATOM     17  C   UNL d   1       4.085  -0.960   2.650  0.00  0.00     0.015 A 
ATOM     18  C   UNL d   1       3.169  -1.519   3.700  0.00  0.00     0.015 A 
ENDBRANCH  10  16
ENDBRANCH   1   8
BRANCH   6  19
ATOM     19  C   UNL d   1      -1.464  -6.446   0.925  0.00  0.00     0.240 C 
BRANCH  19  20
ATOM     20  O   UNL d   1      -0.305  -7.167   0.495  0.00  0.00    -0.345 OA
BRANCH  20  21
ATOM     21  C   UNL d   1      -0.252  -8.498   0.824  0.00  0.00     0.070 A 
ATOM     22  C   UNL d   1      -1.173  -9.183   1.612  0.00  0.00     0.060 A 
ATOM     23  C   UNL d   1      -0.991 -10.544   1.872  0.00  0.00     0.036 A 
ATOM     24 CL   UNL d   1      -2.133 -11.383   2.850  0.00  0.00    -0.084 Cl
ATOM     25  C   UNL d   1       0.105 -11.230   1.351  0.00  0.00     0.024 A 
ATOM     26  C   UNL d   1       1.027 -10.549   0.565  0.00  0.00     0.004 A 
ATOM     27  C   UNL d   1       0.851  -9.187   0.303  0.00  0.00     0.037 A 
ENDBRANCH  20  21
ENDBRANCH  19  20
ENDBRANCH   6  19
TORSDOF 5
