REMARK  8 active torsions:
REMARK  status: ('A' for Active; 'I' for Inactive)
REMARK       I    between atoms: N_2  and  C_1 
REMARK    1  A    between atoms: C_10  and  C_1 
REMARK    2  A    between atoms: C_7  and  N_2 
REMARK    3  A    between atoms: C_6  and  C_7 
REMARK    4  A    between atoms: S_8  and  C_10 
REMARK    5  A    between atoms: C_13  and  S_8 
REMARK    6  A    between atoms: C_9  and  O_11 
REMARK    7  A    between atoms: O_11  and  C_14 
REMARK    8  A    between atoms: C_14  and  C_13 
ROOT
ATOM      1  C   UNL d   1       0.961   0.047  -0.222  0.00  0.00     0.227 C 
ATOM      2  N   UNL d   1       0.227  -1.060  -0.545  0.00  0.00    -0.355 N 
ATOM      3  O   UNL d   1       0.417   1.106   0.106  0.00  0.00    -0.273 OA
ATOM      4  H   UNL d   1       0.673  -1.905  -0.894  0.00  0.00     0.162 HD
ENDROOT
BRANCH   1   5
ATOM      5  C   UNL d   1       2.474  -0.058  -0.200  0.00  0.00     0.176 C 
BRANCH   5   6
ATOM      6  S   UNL d   1       3.172  -1.611  -0.835  0.00  0.00    -0.158 SA
BRANCH   6   7
ATOM      7  C   UNL d   1       4.951  -1.299  -0.493  0.00  0.00     0.101 C 
BRANCH   7   8
ATOM      8  C   UNL d   1       5.240  -1.145   1.000  0.00  0.00     0.186 C 
BRANCH   8   9
ATOM      9  O   UNL d   1       6.650  -1.045   1.222  0.00  0.00    -0.350 OA
BRANCH   9  10
ATOM     10  C   UNL d   1       7.030  -0.887   2.532  0.00  0.00     0.068 A 
ATOM     11  C   UNL d   1       6.168  -0.813   3.630  0.00  0.00     0.037 A 
ATOM     12  C   UNL d   1       6.678  -0.659   4.922  0.00  0.00     0.003 A 
ATOM     13  C   UNL d   1       8.052  -0.577   5.126  0.00  0.00     0.000 A 
ATOM     14  C   UNL d   1       8.918  -0.644   4.036  0.00  0.00     0.003 A 
ATOM     15  C   UNL d   1       8.407  -0.797   2.745  0.00  0.00     0.037 A 
ENDBRANCH   9  10
ENDBRANCH   8   9
ENDBRANCH   7   8
ENDBRANCH   6   7
ENDBRANCH   5   6
ENDBRANCH   1   5
BRANCH   2  16
ATOM     16  C   UNL d   1      -1.218  -1.004  -0.525  0.00  0.00     0.179 C 
BRANCH  16  17
ATOM     17  C   UNL d   1      -1.901  -2.290  -0.930  0.00  0.00     0.026 A 
ATOM     18  N   UNL d   1      -1.148  -3.308  -1.425  0.00  0.00    -0.368 N 
ATOM     19  C   UNL d   1      -1.804  -4.430  -1.801  0.00  0.00     0.088 A 
ATOM     20  HN  UNL d   1      -0.135  -3.229  -1.510  1.00  0.00     0.165 HD
ATOM     21  C   UNL d   1      -3.177  -4.595  -1.710  0.00  0.00     0.017 A 
ATOM     22  C   UNL d   1      -3.932  -3.545  -1.201  0.00  0.00     0.003 A 
ATOM     23  C   UNL d   1      -3.289  -2.377  -0.807  0.00  0.00     0.027 A 
ENDBRANCH  16  17
ENDBRANCH   2  16
TORSDOF 8
