REMARK  5 active torsions:
REMARK  status: ('A' for Active; 'I' for Inactive)
REMARK    1  A    between atoms: S_2  and  C_1 
REMARK    2  A    between atoms: N_13  and  S_2 
REMARK    3  A    between atoms: N_7  and  C_16 
REMARK    4  A    between atoms: C_15  and  N_13 
REMARK    5  A    between atoms: C_16  and  C_15 
ROOT
ATOM      1  N   UNL d   1      -4.208  -0.925  -0.098  0.00  0.00    -0.213 NA
ATOM      2  H   UNL d   1      -4.226  -0.374  -0.959  0.00  0.00     0.140 HD
ENDROOT
BRANCH   1   3
ATOM      3  S   UNL d   1      -2.739  -1.767  -0.030  0.00  0.00     0.258 S 
ATOM      4  O   UNL d   1      -2.670  -2.478   1.228  0.00  0.00    -0.204 OA
ATOM      5  O   UNL d   1      -1.708  -0.839  -0.450  0.00  0.00    -0.204 OA
BRANCH   3   6
ATOM      6  C   UNL d   1      -2.766  -2.998  -1.273  0.00  0.00     0.160 A 
ATOM      7  N   UNL d   1      -3.348  -4.247  -1.100  0.00  0.00    -0.341 N 
ATOM      8  C   UNL d   1      -3.235  -4.842  -2.266  0.00  0.00     0.183 A 
ATOM      9  HN  UNL d   1      -3.771  -4.622  -0.251  1.00  0.00     0.167 HD
ATOM     10  N   UNL d   1      -2.632  -4.031  -3.186  0.00  0.00    -0.354 N 
ATOM     11  C   UNL d   1      -2.337  -2.846  -2.578  0.00  0.00     0.134 A 
ATOM     12  C   UNL d   1      -2.370  -4.382  -4.558  0.00  0.00     0.156 C 
ENDBRANCH   3   6
ENDBRANCH   1   3
BRANCH   1  13
ATOM     13  C   UNL d   1      -5.417  -1.777   0.020  0.00  0.00     0.124 C 
BRANCH  13  14
ATOM     14  C   UNL d   1      -6.683  -0.910  -0.031  0.00  0.00     0.142 C 
BRANCH  14  15
ATOM     15  N   UNL d   1      -6.784   0.005  -1.166  0.00  0.00    -0.332 N 
ATOM     16  C   UNL d   1      -6.327  -0.231  -2.463  0.00  0.00     0.318 C 
ATOM     17  N   UNL d   1      -6.824   0.781  -3.273  0.00  0.00    -0.341 N 
ATOM     18  O   UNL d   1      -5.583  -1.114  -2.846  0.00  0.00    -0.247 OA
ATOM     19  C   UNL d   1      -7.447   1.799  -2.472  0.00  0.00     0.144 C 
ATOM     20  H   UNL d   1      -6.438   0.908  -4.199  0.00  0.00     0.164 HD
ATOM     21  C   UNL d   1      -7.786   1.052  -1.192  0.00  0.00     0.147 C 
ENDBRANCH  14  15
ENDBRANCH  13  14
ENDBRANCH   1  13
TORSDOF 5
