REMARK  6 active torsions:
REMARK  status: ('A' for Active; 'I' for Inactive)
REMARK    1  A    between atoms: N_2  and  C_1 
REMARK    2  A    between atoms: N_3  and  C_5 
REMARK    3  A    between atoms: O_13  and  C_6 
REMARK    4  A    between atoms: C_16  and  O_13 
REMARK    5  A    between atoms: O_14  and  C_15 
REMARK    6  A    between atoms: C_15  and  C_16 
ROOT
ATOM      1  C   UNL d   1       1.442  -0.324   0.024  0.00  0.00     0.138 A 
ATOM      2  C   UNL d   1       0.497  -1.367   0.046  0.00  0.00     0.075 A 
ATOM      3  C   UNL d   1      -0.864  -1.052   0.001  0.00  0.00     0.105 A 
ATOM      4  C   UNL d   1       1.058   1.019  -0.072  0.00  0.00     0.102 A 
ATOM      5  C   UNL d   1      -1.276   0.284  -0.054  0.00  0.00     0.039 A 
ATOM      6  C   UNL d   1      -0.317   1.303  -0.086  0.00  0.00     0.042 A 
ENDROOT
BRANCH   4   7
ATOM      7  O   UNL d   1       1.829   2.147  -0.114  0.00  0.00    -0.346 OA
BRANCH   7   8
ATOM      8  C   UNL d   1       3.074   2.098  -0.813  0.00  0.00     0.201 C 
BRANCH   8   9
ATOM      9  C   UNL d   1       3.339   3.454  -1.466  0.00  0.00     0.190 C 
BRANCH   9  10
ATOM     10  O   UNL d   1       4.602   3.433  -2.119  0.00  0.00    -0.399 OA
ATOM     11  H   UNL d   1       4.800   4.343  -2.399  0.00  0.00     0.209 HD
ENDBRANCH   9  10
ENDBRANCH   8   9
ENDBRANCH   7   8
ENDBRANCH   4   7
BRANCH   1  12
ATOM     12  N   UNL d   1       2.826  -0.725   0.190  0.00  0.00    -0.113 N 
ATOM     13  O   UNL d   1       3.279  -1.517  -0.644  0.00  0.00    -0.532 OA
ATOM     14  O   UNL d   1       3.429  -0.282   1.175  0.00  0.00    -0.532 OA
ENDBRANCH   1  12
BRANCH   3  15
ATOM     15  N   UNL d   1      -1.865  -2.126   0.030  0.00  0.00    -0.116 N 
ATOM     16  O   UNL d   1      -1.452  -3.292   0.103  0.00  0.00    -0.532 OA
ATOM     17  O   UNL d   1      -3.058  -1.802  -0.021  0.00  0.00    -0.532 OA
ENDBRANCH   3  15
TORSDOF 6
