REMARK  3 active torsions:
REMARK  status: ('A' for Active; 'I' for Inactive)
REMARK    1  A    between atoms: C_7  and  C_1 
REMARK    2  A    between atoms: C_8  and  C_5 
REMARK       I    between atoms: N_10  and  C_7 
REMARK    3  A    between atoms: N_14  and  N_10 
ROOT
ATOM      1  C   UNL d   1      -0.172  -1.099  -0.024  0.00  0.00     0.098 A 
ATOM      2  S   UNL d   1       1.376  -0.358  -0.037  0.00  0.00    -0.064 SA
ATOM      3  N   UNL d   1      -0.660   1.189  -0.002  0.00  0.00    -0.352 N 
ATOM      4  HN  UNL d   1      -1.245   2.025  -0.007  1.00  0.00     0.166 HD
ATOM      5  C   UNL d   1       0.656   1.198   0.012  0.00  0.00     0.085 A 
ATOM      6  C   UNL d   1      -1.147  -0.114  -0.009  0.00  0.00     0.029 A 
ATOM      7  C   UNL d   1      -2.625  -0.297   0.002  0.00  0.00     0.070 C 
ENDROOT
BRANCH   1   8
ATOM      8  C   UNL d   1      -0.318  -2.545  -0.015  0.00  0.00     0.274 C 
ATOM      9  O   UNL d   1      -1.400  -3.123   0.072  0.00  0.00    -0.266 OA
ATOM     10  N   UNL d   1       0.880  -3.263  -0.105  0.00  0.00    -0.289 N 
ATOM     11  H   UNL d   1       1.746  -2.759  -0.280  0.00  0.00     0.183 HD
BRANCH  10  12
ATOM     12  N   UNL d   1       0.885  -4.674  -0.142  0.00  0.00    -0.247 NA
ATOM     13  H   UNL d   1      -0.097  -4.981  -0.177  0.00  0.00     0.143 HD
ATOM     14  H   UNL d   1       1.227  -5.014   0.760  0.00  0.00     0.143 HD
ENDBRANCH  10  12
ENDBRANCH   1   8
BRANCH   5  15
ATOM     15  C   UNL d   1       1.484   2.415   0.005  0.00  0.00    -0.002 A 
ATOM     16  C   UNL d   1       0.954   3.599  -0.532  0.00  0.00     0.016 A 
ATOM     17  C   UNL d   1       1.716   4.771  -0.584  0.00  0.00     0.024 A 
ATOM     18  C   UNL d   1       3.017   4.771  -0.089  0.00  0.00     0.034 A 
ATOM     19  C   UNL d   1       3.557   3.615   0.465  0.00  0.00     0.024 A 
ATOM     20 CL   UNL d   1       3.963   6.205  -0.163  0.00  0.00    -0.084 Cl
ATOM     21  C   UNL d   1       2.793   2.444   0.516  0.00  0.00     0.016 A 
ENDBRANCH   5  15
TORSDOF 3
