REMARK  7 active torsions:
REMARK  status: ('A' for Active; 'I' for Inactive)
REMARK    1  A    between atoms: C_2  and  S_1 
REMARK    2  A    between atoms: N_11  and  S_1 
REMARK    3  A    between atoms: O_20  and  C_10 
REMARK    4  A    between atoms: C_21  and  N_11 
REMARK    5  A    between atoms: O_22  and  C_12 
REMARK    6  A    between atoms: C_18  and  C_23 
REMARK    7  A    between atoms: C_23  and  C_21 
ROOT
ATOM      1  N   UNL d   1       2.630  -0.052  -0.045  0.00  0.00    -0.215 NA
ATOM      2  H   UNL d   1       3.062  -0.974   0.051  0.00  0.00     0.139 HD
ENDROOT
BRANCH   1   3
ATOM      3  S   UNL d   1       0.944  -0.206  -0.127  0.00  0.00     0.243 S 
ATOM      4  O   UNL d   1       0.535   0.164  -1.463  0.00  0.00    -0.206 OA
ATOM      5  O   UNL d   1       0.609  -1.494   0.421  0.00  0.00    -0.206 OA
BRANCH   3   6
ATOM      6  C   UNL d   1       0.356   1.039   0.994  0.00  0.00     0.098 A 
ATOM      7  C   UNL d   1      -0.394   2.101   0.459  0.00  0.00     0.052 A 
ATOM      8  C   UNL d   1      -0.908   3.096   1.295  0.00  0.00     0.057 A 
ATOM      9 CL   UNL d   1      -1.808   4.374   0.566  0.00  0.00    -0.083 Cl
ATOM     10  C   UNL d   1      -0.683   3.027   2.672  0.00  0.00     0.057 A 
ATOM     11  C   UNL d   1       0.046   1.960   3.206  0.00  0.00     0.051 A 
ATOM     12 CL   UNL d   1      -1.271   4.226   3.768  0.00  0.00    -0.082 Cl
ATOM     13  C   UNL d   1       0.568   0.960   2.372  0.00  0.00     0.058 A 
ATOM     14 CL   UNL d   1       1.464  -0.294   3.143  0.00  0.00    -0.083 Cl
ENDBRANCH   3   6
ENDBRANCH   1   3
BRANCH   1  15
ATOM     15  C   UNL d   1       3.246   0.897  -0.988  0.00  0.00     0.109 C 
BRANCH  15  16
ATOM     16  C   UNL d   1       4.775   0.888  -0.900  0.00  0.00     0.054 C 
BRANCH  16  17
ATOM     17  C   UNL d   1       5.326   1.847  -1.934  0.00  0.00    -0.054 A 
ATOM     18  C   UNL d   1       5.636   1.398  -3.230  0.00  0.00     0.046 A 
ATOM     19  C   UNL d   1       5.989   2.297  -4.250  0.00  0.00     0.102 A 
ATOM     20  C   UNL d   1       6.008   3.672  -3.962  0.00  0.00     0.101 A 
ATOM     21  C   UNL d   1       5.750   4.113  -2.658  0.00  0.00     0.040 A 
ATOM     22  C   UNL d   1       5.412   3.212  -1.650  0.00  0.00     0.010 A 
BRANCH  19  23
ATOM     23  O   UNL d   1       6.328   1.906  -5.518  0.00  0.00    -0.353 OA
ATOM     24  C   UNL d   1       6.364   0.515  -5.806  0.00  0.00     0.210 C 
ENDBRANCH  19  23
BRANCH  20  25
ATOM     25  O   UNL d   1       6.306   4.693  -4.830  0.00  0.00    -0.353 OA
ATOM     26  C   UNL d   1       5.879   4.527  -6.177  0.00  0.00     0.210 C 
ENDBRANCH  20  25
ENDBRANCH  16  17
ENDBRANCH  15  16
ENDBRANCH   1  15
TORSDOF 7
