REMARK  2 active torsions:
REMARK  status: ('A' for Active; 'I' for Inactive)
REMARK    1  A    between atoms: O_14  and  C_5 
REMARK    2  A    between atoms: S_13  and  C_8 
ROOT
ATOM      1  N   UNL d   1      -0.739  -0.693  -0.019  0.00  0.00    -0.061 N 
ATOM      2  C   UNL d   1      -0.432   0.674  -0.019  0.00  0.00     0.708 A 
ATOM      3  N   UNL d   1      -1.551   1.367  -0.024  0.00  0.00    -0.167 N 
ATOM      4  HN  UNL d   1      -1.666   2.380  -0.026  1.00  0.00     0.186 HD
ATOM      5  C   UNL d   1       0.275  -1.672  -0.013  0.00  0.00     0.183 A 
ATOM      6  N   UNL d   1      -2.085  -0.850  -0.023  0.00  0.00    -0.256 N 
ATOM      7  HN  UNL d   1      -2.628  -1.713  -0.023  1.00  0.00     0.190 HD
ATOM      8  C   UNL d   1      -2.518   0.409  -0.028  0.00  0.00     0.174 A 
ATOM      9  N   UNL d   1       0.855   1.125  -0.019  0.00  0.00    -0.194 N 
ATOM     10  HN  UNL d   1       1.074   2.121  -0.021  1.00  0.00     0.184 HD
ATOM     11  C   UNL d   1       1.557  -1.257  -0.010  0.00  0.00     0.083 A 
ATOM     12  C   UNL d   1       1.789   0.220  -0.016  0.00  0.00     0.027 A 
ATOM     13  C   UNL d   1       3.226   0.683  -0.024  0.00  0.00     0.069 C 
ENDROOT
BRANCH   5  14
ATOM     14  O   UNL d   1      -0.133  -2.994  -0.014  0.00  0.00    -0.339 OA
ATOM     15  C   UNL d   1       0.863  -4.008  -0.014  0.00  0.00     0.211 C 
ENDBRANCH   5  14
BRANCH   8  16
ATOM     16  S   UNL d   1      -4.229   0.747  -0.043  0.00  0.00    -0.097 SA
ATOM     17  C   UNL d   1      -4.228   2.549  -0.048  0.00  0.00     0.099 C 
ENDBRANCH   8  16
TORSDOF 2
