REMARK  3 active torsions:
REMARK  status: ('A' for Active; 'I' for Inactive)
REMARK    1  A    between atoms: C_4  and  S_1 
REMARK    2  A    between atoms: N_5  and  S_1 
REMARK       I    between atoms: C_7  and  N_2 
REMARK    3  A    between atoms: C_16  and  N_5 
ROOT
ATOM      1  N   UNL d   1      -1.092   0.849  -5.599  0.00  0.00    -0.318 N 
ATOM      2  C   UNL d   1      -0.634   0.470  -4.321  0.00  0.00     0.043 A 
ATOM      3  C   UNL d   1       0.359   0.231  -1.740  0.00  0.00     0.080 A 
ATOM      4  C   UNL d   1      -0.220   1.599  -3.607  0.00  0.00    -0.028 A 
ATOM      5  C   UNL d   1      -1.534  -0.012  -6.587  0.00  0.00     0.220 C 
ATOM      6  C   UNL d   1      -1.082   2.321  -5.670  0.00  0.00     0.137 C 
ATOM      7  C   UNL d   1       0.279   1.502  -2.317  0.00  0.00     0.034 A 
ATOM      8  C   UNL d   1      -0.565  -0.790  -3.747  0.00  0.00     0.032 A 
ATOM      9  C   UNL d   1      -0.351   2.840  -4.428  0.00  0.00     0.061 C 
ATOM     10  C   UNL d   1      -0.072  -0.910  -2.441  0.00  0.00     0.027 A 
ATOM     11  O   UNL d   1      -1.545  -1.240  -6.493  0.00  0.00    -0.273 OA
ATOM     12  C   UNL d   1      -1.985   0.620  -7.885  0.00  0.00     0.117 C 
ENDROOT
BRANCH   3  13
ATOM     13  S   UNL d   1       0.955   0.072  -0.071  0.00  0.00     0.263 S 
ATOM     14  O   UNL d   1       0.372  -1.131   0.489  0.00  0.00    -0.200 OA
ATOM     15  O   UNL d   1       0.805   1.352   0.589  0.00  0.00    -0.200 OA
BRANCH  13  16
ATOM     16  N   UNL d   1       2.578  -0.253  -0.282  0.00  0.00    -0.281 N 
ATOM     17  H   UNL d   1       2.912  -1.169   0.010  0.00  0.00     0.179 HD
BRANCH  16  18
ATOM     18  C   UNL d   1       3.480   0.716  -0.774  0.00  0.00     0.042 A 
ATOM     19  C   UNL d   1       4.009   1.686   0.079  0.00  0.00     0.032 A 
ATOM     20  C   UNL d   1       4.972   2.579  -0.399  0.00  0.00     0.026 A 
ATOM     21  C   UNL d   1       5.395   2.497  -1.725  0.00  0.00     0.034 A 
ATOM     22  C   UNL d   1       4.861   1.533  -2.579  0.00  0.00     0.026 A 
ATOM     23 CL   UNL d   1       6.597   3.580  -2.309  0.00  0.00    -0.084 Cl
ATOM     24  C   UNL d   1       3.905   0.635  -2.099  0.00  0.00     0.032 A 
ENDBRANCH  16  18
ENDBRANCH  13  16
ENDBRANCH   3  13
TORSDOF 3
