REMARK  4 active torsions:
REMARK  status: ('A' for Active; 'I' for Inactive)
REMARK       I    between atoms: C_3  and  N_9 
REMARK       I    between atoms: N_7  and  C_3 
REMARK    1  A    between atoms: C_18  and  C_4 
REMARK    2  A    between atoms: C_10  and  N_7 
REMARK    3  A    between atoms: N_9  and  C_15 
REMARK    4  A    between atoms: C_15  and  C_18 
ROOT
ATOM      1  C   UNL d   1      -0.213  -5.717   0.520  0.00  0.00     0.320 C 
ATOM      2  N   UNL d   1      -0.575  -6.983   0.922  0.00  0.00    -0.309 N 
ATOM      3  O   UNL d   1       0.925  -5.285   0.392  0.00  0.00    -0.247 OA
ATOM      4  N   UNL d   1      -1.321  -4.913   0.303  0.00  0.00    -0.343 N 
ATOM      5  H   UNL d   1      -1.555  -7.117   1.116  0.00  0.00     0.170 HD
ATOM      6  H   UNL d   1      -2.107  -5.388  -0.123  0.00  0.00     0.164 HD
ENDROOT
BRANCH   4   7
ATOM      7  C   UNL d   1      -1.087  -3.551  -0.154  0.00  0.00     0.129 C 
BRANCH   7   8
ATOM      8  C   UNL d   1      -2.348  -2.685  -0.215  0.00  0.00     0.060 C 
BRANCH   8   9
ATOM      9  C   UNL d   1      -3.302  -3.148  -1.271  0.00  0.00    -0.029 A 
ATOM     10  C   UNL d   1      -3.259  -2.822  -2.613  0.00  0.00     0.096 A 
ATOM     11  N   UNL d   1      -4.255  -3.508  -3.253  0.00  0.00    -0.365 N 
ATOM     12  C   UNL d   1      -4.954  -4.278  -2.354  0.00  0.00     0.042 A 
ATOM     13  H   UNL d   1      -4.446  -3.467  -4.245  0.00  0.00     0.165 HD
ATOM     14  C   UNL d   1      -4.407  -4.038  -1.094  0.00  0.00    -0.002 A 
ATOM     15  C   UNL d   1      -6.020  -5.162  -2.559  0.00  0.00     0.030 A 
ATOM     16  C   UNL d   1      -4.976  -4.684   0.023  0.00  0.00     0.014 A 
ATOM     17  C   UNL d   1      -6.049  -5.561  -0.163  0.00  0.00     0.001 A 
ATOM     18  C   UNL d   1      -6.554  -5.803  -1.438  0.00  0.00     0.002 A 
ENDBRANCH   8   9
ENDBRANCH   7   8
ENDBRANCH   4   7
BRANCH   2  19
ATOM     19  C   UNL d   1       0.300  -8.037   1.270  0.00  0.00     0.036 A 
ATOM     20  C   UNL d   1       1.688  -7.980   1.104  0.00  0.00     0.031 A 
ATOM     21  C   UNL d   1       2.505  -9.042   1.505  0.00  0.00     0.026 A 
ATOM     22  C   UNL d   1       1.937 -10.179   2.067  0.00  0.00     0.034 A 
ATOM     23  C   UNL d   1       0.556 -10.266   2.220  0.00  0.00     0.026 A 
ATOM     24 CL   UNL d   1       2.944 -11.476   2.579  0.00  0.00    -0.084 Cl
ATOM     25  C   UNL d   1      -0.260  -9.199   1.819  0.00  0.00     0.031 A 
ENDBRANCH   2  19
TORSDOF 4
