REMARK  3 active torsions:
REMARK  status: ('A' for Active; 'I' for Inactive)
REMARK    1  A    between atoms: C_2  and  S_1 
REMARK    2  A    between atoms: C_3  and  S_1 
REMARK    3  A    between atoms: C_6  and  C_4 
ROOT
ATOM      1  C   UNL d   1       0.360   0.134  -1.713  0.00  0.00     0.145 C 
ATOM      2  C   UNL d   1      -0.479  -0.758  -2.277  0.00  0.00     0.054 C 
ATOM      3  C   UNL d   1       0.858   0.061  -0.377  0.00  0.00     0.112 C 
ATOM      4  N   UNL d   1       1.266  -0.024   0.714  0.00  0.00    -0.191 NA
ENDROOT
BRANCH   1   5
ATOM      5  S   UNL d   1       0.827   1.516  -2.658  0.00  0.00     0.223 S 
ATOM      6  O   UNL d   1       0.513   2.734  -1.935  0.00  0.00    -0.216 OA
ATOM      7  O   UNL d   1       0.432   1.379  -4.050  0.00  0.00    -0.216 OA
BRANCH   5   8
ATOM      8  C   UNL d   1       2.609   1.481  -2.701  0.00  0.00     0.105 A 
ATOM      9  S   UNL d   1       3.330   0.114  -3.437  0.00  0.00    -0.090 SA
ATOM     10  C   UNL d   1       4.906   0.722  -3.167  0.00  0.00     0.051 A 
ATOM     11  C   UNL d   1       4.888   1.939  -2.522  0.00  0.00     0.009 A 
ATOM     12  C   UNL d   1       3.560   2.378  -2.254  0.00  0.00     0.032 A 
ENDBRANCH   5   8
ENDBRANCH   1   5
BRANCH   2  13
ATOM     13  C   UNL d   1      -0.960  -1.868  -1.532  0.00  0.00     0.006 A 
ATOM     14  S   UNL d   1      -0.038  -3.314  -1.433  0.00  0.00    -0.102 SA
ATOM     15  C   UNL d   1      -1.135  -4.015  -0.326  0.00  0.00     0.050 A 
ATOM     16  C   UNL d   1      -2.210  -3.194  -0.074  0.00  0.00     0.008 A 
ATOM     17  C   UNL d   1      -2.119  -1.963  -0.785  0.00  0.00     0.019 A 
ENDBRANCH   2  13
TORSDOF 3
