REMARK  6 active torsions:
REMARK  status: ('A' for Active; 'I' for Inactive)
REMARK    1  A    between atoms: C_3  and  C_1 
REMARK    2  A    between atoms: C_10  and  N_2 
REMARK    3  A    between atoms: C_4  and  N_12 
REMARK    4  A    between atoms: N_8  and  C_4 
REMARK    5  A    between atoms: C_7  and  N_8 
REMARK    6  A    between atoms: N_12  and  C_23 
ROOT
ATOM      1  C   UNL d   1       1.945  -1.720   0.585  0.00  0.00     0.057 A 
ATOM      2  C   UNL d   1       1.874  -3.021   0.071  0.00  0.00     0.034 A 
ATOM      3  C   UNL d   1       3.193  -1.218   0.987  0.00  0.00     0.034 A 
ATOM      4  C   UNL d   1       4.279  -3.285   0.340  0.00  0.00     0.034 A 
ATOM      5  C   UNL d   1       4.351  -1.992   0.859  0.00  0.00     0.032 A 
ATOM      6  C   UNL d   1       3.038  -3.794  -0.041  0.00  0.00     0.032 A 
ENDROOT
BRANCH   4   7
ATOM      7  N   UNL d   1       5.486  -3.967   0.079  0.00  0.00    -0.333 N 
ATOM      8  H   UNL d   1       6.337  -3.416   0.089  0.00  0.00     0.168 HD
BRANCH   7   9
ATOM      9  C   UNL d   1       5.667  -5.301  -0.145  0.00  0.00     0.176 C 
ATOM     10  S   UNL d   1       5.007  -6.526   0.794  0.00  0.00    -0.041 SA
BRANCH   9  11
ATOM     11  N   UNL d   1       6.552  -5.672  -1.120  0.00  0.00    -0.333 N 
ATOM     12  H   UNL d   1       6.794  -6.652  -1.037  0.00  0.00     0.168 HD
BRANCH  11  13
ATOM     13  C   UNL d   1       7.016  -5.005  -2.281  0.00  0.00     0.041 A 
ATOM     14  C   UNL d   1       6.475  -3.783  -2.704  0.00  0.00     0.053 A 
ATOM     15  C   UNL d   1       6.949  -3.142  -3.850  0.00  0.00     0.036 A 
ATOM     16 CL   UNL d   1       6.254  -1.646  -4.342  0.00  0.00    -0.084 Cl
ATOM     17  C   UNL d   1       7.967  -3.706  -4.604  0.00  0.00     0.024 A 
ATOM     18  C   UNL d   1       8.487  -4.940  -4.225  0.00  0.00     0.011 A 
ATOM     19  C   UNL d   1       8.004  -5.618  -3.087  0.00  0.00    -0.035 A 
ATOM     20  C   UNL d   1       8.630  -6.958  -2.795  0.00  0.00     0.050 C 
ENDBRANCH  11  13
ENDBRANCH   9  11
ENDBRANCH   7   9
ENDBRANCH   4   7
BRANCH   1  21
ATOM     21  N   UNL d   1       0.810  -0.855   0.608  0.00  0.00    -0.252 N 
ATOM     22  C   UNL d   1      -0.545  -1.114   0.566  0.00  0.00     0.141 C 
ATOM     23  C   UNL d   1      -1.159   0.086   0.236  0.00  0.00     0.055 C 
ATOM     24  C   UNL d   1      -0.136   1.034   0.262  0.00  0.00     0.110 C 
ATOM     25  N   UNL d   1       1.037   0.491   0.575  0.00  0.00    -0.305 N 
ATOM     26  HN  UNL d   1       1.917   0.976   0.753  1.00  0.00     0.186 HD
BRANCH  22  27
ATOM     27  C   UNL d   1      -1.171  -2.404   0.871  0.00  0.00     0.434 C 
ATOM     28  F   UNL d   1      -0.411  -3.223   1.633  0.00  0.00    -0.165 F 
ATOM     29  F   UNL d   1      -2.334  -2.229   1.553  0.00  0.00    -0.165 F 
ATOM     30  F   UNL d   1      -1.490  -3.082  -0.260  0.00  0.00    -0.165 F 
ENDBRANCH  22  27
ENDBRANCH   1  21
TORSDOF 6
