REMARK  5 active torsions:
REMARK  status: ('A' for Active; 'I' for Inactive)
REMARK    1  A    between atoms: C_10  and  C_2 
REMARK    2  A    between atoms: S_12  and  C_7 
REMARK    3  A    between atoms: C_15  and  S_12 
REMARK    4  A    between atoms: C_19  and  C_15 
REMARK    5  A    between atoms: O_20  and  C_16 
ROOT
ATOM      1  C   UNL d   1      -0.691   1.207  -0.034  0.00  0.00     0.110 A 
ATOM      2  C   UNL d   1      -1.311   0.003  -0.039  0.00  0.00     0.068 A 
ATOM      3  N   UNL d   1       1.351  -0.062   0.067  0.00  0.00    -0.326 N 
ATOM      4  C   UNL d   1       0.796   1.187   0.013  0.00  0.00     0.125 A 
ATOM      5  N   UNL d   1      -0.673  -1.229   0.003  0.00  0.00    -0.335 N 
ATOM      6  HN  UNL d   1      -1.195  -2.105  -0.016  1.00  0.00     0.168 HD
ATOM      7  C   UNL d   1       0.615  -1.207   0.067  0.00  0.00     0.146 A 
ATOM      8  C   UNL d   1      -1.389   2.452  -0.049  0.00  0.00     0.105 C 
ATOM      9  N   UNL d   1      -1.960   3.464  -0.054  0.00  0.00    -0.191 NA
ATOM     10  S   UNL d   1       1.839   2.499   0.021  0.00  0.00    -0.059 SA
ATOM     11  H   UNL d   1       2.358  -0.147   0.124  0.00  0.00     0.169 HD
ENDROOT
BRANCH   2  12
ATOM     12  C   UNL d   1      -2.794  -0.023  -0.050  0.00  0.00    -0.008 A 
ATOM     13  C   UNL d   1      -3.495   0.031  -1.259  0.00  0.00     0.016 A 
ATOM     14  C   UNL d   1      -4.888   0.161  -1.257  0.00  0.00     0.037 A 
ATOM     15  C   UNL d   1      -5.599   0.236  -0.056  0.00  0.00     0.068 A 
ATOM     16  C   UNL d   1      -4.906   0.145   1.151  0.00  0.00     0.037 A 
ATOM     17  C   UNL d   1      -3.510   0.016   1.155  0.00  0.00     0.016 A 
BRANCH  15  18
ATOM     18  O   UNL d   1      -6.948   0.406  -0.201  0.00  0.00    -0.356 OA
ATOM     19  C   UNL d   1      -7.710   0.579   0.987  0.00  0.00     0.210 C 
ENDBRANCH  15  18
ENDBRANCH   2  12
BRANCH   7  20
ATOM     20  S   UNL d   1       1.649  -2.586   0.225  0.00  0.00    -0.089 SA
BRANCH  20  21
ATOM     21  C   UNL d   1       0.735  -3.886  -0.644  0.00  0.00     0.121 C 
BRANCH  21  22
ATOM     22  C   UNL d   1       1.552  -5.164  -0.688  0.00  0.00    -0.049 A 
ATOM     23  C   UNL d   1       1.437  -6.123   0.331  0.00  0.00     0.008 A 
ATOM     24  C   UNL d   1       2.221  -7.281   0.317  0.00  0.00     0.001 A 
ATOM     25  C   UNL d   1       3.134  -7.494  -0.713  0.00  0.00     0.000 A 
ATOM     26  C   UNL d   1       3.266  -6.550  -1.728  0.00  0.00     0.001 A 
ATOM     27  C   UNL d   1       2.481  -5.391  -1.716  0.00  0.00     0.008 A 
ENDBRANCH  21  22
ENDBRANCH  20  21
ENDBRANCH   7  20
TORSDOF 5
