REMARK  2 active torsions:
REMARK  status: ('A' for Active; 'I' for Inactive)
REMARK       I    between atoms: C_6  and  N_3 
REMARK    1  A    between atoms: C_8  and  C_4 
REMARK       I    between atoms: N_9  and  C_6 
REMARK    2  A    between atoms: C_15  and  N_9 
ROOT
ATOM      1  N   UNL d   1       0.587  -0.660  -0.535  0.00  0.00    -0.289 N 
ATOM      2  HN  UNL d   1       1.309  -1.270  -0.918  1.00  0.00     0.188 HD
ATOM      3  N   UNL d   1      -0.696  -0.984  -0.182  0.00  0.00    -0.216 N 
ATOM      4  C   UNL d   1       0.670   0.661  -0.256  0.00  0.00     0.073 C 
ATOM      5  C   UNL d   1      -0.614   1.227   0.004  0.00  0.00    -0.015 C 
ATOM      6  C   UNL d   1      -1.193  -2.308  -0.128  0.00  0.00     0.345 C 
ATOM      7  C   UNL d   1      -1.440   0.136   0.101  0.00  0.00     0.130 C 
ATOM      8  N   UNL d   1      -0.407  -3.204  -0.827  0.00  0.00    -0.307 N 
ATOM      9  O   UNL d   1      -2.270  -2.494   0.422  0.00  0.00    -0.245 OA
ATOM     10  C   UNL d   1      -1.063   2.630   0.157  0.00  0.00     0.052 C 
ATOM     11  H   UNL d   1       0.366  -2.805  -1.356  0.00  0.00     0.170 HD
ENDROOT
BRANCH   4  12
ATOM     12  C   UNL d   1       1.994   1.396  -0.216  0.00  0.00     0.033 A 
ATOM     13  S   UNL d   1       2.240   2.886   0.597  0.00  0.00    -0.100 SA
ATOM     14  C   UNL d   1       3.896   2.929   0.200  0.00  0.00     0.050 A 
ATOM     15  C   UNL d   1       4.266   1.833  -0.539  0.00  0.00     0.008 A 
ATOM     16  C   UNL d   1       3.175   0.933  -0.762  0.00  0.00     0.021 A 
ENDBRANCH   4  12
BRANCH   8  17
ATOM     17  C   UNL d   1      -0.800  -4.542  -1.077  0.00  0.00     0.036 A 
ATOM     18  C   UNL d   1      -1.738  -5.214  -0.281  0.00  0.00     0.031 A 
ATOM     19  C   UNL d   1      -2.171  -6.503  -0.607  0.00  0.00     0.026 A 
ATOM     20  C   UNL d   1      -1.666  -7.133  -1.736  0.00  0.00     0.034 A 
ATOM     21  C   UNL d   1      -0.708  -6.494  -2.523  0.00  0.00     0.026 A 
ATOM     22 CL   UNL d   1      -2.233  -8.698  -2.165  0.00  0.00    -0.084 Cl
ATOM     23  C   UNL d   1      -0.264  -5.206  -2.184  0.00  0.00     0.031 A 
ENDBRANCH   8  17
TORSDOF 2
