REMARK  3 active torsions:
REMARK  status: ('A' for Active; 'I' for Inactive)
REMARK    1  A    between atoms: S_8  and  C_1 
REMARK    2  A    between atoms: S_15  and  C_5 
REMARK    3  A    between atoms: C_12  and  S_8 
ROOT
ATOM      1  C   UNL d   1      -0.839   1.150   0.053  0.00  0.00     0.101 A 
ATOM      2  C   UNL d   1      -1.519  -0.049  -0.098  0.00  0.00     0.112 A 
ATOM      3  N   UNL d   1       0.511   1.207   0.164  0.00  0.00    -0.339 N 
ATOM      4  HN  UNL d   1       0.997   2.100   0.246  1.00  0.00     0.168 HD
ATOM      5  C   UNL d   1      -0.739  -1.192  -0.028  0.00  0.00     0.094 A 
ATOM      6  N   UNL d   1       0.603  -1.152   0.099  0.00  0.00    -0.339 N 
ATOM      7  HN  UNL d   1       1.156  -2.008   0.145  1.00  0.00     0.167 HD
ATOM      8  C   UNL d   1       1.183   0.051   0.162  0.00  0.00     0.078 A 
ATOM      9  C   UNL d   1      -2.912  -0.102  -0.400  0.00  0.00     0.105 C 
ATOM     10  N   UNL d   1      -4.037  -0.140  -0.698  0.00  0.00    -0.191 NA
ATOM     11  C   UNL d   1       2.677   0.104   0.123  0.00  0.00     0.089 C 
ENDROOT
BRANCH   1  12
ATOM     12  S   UNL d   1      -1.587   2.767  -0.062  0.00  0.00    -0.053 SA
BRANCH  12  13
ATOM     13  C   UNL d   1      -2.722   2.843   1.313  0.00  0.00     0.075 A 
ATOM     14  N   UNL d   1      -2.922   1.743   2.073  0.00  0.00    -0.360 N 
ATOM     15  C   UNL d   1      -3.871   1.825   3.036  0.00  0.00     0.089 A 
ATOM     16  HN  UNL d   1      -2.382   0.889   1.929  1.00  0.00     0.166 HD
ATOM     17  C   UNL d   1      -4.625   2.959   3.291  0.00  0.00     0.017 A 
ATOM     18  C   UNL d   1      -4.382   4.089   2.523  0.00  0.00     0.004 A 
ATOM     19  C   UNL d   1      -3.417   4.033   1.521  0.00  0.00     0.037 A 
ENDBRANCH  12  13
ENDBRANCH   1  12
BRANCH   5  20
ATOM     20  S   UNL d   1      -1.441  -2.841  -0.171  0.00  0.00    -0.115 SA
ATOM     21  C   UNL d   1       0.027  -3.872   0.122  0.00  0.00     0.097 C 
ENDBRANCH   5  20
TORSDOF 3
