REMARK  6 active torsions:
REMARK  status: ('A' for Active; 'I' for Inactive)
REMARK    1  A    between atoms: C_5  and  S_1 
REMARK    2  A    between atoms: C_11  and  S_1 
REMARK    3  A    between atoms: C_3  and  C_2 
REMARK       I    between atoms: N_6  and  C_3 
REMARK    4  A    between atoms: C_4  and  S_13 
REMARK    5  A    between atoms: C_14  and  C_5 
REMARK    6  A    between atoms: S_13  and  C_14 
ROOT
ATOM      1  C   UNL d   1       1.494  -0.015  -6.856  0.00  0.00     0.065 A 
ATOM      2  C   UNL d   1       1.288   0.134  -5.478  0.00  0.00     0.085 A 
ATOM      3  N   UNL d   1       0.814   1.296  -4.942  0.00  0.00    -0.360 N 
ATOM      4  HN  UNL d   1       0.716   1.406  -3.933  1.00  0.00     0.166 HD
ATOM      5  C   UNL d   1       1.067   1.025  -7.698  0.00  0.00     0.021 A 
ATOM      6  C   UNL d   1       0.479   2.298  -5.783  0.00  0.00     0.089 A 
ATOM      7  C   UNL d   1       0.570   2.203  -7.156  0.00  0.00     0.018 A 
ENDROOT
BRANCH   2   8
ATOM      8  S   UNL d   1       1.550  -1.171  -4.281  0.00  0.00    -0.110 SA
BRANCH   8   9
ATOM      9  C   UNL d   1       1.826  -0.247  -2.728  0.00  0.00     0.096 C 
BRANCH   9  10
ATOM     10  C   UNL d   1       3.036   0.671  -2.739  0.00  0.00     0.156 C 
BRANCH  10  11
ATOM     11  S   UNL d   1       4.589  -0.201  -2.787  0.00  0.00     0.176 S 
ATOM     12  O   UNL d   1       4.691  -1.005  -3.988  0.00  0.00    -0.223 OA
ATOM     13  O   UNL d   1       4.832  -0.776  -1.477  0.00  0.00    -0.223 OA
BRANCH  11  14
ATOM     14  C   UNL d   1       5.740   1.134  -3.013  0.00  0.00     0.059 A 
ATOM     15  C   UNL d   1       6.451   1.637  -1.928  0.00  0.00     0.023 A 
ATOM     16  C   UNL d   1       7.338   2.697  -2.131  0.00  0.00     0.002 A 
ATOM     17  C   UNL d   1       7.507   3.235  -3.412  0.00  0.00     0.000 A 
ATOM     18  C   UNL d   1       6.803   2.713  -4.498  0.00  0.00     0.002 A 
ATOM     19  C   UNL d   1       5.916   1.653  -4.302  0.00  0.00     0.023 A 
ENDBRANCH  11  14
ENDBRANCH  10  11
ENDBRANCH   9  10
ENDBRANCH   8   9
ENDBRANCH   2   8
BRANCH   1  20
ATOM     20  C   UNL d   1       2.070  -1.238  -7.471  0.00  0.00     0.255 C 
ATOM     21  N   UNL d   1       3.069  -1.137  -8.454  0.00  0.00    -0.357 N 
ATOM     22  C   UNL d   1       3.610  -2.386  -8.970  0.00  0.00     0.152 C 
ATOM     23  C   UNL d   1       3.794   0.061  -8.858  0.00  0.00     0.152 C 
ATOM     24  O   UNL d   1       1.608  -2.326  -7.131  0.00  0.00    -0.267 OA
ENDBRANCH   1  20
TORSDOF 6
