REMARK  4 active torsions:
REMARK  status: ('A' for Active; 'I' for Inactive)
REMARK    1  A    between atoms: N_6  and  C_1 
REMARK       I    between atoms: C_8  and  N_6 
REMARK    2  A    between atoms: C_13  and  C_8 
REMARK    3  A    between atoms: C_9  and  S_12 
REMARK    4  A    between atoms: S_12  and  C_13 
ROOT
ATOM      1  N   UNL d   1       2.735   1.929  -0.071  0.00  0.00    -0.306 N 
ATOM      2  C   UNL d   1       2.250   3.216  -0.397  0.00  0.00     0.234 C 
ATOM      3  O   UNL d   1       1.117   3.427  -0.847  0.00  0.00    -0.272 OA
ATOM      4  C   UNL d   1       4.178   1.726   0.003  0.00  0.00     0.161 C 
ENDROOT
BRANCH   1   5
ATOM      5  C   UNL d   1       1.838   0.821  -0.046  0.00  0.00     0.134 A 
ATOM      6  N   UNL d   1       0.475   0.852   0.266  0.00  0.00    -0.280 N 
ATOM      7  N   UNL d   1      -0.119  -0.367   0.228  0.00  0.00    -0.301 N 
ATOM      8  C   UNL d   1      -0.347   1.917   0.792  0.00  0.00     0.179 C 
ATOM      9  C   UNL d   1       0.869  -1.202  -0.052  0.00  0.00     0.036 A 
ATOM     10  HN  UNL d   1      -1.103  -0.589   0.381  1.00  0.00     0.187 HD
ATOM     11  C   UNL d   1       2.102  -0.536  -0.244  0.00  0.00     0.012 A 
ATOM     12  C   UNL d   1       0.662  -2.672  -0.165  0.00  0.00     0.059 C 
ATOM     13  C   UNL d   1       3.340  -1.301  -0.589  0.00  0.00     0.044 C 
ATOM     14  C   UNL d   1       3.039  -2.743  -1.034  0.00  0.00     0.005 C 
ATOM     15  C   UNL d   1       2.003  -3.416  -0.123  0.00  0.00     0.006 C 
ENDBRANCH   1   5
BRANCH   2  16
ATOM     16  C   UNL d   1       3.208   4.409  -0.278  0.00  0.00     0.184 C 
BRANCH  16  17
ATOM     17  S   UNL d   1       2.566   5.682   0.865  0.00  0.00    -0.103 SA
BRANCH  17  18
ATOM     18  C   UNL d   1       3.049   5.017   2.446  0.00  0.00     0.069 A 
ATOM     19  N   UNL d   1       3.421   3.723   2.515  0.00  0.00    -0.361 N 
ATOM     20  C   UNL d   1       3.756   3.233   3.731  0.00  0.00     0.089 A 
ATOM     21  HN  UNL d   1       3.448   3.135   1.682  1.00  0.00     0.165 HD
ATOM     22  C   UNL d   1       3.749   3.983   4.893  0.00  0.00     0.017 A 
ATOM     23  C   UNL d   1       3.374   5.317   4.806  0.00  0.00     0.004 A 
ATOM     24  C   UNL d   1       3.015   5.844   3.565  0.00  0.00     0.037 A 
ENDBRANCH  17  18
ENDBRANCH  16  17
ENDBRANCH   2  16
TORSDOF 4
