REMARK  4 active torsions:
REMARK  status: ('A' for Active; 'I' for Inactive)
REMARK    1  A    between atoms: C_9  and  N_1 
REMARK    2  A    between atoms: C_7  and  N_2 
REMARK    3  A    between atoms: C_8  and  C_6 
REMARK    4  A    between atoms: C_11  and  C_9 
ROOT
ATOM      1  N   UNL d   1      -0.225  -1.198   0.117  0.00  0.00    -0.258 N 
ATOM      2  N   UNL d   1       0.952   0.764   0.062  0.00  0.00    -0.227 N 
ATOM      3  C   UNL d   1       1.036  -0.630   0.157  0.00  0.00     0.343 A 
ATOM      4  C   UNL d   1      -1.273  -0.325   0.015  0.00  0.00     0.311 A 
ATOM      5  S   UNL d   1      -0.649   1.322   0.012  0.00  0.00     0.060 SA
ATOM      6  O   UNL d   1       2.081  -1.259   0.287  0.00  0.00    -0.245 OA
ATOM      7  O   UNL d   1      -2.464  -0.584  -0.044  0.00  0.00    -0.258 OA
ENDROOT
BRANCH   2   8
ATOM      8  C   UNL d   1       2.060   1.631  -0.038  0.00  0.00     0.066 A 
ATOM      9  C   UNL d   1       3.066   1.462  -1.010  0.00  0.00     0.075 A 
ATOM     10  C   UNL d   1       4.190   2.315  -0.981  0.00  0.00     0.018 A 
ATOM     11  C   UNL d   1       4.301   3.334  -0.036  0.00  0.00     0.001 A 
ATOM     12  C   UNL d   1       3.284   3.526   0.891  0.00  0.00     0.002 A 
ATOM     13  C   UNL d   1       2.170   2.688   0.884  0.00  0.00     0.031 A 
BRANCH   9  14
ATOM     14  C   UNL d   1       2.978   0.476  -2.152  0.00  0.00     0.419 C 
ATOM     15  F   UNL d   1       1.742  -0.060  -2.357  0.00  0.00    -0.166 F 
ATOM     16  F   UNL d   1       3.298   1.061  -3.345  0.00  0.00    -0.166 F 
ATOM     17  F   UNL d   1       3.836  -0.571  -2.024  0.00  0.00    -0.166 F 
ENDBRANCH   9  14
ENDBRANCH   2   8
BRANCH   1  18
ATOM     18  C   UNL d   1      -0.434  -2.620   0.274  0.00  0.00     0.142 C 
BRANCH  18  19
ATOM     19  C   UNL d   1      -0.543  -3.398  -1.006  0.00  0.00     0.004 A 
ATOM     20  C   UNL d   1       0.517  -3.333  -2.078  0.00  0.00     0.007 A 
ATOM     21  C   UNL d   1      -0.858  -2.793  -2.356  0.00  0.00     0.007 A 
ENDBRANCH  18  19
ENDBRANCH   1  18
TORSDOF 4
