REMARK  2 active torsions:
REMARK  status: ('A' for Active; 'I' for Inactive)
REMARK    1  A    between atoms: C_11  and  C_7 
REMARK    2  A    between atoms: O_17  and  C_12 
ROOT
ATOM      1  C   UNL d   1       1.600   0.006   0.649  0.00  0.00     0.101 A 
ATOM      2  N   UNL d   1      -0.425   1.311   0.857  0.00  0.00    -0.299 N 
ATOM      3  N   UNL d   1      -0.415  -0.873   1.645  0.00  0.00    -0.299 N 
ATOM      4  C   UNL d   1       0.874   1.284   0.422  0.00  0.00     0.263 A 
ATOM      5  C   UNL d   1       0.877  -1.139   1.269  0.00  0.00     0.263 A 
ATOM      6  C   UNL d   1      -1.090   0.292   1.464  0.00  0.00     0.181 A 
ATOM      7  C   UNL d   1       2.891  -0.028   0.262  0.00  0.00     0.034 C 
ATOM      8  S   UNL d   1      -2.667   0.464   1.960  0.00  0.00    -0.040 SA
ATOM      9  O   UNL d   1       1.372   2.265  -0.121  0.00  0.00    -0.267 OA
ATOM     10  O   UNL d   1       1.349  -2.253   1.451  0.00  0.00    -0.267 OA
ATOM     11  H   UNL d   1      -0.922   2.178   0.704  0.00  0.00     0.171 HD
ATOM     12  H   UNL d   1      -0.904  -1.645   2.078  0.00  0.00     0.171 HD
ENDROOT
BRANCH   7  13
ATOM     13  C   UNL d   1       3.792  -1.178   0.343  0.00  0.00    -0.035 A 
ATOM     14  C   UNL d   1       3.881  -2.061  -0.738  0.00  0.00     0.014 A 
ATOM     15  C   UNL d   1       4.713  -3.182  -0.669  0.00  0.00     0.037 A 
ATOM     16  C   UNL d   1       5.460  -3.427   0.483  0.00  0.00     0.068 A 
ATOM     17  C   UNL d   1       5.401  -2.525   1.547  0.00  0.00     0.037 A 
ATOM     18  C   UNL d   1       4.564  -1.407   1.484  0.00  0.00     0.014 A 
BRANCH  16  19
ATOM     19  O   UNL d   1       6.305  -4.490   0.656  0.00  0.00    -0.356 OA
ATOM     20  C   UNL d   1       5.925  -5.681  -0.026  0.00  0.00     0.210 C 
ENDBRANCH  16  19
ENDBRANCH   7  13
TORSDOF 2
