REMARK  5 active torsions:
REMARK  status: ('A' for Active; 'I' for Inactive)
REMARK    1  A    between atoms: C_9  and  C_1 
REMARK    2  A    between atoms: C_13  and  C_8 
REMARK    3  A    between atoms: C_11  and  C_19 
REMARK    4  A    between atoms: C_14  and  C_12 
REMARK    5  A    between atoms: C_17  and  C_13 
ROOT
ATOM      1  C   UNL d   1      -1.552  -7.528   0.350  0.00  0.00     0.096 C 
ATOM      2  C   UNL d   1      -0.883  -6.660   1.139  0.00  0.00     0.045 C 
ATOM      3  C   UNL d   1      -1.688  -8.910   0.645  0.00  0.00     0.103 C 
ATOM      4  N   UNL d   1      -1.778 -10.052   0.853  0.00  0.00    -0.191 NA
ENDROOT
BRANCH   1   5
ATOM      5  C   UNL d   1      -2.185  -6.999  -0.902  0.00  0.00     0.202 C 
ATOM      6  O   UNL d   1      -2.528  -5.822  -0.998  0.00  0.00    -0.286 OA
BRANCH   5   7
ATOM      7  C   UNL d   1      -2.423  -7.922  -2.058  0.00  0.00     0.016 A 
ATOM      8  C   UNL d   1      -1.541  -8.971  -2.357  0.00  0.00     0.031 A 
ATOM      9  C   UNL d   1      -1.756  -9.810  -3.463  0.00  0.00     0.048 A 
ATOM     10  C   UNL d   1      -2.860  -9.568  -4.290  0.00  0.00     0.016 A 
ATOM     11  C   UNL d   1      -3.735  -8.516  -4.011  0.00  0.00     0.002 A 
ATOM     12  C   UNL d   1      -3.517  -7.694  -2.900  0.00  0.00     0.015 A 
BRANCH   9  13
ATOM     13  C   UNL d   1      -0.789 -10.930  -3.769  0.00  0.00     0.417 C 
ATOM     14  F   UNL d   1       0.208 -11.044  -2.848  0.00  0.00    -0.166 F 
ATOM     15  F   UNL d   1      -1.390 -12.149  -3.823  0.00  0.00    -0.166 F 
ATOM     16  F   UNL d   1      -0.167 -10.759  -4.967  0.00  0.00    -0.166 F 
ENDBRANCH   9  13
ENDBRANCH   5   7
ENDBRANCH   1   5
BRANCH   2  17
ATOM     17  C   UNL d   1      -0.233  -7.020   2.365  0.00  0.00     0.007 A 
ATOM     18  S   UNL d   1       1.148  -6.128   2.889  0.00  0.00    -0.088 SA
ATOM     19  C   UNL d   1       1.412  -7.119   4.261  0.00  0.00     0.034 A 
ATOM     20  C   UNL d   1       2.496  -6.957   5.199  0.00  0.00     0.069 A 
ATOM     21  C   UNL d   1       0.416  -8.066   4.365  0.00  0.00     0.023 A 
ATOM     22  C   UNL d   1       2.490  -7.243   6.554  0.00  0.00     0.068 A 
ATOM     23  N   UNL d   1       3.787  -6.567   4.931  0.00  0.00    -0.295 N 
ATOM     24  C   UNL d   1       3.816  -7.034   7.016  0.00  0.00     0.134 A 
ATOM     25  N   UNL d   1       4.598  -6.602   6.011  0.00  0.00    -0.294 N 
ATOM     26  HN  UNL d   1       5.587  -6.355   6.054  1.00  0.00     0.187 HD
ATOM     27  C   UNL d   1       4.388  -6.258   3.653  0.00  0.00     0.178 C 
ATOM     28  C   UNL d   1      -0.525  -7.999   3.300  0.00  0.00     0.020 A 
BRANCH  24  29
ATOM     29  C   UNL d   1       4.323  -7.280   8.413  0.00  0.00     0.434 C 
ATOM     30  F   UNL d   1       5.654  -7.049   8.563  0.00  0.00    -0.165 F 
ATOM     31  F   UNL d   1       3.685  -6.498   9.327  0.00  0.00    -0.165 F 
ATOM     32  F   UNL d   1       4.108  -8.569   8.800  0.00  0.00    -0.165 F 
ENDBRANCH  24  29
ENDBRANCH   2  17
TORSDOF 5
