REMARK  6 active torsions:
REMARK  status: ('A' for Active; 'I' for Inactive)
REMARK    1  A    between atoms: N_2  and  C_1 
REMARK    2  A    between atoms: O_5  and  C_3 
REMARK    3  A    between atoms: C_8  and  O_5 
REMARK    4  A    between atoms: C_6  and  C_7 
REMARK    5  A    between atoms: N_19  and  C_6 
REMARK    6  A    between atoms: O_21  and  N_13 
ROOT
ATOM      1  C   UNL d   1      -4.259   4.306   0.750  0.00  0.00     0.137 A 
ATOM      2  C   UNL d   1      -5.171   3.272   0.511  0.00  0.00     0.109 A 
ATOM      3  C   UNL d   1      -2.876   4.077   0.779  0.00  0.00     0.053 A 
ATOM      4  C   UNL d   1      -2.392   2.781   0.577  0.00  0.00     0.006 A 
ATOM      5  C   UNL d   1      -4.676   1.964   0.436  0.00  0.00     0.041 A 
ATOM      6  C   UNL d   1      -3.300   1.724   0.443  0.00  0.00     0.018 A 
ENDROOT
BRANCH   2   7
ATOM      7  O   UNL d   1      -6.516   3.550   0.401  0.00  0.00    -0.305 OA
BRANCH   7   8
ATOM      8  C   UNL d   1      -7.276   2.797  -0.473  0.00  0.00     0.114 A 
ATOM      9  C   UNL d   1      -6.845   2.358  -1.734  0.00  0.00     0.153 A 
ATOM     10  C   UNL d   1      -7.649   1.544  -2.525  0.00  0.00     0.087 A 
ATOM     11  F   UNL d   1      -5.630   2.685  -2.201  0.00  0.00    -0.203 F 
ATOM     12  C   UNL d   1      -8.918   1.212  -2.073  0.00  0.00     0.119 A 
ATOM     13  C   UNL d   1      -9.392   1.685  -0.852  0.00  0.00     0.045 A 
ATOM     14  F   UNL d   1      -9.700   0.427  -2.824  0.00  0.00    -0.206 F 
ATOM     15  C   UNL d   1      -8.571   2.482  -0.050  0.00  0.00     0.043 A 
ENDBRANCH   7   8
ENDBRANCH   2   7
BRANCH   1  16
ATOM     16  N   UNL d   1      -4.726   5.652   1.023  0.00  0.00    -0.113 N 
ATOM     17  O   UNL d   1      -5.411   6.210   0.158  0.00  0.00    -0.532 OA
ATOM     18  O   UNL d   1      -4.374   6.157   2.097  0.00  0.00    -0.532 OA
ENDBRANCH   1  16
BRANCH   4  19
ATOM     19  C   UNL d   1      -0.918   2.532   0.495  0.00  0.00     0.108 C 
ATOM     20  N   UNL d   1      -0.107   3.537   0.668  0.00  0.00    -0.258 N 
ATOM     21  HN  UNL d   1      -0.403   4.487   0.892  1.00  0.00     0.195 HD
BRANCH  20  22
ATOM     22  O   UNL d   1       1.230   3.137   0.506  0.00  0.00    -0.289 OA
ATOM     23  H   UNL d   1       1.713   3.965   0.688  0.00  0.00     0.244 HD
ENDBRANCH  20  22
BRANCH  19  24
ATOM     24  N   UNL d   1      -0.452   1.268   0.216  0.00  0.00    -0.287 NA
ATOM     25  H   UNL d   1      -0.917   0.794  -0.548  0.00  0.00     0.125 HD
ATOM     26  H   UNL d   1       0.552   1.319   0.052  0.00  0.00     0.125 HD
ENDBRANCH  19  24
ENDBRANCH   4  19
TORSDOF 6
