REMARK  6 active torsions:
REMARK  status: ('A' for Active; 'I' for Inactive)
REMARK    1  A    between atoms: C_12  and  C_1 
REMARK    2  A    between atoms: C_8  and  C_2 
REMARK    3  A    between atoms: N_11  and  C_2 
REMARK    4  A    between atoms: N_3  and  C_8 
REMARK    5  A    between atoms: N_4  and  O_10 
REMARK    6  A    between atoms: O_10  and  C_12 
ROOT
ATOM      1  C   UNL d   1      -2.764   4.444   0.019  0.00  0.00     0.103 C 
ATOM      2  N   UNL d   1      -1.548   3.996  -0.108  0.00  0.00    -0.258 N 
ATOM      3  HN  UNL d   1      -1.298   3.025  -0.295  1.00  0.00     0.195 HD
ENDROOT
BRANCH   2   4
ATOM      4  O   UNL d   1      -0.631   5.050   0.052  0.00  0.00    -0.275 OA
BRANCH   4   5
ATOM      5  C   UNL d   1       0.698   4.567  -0.156  0.00  0.00     0.243 C 
BRANCH   5   6
ATOM      6  C   UNL d   1       1.649   5.727   0.017  0.00  0.00     0.011 A 
ATOM      7  C   UNL d   1       2.634   5.744   1.022  0.00  0.00     0.044 A 
ATOM      8 CL   UNL d   1       2.865   4.430   2.123  0.00  0.00    -0.084 Cl
ATOM      9  C   UNL d   1       3.489   6.844   1.178  0.00  0.00     0.024 A 
ATOM     10  C   UNL d   1       3.381   7.947   0.338  0.00  0.00     0.003 A 
ATOM     11  C   UNL d   1       2.421   7.949  -0.667  0.00  0.00     0.024 A 
ATOM     12  C   UNL d   1       1.568   6.851  -0.831  0.00  0.00     0.044 A 
ATOM     13 CL   UNL d   1       0.422   6.950  -2.127  0.00  0.00    -0.084 Cl
ENDBRANCH   5   6
ENDBRANCH   4   5
ENDBRANCH   2   4
BRANCH   1  14
ATOM     14  C   UNL d   1      -3.923   3.446  -0.100  0.00  0.00     0.343 C 
BRANCH  14  15
ATOM     15  N   UNL d   1      -4.462   3.316  -1.470  0.00  0.00     0.096 N 
ATOM     16  C   UNL d   1      -3.458   2.806  -2.423  0.00  0.00     0.283 C 
ATOM     17  C   UNL d   1      -4.064   2.392  -3.773  0.00  0.00     0.104 C 
ATOM     18  S   UNL d   1      -4.900   3.771  -4.624  0.00  0.00    -0.166 SA
ATOM     19  C   UNL d   1      -5.935   4.308  -3.228  0.00  0.00     0.104 C 
ATOM     20  C   UNL d   1      -5.100   4.543  -1.965  0.00  0.00     0.283 C 
ENDBRANCH  14  15
ENDBRANCH   1  14
BRANCH   1  21
ATOM     21  N   UNL d   1      -3.062   5.772   0.238  0.00  0.00    -0.289 NA
ATOM     22  H   UNL d   1      -2.285   6.370  -0.017  0.00  0.00     0.125 HD
ATOM     23  H   UNL d   1      -3.962   6.103  -0.082  0.00  0.00     0.125 HD
ENDBRANCH   1  21
TORSDOF 6
