REMARK  5 active torsions:
REMARK  status: ('A' for Active; 'I' for Inactive)
REMARK    1  A    between atoms: C_6  and  C_1 
REMARK    2  A    between atoms: C_8  and  C_2 
REMARK    3  A    between atoms: C_7  and  C_4 
REMARK    4  A    between atoms: O_11  and  C_6 
REMARK    5  A    between atoms: C_16  and  O_11 
ROOT
ATOM      1  C   UNL d   1       0.754  -0.139  -0.077  0.00  0.00     0.120 A 
ATOM      2  C   UNL d   1      -0.086  -1.258  -0.063  0.00  0.00     0.023 A 
ATOM      3  N   UNL d   1      -0.058   0.971  -0.120  0.00  0.00    -0.353 N 
ATOM      4  C   UNL d   1      -1.452  -0.761  -0.021  0.00  0.00     0.045 A 
ATOM      5  C   UNL d   1      -1.371   0.628  -0.027  0.00  0.00     0.020 A 
ATOM      6  C   UNL d   1      -2.428   1.675   0.025  0.00  0.00     0.069 C 
ATOM      7  H   UNL d   1       0.302   1.918  -0.148  0.00  0.00     0.166 HD
ENDROOT
BRANCH   2   8
ATOM      8  C   UNL d   1       0.406  -2.641  -0.078  0.00  0.00    -0.022 A 
ATOM      9  C   UNL d   1      -0.231  -3.634   0.680  0.00  0.00     0.012 A 
ATOM     10  C   UNL d   1       0.124  -4.980   0.540  0.00  0.00     0.001 A 
ATOM     11  C   UNL d   1       1.169  -5.345  -0.303  0.00  0.00     0.000 A 
ATOM     12  C   UNL d   1       1.863  -4.365  -1.004  0.00  0.00     0.001 A 
ATOM     13  C   UNL d   1       1.470  -3.026  -0.909  0.00  0.00     0.012 A 
ENDBRANCH   2   8
BRANCH   1  14
ATOM     14  C   UNL d   1       2.191   0.014  -0.001  0.00  0.00     0.310 C 
ATOM     15  O   UNL d   1       2.989  -0.752   0.507  0.00  0.00    -0.258 OA
BRANCH  14  16
ATOM     16  O   UNL d   1       2.507   1.238  -0.527  0.00  0.00    -0.317 OA
BRANCH  16  17
ATOM     17  C   UNL d   1       3.801   1.756  -0.193  0.00  0.00     0.175 C 
ATOM     18  C   UNL d   1       3.638   2.603   1.055  0.00  0.00     0.034 C 
ENDBRANCH  16  17
ENDBRANCH  14  16
ENDBRANCH   1  14
BRANCH   4  19
ATOM     19  C   UNL d   1      -2.748  -1.458   0.037  0.00  0.00     0.158 C 
ATOM     20  O   UNL d   1      -3.703  -0.962   0.642  0.00  0.00    -0.293 OA
ATOM     21  C   UNL d   1      -2.974  -2.749  -0.703  0.00  0.00     0.097 C 
ENDBRANCH   4  19
TORSDOF 5
