REMARK  5 active torsions:
REMARK  status: ('A' for Active; 'I' for Inactive)
REMARK    1  A    between atoms: C_6  and  C_17 
REMARK    2  A    between atoms: O_16  and  C_6 
REMARK    3  A    between atoms: C_20  and  C_7 
REMARK    4  A    between atoms: C_17  and  C_18 
REMARK    5  A    between atoms: C_18  and  C_20 
ROOT
ATOM      1  C   UNL d   1      -0.700   0.001  -0.013  0.00  0.00    -0.003 A 
ATOM      2  C   UNL d   1      -1.432   1.219  -0.008  0.00  0.00    -0.018 A 
ATOM      3  C   UNL d   1       0.721   0.012  -0.013  0.00  0.00    -0.004 A 
ATOM      4  C   UNL d   1      -0.695   2.422  -0.015  0.00  0.00     0.014 A 
ATOM      5  C   UNL d   1      -1.377  -1.242  -0.014  0.00  0.00    -0.024 A 
ATOM      6  C   UNL d   1      -2.853   1.169   0.020  0.00  0.00    -0.047 A 
ATOM      7  C   UNL d   1       1.422   1.236  -0.010  0.00  0.00    -0.024 A 
ATOM      8  C   UNL d   1       1.446  -1.206  -0.010  0.00  0.00    -0.024 A 
ATOM      9  C   UNL d   1       0.702   2.432  -0.014  0.00  0.00     0.013 A 
ATOM     10  C   UNL d   1      -3.501  -0.079   0.019  0.00  0.00     0.009 A 
ATOM     11  C   UNL d   1      -2.773  -1.266  -0.005  0.00  0.00     0.013 A 
ATOM     12  C   UNL d   1      -0.644  -2.437  -0.015  0.00  0.00     0.013 A 
ATOM     13  C   UNL d   1       0.751  -2.419  -0.011  0.00  0.00     0.013 A 
ATOM     14  C   UNL d   1       3.534   0.035   0.003  0.00  0.00     0.002 A 
ATOM     15  C   UNL d   1       2.825   1.234   0.002  0.00  0.00     0.012 A 
ATOM     16  C   UNL d   1       2.849  -1.178  -0.001  0.00  0.00     0.012 A 
ENDROOT
BRANCH   6  17
ATOM     17  C   UNL d   1      -3.725   2.411   0.059  0.00  0.00     0.040 C 
BRANCH  17  18
ATOM     18  C   UNL d   1      -4.036   3.002  -1.320  0.00  0.00     0.015 C 
BRANCH  18  19
ATOM     19  C   UNL d   1      -4.866   2.078  -2.207  0.00  0.00     0.110 C 
BRANCH  19  20
ATOM     20  C   UNL d   1      -5.159   2.747  -3.524  0.00  0.00     0.139 C 
ATOM     21  O   UNL d   1      -6.142   3.441  -3.733  0.00  0.00    -0.650 OA
BRANCH  20  22
ATOM     22  O   UNL d   1      -4.202   2.537  -4.454  0.00  0.00    -0.776 OA
ATOM     23  H   UNL d   1      -3.463   1.978  -4.144  0.00  0.00     0.167 HD
ENDBRANCH  20  22
ENDBRANCH  19  20
ENDBRANCH  18  19
ENDBRANCH  17  18
ENDBRANCH   6  17
TORSDOF 5
