REMARK  5 active torsions:
REMARK  status: ('A' for Active; 'I' for Inactive)
REMARK    1  A    between atoms: N_5  and  C_1 
REMARK    2  A    between atoms: C_3  and  C_2 
REMARK       I    between atoms: N_6  and  C_3 
REMARK    3  A    between atoms: O_22  and  C_4 
REMARK       I    between atoms: C_9  and  N_6 
REMARK    4  A    between atoms: C_8  and  N_12 
REMARK       I    between atoms: N_12  and  C_9 
REMARK    5  A    between atoms: O_26  and  C_10 
ROOT
ATOM      1  C   UNL d   1       3.429  -3.089  -0.176  0.00  0.00     0.244 C 
ATOM      2  N   UNL d   1       4.775  -2.768  -0.056  0.00  0.00    -0.175 NA
ATOM      3  C   UNL d   1       5.581  -3.588   0.688  0.00  0.00     0.305 C 
ATOM      4  N   UNL d   1       6.240  -4.530  -0.057  0.00  0.00    -0.308 N 
ATOM      5  O   UNL d   1       3.089  -4.202  -0.565  0.00  0.00    -0.273 OA
ATOM      6  O   UNL d   1       5.764  -3.320   1.872  0.00  0.00    -0.253 OA
ATOM      7  H   UNL d   1       4.879  -1.850   0.362  0.00  0.00     0.141 HD
ATOM      8  H   UNL d   1       5.726  -4.880  -0.860  0.00  0.00     0.170 HD
ENDROOT
BRANCH   1   9
ATOM      9  C   UNL d   1       2.426  -1.939  -0.024  0.00  0.00     0.097 C 
ATOM     10  C   UNL d   1       2.870  -0.639   0.309  0.00  0.00     0.119 C 
ATOM     11  C   UNL d   1       2.036   0.469   0.126  0.00  0.00     0.138 C 
ATOM     12  C   UNL d   1       0.683   0.291  -0.137  0.00  0.00     0.061 C 
ATOM     13  C   UNL d   1       0.171  -1.006  -0.235  0.00  0.00     0.048 C 
ATOM     14  C   UNL d   1       1.034  -2.129  -0.252  0.00  0.00     0.103 C 
ATOM     15 BR   UNL d   1      -1.733  -1.091  -0.195  0.00  0.00    -0.048 Br
BRANCH  10  16
ATOM     16  O   UNL d   1       4.093  -0.488   0.922  0.00  0.00    -0.352 OA
ATOM     17  C   UNL d   1       3.922  -0.269   2.337  0.00  0.00     0.210 C 
ENDBRANCH  10  16
BRANCH  11  18
ATOM     18  N   UNL d   1       2.563   1.831   0.213  0.00  0.00    -0.113 N 
ATOM     19  O   UNL d   1       3.721   2.030  -0.169  0.00  0.00    -0.532 OA
ATOM     20  O   UNL d   1       1.794   2.704   0.639  0.00  0.00    -0.532 OA
ENDBRANCH  11  18
BRANCH  14  21
ATOM     21  O   UNL d   1       0.591  -3.425  -0.310  0.00  0.00    -0.353 OA
ATOM     22  C   UNL d   1      -0.400  -3.754  -1.278  0.00  0.00     0.210 C 
ENDBRANCH  14  21
ENDBRANCH   1   9
BRANCH   4  23
ATOM     23  C   UNL d   1       7.441  -5.195   0.289  0.00  0.00     0.114 A 
ATOM     24  C   UNL d   1       8.351  -4.766   1.267  0.00  0.00     0.149 A 
ATOM     25  C   UNL d   1       9.526  -5.473   1.532  0.00  0.00     0.087 A 
ATOM     26  F   UNL d   1       8.185  -3.616   1.932  0.00  0.00    -0.203 F 
ATOM     27  C   UNL d   1       9.816  -6.611   0.797  0.00  0.00     0.122 A 
ATOM     28  C   UNL d   1       8.963  -7.048  -0.204  0.00  0.00     0.087 A 
ATOM     29  F   UNL d   1      10.949  -7.284   1.042  0.00  0.00    -0.206 F 
ATOM     30  C   UNL d   1       7.790  -6.336  -0.452  0.00  0.00     0.149 A 
ATOM     31  F   UNL d   1       6.983  -6.756  -1.438  0.00  0.00    -0.203 F 
ENDBRANCH   4  23
TORSDOF 5
