REMARK  5 active torsions:
REMARK  status: ('A' for Active; 'I' for Inactive)
REMARK    1  A    between atoms: C_4  and  C_1 
REMARK    2  A    between atoms: C_7  and  C_1 
REMARK    3  A    between atoms: C_2  and  C_3 
REMARK    4  A    between atoms: C_14  and  C_4 
REMARK    5  A    between atoms: N_8  and  C_7 
ROOT
ATOM      1  C   UNL d   1       1.040  -0.074  -0.054  0.00  0.00     0.078 C 
ATOM      2  C   UNL d   1       0.332  -1.079  -0.602  0.00  0.00     0.044 C 
ENDROOT
BRANCH   1   3
ATOM      3  C   UNL d   1       0.296   1.065   0.553  0.00  0.00     0.201 C 
ATOM      4  O   UNL d   1      -0.839   1.353   0.182  0.00  0.00    -0.286 OA
BRANCH   3   5
ATOM      5  C   UNL d   1       0.946   1.881   1.612  0.00  0.00     0.015 A 
ATOM      6  C   UNL d   1       0.679   3.256   1.643  0.00  0.00     0.015 A 
ATOM      7  C   UNL d   1       1.275   4.063   2.615  0.00  0.00     0.001 A 
ATOM      8  C   UNL d   1       2.130   3.500   3.562  0.00  0.00     0.000 A 
ATOM      9  C   UNL d   1       2.375   2.127   3.553  0.00  0.00     0.001 A 
ATOM     10  C   UNL d   1       1.773   1.314   2.590  0.00  0.00     0.015 A 
ENDBRANCH   3   5
ENDBRANCH   1   3
BRANCH   1  11
ATOM     11  C   UNL d   1       2.560  -0.074  -0.054  0.00  0.00    -0.033 C 
BRANCH  11  12
ATOM     12  N   UNL d   1       3.821  -0.074  -0.054  0.00  0.00    -0.365 N 
ATOM     13  HN2 UNL d   1       2.801  -0.074  -0.054  1.00  0.00     0.165 HD
ATOM     14  HN1 UNL d   1       4.841  -0.074  -0.054  1.00  0.00     0.165 HD
ENDBRANCH  11  12
ENDBRANCH   1  11
BRANCH   2  15
ATOM     15  C   UNL d   1       0.969  -2.220  -1.164  0.00  0.00     0.007 A 
ATOM     16  C   UNL d   1       1.532  -2.383  -2.418  0.00  0.00     0.038 A 
ATOM     17  C   UNL d   1       2.115  -3.666  -2.574  0.00  0.00     0.018 A 
ATOM     18 BR   UNL d   1       2.986  -4.180  -4.165  0.00  0.00    -0.051 Br
ATOM     19  C   UNL d   1       1.983  -4.461  -1.465  0.00  0.00     0.069 A 
ATOM     20  S   UNL d   1       1.122  -3.657  -0.225  0.00  0.00    -0.101 SA
ENDBRANCH   2  15
TORSDOF 5
