REMARK  11 active torsions:
REMARK  status: ('A' for Active; 'I' for Inactive)
REMARK       I    between atoms: N_4  and  C_1 
REMARK    1  A    between atoms: C_10  and  C_1 
REMARK    2  A    between atoms: C_2  and  N_3 
REMARK    3  A    between atoms: C_14  and  N_4 
REMARK    4  A    between atoms: C_15  and  N_4 
REMARK    5  A    between atoms: N_9  and  C_10 
REMARK    6  A    between atoms: C_21  and  C_16 
REMARK    7  A    between atoms: C_26  and  C_21 
REMARK    8  A    between atoms: C_36  and  C_34 
REMARK    9  A    between atoms: O_40  and  C_34 
REMARK   10  A    between atoms: C_35  and  C_37 
REMARK   11  A    between atoms: O_41  and  C_35 
ROOT
ATOM      1  C   UNL d   2       2.354   2.111  -1.590  0.00  0.00     0.088 C 
ATOM      2  C   UNL d   2       2.159   3.210  -0.849  0.00  0.00     0.088 C 
ENDROOT
BRANCH   1   3
ATOM      3  C   UNL d   2       3.496   1.242  -1.261  0.00  0.00     0.165 C 
ATOM      4  O   UNL d   2       4.321   1.414  -0.384  0.00  0.00    -0.647 OA
BRANCH   3   5
ATOM      5  O   UNL d   2       3.474   0.146  -2.038  0.00  0.00    -0.773 OA
ATOM      6  H   UNL d   2       4.083  -0.469  -1.577  0.00  0.00     0.167 HD
ENDBRANCH   3   5
ENDBRANCH   1   3
BRANCH   2   7
ATOM      7  C   UNL d   2       0.985   4.095  -0.867  0.00  0.00     0.165 C 
ATOM      8  O   UNL d   2       0.807   4.922   0.014  0.00  0.00    -0.647 OA
BRANCH   7   9
ATOM      9  O   UNL d   2       0.126   3.927  -1.887  0.00  0.00    -0.773 OA
ATOM     10  H   UNL d   2       0.391   3.292  -2.571  0.00  0.00     0.167 HD
ENDBRANCH   7   9
ENDBRANCH   2   7
TORSDOF 11
