REMARK  2 active torsions:
REMARK  status: ('A' for Active; 'I' for Inactive)
REMARK    1  A    between atoms: C_8  and  C_3 
REMARK    2  A    between atoms: C_5  and  C_4 
REMARK       I    between atoms: N_14  and  C_8 
ROOT
ATOM      1  N   UNL d   1      -0.495  -0.286  -0.536  0.00  0.00    -0.345 N 
ATOM      2  HN  UNL d   1      -1.377  -0.514  -0.995  1.00  0.00     0.167 HD
ATOM      3  C   UNL d   1       0.025   1.009  -0.395  0.00  0.00     0.108 A 
ATOM      4  C   UNL d   1       0.322  -1.171   0.012  0.00  0.00     0.088 A 
ATOM      5  S   UNL d   1       1.783  -0.501   0.642  0.00  0.00    -0.081 SA
ATOM      6  C   UNL d   1       1.252   1.067   0.235  0.00  0.00     0.087 A 
ENDROOT
BRANCH   4   7
ATOM      7  C   UNL d   1       0.086  -2.625   0.025  0.00  0.00     0.036 A 
ATOM      8  C   UNL d   1       0.539  -3.466   1.055  0.00  0.00     0.132 A 
ATOM      9  C   UNL d   1       0.323  -4.842   1.027  0.00  0.00     0.085 A 
ATOM     10  F   UNL d   1       1.181  -2.967   2.122  0.00  0.00    -0.205 F 
ATOM     11  C   UNL d   1      -0.369  -5.396  -0.037  0.00  0.00     0.119 A 
ATOM     12  C   UNL d   1      -0.855  -4.597  -1.065  0.00  0.00     0.043 A 
ATOM     13  F   UNL d   1      -0.576  -6.718  -0.074  0.00  0.00    -0.206 F 
ATOM     14  C   UNL d   1      -0.632  -3.216  -1.032  0.00  0.00     0.020 A 
ENDBRANCH   4   7
BRANCH   3  15
ATOM     15  C   UNL d   1      -0.685   2.192  -0.882  0.00  0.00     0.266 C 
ATOM     16  O   UNL d   1      -0.266   3.340  -0.772  0.00  0.00    -0.266 OA
ATOM     17  N   UNL d   1      -1.878   1.920  -1.485  0.00  0.00    -0.365 N 
ATOM     18  H   UNL d   1      -2.205   0.963  -1.540  0.00  0.00     0.159 HD
ATOM     19  H   UNL d   1      -2.438   2.682  -1.834  0.00  0.00     0.159 HD
ENDBRANCH   3  15
TORSDOF 2
