REMARK  2 active torsions:
REMARK  status: ('A' for Active; 'I' for Inactive)
REMARK       I    between atoms: N_2  and  C_1 
REMARK       I    between atoms: N_4  and  C_1 
REMARK    1  A    between atoms: C_3  and  N_2 
REMARK    2  A    between atoms: C_10  and  N_4 
ROOT
ATOM      1  C   UNL d   1       1.128  -0.262   0.107  0.00  0.00     0.325 C 
ATOM      2  N   UNL d   1       0.453   0.158   1.244  0.00  0.00    -0.308 N 
ATOM      3  N   UNL d   1       0.230  -0.562  -0.900  0.00  0.00    -0.307 N 
ATOM      4  O   UNL d   1       2.342  -0.396   0.018  0.00  0.00    -0.247 OA
ATOM      5  H   UNL d   1      -0.458  -0.262   1.333  0.00  0.00     0.170 HD
ATOM      6  H   UNL d   1      -0.618  -0.013  -0.909  0.00  0.00     0.170 HD
ENDROOT
BRANCH   2   7
ATOM      7  C   UNL d   1       1.131   0.457   2.454  0.00  0.00     0.047 A 
ATOM      8  C   UNL d   1       0.664  -0.068   3.693  0.00  0.00     0.001 A 
ATOM      9  C   UNL d   1       1.400   0.236   4.867  0.00  0.00    -0.024 A 
ATOM     10  C   UNL d   1      -0.457  -0.927   3.832  0.00  0.00     0.014 A 
ATOM     11  C   UNL d   1       1.014  -0.313   6.103  0.00  0.00     0.012 A 
ATOM     12  C   UNL d   1       2.529   1.066   4.795  0.00  0.00     0.012 A 
ATOM     13  C   UNL d   1      -0.087  -1.160   6.201  0.00  0.00     0.001 A 
ATOM     14  C   UNL d   1      -0.825  -1.465   5.067  0.00  0.00     0.001 A 
ATOM     15  C   UNL d   1       2.958   1.588   3.579  0.00  0.00     0.003 A 
ATOM     16  C   UNL d   1       2.267   1.280   2.413  0.00  0.00     0.030 A 
ENDBRANCH   2   7
BRANCH   3  17
ATOM     17  C   UNL d   1       0.520  -1.335  -2.042  0.00  0.00     0.051 A 
ATOM     18  C   UNL d   1       1.614  -2.193  -2.150  0.00  0.00     0.117 A 
ATOM     19  N   UNL d   1       1.867  -2.971  -3.234  0.00  0.00    -0.373 N 
ATOM     20  C   UNL d   1       0.999  -2.882  -4.261  0.00  0.00     0.088 A 
ATOM     21  HN  UNL d   1       2.675  -3.592  -3.269  1.00  0.00     0.164 HD
ATOM     22  C   UNL d   1      -0.119  -2.065  -4.251  0.00  0.00     0.019 A 
ATOM     23  C   UNL d   1      -0.366  -1.289  -3.119  0.00  0.00     0.032 A 
ENDBRANCH   3  17
TORSDOF 2
