REMARK  6 active torsions:
REMARK  status: ('A' for Active; 'I' for Inactive)
REMARK    1  A    between atoms: C_6  and  C_1 
REMARK    2  A    between atoms: C_12  and  C_2 
REMARK    3  A    between atoms: O_11  and  C_6 
REMARK    4  A    between atoms: N_8  and  O_11 
REMARK    5  A    between atoms: C_13  and  C_10 
REMARK    6  A    between atoms: N_19  and  C_10 
ROOT
ATOM      1  C   UNL d   1      -1.391  -0.988   0.009  0.00  0.00     0.320 C 
ATOM      2  O   UNL d   1      -2.239  -1.669  -0.556  0.00  0.00    -0.257 OA
ENDROOT
BRANCH   1   3
ATOM      3  C   UNL d   1       0.031  -1.244  -0.064  0.00  0.00     0.102 A 
ATOM      4  C   UNL d   1       0.692  -2.452  -0.212  0.00  0.00     0.127 A 
ATOM      5  O   UNL d   1       2.035  -2.201  -0.268  0.00  0.00    -0.236 OA
ATOM      6  N   UNL d   1       2.281  -0.855  -0.155  0.00  0.00    -0.264 N 
ATOM      7  C   UNL d   1       1.084  -0.278  -0.035  0.00  0.00     0.048 A 
ATOM      8  HN  UNL d   1       3.190  -0.393  -0.162  1.00  0.00     0.194 HD
ATOM      9  C   UNL d   1       1.000   1.200   0.073  0.00  0.00     0.071 C 
BRANCH   4  10
ATOM     10  C   UNL d   1       0.375  -3.879  -0.235  0.00  0.00     0.001 A 
ATOM     11  C   UNL d   1       1.226  -4.770  -0.918  0.00  0.00     0.016 A 
ATOM     12  C   UNL d   1       1.048  -6.154  -0.833  0.00  0.00     0.024 A 
ATOM     13  C   UNL d   1       0.009  -6.666  -0.065  0.00  0.00     0.034 A 
ATOM     14  C   UNL d   1      -0.870  -5.803   0.587  0.00  0.00     0.024 A 
ATOM     15 CL   UNL d   1      -0.175  -8.368   0.097  0.00  0.00    -0.084 Cl
ATOM     16  C   UNL d   1      -0.691  -4.415   0.499  0.00  0.00     0.016 A 
ENDBRANCH   4  10
ENDBRANCH   1   3
BRANCH   1  17
ATOM     17  O   UNL d   1      -1.657   0.082   0.831  0.00  0.00    -0.193 OA
BRANCH  17  18
ATOM     18  N   UNL d   1      -2.650   0.926   0.281  0.00  0.00    -0.246 N 
ATOM     19  C   UNL d   1      -3.058   1.787   1.173  0.00  0.00     0.109 C 
ATOM     20  HN  UNL d   1      -2.997   0.869  -0.676  1.00  0.00     0.196 HD
BRANCH  19  21
ATOM     21  C   UNL d   1      -3.979   2.902   0.750  0.00  0.00     0.004 A 
ATOM     22  C   UNL d   1      -4.577   2.892  -0.515  0.00  0.00     0.016 A 
ATOM     23  C   UNL d   1      -5.407   3.946  -0.915  0.00  0.00     0.024 A 
ATOM     24  C   UNL d   1      -5.642   5.015  -0.051  0.00  0.00     0.034 A 
ATOM     25  C   UNL d   1      -5.045   5.044   1.207  0.00  0.00     0.024 A 
ATOM     26 CL   UNL d   1      -6.662   6.309  -0.540  0.00  0.00    -0.084 Cl
ATOM     27  C   UNL d   1      -4.211   3.994   1.605  0.00  0.00     0.016 A 
ENDBRANCH  19  21
BRANCH  19  28
ATOM     28  N   UNL d   1      -2.673   1.718   2.496  0.00  0.00    -0.286 NA
ATOM     29  H   UNL d   1      -2.254   0.821   2.722  0.00  0.00     0.125 HD
ATOM     30  H   UNL d   1      -3.397   1.954   3.167  0.00  0.00     0.125 HD
ENDBRANCH  19  28
ENDBRANCH  17  18
ENDBRANCH   1  17
TORSDOF 6
