REMARK  7 active torsions:
REMARK  status: ('A' for Active; 'I' for Inactive)
REMARK    1  A    between atoms: C_6  and  C_1 
REMARK    2  A    between atoms: S_8  and  C_3 
REMARK    3  A    between atoms: C_10  and  C_4 
REMARK    4  A    between atoms: O_14  and  C_6 
REMARK    5  A    between atoms: C_15  and  S_8 
REMARK    6  A    between atoms: C_21  and  O_14 
REMARK    7  A    between atoms: C_20  and  C_15 
ROOT
ATOM      1  C   UNL d   1       1.282  -1.295   0.048  0.00  0.00     0.094 A 
ATOM      2  C   UNL d   1      -0.723  -0.087  -0.040  0.00  0.00     0.081 A 
ATOM      3  C   UNL d   1       0.197   0.941   0.028  0.00  0.00     0.063 A 
ATOM      4  C   UNL d   1      -0.106  -1.404  -0.014  0.00  0.00     0.020 A 
ATOM      5  S   UNL d   1       1.792   0.345   0.021  0.00  0.00    -0.075 SA
ATOM      6  C   UNL d   1      -2.133   0.152  -0.123  0.00  0.00     0.102 C 
ATOM      7  N   UNL d   1      -3.280   0.342  -0.144  0.00  0.00    -0.191 NA
ENDROOT
BRANCH   4   8
ATOM      8  C   UNL d   1      -0.802  -2.707  -0.029  0.00  0.00    -0.023 A 
ATOM      9  C   UNL d   1      -0.342  -3.776  -0.817  0.00  0.00     0.014 A 
ATOM     10  C   UNL d   1      -0.986  -5.020  -0.790  0.00  0.00     0.024 A 
ATOM     11  C   UNL d   1      -2.129  -5.193  -0.017  0.00  0.00     0.034 A 
ATOM     12  C   UNL d   1      -2.624  -4.137   0.740  0.00  0.00     0.024 A 
ATOM     13 CL   UNL d   1      -2.929  -6.715   0.006  0.00  0.00    -0.084 Cl
ATOM     14  C   UNL d   1      -1.954  -2.908   0.748  0.00  0.00     0.014 A 
ENDBRANCH   4   8
BRANCH   3  15
ATOM     15  S   UNL d   1      -0.065   2.685   0.030  0.00  0.00    -0.121 SA
BRANCH  15  16
ATOM     16  C   UNL d   1      -0.985   2.980   1.579  0.00  0.00     0.084 C 
BRANCH  16  17
ATOM     17  C   UNL d   1      -0.264   2.610   2.888  0.00  0.00    -0.013 C 
ATOM     18  C   UNL d   1       1.064   3.345   3.082  0.00  0.00     0.010 C 
ATOM     19  C   UNL d   1      -1.186   2.921   4.076  0.00  0.00     0.010 C 
ENDBRANCH  16  17
ENDBRANCH  15  16
ENDBRANCH   3  15
BRANCH   1  20
ATOM     20  C   UNL d   1       2.291  -2.328   0.223  0.00  0.00     0.301 C 
ATOM     21  O   UNL d   1       2.136  -3.368   0.849  0.00  0.00    -0.259 OA
BRANCH  20  22
ATOM     22  O   UNL d   1       3.463  -1.975  -0.387  0.00  0.00    -0.317 OA
BRANCH  22  23
ATOM     23  C   UNL d   1       4.600  -2.770  -0.025  0.00  0.00     0.174 C 
ATOM     24  C   UNL d   1       5.158  -2.243   1.285  0.00  0.00     0.034 C 
ENDBRANCH  22  23
ENDBRANCH  20  22
ENDBRANCH   1  20
TORSDOF 7
