REMARK  6 active torsions:
REMARK  status: ('A' for Active; 'I' for Inactive)
REMARK    1  A    between atoms: N_3  and  C_1 
REMARK    2  A    between atoms: C_9  and  C_2 
REMARK    3  A    between atoms: O_14  and  C_4 
REMARK    4  A    between atoms: O_13  and  C_5 
REMARK    5  A    between atoms: O_15  and  C_9 
REMARK    6  A    between atoms: C_17  and  O_15 
ROOT
ATOM      1  C   UNL d   1      -0.742   1.212   0.031  0.00  0.00     0.187 A 
ATOM      2  C   UNL d   1      -0.752  -1.237   0.039  0.00  0.00     0.097 A 
ATOM      3  C   UNL d   1      -1.451  -0.005   0.041  0.00  0.00     0.121 A 
ATOM      4  C   UNL d   1       0.645   1.159   0.025  0.00  0.00     0.177 A 
ATOM      5  N   UNL d   1       1.327  -0.002   0.032  0.00  0.00    -0.338 N 
ATOM      6  HN  UNL d   1       2.347   0.002   0.033  1.00  0.00     0.168 HD
ATOM      7  C   UNL d   1       0.649  -1.180   0.036  0.00  0.00     0.026 A 
ATOM      8  C   UNL d   1       1.541  -2.389   0.019  0.00  0.00     0.069 C 
ENDROOT
BRANCH   2   9
ATOM      9  C   UNL d   1      -1.424  -2.574  -0.026  0.00  0.00     0.298 C 
ATOM     10  O   UNL d   1      -0.849  -3.647  -0.061  0.00  0.00    -0.259 OA
BRANCH   9  11
ATOM     11  O   UNL d   1      -2.769  -2.423  -0.147  0.00  0.00    -0.318 OA
BRANCH  11  12
ATOM     12  C   UNL d   1      -3.470  -3.561  -0.680  0.00  0.00     0.174 C 
ATOM     13  C   UNL d   1      -3.477  -3.423  -2.191  0.00  0.00     0.034 C 
ENDBRANCH  11  12
ENDBRANCH   9  11
ENDBRANCH   2   9
BRANCH   3  14
ATOM     14  O   UNL d   1      -2.821   0.041   0.045  0.00  0.00    -0.357 OA
ATOM     15  H   UNL d   1      -3.206  -0.858   0.027  0.00  0.00     0.217 HD
ENDBRANCH   3  14
BRANCH   1  16
ATOM     16  N   UNL d   1      -1.408   2.518   0.015  0.00  0.00    -0.108 N 
ATOM     17  O   UNL d   1      -2.642   2.585   0.006  0.00  0.00    -0.532 OA
ATOM     18  O   UNL d   1      -0.675   3.519   0.009  0.00  0.00    -0.532 OA
ENDBRANCH   1  16
BRANCH   4  19
ATOM     19  O   UNL d   1       1.488   2.229   0.006  0.00  0.00    -0.344 OA
ATOM     20  H   UNL d   1       0.973   3.060   0.000  0.00  0.00     0.219 HD
ENDBRANCH   4  19
TORSDOF 6
