REMARK  5 active torsions:
REMARK  status: ('A' for Active; 'I' for Inactive)
REMARK    1  A    between atoms: C_3  and  S_1 
REMARK    2  A    between atoms: O_9  and  S_1 
REMARK    3  A    between atoms: C_5  and  C_10 
REMARK    4  A    between atoms: C_19  and  O_9 
REMARK    5  A    between atoms: C_10  and  C_17 
ROOT
ATOM      1  C   UNL d   1       0.689   6.329   3.750  0.00  0.00    -0.034 A 
ATOM      2  C   UNL d   1      -1.035   6.282   5.972  0.00  0.00     0.089 A 
ATOM      3  C   UNL d   1       0.751   5.276   4.666  0.00  0.00     0.014 A 
ATOM      4  C   UNL d   1      -0.211   7.375   3.972  0.00  0.00     0.014 A 
ATOM      5  C   UNL d   1      -0.114   5.252   5.767  0.00  0.00     0.039 A 
ATOM      6  C   UNL d   1      -1.071   7.352   5.078  0.00  0.00     0.039 A 
ENDROOT
BRANCH   2   7
ATOM      7  O   UNL d   1      -1.905   6.100   7.019  0.00  0.00    -0.229 OA
BRANCH   7   8
ATOM      8  S   UNL d   1      -2.587   7.345   7.817  0.00  0.00     0.306 S 
ATOM      9  O   UNL d   1      -1.554   8.021   8.581  0.00  0.00    -0.193 OA
ATOM     10  O   UNL d   1      -3.451   8.082   6.913  0.00  0.00    -0.193 OA
BRANCH   8  11
ATOM     11  C   UNL d   1      -3.687   6.651   9.018  0.00  0.00     0.125 A 
ATOM     12  C   UNL d   1      -3.869   5.280   9.138  0.00  0.00     0.143 A 
ATOM     13  C   UNL d   1      -4.774   4.774  10.069  0.00  0.00     0.086 A 
ATOM     14  F   UNL d   1      -3.200   4.410   8.373  0.00  0.00    -0.204 F 
ATOM     15  C   UNL d   1      -5.490   5.652  10.874  0.00  0.00     0.119 A 
ATOM     16  C   UNL d   1      -5.318   7.028  10.766  0.00  0.00     0.044 A 
ATOM     17  F   UNL d   1      -6.364   5.167  11.766  0.00  0.00    -0.206 F 
ATOM     18  C   UNL d   1      -4.412   7.535   9.833  0.00  0.00     0.032 A 
ENDBRANCH   8  11
ENDBRANCH   7   8
ENDBRANCH   2   7
BRANCH   1  19
ATOM     19  C   UNL d   1       1.504   6.308   2.536  0.00  0.00     0.046 C 
BRANCH  19  20
ATOM     20  C   UNL d   1       2.717   6.852   2.415  0.00  0.00     0.105 A 
ATOM     21  C   UNL d   1       3.535   6.846   1.163  0.00  0.00     0.276 A 
ATOM     22  N   UNL d   1       4.679   7.511   1.501  0.00  0.00    -0.274 N 
ATOM     23  O   UNL d   1       3.239   6.357   0.090  0.00  0.00    -0.266 OA
ATOM     24  C   UNL d   1       4.655   7.918   2.810  0.00  0.00     0.327 A 
ATOM     25  H   UNL d   1       5.445   7.683   0.873  0.00  0.00     0.173 HD
ATOM     26  N   UNL d   1       3.450   7.510   3.357  0.00  0.00    -0.304 N 
ATOM     27  O   UNL d   1       5.536   8.529   3.389  0.00  0.00    -0.247 OA
ATOM     28  H   UNL d   1       3.178   7.685   4.313  0.00  0.00     0.171 HD
ENDBRANCH  19  20
ENDBRANCH   1  19
TORSDOF 5
