REMARK  3 active torsions:
REMARK  status: ('A' for Active; 'I' for Inactive)
REMARK    1  A    between atoms: C_2  and  N_1 
REMARK    2  A    between atoms: O_4  and  C_3 
REMARK    3  A    between atoms: C_9  and  O_4 
ROOT
ATOM      1  C   UNL d   1      -0.704   1.671  -2.292  0.00  0.00     0.154 A 
ATOM      2  C   UNL d   1      -0.545   1.094  -1.046  0.00  0.00     0.181 A 
ATOM      3  N   UNL d   1      -0.035  -0.159  -0.896  0.00  0.00    -0.345 N 
ATOM      4  HN  UNL d   1       0.033  -0.595   0.023  1.00  0.00     0.167 HD
ATOM      5  C   UNL d   1      -0.282   0.988  -3.436  0.00  0.00     0.042 A 
ATOM      6  C   UNL d   1       0.379  -0.804  -2.009  0.00  0.00     0.090 A 
ATOM      7  C   UNL d   1       0.287  -0.273  -3.285  0.00  0.00     0.020 A 
ENDROOT
BRANCH   2   8
ATOM      8  O   UNL d   1      -0.953   1.770   0.092  0.00  0.00    -0.291 OA
BRANCH   8   9
ATOM      9  C   UNL d   1      -0.214   1.587   1.242  0.00  0.00     0.078 A 
ATOM     10  C   UNL d   1       1.181   1.444   1.250  0.00  0.00     0.040 A 
ATOM     11  C   UNL d   1       1.859   1.262   2.453  0.00  0.00     0.045 A 
ATOM     12  C   UNL d   1       1.147   1.264   3.647  0.00  0.00     0.116 A 
ATOM     13  C   UNL d   1      -0.232   1.448   3.657  0.00  0.00     0.045 A 
ATOM     14  F   UNL d   1       1.801   1.091   4.803  0.00  0.00    -0.206 F 
ATOM     15  C   UNL d   1      -0.915   1.616   2.451  0.00  0.00     0.040 A 
ENDBRANCH   8   9
ENDBRANCH   2   8
BRANCH   1  16
ATOM     16  N   UNL d   1      -1.280   2.984  -2.425  0.00  0.00    -0.111 N 
ATOM     17  O   UNL d   1      -0.737   3.909  -1.809  0.00  0.00    -0.532 OA
ATOM     18  O   UNL d   1      -2.243   3.095  -3.193  0.00  0.00    -0.532 OA
ENDBRANCH   1  16
TORSDOF 3
