REMARK  9 active torsions:
REMARK  status: ('A' for Active; 'I' for Inactive)
REMARK    1  A    between atoms: C_2  and  S_1 
REMARK    2  A    between atoms: C_18  and  S_1 
REMARK    3  A    between atoms: N_5  and  C_3 
REMARK       I    between atoms: C_6  and  N_5 
REMARK    4  A    between atoms: C_14  and  C_6 
REMARK    5  A    between atoms: C_9  and  C_16 
REMARK    6  A    between atoms: O_19  and  C_9 
REMARK    7  A    between atoms: O_20  and  C_10 
REMARK    8  A    between atoms: C_11  and  C_14 
REMARK    9  A    between atoms: C_16  and  C_11 
ROOT
ATOM      1  C   UNL d   1      -0.894   0.673  -3.579  0.00  0.00     0.061 A 
ATOM      2  C   UNL d   1       0.197   2.724  -2.884  0.00  0.00     0.069 A 
ATOM      3  C   UNL d   1      -0.762   2.058  -3.650  0.00  0.00     0.055 A 
ATOM      4  C   UNL d   1       0.980   1.970  -2.001  0.00  0.00     0.092 A 
ATOM      5  C   UNL d   1      -0.074  -0.084  -2.737  0.00  0.00     0.026 A 
ATOM      6  C   UNL d   1       0.861   0.573  -1.932  0.00  0.00     0.040 A 
ENDROOT
BRANCH   2   7
ATOM      7  N   UNL d   1       0.374   4.135  -2.981  0.00  0.00    -0.325 N 
ATOM      8  C   UNL d   1       0.024   4.891  -4.084  0.00  0.00     0.223 C 
ATOM      9  O   UNL d   1      -0.403   4.431  -5.146  0.00  0.00    -0.273 OA
ATOM     10  H   UNL d   1       0.938   4.553  -2.237  0.00  0.00     0.169 HD
BRANCH   8  11
ATOM     11  C   UNL d   1       0.174   6.400  -3.943  0.00  0.00     0.112 C 
BRANCH  11  12
ATOM     12  C   UNL d   1      -1.084   7.128  -3.390  0.00  0.00    -0.030 C 
ATOM     13  C   UNL d   1      -0.861   8.656  -3.468  0.00  0.00     0.016 C 
ATOM     14  C   UNL d   1      -2.324   6.830  -4.263  0.00  0.00     0.016 C 
BRANCH  12  15
ATOM     15  C   UNL d   1      -1.399   6.703  -1.940  0.00  0.00     0.119 C 
BRANCH  15  16
ATOM     16  C   UNL d   1      -0.259   6.961  -0.983  0.00  0.00     0.140 C 
ATOM     17  O   UNL d   1       0.678   6.191  -0.830  0.00  0.00    -0.650 OA
BRANCH  16  18
ATOM     18  O   UNL d   1      -0.332   8.155  -0.360  0.00  0.00    -0.776 OA
ATOM     19  H   UNL d   1      -1.113   8.688  -0.606  0.00  0.00     0.167 HD
ENDBRANCH  16  18
ENDBRANCH  15  16
ENDBRANCH  12  15
ENDBRANCH  11  12
ENDBRANCH   8  11
ENDBRANCH   2   7
BRANCH   4  20
ATOM     20  O   UNL d   1       1.901   2.610  -1.216  0.00  0.00    -0.358 OA
ATOM     21  H   UNL d   1       2.464   1.942  -0.787  0.00  0.00     0.217 HD
ENDBRANCH   4  20
BRANCH   1  22
ATOM     22  S   UNL d   1      -2.198  -0.100  -4.505  0.00  0.00     0.175 S 
ATOM     23  O   UNL d   1      -3.426   0.558  -4.109  0.00  0.00    -0.223 OA
ATOM     24  O   UNL d   1      -2.043  -1.535  -4.350  0.00  0.00    -0.223 OA
BRANCH  22  25
ATOM     25  C   UNL d   1      -1.841   0.311  -6.202  0.00  0.00     0.141 C 
ATOM     26  C   UNL d   1      -2.881  -0.273  -7.138  0.00  0.00     0.021 C 
ENDBRANCH  22  25
ENDBRANCH   1  22
TORSDOF 9
