REMARK  4 active torsions:
REMARK  status: ('A' for Active; 'I' for Inactive)
REMARK    1  A    between atoms: N_4  and  C_1 
REMARK    2  A    between atoms: C_5  and  C_9 
REMARK    3  A    between atoms: C_10  and  C_5 
REMARK       I    between atoms: N_13  and  C_10 
REMARK    4  A    between atoms: C_18  and  N_13 
ROOT
ATOM      1  C   UNL d   1       1.720   2.883  -0.371  0.00  0.00     0.116 C 
ATOM      2  C   UNL d   1       2.221   3.931  -1.188  0.00  0.00     0.105 C 
ATOM      3  N   UNL d   1       2.765   4.725  -1.841  0.00  0.00    -0.191 NA
ENDROOT
BRANCH   1   4
ATOM      4  C   UNL d   1       0.470   2.819   0.138  0.00  0.00     0.077 C 
ATOM      5  C   UNL d   1      -0.544   3.787  -0.104  0.00  0.00     0.110 A 
ATOM      6  N   UNL d   1      -1.826   3.662   0.434  0.00  0.00    -0.318 N 
ATOM      7  N   UNL d   1      -0.461   4.885  -0.830  0.00  0.00    -0.348 N 
ATOM      8  C   UNL d   1      -2.522   4.786   0.046  0.00  0.00     0.192 A 
ATOM      9  C   UNL d   1      -2.330   2.568   1.239  0.00  0.00     0.159 C 
ATOM     10  C   UNL d   1      -1.675   5.509  -0.751  0.00  0.00     0.144 A 
ATOM     11  HN  UNL d   1       0.354   5.207  -1.352  1.00  0.00     0.167 HD
BRANCH   8  12
ATOM     12  N   UNL d   1      -3.857   5.126   0.412  0.00  0.00    -0.096 N 
ATOM     13  O   UNL d   1      -4.414   4.440   1.274  0.00  0.00    -0.530 OA
ATOM     14  O   UNL d   1      -4.350   6.104  -0.159  0.00  0.00    -0.530 OA
ENDBRANCH   8  12
ENDBRANCH   1   4
BRANCH   1  15
ATOM     15  C   UNL d   1       2.612   1.715  -0.032  0.00  0.00     0.266 C 
ATOM     16  N   UNL d   1       3.919   1.782  -0.489  0.00  0.00    -0.322 N 
ATOM     17  H   UNL d   1       4.258   2.646  -0.899  0.00  0.00     0.169 HD
ATOM     18  O   UNL d   1       2.156   0.791   0.643  0.00  0.00    -0.267 OA
BRANCH  16  19
ATOM     19  C   UNL d   1       4.899   0.772  -0.325  0.00  0.00     0.035 A 
ATOM     20  C   UNL d   1       4.596  -0.546   0.027  0.00  0.00     0.029 A 
ATOM     21  C   UNL d   1       5.611  -1.486   0.227  0.00  0.00     0.002 A 
ATOM     22  C   UNL d   1       6.943  -1.118   0.071  0.00  0.00     0.000 A 
ATOM     23  C   UNL d   1       7.258   0.183  -0.318  0.00  0.00     0.002 A 
ATOM     24  C   UNL d   1       6.240   1.120  -0.530  0.00  0.00     0.029 A 
ENDBRANCH  16  19
ENDBRANCH   1  15
TORSDOF 4
