REMARK  5 active torsions:
REMARK  status: ('A' for Active; 'I' for Inactive)
REMARK    1  A    between atoms: C_6  and  C_1 
REMARK    2  A    between atoms: C_12  and  N_2 
REMARK    3  A    between atoms: C_17  and  C_3 
REMARK       I    between atoms: N_8  and  C_6 
REMARK    4  A    between atoms: C_9  and  N_8 
REMARK    5  A    between atoms: C_22  and  C_17 
ROOT
ATOM      1  C   UNL d   1      -0.196   1.083  -0.009  0.00  0.00     0.073 C 
ATOM      2  N   UNL d   1       0.807  -0.914   0.113  0.00  0.00    -0.260 N 
ATOM      3  C   UNL d   1       1.069   0.472   0.025  0.00  0.00     0.051 C 
ATOM      4  N   UNL d   1      -0.507  -1.155   0.326  0.00  0.00    -0.304 N 
ATOM      5  HN  UNL d   1      -0.943  -2.042   0.581  1.00  0.00     0.186 HD
ATOM      6  C   UNL d   1      -1.102   0.007   0.132  0.00  0.00     0.126 C 
ENDROOT
BRANCH   1   7
ATOM      7  C   UNL d   1      -0.716   2.456  -0.096  0.00  0.00     0.259 C 
ATOM      8  N   UNL d   1       0.175   3.485   0.117  0.00  0.00    -0.320 N 
ATOM      9  H   UNL d   1       1.098   3.215   0.406  0.00  0.00     0.169 HD
ATOM     10  O   UNL d   1      -1.914   2.603  -0.292  0.00  0.00    -0.267 OA
BRANCH   8  11
ATOM     11  C   UNL d   1      -0.070   4.883   0.057  0.00  0.00     0.074 A 
ATOM     12  C   UNL d   1      -1.259   5.513  -0.356  0.00  0.00     0.146 A 
ATOM     13  C   UNL d   1      -1.377   6.903  -0.379  0.00  0.00     0.086 A 
ATOM     14  F   UNL d   1      -2.327   4.835  -0.783  0.00  0.00    -0.204 F 
ATOM     15  C   UNL d   1      -0.302   7.686  -0.002  0.00  0.00     0.119 A 
ATOM     16  C   UNL d   1       0.890   7.104   0.401  0.00  0.00     0.044 A 
ATOM     17  F   UNL d   1      -0.408   9.021  -0.039  0.00  0.00    -0.206 F 
ATOM     18  C   UNL d   1       1.006   5.708   0.432  0.00  0.00     0.036 A 
ENDBRANCH   8  11
ENDBRANCH   1   7
BRANCH   3  19
ATOM     19  C   UNL d   1       2.457   1.042   0.168  0.00  0.00     0.060 C 
BRANCH  19  20
ATOM     20  C   UNL d   1       3.195   1.470  -1.106  0.00  0.00     0.002 C 
ATOM     21  C   UNL d   1       2.486   2.460  -2.009  0.00  0.00     0.005 C 
ENDBRANCH  19  20
ENDBRANCH   3  19
BRANCH   2  22
ATOM     22  C   UNL d   1       1.646  -2.063   0.002  0.00  0.00     0.056 A 
ATOM     23  C   UNL d   1       1.259  -3.243   0.665  0.00  0.00     0.031 A 
ATOM     24  C   UNL d   1       1.969  -4.432   0.485  0.00  0.00     0.002 A 
ATOM     25  C   UNL d   1       3.062  -4.461  -0.373  0.00  0.00     0.000 A 
ATOM     26  C   UNL d   1       3.452  -3.300  -1.038  0.00  0.00     0.002 A 
ATOM     27  C   UNL d   1       2.750  -2.103  -0.849  0.00  0.00     0.031 A 
ENDBRANCH   2  22
TORSDOF 5
