REMARK  2 active torsions:
REMARK  status: ('A' for Active; 'I' for Inactive)
REMARK    1  A    between atoms: C_2  and  S_1 
REMARK    2  A    between atoms: C_6  and  S_1 
ROOT
ATOM      1  S   UNL d   1       0.943  -0.035  -0.088  0.00  0.00     0.213 S 
ATOM      2  O   UNL d   1       0.499  -1.316   0.432  0.00  0.00    -0.217 OA
ATOM      3  O   UNL d   1       0.440   1.213   0.452  0.00  0.00    -0.217 OA
ENDROOT
BRANCH   1   4
ATOM      4  C   UNL d   1       0.482  -0.062  -1.806  0.00  0.00     0.104 A 
ATOM      5  S   UNL d   1       0.845   1.336  -2.724  0.00  0.00    -0.090 SA
ATOM      6  C   UNL d   1       0.190   0.650  -4.148  0.00  0.00     0.051 A 
ATOM      7  C   UNL d   1      -0.298  -0.620  -3.933  0.00  0.00     0.009 A 
ATOM      8  C   UNL d   1      -0.136  -1.028  -2.578  0.00  0.00     0.032 A 
ENDBRANCH   1   4
BRANCH   1   9
ATOM      9  C   UNL d   1       2.716  -0.007  -0.039  0.00  0.00     0.064 A 
ATOM     10  C   UNL d   1       3.390   1.217  -0.017  0.00  0.00     0.024 A 
ATOM     11  C   UNL d   1       4.783   1.233   0.065  0.00  0.00     0.002 A 
ATOM     12  C   UNL d   1       5.492   0.034   0.138  0.00  0.00     0.000 A 
ATOM     13  C   UNL d   1       4.815  -1.186   0.132  0.00  0.00     0.002 A 
ATOM     14  C   UNL d   1       3.423  -1.212   0.046  0.00  0.00     0.024 A 
ENDBRANCH   1   9
TORSDOF 2
