REMARK  9 active torsions:
REMARK  status: ('A' for Active; 'I' for Inactive)
REMARK    1  A    between atoms: O_6  and  C_1 
REMARK    2  A    between atoms: C_9  and  C_1 
REMARK    3  A    between atoms: C_20  and  C_2 
REMARK    4  A    between atoms: N_21  and  C_2 
REMARK    5  A    between atoms: N_3  and  O_6 
REMARK    6  A    between atoms: C_5  and  C_10 
REMARK    7  A    between atoms: C_11  and  C_12 
REMARK    8  A    between atoms: O_22  and  C_20 
REMARK    9  A    between atoms: C_23  and  O_22 
ROOT
ATOM      1  C   UNL d   1      -1.791   2.264   0.469  0.00  0.00     0.100 C 
ATOM      2  N   UNL d   1      -1.105   1.193   0.205  0.00  0.00    -0.248 N 
ATOM      3  HN  UNL d   1      -0.092   1.186   0.084  1.00  0.00     0.196 HD
ENDROOT
BRANCH   1   4
ATOM      4  C   UNL d   1      -1.015   3.587   0.647  0.00  0.00     0.247 C 
BRANCH   4   5
ATOM      5  O   UNL d   1      -1.035   4.330  -0.572  0.00  0.00    -0.344 OA
BRANCH   5   6
ATOM      6  C   UNL d   1      -0.275   5.473  -0.573  0.00  0.00     0.069 A 
ATOM      7  C   UNL d   1       0.293   5.831  -1.796  0.00  0.00     0.037 A 
ATOM      8  C   UNL d   1       1.067   6.994  -1.915  0.00  0.00     0.012 A 
ATOM      9  C   UNL d   1       1.276   7.839  -0.812  0.00  0.00    -0.035 A 
ATOM     10  C   UNL d   1       0.675   7.483   0.406  0.00  0.00     0.012 A 
ATOM     11  C   UNL d   1      -0.091   6.312   0.526  0.00  0.00     0.037 A 
BRANCH   9  12
ATOM     12  C   UNL d   1       2.123   9.087  -0.965  0.00  0.00     0.141 C 
ATOM     13  S   UNL d   1       3.562   9.117   0.152  0.00  0.00    -0.148 SA
ATOM     14  C   UNL d   1       3.689  10.918   0.226  0.00  0.00     0.085 C 
ATOM     15  C   UNL d   1       2.285  11.455   0.412  0.00  0.00     0.085 C 
ATOM     16  S   UNL d   1       1.164  10.629  -0.756  0.00  0.00    -0.148 SA
ENDBRANCH   9  12
ENDBRANCH   5   6
ENDBRANCH   4   5
ENDBRANCH   1   4
BRANCH   1  17
ATOM     17  N   UNL d   1      -3.161   2.307   0.597  0.00  0.00    -0.289 NA
ATOM     18  H   UNL d   1      -3.624   1.508   0.181  0.00  0.00     0.125 HD
ATOM     19  H   UNL d   1      -3.592   3.192   0.350  0.00  0.00     0.125 HD
ENDBRANCH   1  17
BRANCH   2  20
ATOM     20  O   UNL d   1      -1.916   0.033   0.102  0.00  0.00    -0.194 OA
BRANCH  20  21
ATOM     21  C   UNL d   1      -1.123  -1.045  -0.211  0.00  0.00     0.315 C 
ATOM     22  O   UNL d   1       0.076  -1.018  -0.463  0.00  0.00    -0.257 OA
BRANCH  21  23
ATOM     23  C   UNL d   1      -1.885  -2.326  -0.213  0.00  0.00     0.041 A 
ATOM     24  C   UNL d   1      -1.182  -3.503  -0.503  0.00  0.00     0.018 A 
ATOM     25  C   UNL d   1      -1.827  -4.747  -0.515  0.00  0.00     0.009 A 
ATOM     26  C   UNL d   1      -3.201  -4.864  -0.243  0.00  0.00    -0.051 A 
ATOM     27  C   UNL d   1      -3.894  -3.675   0.049  0.00  0.00     0.009 A 
ATOM     28  C   UNL d   1      -3.251  -2.421   0.065  0.00  0.00     0.018 A 
BRANCH  26  29
ATOM     29  C   UNL d   1      -3.883  -6.249  -0.286  0.00  0.00    -0.024 C 
ATOM     30  C   UNL d   1      -5.396  -6.201   0.028  0.00  0.00     0.019 C 
ATOM     31  C   UNL d   1      -3.729  -6.867  -1.693  0.00  0.00     0.019 C 
ATOM     32  C   UNL d   1      -3.236  -7.201   0.744  0.00  0.00     0.019 C 
ENDBRANCH  26  29
ENDBRANCH  21  23
ENDBRANCH  20  21
ENDBRANCH   2  20
TORSDOF 9
