REMARK  4 active torsions:
REMARK  status: ('A' for Active; 'I' for Inactive)
REMARK    1  A    between atoms: O_12  and  C_1 
REMARK    2  A    between atoms: N_7  and  C_2 
REMARK    3  A    between atoms: C_11  and  N_3 
REMARK    4  A    between atoms: C_13  and  N_9 
ROOT
ATOM      1  C   UNL d   1      -0.267  -1.308   0.009  0.00  0.00     0.188 A 
ATOM      2  C   UNL d   1       1.008  -0.787   0.029  0.00  0.00     0.124 A 
ATOM      3  N   UNL d   1      -1.111  -0.211  -0.006  0.00  0.00    -0.260 N 
ATOM      4  N   UNL d   1      -0.432   0.966  -0.027  0.00  0.00    -0.298 N 
ATOM      5  HN  UNL d   1      -0.820   1.909  -0.056  1.00  0.00     0.187 HD
ATOM      6  C   UNL d   1       0.859   0.613  -0.001  0.00  0.00     0.054 A 
ATOM      7  C   UNL d   1       1.911   1.656  -0.006  0.00  0.00     0.072 C 
ENDROOT
BRANCH   2   8
ATOM      8  N   UNL d   1       2.250  -1.429   0.086  0.00  0.00    -0.294 N 
ATOM      9  N   UNL d   1       2.229  -2.668  -0.061  0.00  0.00    -0.300 N 
ATOM     10  HN  UNL d   1       1.384  -3.221  -0.202  1.00  0.00     0.187 HD
ATOM     11  HN  UNL d   1       3.118  -0.916   0.239  1.00  0.00     0.187 HD
BRANCH   9  12
ATOM     12  C   UNL d   1       3.540  -3.200  -0.007  0.00  0.00     0.048 A 
ATOM     13  C   UNL d   1       3.740  -4.442   0.605  0.00  0.00     0.031 A 
ATOM     14  C   UNL d   1       5.017  -5.014   0.674  0.00  0.00     0.009 A 
ATOM     15  C   UNL d   1       6.123  -4.354   0.126  0.00  0.00    -0.062 A 
ATOM     16  C   UNL d   1       5.931  -3.120  -0.501  0.00  0.00     0.009 A 
ATOM     17  C   UNL d   1       7.488  -4.970   0.210  0.00  0.00     0.048 C 
ATOM     18  C   UNL d   1       4.653  -2.556  -0.573  0.00  0.00     0.031 A 
ENDBRANCH   9  12
ENDBRANCH   2   8
BRANCH   1  19
ATOM     19  O   UNL d   1      -0.708  -2.562   0.012  0.00  0.00    -0.343 OA
ATOM     20  H   UNL d   1       0.094  -3.121   0.004  0.00  0.00     0.219 HD
ENDBRANCH   1  19
BRANCH   3  21
ATOM     21  C   UNL d   1      -2.587  -0.199   0.012  0.00  0.00     0.045 C 
ATOM     22  C   UNL d   1      -3.114  -0.894   1.282  0.00  0.00     0.039 C 
ATOM     23  C   UNL d   1      -3.145   1.248   0.018  0.00  0.00     0.039 C 
ATOM     24  C   UNL d   1      -3.147  -0.900  -1.239  0.00  0.00     0.039 C 
ENDBRANCH   3  21
TORSDOF 4
