REMARK  7 active torsions:
REMARK  status: ('A' for Active; 'I' for Inactive)
REMARK    1  A    between atoms: C_6  and  C_1 
REMARK    2  A    between atoms: C_8  and  C_2 
REMARK    3  A    between atoms: C_13  and  N_3 
REMARK    4  A    between atoms: O_12  and  C_8 
REMARK    5  A    between atoms: N_9  and  O_12 
REMARK    6  A    between atoms: C_14  and  C_11 
REMARK    7  A    between atoms: N_21  and  C_11 
ROOT
ATOM      1  C   UNL d   1      -0.935  -2.687   0.172  0.00  0.00     0.158 C 
ATOM      2  C   UNL d   1      -0.352  -1.427   0.096  0.00  0.00     0.091 C 
ATOM      3  N   UNL d   1      -2.286  -2.513  -0.069  0.00  0.00    -0.251 N 
ATOM      4  N   UNL d   1      -2.540  -1.241  -0.488  0.00  0.00    -0.303 N 
ATOM      5  HN  UNL d   1      -3.417  -0.872  -0.855  1.00  0.00     0.186 HD
ATOM      6  C   UNL d   1      -1.396  -0.585  -0.316  0.00  0.00     0.127 C 
ENDROOT
BRANCH   2   7
ATOM      7  C   UNL d   1       1.025  -1.070   0.379  0.00  0.00     0.318 C 
ATOM      8  O   UNL d   1       1.769  -1.782   1.044  0.00  0.00    -0.257 OA
BRANCH   7   9
ATOM      9  O   UNL d   1       1.351   0.159  -0.137  0.00  0.00    -0.193 OA
BRANCH   9  10
ATOM     10  N   UNL d   1       2.088   0.868   0.823  0.00  0.00    -0.246 N 
ATOM     11  C   UNL d   1       2.476   2.026   0.383  0.00  0.00     0.109 C 
ATOM     12  HN  UNL d   1       2.295   0.515   1.757  1.00  0.00     0.196 HD
BRANCH  11  13
ATOM     13  C   UNL d   1       3.077   2.953   1.389  0.00  0.00     0.004 A 
ATOM     14  C   UNL d   1       3.737   2.434   2.510  0.00  0.00     0.016 A 
ATOM     15  C   UNL d   1       4.196   3.292   3.511  0.00  0.00     0.024 A 
ATOM     16  C   UNL d   1       3.986   4.665   3.393  0.00  0.00     0.034 A 
ATOM     17  C   UNL d   1       3.336   5.190   2.275  0.00  0.00     0.024 A 
ATOM     18 CL   UNL d   1       4.508   5.719   4.648  0.00  0.00    -0.084 Cl
ATOM     19  C   UNL d   1       2.883   4.335   1.268  0.00  0.00     0.016 A 
ENDBRANCH  11  13
BRANCH  11  20
ATOM     20  N   UNL d   1       2.345   2.446  -0.919  0.00  0.00    -0.286 NA
ATOM     21  H   UNL d   1       2.203   1.674  -1.563  0.00  0.00     0.125 HD
ATOM     22  H   UNL d   1       3.070   3.075  -1.247  0.00  0.00     0.125 HD
ENDBRANCH  11  20
ENDBRANCH   9  10
ENDBRANCH   7   9
ENDBRANCH   2   7
BRANCH   1  23
ATOM     23  C   UNL d   1      -0.298  -3.998   0.366  0.00  0.00     0.435 C 
ATOM     24  F   UNL d   1       0.982  -4.015  -0.082  0.00  0.00    -0.165 F 
ATOM     25  F   UNL d   1      -0.275  -4.363   1.670  0.00  0.00    -0.165 F 
ATOM     26  F   UNL d   1      -0.921  -4.991  -0.318  0.00  0.00    -0.165 F 
ENDBRANCH   1  23
BRANCH   3  27
ATOM     27  C   UNL d   1      -3.375  -3.429   0.020  0.00  0.00     0.057 A 
ATOM     28  C   UNL d   1      -3.354  -4.535   0.878  0.00  0.00     0.031 A 
ATOM     29  C   UNL d   1      -4.406  -5.456   0.859  0.00  0.00     0.002 A 
ATOM     30  C   UNL d   1      -5.489  -5.269   0.002  0.00  0.00     0.000 A 
ATOM     31  C   UNL d   1      -5.545  -4.139  -0.809  0.00  0.00     0.002 A 
ATOM     32  C   UNL d   1      -4.502  -3.212  -0.789  0.00  0.00     0.031 A 
ENDBRANCH   3  27
TORSDOF 7
