REMARK  1 active torsions:
REMARK  status: ('A' for Active; 'I' for Inactive)
REMARK    1  A    between atoms: C_4  and  C_3 
ROOT
ATOM      1  N   UNL d   1       1.180   1.383   0.035  0.00  0.00    -0.352 N 
ATOM      2  HN  UNL d   1       1.191   2.402   0.078  1.00  0.00     0.166 HD
ATOM      3  C   UNL d   1       2.328   0.663  -0.008  0.00  0.00     0.065 A 
ATOM      4  N   UNL d   1       1.146  -1.438  -0.048  0.00  0.00    -0.362 N 
ATOM      5  HN  UNL d   1       1.145  -2.458  -0.071  1.00  0.00     0.165 HD
ATOM      6  C   UNL d   1       0.022   0.692   0.016  0.00  0.00     0.059 A 
ATOM      7  C   UNL d   1       2.297  -0.724  -0.044  0.00  0.00     0.119 A 
ATOM      8  C   UNL d   1       0.005  -0.726  -0.021  0.00  0.00     0.059 A 
ATOM      9  C   UNL d   1      -1.189   1.374   0.032  0.00  0.00     0.032 A 
ATOM     10  C   UNL d   1      -1.214  -1.391  -0.029  0.00  0.00     0.032 A 
ATOM     11  C   UNL d   1      -2.410   0.696   0.018  0.00  0.00     0.002 A 
ATOM     12  C   UNL d   1      -2.422  -0.693  -0.009  0.00  0.00     0.002 A 
ENDROOT
BRANCH   3  13
ATOM     13  C   UNL d   1       3.561   1.456   0.021  0.00  0.00     0.033 A 
ATOM     14  S   UNL d   1       4.998   0.897  -0.740  0.00  0.00    -0.100 SA
ATOM     15  C   UNL d   1       5.878   2.285  -0.276  0.00  0.00     0.050 A 
ATOM     16  C   UNL d   1       5.104   3.171   0.436  0.00  0.00     0.008 A 
ATOM     17  C   UNL d   1       3.768   2.701   0.593  0.00  0.00     0.021 A 
ENDBRANCH   3  13
TORSDOF 1
