REMARK  6 active torsions:
REMARK  status: ('A' for Active; 'I' for Inactive)
REMARK       I    between atoms: N_3  and  C_1 
REMARK       I    between atoms: N_5  and  C_1 
REMARK    1  A    between atoms: C_2  and  C_10 
REMARK    2  A    between atoms: C_11  and  N_3 
REMARK    3  A    between atoms: C_10  and  N_5 
REMARK    4  A    between atoms: O_12  and  C_13 
REMARK    5  A    between atoms: C_14  and  O_12 
REMARK    6  A    between atoms: C_19  and  C_14 
ROOT
ATOM      1  C   UNL d   1       1.075   1.106  -2.046  0.00  0.00     0.036 A 
ATOM      2  C   UNL d   1       2.268   2.250  -4.322  0.00  0.00     0.069 A 
ATOM      3  C   UNL d   1       2.154   0.479  -2.668  0.00  0.00     0.032 A 
ATOM      4  C   UNL d   1       0.598   2.312  -2.573  0.00  0.00     0.032 A 
ATOM      5  C   UNL d   1       2.748   1.052  -3.797  0.00  0.00     0.039 A 
ATOM      6  C   UNL d   1       1.200   2.890  -3.696  0.00  0.00     0.039 A 
ENDROOT
BRANCH   1   7
ATOM      7  N   UNL d   1       0.422   0.593  -0.910  0.00  0.00    -0.309 N 
ATOM      8  C   UNL d   1       0.838  -0.449  -0.111  0.00  0.00     0.321 C 
ATOM      9  N   UNL d   1      -0.069  -0.698   0.893  0.00  0.00    -0.337 N 
ATOM     10  O   UNL d   1       1.865  -1.102  -0.230  0.00  0.00    -0.247 OA
ATOM     11  H   UNL d   1      -0.698   0.042   1.160  0.00  0.00     0.164 HD
ATOM     12  H   UNL d   1      -0.401   1.086  -0.602  0.00  0.00     0.170 HD
BRANCH   9  13
ATOM     13  C   UNL d   1       0.286  -1.622   1.945  0.00  0.00     0.189 C 
BRANCH  13  14
ATOM     14  C   UNL d   1      -0.854  -1.715   2.887  0.00  0.00     0.070 A 
ATOM     15  O   UNL d   1      -1.240  -0.548   3.490  0.00  0.00    -0.325 OA
ATOM     16  C   UNL d   1      -2.287  -0.849   4.299  0.00  0.00     0.142 A 
ATOM     17  C   UNL d   1      -2.587  -2.191   4.219  0.00  0.00     0.027 A 
ATOM     18  C   UNL d   1      -1.662  -2.750   3.306  0.00  0.00     0.036 A 
ENDBRANCH  13  14
ENDBRANCH   9  13
ENDBRANCH   1   7
BRANCH   2  19
ATOM     19  O   UNL d   1       2.925   2.701  -5.431  0.00  0.00    -0.347 OA
BRANCH  19  20
ATOM     20  C   UNL d   1       2.205   3.618  -6.255  0.00  0.00     0.214 C 
BRANCH  20  21
ATOM     21  C   UNL d   1       2.782   3.654  -7.653  0.00  0.00    -0.034 A 
ATOM     22  C   UNL d   1       3.465   2.557  -8.199  0.00  0.00     0.009 A 
ATOM     23  C   UNL d   1       3.927   2.591  -9.516  0.00  0.00     0.001 A 
ATOM     24  C   UNL d   1       3.700   3.715 -10.306  0.00  0.00     0.000 A 
ATOM     25  C   UNL d   1       3.014   4.808  -9.781  0.00  0.00     0.001 A 
ATOM     26  C   UNL d   1       2.554   4.777  -8.463  0.00  0.00     0.009 A 
ENDBRANCH  20  21
ENDBRANCH  19  20
ENDBRANCH   2  19
TORSDOF 6
