REMARK  4 active torsions:
REMARK  status: ('A' for Active; 'I' for Inactive)
REMARK    1  A    between atoms: C_13  and  C_8 
REMARK    2  A    between atoms: S_15  and  C_9 
REMARK    3  A    between atoms: C_12  and  C_11 
REMARK    4  A    between atoms: C_22  and  S_15 
ROOT
ATOM      1  C   UNL d   1       0.186  -0.771  -0.007  0.00  0.00     0.152 A 
ATOM      2  N   UNL d   1       0.258   0.625  -0.010  0.00  0.00    -0.231 N 
ATOM      3  C   UNL d   1       1.489  -1.218   0.007  0.00  0.00     0.104 A 
ATOM      4  N   UNL d   1       1.550   1.050   0.003  0.00  0.00    -0.293 N 
ATOM      5  HN  UNL d   1       1.878   2.016   0.008  1.00  0.00     0.187 HD
ATOM      6  N   UNL d   1      -1.004  -1.446  -0.011  0.00  0.00    -0.336 N 
ATOM      7  HN  UNL d   1      -1.033  -2.466  -0.015  1.00  0.00     0.167 HD
ATOM      8  C   UNL d   1       2.305  -0.058   0.008  0.00  0.00     0.059 A 
ATOM      9  C   UNL d   1      -0.930   1.387  -0.024  0.00  0.00     0.097 A 
ATOM     10  C   UNL d   1      -2.120   0.763  -0.016  0.00  0.00     0.073 A 
ATOM     11  C   UNL d   1      -2.103  -0.738  -0.011  0.00  0.00     0.120 A 
ATOM     12 CL   UNL d   1       1.976  -2.847   0.015  0.00  0.00    -0.078 Cl
ENDROOT
BRANCH   8  13
ATOM     13  C   UNL d   1       3.828   0.059   0.004  0.00  0.00    -0.005 C 
ATOM     14  C   UNL d   1       4.417  -0.588  -1.266  0.00  0.00     0.021 C 
ATOM     15  C   UNL d   1       4.292   1.538   0.016  0.00  0.00     0.021 C 
ATOM     16  C   UNL d   1       4.434  -0.612   1.253  0.00  0.00     0.021 C 
ENDBRANCH   8  13
BRANCH   9  17
ATOM     17  S   UNL d   1      -0.884   3.128   0.030  0.00  0.00    -0.111 SA
BRANCH  17  18
ATOM     18  C   UNL d   1       0.009   3.523  -1.506  0.00  0.00     0.076 C 
ATOM     19  C   UNL d   1       0.141   5.030  -1.649  0.00  0.00     0.016 C 
ENDBRANCH  17  18
ENDBRANCH   9  17
BRANCH  11  20
ATOM     20  C   UNL d   1      -3.459  -1.450  -0.000  0.00  0.00     0.432 C 
ATOM     21  F   UNL d   1      -4.509  -0.581  -0.003  0.00  0.00    -0.165 F 
ATOM     22  F   UNL d   1      -3.629  -2.251  -1.086  0.00  0.00    -0.165 F 
ATOM     23  F   UNL d   1      -3.621  -2.236   1.098  0.00  0.00    -0.165 F 
ENDBRANCH  11  20
TORSDOF 4
