REMARK  5 active torsions:
REMARK  status: ('A' for Active; 'I' for Inactive)
REMARK    1  A    between atoms: C_3  and  S_1 
REMARK    2  A    between atoms: O_6  and  S_1 
REMARK    3  A    between atoms: S_2  and  C_3 
REMARK    4  A    between atoms: C_4  and  C_5 
REMARK    5  A    between atoms: C_12  and  O_6 
ROOT
ATOM      1  C   UNL d   1       2.369   4.132   0.998  0.00  0.00     0.050 A 
ATOM      2  C   UNL d   1       2.069   2.907   0.382  0.00  0.00     0.054 A 
ATOM      3  C   UNL d   1       0.751   2.586   0.045  0.00  0.00     0.090 A 
ATOM      4  C   UNL d   1       1.334   5.054   1.216  0.00  0.00     0.016 A 
ATOM      5  C   UNL d   1       0.029   4.759   0.824  0.00  0.00     0.004 A 
ATOM      6  C   UNL d   1      -0.262   3.526   0.239  0.00  0.00     0.038 A 
ENDROOT
BRANCH   3   7
ATOM      7  O   UNL d   1       0.357   1.372  -0.462  0.00  0.00    -0.232 OA
BRANCH   7   8
ATOM      8  S   UNL d   1       1.240   0.020  -0.204  0.00  0.00     0.283 S 
ATOM      9  O   UNL d   1       2.172  -0.115  -1.302  0.00  0.00    -0.197 OA
ATOM     10  O   UNL d   1       1.671   0.008   1.182  0.00  0.00    -0.197 OA
BRANCH   8  11
ATOM     11  C   UNL d   1      -0.081  -1.115  -0.366  0.00  0.00     0.310 C 
BRANCH  11  12
ATOM     12  S   UNL d   1       0.411  -2.768  -0.029  0.00  0.00     0.156 S 
ATOM     13  O   UNL d   1      -0.796  -3.569  -0.135  0.00  0.00    -0.227 OA
ATOM     14  O   UNL d   1       1.564  -3.104  -0.837  0.00  0.00    -0.227 OA
ATOM     15  C   UNL d   1       0.895  -2.828   1.685  0.00  0.00     0.162 C 
ENDBRANCH  11  12
ENDBRANCH   8  11
ENDBRANCH   7   8
ENDBRANCH   3   7
BRANCH   1  16
ATOM     16  C   UNL d   1       3.772   4.446   1.457  0.00  0.00     0.417 C 
ATOM     17  F   UNL d   1       4.671   3.459   1.185  0.00  0.00    -0.166 F 
ATOM     18  F   UNL d   1       4.270   5.574   0.880  0.00  0.00    -0.166 F 
ATOM     19  F   UNL d   1       3.841   4.651   2.802  0.00  0.00    -0.166 F 
ENDBRANCH   1  16
TORSDOF 5
