REMARK  8 active torsions:
REMARK  status: ('A' for Active; 'I' for Inactive)
REMARK    1  A    between atoms: C_3  and  C_1 
REMARK    2  A    between atoms: N_2  and  C_6 
REMARK       I    between atoms: N_7  and  C_3 
REMARK    3  A    between atoms: O_9  and  C_5 
REMARK    4  A    between atoms: C_16  and  N_7 
REMARK    5  A    between atoms: C_17  and  O_9 
REMARK    6  A    between atoms: C_11  and  C_16 
REMARK    7  A    between atoms: O_19  and  C_11 
REMARK    8  A    between atoms: O_24  and  C_18 
ROOT
ATOM      1  C   UNL d   1       1.531  -0.049   0.210  0.00  0.00     0.068 C 
ATOM      2  C   UNL d   1       0.640  -1.117   0.441  0.00  0.00     0.056 C 
ATOM      3  C   UNL d   1       1.038   1.113  -0.408  0.00  0.00     0.091 C 
ATOM      4  C   UNL d   1      -0.722  -0.976   0.137  0.00  0.00     0.104 C 
ATOM      5  C   UNL d   1      -0.345   1.287  -0.588  0.00  0.00     0.041 C 
ATOM      6  C   UNL d   1      -1.229   0.240  -0.330  0.00  0.00     0.039 C 
ENDROOT
BRANCH   1   7
ATOM      7  C   UNL d   1       2.923  -0.203   0.737  0.00  0.00     0.255 C 
ATOM      8  N   UNL d   1       3.740   0.899   0.701  0.00  0.00    -0.347 N 
ATOM      9  H   UNL d   1       3.415   1.759   0.265  0.00  0.00     0.163 HD
ATOM     10  O   UNL d   1       3.278  -1.255   1.262  0.00  0.00    -0.268 OA
BRANCH   8  11
ATOM     11  C   UNL d   1       4.966   0.988   1.470  0.00  0.00     0.232 C 
BRANCH  11  12
ATOM     12  C   UNL d   1       5.320   2.458   1.667  0.00  0.00     0.158 C 
ATOM     13  O   UNL d   1       4.750   3.382   1.100  0.00  0.00    -0.649 OA
BRANCH  12  14
ATOM     14  O   UNL d   1       6.343   2.664   2.525  0.00  0.00    -0.775 OA
ATOM     15  H   UNL d   1       6.707   1.844   2.917  0.00  0.00     0.167 HD
ENDBRANCH  12  14
ENDBRANCH  11  12
ENDBRANCH   8  11
ENDBRANCH   1   7
BRANCH   3  16
ATOM     16  O   UNL d   1       1.911   2.096  -0.833  0.00  0.00    -0.310 OA
BRANCH  16  17
ATOM     17  C   UNL d   1       1.732   2.618  -2.100  0.00  0.00     0.076 A 
ATOM     18  C   UNL d   1       2.147   3.937  -2.293  0.00  0.00     0.040 A 
ATOM     19  C   UNL d   1       1.930   4.574  -3.522  0.00  0.00     0.039 A 
ATOM     20  C   UNL d   1       1.295   3.890  -4.560  0.00  0.00     0.068 A 
ATOM     21  C   UNL d   1       0.955   2.549  -4.393  0.00  0.00     0.039 A 
ATOM     22  C   UNL d   1       1.185   1.907  -3.175  0.00  0.00     0.040 A 
BRANCH  20  23
ATOM     23  O   UNL d   1       0.995   4.418  -5.785  0.00  0.00    -0.356 OA
ATOM     24  C   UNL d   1       0.699   5.811  -5.790  0.00  0.00     0.210 C 
ENDBRANCH  20  23
ENDBRANCH  16  17
ENDBRANCH   3  16
BRANCH   4  25
ATOM     25  N   UNL d   1      -1.634  -2.115   0.307  0.00  0.00    -0.116 N 
ATOM     26  O   UNL d   1      -1.138  -3.214   0.584  0.00  0.00    -0.532 OA
ATOM     27  O   UNL d   1      -2.845  -1.909   0.140  0.00  0.00    -0.532 OA
ENDBRANCH   4  25
TORSDOF 8
