REMARK  6 active torsions:
REMARK  status: ('A' for Active; 'I' for Inactive)
REMARK    1  A    between atoms: C_7  and  C_1 
REMARK    2  A    between atoms: C_9  and  C_2 
REMARK    3  A    between atoms: O_16  and  C_7 
REMARK    4  A    between atoms: C_8  and  O_13 
REMARK       I    between atoms: N_12  and  C_8 
REMARK    5  A    between atoms: O_13  and  N_10 
REMARK    6  A    between atoms: C_17  and  N_12 
ROOT
ATOM      1  C   UNL d   1       0.383  -2.631   0.229  0.00  0.00     0.044 C 
ATOM      2  N   UNL d   1      -0.530  -3.565   0.221  0.00  0.00    -0.260 N 
ATOM      3  HN  UNL d   1      -0.345  -4.566   0.156  1.00  0.00     0.194 HD
ATOM      4  C   UNL d   1       0.057  -1.154   0.296  0.00  0.00     0.071 C 
ENDROOT
BRANCH   1   5
ATOM      5  C   UNL d   1       1.762  -3.065   0.093  0.00  0.00     0.054 A 
ATOM      6  C   UNL d   1       2.959  -2.617   0.748  0.00  0.00     0.144 A 
ATOM      7  N   UNL d   1       4.032  -3.257   0.250  0.00  0.00    -0.254 N 
ATOM      8  O   UNL d   1       3.558  -4.159  -0.667  0.00  0.00    -0.241 OA
ATOM      9  HN  UNL d   1       5.007  -3.102   0.505  1.00  0.00     0.195 HD
ATOM     10  C   UNL d   1       2.209  -4.065  -0.750  0.00  0.00     0.087 A 
ATOM     11  C   UNL d   1       1.574  -5.005  -1.692  0.00  0.00     0.080 C 
BRANCH   6  12
ATOM     12  C   UNL d   1       3.113  -1.671   1.858  0.00  0.00     0.312 C 
ATOM     13  O   UNL d   1       2.164  -1.137   2.421  0.00  0.00    -0.258 OA
BRANCH  12  14
ATOM     14  O   UNL d   1       4.420  -1.494   2.218  0.00  0.00    -0.321 OA
ATOM     15  C   UNL d   1       4.677  -0.719   3.390  0.00  0.00     0.213 C 
ENDBRANCH  12  14
ENDBRANCH   6  12
ENDBRANCH   1   5
BRANCH   2  16
ATOM     16  O   UNL d   1      -1.816  -2.976   0.314  0.00  0.00    -0.181 OA
BRANCH  16  17
ATOM     17  C   UNL d   1      -2.861  -3.878   0.210  0.00  0.00     0.387 C 
ATOM     18  N   UNL d   1      -2.462  -5.188   0.093  0.00  0.00    -0.301 N 
ATOM     19  H   UNL d   1      -1.454  -5.284   0.108  0.00  0.00     0.171 HD
ATOM     20  O   UNL d   1      -4.015  -3.464   0.230  0.00  0.00    -0.236 OA
BRANCH  18  21
ATOM     21  C   UNL d   1      -3.268  -6.338  -0.017  0.00  0.00     0.036 A 
ATOM     22  C   UNL d   1      -4.665  -6.310  -0.027  0.00  0.00     0.029 A 
ATOM     23  C   UNL d   1      -5.404  -7.495  -0.134  0.00  0.00     0.002 A 
ATOM     24  C   UNL d   1      -4.750  -8.722  -0.230  0.00  0.00     0.000 A 
ATOM     25  C   UNL d   1      -3.359  -8.761  -0.223  0.00  0.00     0.002 A 
ATOM     26  C   UNL d   1      -2.621  -7.576  -0.117  0.00  0.00     0.029 A 
ENDBRANCH  18  21
ENDBRANCH  16  17
ENDBRANCH   2  16
TORSDOF 6
