REMARK  5 active torsions:
REMARK  status: ('A' for Active; 'I' for Inactive)
REMARK    1  A    between atoms: C_5  and  C_1 
REMARK    2  A    between atoms: C_14  and  C_4 
REMARK       I    between atoms: N_12  and  C_5 
REMARK       I    between atoms: C_8  and  N_13 
REMARK    3  A    between atoms: C_9  and  C_8 
REMARK    4  A    between atoms: N_11  and  C_15 
REMARK    5  A    between atoms: N_13  and  N_12 
ROOT
ATOM      1  C   UNL d   1       0.248  -0.968  -0.583  0.00  0.00     0.241 A 
ATOM      2  N   UNL d   1       0.696   0.203  -0.992  0.00  0.00    -0.315 N 
ATOM      3  HN  UNL d   1       1.240   0.424  -1.825  1.00  0.00     0.169 HD
ATOM      4  C   UNL d   1       0.238   1.059  -0.001  0.00  0.00     0.138 A 
ATOM      5  N   UNL d   1      -0.465   0.443   0.963  0.00  0.00    -0.242 N 
ATOM      6  HN  UNL d   1      -0.902   0.859   1.786  1.00  0.00     0.196 HD
ATOM      7  O   UNL d   1      -0.459  -0.896   0.580  0.00  0.00    -0.212 OA
ENDROOT
BRANCH   1   8
ATOM      8  C   UNL d   1       0.433  -2.262  -1.210  0.00  0.00     0.313 C 
ATOM      9  N   UNL d   1       1.168  -2.255  -2.389  0.00  0.00    -0.260 N 
ATOM     10  H   UNL d   1       1.542  -1.400  -2.800  0.00  0.00     0.190 HD
ATOM     11  O   UNL d   1      -0.009  -3.326  -0.762  0.00  0.00    -0.262 OA
BRANCH   9  12
ATOM     12  N   UNL d   1       1.390  -3.472  -3.062  0.00  0.00    -0.263 N 
ATOM     13  C   UNL d   1       2.169  -3.480  -4.216  0.00  0.00     0.290 C 
ATOM     14  O   UNL d   1       2.647  -2.419  -4.630  0.00  0.00    -0.267 OA
ATOM     15  H   UNL d   1       1.010  -4.319  -2.632  0.00  0.00     0.190 HD
BRANCH  13  16
ATOM     16  C   UNL d   1       2.365  -4.839  -4.931  0.00  0.00     0.271 C 
ATOM     17 CL   UNL d   1       1.603  -6.186  -4.037  0.00  0.00    -0.073 Cl
ATOM     18 CL   UNL d   1       1.625  -4.723  -6.551  0.00  0.00    -0.073 Cl
ATOM     19 CL   UNL d   1       4.113  -5.156  -5.078  0.00  0.00    -0.073 Cl
ENDBRANCH  13  16
ENDBRANCH   9  12
ENDBRANCH   1   8
BRANCH   4  20
ATOM     20  C   UNL d   1       0.508   2.498  -0.016  0.00  0.00     0.012 A 
ATOM     21  C   UNL d   1       1.226   3.062  -1.084  0.00  0.00     0.045 A 
ATOM     22  C   UNL d   1       1.499   4.439  -1.136  0.00  0.00     0.039 A 
ATOM     23  C   UNL d   1       1.056   5.257  -0.088  0.00  0.00     0.030 A 
ATOM     24  C   UNL d   1       0.340   4.709   0.979  0.00  0.00     0.003 A 
ATOM     25  C   UNL d   1       0.065   3.340   1.014  0.00  0.00     0.015 A 
BRANCH  22  26
ATOM     26  N   UNL d   1       2.199   4.995  -2.253  0.00  0.00    -0.333 N 
ATOM     27  C   UNL d   1       2.577   6.316  -2.422  0.00  0.00     0.096 A 
ATOM     28  C   UNL d   1       3.191   6.465  -3.647  0.00  0.00     0.019 A 
ATOM     29  C   UNL d   1       3.212   5.199  -4.259  0.00  0.00     0.019 A 
ATOM     30  C   UNL d   1       2.612   4.317  -3.387  0.00  0.00     0.096 A 
ENDBRANCH  22  26
ENDBRANCH   4  20
TORSDOF 5
