REMARK  8 active torsions:
REMARK  status: ('A' for Active; 'I' for Inactive)
REMARK    1  A    between atoms: C_7  and  C_1 
REMARK    2  A    between atoms: C_8  and  N_2 
REMARK    3  A    between atoms: C_16  and  C_3 
REMARK    4  A    between atoms: O_12  and  C_7 
REMARK    5  A    between atoms: N_9  and  O_12 
REMARK    6  A    between atoms: C_18  and  C_15 
REMARK    7  A    between atoms: C_29  and  C_16 
REMARK    8  A    between atoms: O_27  and  C_19 
ROOT
ATOM      1  C   UNL d   1      -0.349   1.232   0.043  0.00  0.00     0.082 A 
ATOM      2  N   UNL d   1       0.926  -0.600   0.018  0.00  0.00    -0.260 N 
ATOM      3  C   UNL d   1       0.980   0.795   0.077  0.00  0.00     0.052 A 
ATOM      4  N   UNL d   1      -0.347  -1.038  -0.164  0.00  0.00    -0.304 N 
ATOM      5  HN  UNL d   1      -0.657  -1.997  -0.319  1.00  0.00     0.186 HD
ATOM      6  C   UNL d   1      -1.101   0.052  -0.095  0.00  0.00     0.127 A 
ENDROOT
BRANCH   1   7
ATOM      7  C   UNL d   1      -0.854   2.596   0.029  0.00  0.00     0.318 C 
ATOM      8  O   UNL d   1      -0.143   3.594   0.119  0.00  0.00    -0.257 OA
BRANCH   7   9
ATOM      9  O   UNL d   1      -2.219   2.633  -0.151  0.00  0.00    -0.195 OA
BRANCH   9  10
ATOM     10  N   UNL d   1      -2.499   3.563  -1.167  0.00  0.00    -0.268 N 
ATOM     11  C   UNL d   1      -3.774   3.732  -1.286  0.00  0.00     0.126 C 
ATOM     12  HN  UNL d   1      -1.794   4.039  -1.730  1.00  0.00     0.194 HD
BRANCH  11  13
ATOM     13  C   UNL d   1      -4.315   4.547  -2.389  0.00  0.00    -0.019 A 
ATOM     14  C   UNL d   1      -3.455   5.045  -3.374  0.00  0.00     0.015 A 
ATOM     15  C   UNL d   1      -3.966   5.769  -4.452  0.00  0.00     0.037 A 
ATOM     16  C   UNL d   1      -5.337   6.007  -4.545  0.00  0.00     0.068 A 
ATOM     17  C   UNL d   1      -6.191   5.504  -3.556  0.00  0.00     0.037 A 
ATOM     18  C   UNL d   1      -5.687   4.771  -2.477  0.00  0.00     0.015 A 
BRANCH  16  19
ATOM     19  O   UNL d   1      -5.960   6.707  -5.542  0.00  0.00    -0.356 OA
ATOM     20  C   UNL d   1      -5.125   7.248  -6.559  0.00  0.00     0.210 C 
ENDBRANCH  16  19
ENDBRANCH  11  13
ENDBRANCH   9  10
ENDBRANCH   7   9
ENDBRANCH   1   7
BRANCH   3  21
ATOM     21  C   UNL d   1       2.233   1.629   0.056  0.00  0.00     0.060 C 
BRANCH  21  22
ATOM     22  C   UNL d   1       3.104   1.467  -1.196  0.00  0.00     0.002 C 
ATOM     23  C   UNL d   1       2.408   1.860  -2.490  0.00  0.00     0.005 C 
ENDBRANCH  21  22
ENDBRANCH   3  21
BRANCH   2  24
ATOM     24  C   UNL d   1       1.977  -1.561   0.043  0.00  0.00     0.056 A 
ATOM     25  C   UNL d   1       3.167  -1.337   0.743  0.00  0.00     0.033 A 
ATOM     26  C   UNL d   1       4.226  -2.243   0.638  0.00  0.00     0.026 A 
ATOM     27  C   UNL d   1       4.089  -3.387  -0.144  0.00  0.00     0.034 A 
ATOM     28  C   UNL d   1       2.883  -3.659  -0.785  0.00  0.00     0.026 A 
ATOM     29 CL   UNL d   1       5.419  -4.461  -0.324  0.00  0.00    -0.084 Cl
ATOM     30  C   UNL d   1       1.820  -2.757  -0.678  0.00  0.00     0.033 A 
ENDBRANCH   2  24
TORSDOF 8
