REMARK  3 active torsions:
REMARK  status: ('A' for Active; 'I' for Inactive)
REMARK    1  A    between atoms: N_8  and  C_2 
REMARK    2  A    between atoms: N_10  and  N_8 
REMARK       I    between atoms: C_9  and  N_10 
REMARK       I    between atoms: N_11  and  C_9 
REMARK    3  A    between atoms: C_15  and  N_11 
ROOT
ATOM      1  C   UNL d   1      -3.116  -2.769   0.531  0.00  0.00     0.339 C 
ATOM      2  N   UNL d   1      -3.415  -1.569  -0.091  0.00  0.00    -0.249 N 
ATOM      3  N   UNL d   1      -1.915  -2.801   1.192  0.00  0.00    -0.308 N 
ATOM      4  O   UNL d   1      -3.922  -3.685   0.416  0.00  0.00    -0.245 OA
ATOM      5  H   UNL d   1      -4.335  -1.512  -0.521  0.00  0.00     0.192 HD
ATOM      6  H   UNL d   1      -1.477  -1.899   1.300  0.00  0.00     0.170 HD
ENDROOT
BRANCH   2   7
ATOM      7  N   UNL d   1      -2.651  -0.384   0.047  0.00  0.00    -0.289 N 
ATOM      8  C   UNL d   1      -3.518   0.805   0.113  0.00  0.00     0.178 C 
BRANCH   7   9
ATOM      9  C   UNL d   1      -1.438  -0.300  -0.653  0.00  0.00     0.094 C 
ATOM     10  C   UNL d   1      -0.274   0.179  -0.191  0.00  0.00     0.133 C 
ATOM     11  C   UNL d   1       0.999  -0.014  -0.942  0.00  0.00     0.285 C 
ATOM     12 CL   UNL d   1      -0.148   0.860   1.398  0.00  0.00    -0.076 Cl
ATOM     13  N   UNL d   1       0.891  -0.731  -2.128  0.00  0.00    -0.261 N 
ATOM     14  O   UNL d   1       2.071   0.388  -0.491  0.00  0.00    -0.265 OA
ATOM     15  N   UNL d   1      -0.298  -1.080  -2.711  0.00  0.00    -0.305 N 
ATOM     16  C   UNL d   1       2.094  -1.118  -2.837  0.00  0.00     0.181 C 
ATOM     17  C   UNL d   1      -1.368  -0.866  -2.021  0.00  0.00     0.140 C 
ATOM     18  HN  UNL d   1      -0.336  -1.489  -3.645  1.00  0.00     0.186 HD
ENDBRANCH   7   9
ENDBRANCH   2   7
BRANCH   3  19
ATOM     19  C   UNL d   1      -1.329  -3.899   1.853  0.00  0.00     0.036 A 
ATOM     20  C   UNL d   1      -1.880  -5.186   1.850  0.00  0.00     0.031 A 
ATOM     21  C   UNL d   1      -1.293  -6.219   2.588  0.00  0.00     0.026 A 
ATOM     22  C   UNL d   1      -0.134  -5.978   3.319  0.00  0.00     0.034 A 
ATOM     23  C   UNL d   1       0.458  -4.718   3.291  0.00  0.00     0.026 A 
ATOM     24 CL   UNL d   1       0.558  -7.236   4.265  0.00  0.00    -0.084 Cl
ATOM     25  C   UNL d   1      -0.135  -3.684   2.555  0.00  0.00     0.031 A 
ENDBRANCH   3  19
TORSDOF 3
