REMARK  5 active torsions:
REMARK  status: ('A' for Active; 'I' for Inactive)
REMARK    1  A    between atoms: C_5  and  C_1 
REMARK    2  A    between atoms: C_20  and  C_4 
REMARK       I    between atoms: N_15  and  C_5 
REMARK    3  A    between atoms: C_18  and  C_26 
REMARK    4  A    between atoms: O_25  and  C_27 
REMARK    5  A    between atoms: C_26  and  O_25 
ROOT
ATOM      1  C   UNL d   1      -0.066  -2.564  -0.023  0.00  0.00    -0.002 A 
ATOM      2  C   UNL d   1       0.461  -3.398   0.979  0.00  0.00     0.017 A 
ATOM      3  C   UNL d   1      -0.820  -3.154  -1.045  0.00  0.00     0.017 A 
ATOM      4  C   UNL d   1      -0.489  -5.355  -0.095  0.00  0.00     0.069 A 
ATOM      5  C   UNL d   1      -1.046  -4.531  -1.071  0.00  0.00     0.037 A 
ATOM      6  C   UNL d   1       0.239  -4.781   0.946  0.00  0.00     0.037 A 
ENDROOT
BRANCH   1   7
ATOM      7  C   UNL d   1       0.201  -1.115  -0.008  0.00  0.00     0.085 A 
ATOM      8  N   UNL d   1       1.317  -0.567   0.426  0.00  0.00    -0.345 N 
ATOM      9  C   UNL d   1       1.282   0.822   0.251  0.00  0.00     0.108 A 
ATOM     10  HN  UNL d   1       2.098  -1.081   0.833  1.00  0.00     0.167 HD
ATOM     11  C   UNL d   1       0.092   1.297  -0.268  0.00  0.00     0.087 A 
ATOM     12  S   UNL d   1      -0.975   0.005  -0.588  0.00  0.00    -0.081 SA
BRANCH   9  13
ATOM     13  C   UNL d   1       2.394   1.701   0.633  0.00  0.00     0.271 C 
ATOM     14  N   UNL d   1       3.685   1.193   0.489  0.00  0.00    -0.343 N 
ATOM     15  C   UNL d   1       4.805   1.975   1.002  0.00  0.00     0.152 C 
ATOM     16  C   UNL d   1       4.060   0.260  -0.582  0.00  0.00     0.152 C 
ATOM     17  C   UNL d   1       5.983   1.062   1.358  0.00  0.00     0.187 C 
ATOM     18  O   UNL d   1       6.355   0.229   0.248  0.00  0.00    -0.388 OA
ATOM     19  C   UNL d   1       5.251  -0.598  -0.156  0.00  0.00     0.187 C 
ATOM     20  O   UNL d   1       2.182   2.826   1.077  0.00  0.00    -0.266 OA
ENDBRANCH   9  13
ENDBRANCH   1   7
BRANCH   4  21
ATOM     21  O   UNL d   1      -0.591  -6.723  -0.085  0.00  0.00    -0.347 OA
BRANCH  21  22
ATOM     22  C   UNL d   1      -0.899  -7.300  -1.356  0.00  0.00     0.214 C 
BRANCH  22  23
ATOM     23  C   UNL d   1      -0.536  -8.769  -1.361  0.00  0.00    -0.032 A 
ATOM     24  C   UNL d   1       0.510  -9.204  -2.210  0.00  0.00     0.043 A 
ATOM     25  C   UNL d   1       0.759 -10.587  -2.184  0.00  0.00     0.086 A 
ATOM     26  N   UNL d   1       1.662 -11.296  -2.872  0.00  0.00    -0.240 N 
ATOM     27  C   UNL d   1      -0.000 -11.500  -1.344  0.00  0.00     0.085 A 
ATOM     28  O   UNL d   1       1.483 -12.611  -2.477  0.00  0.00    -0.156 OA
ATOM     29  HN  UNL d   1       2.341 -10.941  -3.545  1.00  0.00     0.197 HD
ATOM     30  N   UNL d   1       0.465 -12.739  -1.546  0.00  0.00    -0.240 N 
ATOM     31  HN  UNL d   1       0.139 -13.598  -1.105  1.00  0.00     0.197 HD
ATOM     32  C   UNL d   1      -1.035 -11.062  -0.498  0.00  0.00     0.034 A 
ATOM     33  C   UNL d   1      -1.273  -9.673  -0.536  0.00  0.00     0.012 A 
ENDBRANCH  22  23
ENDBRANCH  21  22
ENDBRANCH   4  21
TORSDOF 5
