REMARK  3 active torsions:
REMARK  status: ('A' for Active; 'I' for Inactive)
REMARK    1  A    between atoms: S_7  and  C_2 
REMARK    2  A    between atoms: C_10  and  S_7 
REMARK    3  A    between atoms: C_13  and  C_10 
ROOT
ATOM      1  C   UNL d   1      -0.147  -0.800  -0.434  0.00  0.00     0.049 A 
ATOM      2  C   UNL d   1      -1.268   1.344  -0.158  0.00  0.00     0.023 A 
ATOM      3  C   UNL d   1      -1.230   0.049  -0.698  0.00  0.00     0.052 A 
ATOM      4  C   UNL d   1       0.929  -0.359   0.335  0.00  0.00     0.041 A 
ATOM      5  C   UNL d   1      -0.169   1.770   0.617  0.00  0.00     0.028 A 
ATOM      6  C   UNL d   1       0.938   0.936   0.863  0.00  0.00    -0.039 A 
ATOM      7 CL   UNL d   1      -2.428  -0.569  -1.779  0.00  0.00    -0.083 Cl
ATOM      8 CL   UNL d   1       2.252  -1.444   0.570  0.00  0.00    -0.084 Cl
ATOM      9  C   UNL d   1       2.116   1.468   1.635  0.00  0.00     0.050 C 
ENDROOT
BRANCH   2  10
ATOM     10  S   UNL d   1      -2.514   2.597  -0.484  0.00  0.00    -0.124 SA
BRANCH  10  11
ATOM     11  C   UNL d   1      -4.072   1.769  -0.006  0.00  0.00     0.118 C 
BRANCH  11  12
ATOM     12  C   UNL d   1      -5.236   2.734  -0.037  0.00  0.00    -0.046 A 
ATOM     13  C   UNL d   1      -5.817   3.199   1.151  0.00  0.00     0.050 A 
ATOM     14  C   UNL d   1      -6.898   4.078   1.099  0.00  0.00     0.117 A 
ATOM     15  F   UNL d   1      -7.449   4.507   2.241  0.00  0.00    -0.206 F 
ATOM     16  C   UNL d   1      -7.417   4.511  -0.115  0.00  0.00     0.042 A 
ATOM     17  C   UNL d   1      -6.846   4.061  -1.303  0.00  0.00     0.004 A 
ATOM     18  C   UNL d   1      -5.764   3.176  -1.264  0.00  0.00     0.008 A 
ENDBRANCH  11  12
ENDBRANCH  10  11
ENDBRANCH   2  10
TORSDOF 3
