REMARK  6 active torsions:
REMARK  status: ('A' for Active; 'I' for Inactive)
REMARK    1  A    between atoms: N_10  and  C_3 
REMARK    2  A    between atoms: C_7  and  C_4 
REMARK    3  A    between atoms: O_19  and  C_7 
REMARK    4  A    between atoms: N_12  and  N_10 
REMARK    5  A    between atoms: C_14  and  C_18 
REMARK    6  A    between atoms: C_25  and  O_19 
ROOT
ATOM      1  C   UNL d   1       0.181  -0.801   0.137  0.00  0.00     0.053 A 
ATOM      2  C   UNL d   1       0.490   0.607   0.071  0.00  0.00    -0.017 A 
ATOM      3  C   UNL d   1       1.303  -1.604   0.123  0.00  0.00     0.104 A 
ATOM      4  C   UNL d   1       1.859   0.827  -0.012  0.00  0.00     0.089 A 
ATOM      5  S   UNL d   1       2.723  -0.648   0.090  0.00  0.00    -0.064 SA
ATOM      6  C   UNL d   1      -1.190  -1.296   0.128  0.00  0.00     0.163 C 
ATOM      7  C   UNL d   1      -0.597   1.655   0.009  0.00  0.00     0.050 C 
ATOM      8  C   UNL d   1      -2.000   1.103   0.399  0.00  0.00    -0.037 C 
ATOM      9  C   UNL d   1      -2.246  -0.275  -0.259  0.00  0.00     0.093 C 
ATOM     10  O   UNL d   1      -1.472  -2.476   0.339  0.00  0.00    -0.292 OA
ATOM     11  C   UNL d   1      -3.085   2.079  -0.093  0.00  0.00     0.015 C 
ATOM     12  C   UNL d   1      -2.127   0.988   1.933  0.00  0.00     0.015 C 
ENDROOT
BRANCH   3  13
ATOM     13  N   UNL d   1       1.347  -2.971   0.094  0.00  0.00    -0.293 N 
ATOM     14  H   UNL d   1       0.442  -3.451   0.170  0.00  0.00     0.187 HD
BRANCH  13  15
ATOM     15  N   UNL d   1       2.334  -3.582  -0.618  0.00  0.00    -0.310 N 
ATOM     16  C   UNL d   1       2.292  -4.872  -0.707  0.00  0.00     0.120 C 
ATOM     17  HN  UNL d   1       3.077  -3.044  -1.064  1.00  0.00     0.186 HD
BRANCH  16  18
ATOM     18  C   UNL d   1       3.298  -5.580  -1.534  0.00  0.00     0.002 A 
ATOM     19  C   UNL d   1       3.341  -6.975  -1.629  0.00  0.00     0.045 A 
ATOM     20 CL   UNL d   1       2.247  -8.009  -0.783  0.00  0.00    -0.083 Cl
ATOM     21  C   UNL d   1       4.306  -7.584  -2.442  0.00  0.00     0.024 A 
ATOM     22  C   UNL d   1       5.223  -6.812  -3.161  0.00  0.00     0.002 A 
ATOM     23  C   UNL d   1       5.181  -5.424  -3.070  0.00  0.00     0.001 A 
ATOM     24  C   UNL d   1       4.224  -4.813  -2.259  0.00  0.00     0.014 A 
ENDBRANCH  16  18
ENDBRANCH  13  15
ENDBRANCH   3  13
BRANCH   4  25
ATOM     25  C   UNL d   1       2.562   2.085  -0.225  0.00  0.00     0.300 C 
ATOM     26  O   UNL d   1       2.019   3.168  -0.407  0.00  0.00    -0.259 OA
BRANCH  25  27
ATOM     27  O   UNL d   1       3.913   1.891  -0.282  0.00  0.00    -0.317 OA
BRANCH  27  28
ATOM     28  C   UNL d   1       4.691   2.951  -0.849  0.00  0.00     0.174 C 
ATOM     29  C   UNL d   1       4.742   2.761  -2.354  0.00  0.00     0.034 C 
ENDBRANCH  27  28
ENDBRANCH  25  27
ENDBRANCH   4  25
TORSDOF 6
