REMARK  4 active torsions:
REMARK  status: ('A' for Active; 'I' for Inactive)
REMARK    1  A    between atoms: C_6  and  C_1 
REMARK    2  A    between atoms: C_7  and  C_3 
REMARK    3  A    between atoms: C_8  and  C_7 
REMARK    4  A    between atoms: O_13  and  C_8 
ROOT
ATOM      1  C   UNL d   1      -0.833  -1.243   0.022  0.00  0.00     0.023 A 
ATOM      2  C   UNL d   1      -1.227   0.042  -0.003  0.00  0.00     0.019 A 
ATOM      3  C   UNL d   1       0.682  -1.356   0.085  0.00  0.00     0.126 A 
ATOM      4  C   UNL d   1       1.046   0.126   0.094  0.00  0.00     0.231 A 
ATOM      5  N   UNL d   1      -0.126   0.844   0.021  0.00  0.00    -0.330 N 
ATOM      6  O   UNL d   1       2.158   0.608   0.207  0.00  0.00    -0.272 OA
ATOM      7  C   UNL d   1      -2.570   0.686  -0.040  0.00  0.00     0.069 C 
ATOM      8  H   UNL d   1      -0.137   1.857   0.024  0.00  0.00     0.168 HD
ENDROOT
BRANCH   3   9
ATOM      9  C   UNL d   1       1.207  -1.998   1.362  0.00  0.00     0.129 C 
BRANCH   9  10
ATOM     10  C   UNL d   1       2.708  -2.139   1.295  0.00  0.00     0.140 C 
ATOM     11  O   UNL d   1       3.281  -2.762   0.413  0.00  0.00    -0.650 OA
BRANCH  10  12
ATOM     12  O   UNL d   1       3.365  -1.555   2.319  0.00  0.00    -0.776 OA
ATOM     13  H   UNL d   1       2.816  -1.008   2.911  0.00  0.00     0.167 HD
ENDBRANCH  10  12
ENDBRANCH   9  10
ENDBRANCH   3   9
BRANCH   1  14
ATOM     14  C   UNL d   1      -1.750  -2.410   0.026  0.00  0.00     0.154 C 
ATOM     15  O   UNL d   1      -2.914  -2.292   0.409  0.00  0.00    -0.293 OA
ATOM     16  C   UNL d   1      -1.245  -3.753  -0.433  0.00  0.00     0.096 C 
ENDBRANCH   1  14
TORSDOF 4
