REMARK  2 active torsions:
REMARK  status: ('A' for Active; 'I' for Inactive)
REMARK    1  A    between atoms: C_2  and  C_1 
REMARK       I    between atoms: N_3  and  C_1 
REMARK    2  A    between atoms: C_11  and  N_3 
ROOT
ATOM      1  C   UNL d   1       1.064  -0.021  -0.019  0.00  0.00     0.256 C 
ATOM      2  N   UNL d   1       0.293  -1.133   0.271  0.00  0.00    -0.323 N 
ATOM      3  O   UNL d   1       2.281   0.014  -0.156  0.00  0.00    -0.267 OA
ATOM      4  H   UNL d   1      -0.711  -1.026   0.254  0.00  0.00     0.169 HD
ENDROOT
BRANCH   1   5
ATOM      5  C   UNL d   1       0.315   1.251  -0.226  0.00  0.00     0.034 A 
ATOM      6  C   UNL d   1       0.855   2.196  -1.112  0.00  0.00     0.042 A 
ATOM      7  C   UNL d   1       0.197   3.408  -1.341  0.00  0.00     0.056 A 
ATOM      8 CL   UNL d   1       0.919   4.519  -2.449  0.00  0.00    -0.083 Cl
ATOM      9  C   UNL d   1      -1.005   3.683  -0.679  0.00  0.00     0.055 A 
ATOM     10  C   UNL d   1      -1.533   2.751   0.220  0.00  0.00     0.026 A 
ATOM     11 CL   UNL d   1      -1.881   5.152  -0.920  0.00  0.00    -0.083 Cl
ATOM     12  C   UNL d   1      -0.874   1.540   0.453  0.00  0.00     0.019 A 
ENDBRANCH   1   5
BRANCH   2  13
ATOM     13  C   UNL d   1       0.753  -2.453   0.483  0.00  0.00     0.035 A 
ATOM     14  C   UNL d   1       2.100  -2.819   0.481  0.00  0.00     0.029 A 
ATOM     15  C   UNL d   1       2.476  -4.153   0.666  0.00  0.00     0.002 A 
ATOM     16  C   UNL d   1       1.508  -5.133   0.864  0.00  0.00     0.000 A 
ATOM     17  C   UNL d   1       0.162  -4.779   0.887  0.00  0.00     0.002 A 
ATOM     18  C   UNL d   1      -0.214  -3.445   0.699  0.00  0.00     0.029 A 
ENDBRANCH   2  13
TORSDOF 2
