REMARK  2 active torsions:
REMARK  status: ('A' for Active; 'I' for Inactive)
REMARK    1  A    between atoms: C_2  and  N_1 
REMARK    2  A    between atoms: N_17  and  C_8 
ROOT
ATOM      1  C   UNL d   1       2.151  -1.418  -0.043  0.00  0.00     0.704 A 
ATOM      2  N   UNL d   1       2.148  -2.567  -0.761  0.00  0.00    -0.178 N 
ATOM      3  HN  UNL d   1       1.285  -2.941  -1.154  1.00  0.00     0.185 HD
ATOM      4  C   UNL d   1       3.322  -3.197  -0.939  0.00  0.00     0.116 A 
ATOM      5  N   UNL d   1       3.264  -0.897   0.522  0.00  0.00    -0.198 N 
ATOM      6  HN  UNL d   1       3.237  -0.021   1.045  1.00  0.00     0.183 HD
ATOM      7  C   UNL d   1       4.501  -2.746  -0.373  0.00  0.00     0.099 A 
ATOM      8  C   UNL d   1       5.748  -3.414  -0.524  0.00  0.00     0.104 C 
ATOM      9  N   UNL d   1       6.766  -3.966  -0.612  0.00  0.00    -0.191 NA
ATOM     10  C   UNL d   1       4.408  -1.587   0.363  0.00  0.00     0.132 A 
ENDROOT
BRANCH   4  11
ATOM     11  N   UNL d   1       3.274  -4.286  -1.806  0.00  0.00    -0.287 NA
ATOM     12  H   UNL d   1       2.309  -4.445  -2.087  0.00  0.00     0.125 HD
ATOM     13  H   UNL d   1       3.718  -5.127  -1.454  0.00  0.00     0.125 HD
ENDBRANCH   4  11
BRANCH   1  14
ATOM     14  N   UNL d   1       0.916  -0.683   0.076  0.00  0.00    -0.091 N 
ATOM     15  N   UNL d   1       0.931   0.665   0.310  0.00  0.00    -0.284 N 
ATOM     16  C   UNL d   1      -0.324   1.067   0.101  0.00  0.00     0.025 C 
ATOM     17  HN  UNL d   1       1.729   1.238   0.585  1.00  0.00     0.188 HD
ATOM     18  C   UNL d   1      -0.671   2.508   0.127  0.00  0.00     0.070 C 
ATOM     19  C   UNL d   1      -1.191  -0.021  -0.104  0.00  0.00     0.053 C 
ATOM     20  C   UNL d   1      -0.391  -1.145  -0.066  0.00  0.00     0.050 C 
ATOM     21  C   UNL d   1      -0.803  -2.571  -0.104  0.00  0.00     0.071 C 
ENDBRANCH   1  14
TORSDOF 2
