REMARK  3 active torsions:
REMARK  status: ('A' for Active; 'I' for Inactive)
REMARK    1  A    between atoms: C_12  and  C_2 
REMARK    2  A    between atoms: C_13  and  C_10 
REMARK    3  A    between atoms: C_14  and  C_11 
ROOT
ATOM      1  N   UNL d   1       0.302   0.664   0.053  0.00  0.00    -0.235 N 
ATOM      2  C   UNL d   1      -0.807   1.496   0.073  0.00  0.00     0.144 A 
ATOM      3  C   UNL d   1       0.139  -0.726  -0.036  0.00  0.00     0.130 A 
ATOM      4  N   UNL d   1       1.610   0.997   0.099  0.00  0.00    -0.289 N 
ATOM      5  HN  UNL d   1       2.007   1.931   0.196  1.00  0.00     0.188 HD
ATOM      6  N   UNL d   1      -1.091  -1.323  -0.058  0.00  0.00    -0.340 N 
ATOM      7  HN  UNL d   1      -1.188  -2.336  -0.125  1.00  0.00     0.167 HD
ATOM      8  C   UNL d   1       1.408  -1.258  -0.095  0.00  0.00     0.084 A 
ATOM      9  C   UNL d   1      -2.041   0.953   0.050  0.00  0.00     0.067 A 
ATOM     10  C   UNL d   1       2.275  -0.156  -0.009  0.00  0.00     0.086 A 
ATOM     11  C   UNL d   1      -2.139  -0.544   0.010  0.00  0.00     0.053 A 
ENDROOT
BRANCH  10  12
ATOM     12  C   UNL d   1       3.765  -0.208  -0.040  0.00  0.00     0.103 A 
ATOM     13  O   UNL d   1       4.509  -1.342  -0.222  0.00  0.00    -0.320 OA
ATOM     14  C   UNL d   1       5.816  -0.970  -0.214  0.00  0.00     0.142 A 
ATOM     15  C   UNL d   1       5.934   0.385  -0.013  0.00  0.00     0.027 A 
ATOM     16  C   UNL d   1       4.612   0.877   0.100  0.00  0.00     0.041 A 
ENDBRANCH  10  12
BRANCH   2  17
ATOM     17  C   UNL d   1      -0.621   2.966   0.087  0.00  0.00     0.434 C 
ATOM     18  F   UNL d   1       0.652   3.421   0.046  0.00  0.00    -0.165 F 
ATOM     19  F   UNL d   1      -1.261   3.534  -0.973  0.00  0.00    -0.165 F 
ATOM     20  F   UNL d   1      -1.190   3.512   1.196  0.00  0.00    -0.165 F 
ENDBRANCH   2  17
BRANCH  11  21
ATOM     21  C   UNL d   1      -3.458  -1.167   0.021  0.00  0.00     0.031 A 
ATOM     22  S   UNL d   1      -4.813  -0.401   0.747  0.00  0.00    -0.100 SA
ATOM     23  C   UNL d   1      -5.856  -1.693   0.353  0.00  0.00     0.050 A 
ATOM     24  C   UNL d   1      -5.193  -2.705  -0.302  0.00  0.00     0.008 A 
ATOM     25  C   UNL d   1      -3.809  -2.411  -0.476  0.00  0.00     0.021 A 
ENDBRANCH  11  21
TORSDOF 3
