REMARK  4 active torsions:
REMARK  status: ('A' for Active; 'I' for Inactive)
REMARK    1  A    between atoms: N_3  and  S_1 
REMARK    2  A    between atoms: C_6  and  S_1 
REMARK    3  A    between atoms: C_4  and  O_10 
REMARK    4  A    between atoms: O_10  and  C_14 
ROOT
ATOM      1  C   UNL d   1      -2.005   4.503  -6.038  0.00  0.00     0.100 A 
ATOM      2  C   UNL d   1      -1.045   3.772  -5.319  0.00  0.00     0.098 A 
ATOM      3  C   UNL d   1      -2.688   5.607  -5.422  0.00  0.00     0.104 C 
ATOM      4  N   UNL d   1      -3.232   6.510  -4.939  0.00  0.00    -0.191 NA
ATOM      5  C   UNL d   1      -2.273   4.146  -7.369  0.00  0.00     0.057 A 
ATOM      6 CL   UNL d   1      -3.453   4.970  -8.329  0.00  0.00    -0.083 Cl
ATOM      7  C   UNL d   1      -0.306   2.767  -5.964  0.00  0.00     0.039 A 
ATOM      8  C   UNL d   1      -0.597   2.405  -7.275  0.00  0.00     0.005 A 
ATOM      9  C   UNL d   1      -1.586   3.087  -7.975  0.00  0.00     0.025 A 
ENDROOT
BRANCH   2  10
ATOM     10  O   UNL d   1      -0.826   4.104  -3.994  0.00  0.00    -0.309 OA
BRANCH  10  11
ATOM     11  C   UNL d   1      -0.431   3.119  -3.110  0.00  0.00     0.076 A 
ATOM     12  C   UNL d   1       0.480   3.500  -2.121  0.00  0.00     0.039 A 
ATOM     13  C   UNL d   1       0.947   2.559  -1.198  0.00  0.00     0.027 A 
ATOM     14  C   UNL d   1       0.490   1.239  -1.266  0.00  0.00     0.074 A 
ATOM     15  C   UNL d   1      -0.447   0.858  -2.228  0.00  0.00     0.027 A 
ATOM     16  C   UNL d   1      -0.924   1.808  -3.135  0.00  0.00     0.039 A 
BRANCH  14  17
ATOM     17  S   UNL d   1       1.044   0.067  -0.048  0.00  0.00     0.243 S 
ATOM     18  O   UNL d   1       0.728   0.638   1.244  0.00  0.00    -0.206 OA
ATOM     19  O   UNL d   1       0.574  -1.249  -0.429  0.00  0.00    -0.206 OA
BRANCH  17  20
ATOM     20  N   UNL d   1       2.751   0.070  -0.247  0.00  0.00    -0.206 NA
ATOM     21  C   UNL d   1       3.222  -0.601  -1.492  0.00  0.00     0.107 C 
ATOM     22  C   UNL d   1       4.716  -0.349  -1.678  0.00  0.00     0.015 C 
ATOM     23  C   UNL d   1       5.513  -0.823  -0.467  0.00  0.00     0.002 C 
ATOM     24  C   UNL d   1       4.968  -0.192   0.810  0.00  0.00     0.015 C 
ATOM     25  C   UNL d   1       3.469  -0.440   0.957  0.00  0.00     0.107 C 
ENDBRANCH  17  20
ENDBRANCH  14  17
ENDBRANCH  10  11
ENDBRANCH   2  10
TORSDOF 4
