REMARK  6 active torsions:
REMARK  status: ('A' for Active; 'I' for Inactive)
REMARK    1  A    between atoms: C_7  and  N_1 
REMARK    2  A    between atoms: S_11  and  C_2 
REMARK    3  A    between atoms: N_8  and  C_12 
REMARK    4  A    between atoms: C_20  and  S_11 
REMARK    5  A    between atoms: C_14  and  C_16 
REMARK    6  A    between atoms: C_16  and  C_20 
ROOT
ATOM      1  N   UNL d   1      -0.107  -1.324   0.029  0.00  0.00    -0.218 N 
ATOM      2  C   UNL d   1       1.019  -0.724  -0.519  0.00  0.00     0.177 A 
ATOM      3  N   UNL d   1       0.915   0.582  -0.398  0.00  0.00    -0.264 N 
ATOM      4  HN  UNL d   1       1.595   1.281  -0.697  1.00  0.00     0.186 HD
ATOM      5  N   UNL d   1      -0.923  -0.319   0.452  0.00  0.00     0.001 NA
ATOM      6  N   UNL d   1      -0.286   0.814   0.208  0.00  0.00    -0.006 NA
ENDROOT
BRANCH   2   7
ATOM      7  S   UNL d   1       2.288  -1.523  -1.393  0.00  0.00    -0.084 SA
BRANCH   7   8
ATOM      8  C   UNL d   1       3.405  -0.121  -1.684  0.00  0.00     0.166 C 
BRANCH   8   9
ATOM      9  C   UNL d   1       4.819  -0.577  -1.998  0.00  0.00     0.169 C 
ATOM     10  O   UNL d   1       5.328  -1.590  -1.513  0.00  0.00    -0.291 OA
BRANCH   9  11
ATOM     11  C   UNL d   1       5.659   0.285  -2.891  0.00  0.00     0.013 A 
ATOM     12  C   UNL d   1       5.265   1.574  -3.269  0.00  0.00     0.051 A 
ATOM     13  C   UNL d   1       6.054   2.306  -4.170  0.00  0.00     0.103 A 
ATOM     14  C   UNL d   1       7.250   1.779  -4.670  0.00  0.00     0.036 A 
ATOM     15  C   UNL d   1       7.662   0.512  -4.260  0.00  0.00     0.003 A 
ATOM     16  C   UNL d   1       6.871  -0.231  -3.377  0.00  0.00     0.015 A 
BRANCH  13  17
ATOM     17  N   UNL d   1       5.603   3.636  -4.606  0.00  0.00    -0.116 N 
ATOM     18  O   UNL d   1       4.532   4.055  -4.144  0.00  0.00    -0.532 OA
ATOM     19  O   UNL d   1       6.311   4.249  -5.414  0.00  0.00    -0.532 OA
ENDBRANCH  13  17
ENDBRANCH   9  11
ENDBRANCH   8   9
ENDBRANCH   7   8
ENDBRANCH   2   7
BRANCH   1  20
ATOM     20  C   UNL d   1      -0.482  -2.683   0.216  0.00  0.00     0.068 A 
ATOM     21  C   UNL d   1       0.418  -3.625   0.772  0.00  0.00    -0.033 A 
ATOM     22  C   UNL d   1      -0.013  -4.954   0.956  0.00  0.00     0.015 A 
ATOM     23  C   UNL d   1       1.804  -3.332   1.287  0.00  0.00     0.050 C 
ATOM     24  C   UNL d   1      -1.323  -5.348   0.685  0.00  0.00    -0.061 A 
ATOM     25  C   UNL d   1      -2.212  -4.407   0.167  0.00  0.00     0.015 A 
ATOM     26  C   UNL d   1      -1.757  -6.755   0.967  0.00  0.00     0.048 C 
ATOM     27  C   UNL d   1      -1.812  -3.082  -0.093  0.00  0.00    -0.033 A 
ATOM     28  C   UNL d   1      -2.872  -2.193  -0.701  0.00  0.00     0.050 C 
ENDBRANCH   1  20
TORSDOF 6
