REMARK  5 active torsions:
REMARK  status: ('A' for Active; 'I' for Inactive)
REMARK    1  A    between atoms: S_6  and  C_1 
REMARK    2  A    between atoms: C_5  and  S_6 
REMARK    3  A    between atoms: C_16  and  C_5 
REMARK    4  A    between atoms: C_15  and  C_9 
REMARK    5  A    between atoms: O_22  and  C_19 
ROOT
ATOM      1  C   UNL d   1      -2.252   2.496  -0.337  0.00  0.00     0.124 C 
ATOM      2  N   UNL d   1      -3.571   4.718  -0.433  0.00  0.00    -0.191 NA
ATOM      3  N   UNL d   1       0.325   2.598  -0.504  0.00  0.00    -0.191 NA
ATOM      4  C   UNL d   1      -2.980   3.721  -0.392  0.00  0.00     0.110 C 
ATOM      5  C   UNL d   1      -0.832   2.562  -0.434  0.00  0.00     0.110 C 
ATOM      6  C   UNL d   1      -2.848   1.292  -0.201  0.00  0.00     0.035 C 
ENDROOT
BRANCH   6   7
ATOM      7  C   UNL d   1      -4.278   1.056  -0.071  0.00  0.00     0.022 C 
ATOM      8  C   UNL d   1      -4.900  -0.136   0.001  0.00  0.00     0.017 C 
BRANCH   8   9
ATOM      9  S   UNL d   1      -6.618  -0.315   0.263  0.00  0.00    -0.064 SA
BRANCH   9  10
ATOM     10  C   UNL d   1      -7.364   0.785  -0.888  0.00  0.00     0.118 A 
ATOM     11  N   UNL d   1      -6.722   1.702  -1.576  0.00  0.00    -0.344 N 
ATOM     12  C   UNL d   1      -7.623   2.469  -2.303  0.00  0.00     0.050 A 
ATOM     13  HN  UNL d   1      -5.710   1.831  -1.576  1.00  0.00     0.167 HD
ATOM     14  C   UNL d   1      -7.306   3.573  -3.121  0.00  0.00     0.031 A 
ATOM     15  C   UNL d   1      -8.961   2.089  -2.187  0.00  0.00     0.034 A 
ATOM     16  C   UNL d   1      -8.323   4.251  -3.805  0.00  0.00     0.002 A 
ATOM     17  C   UNL d   1      -9.648   3.845  -3.682  0.00  0.00     0.002 A 
ATOM     18  C   UNL d   1      -9.991   2.761  -2.869  0.00  0.00     0.021 A 
ATOM     19  S   UNL d   1      -9.068   0.748  -1.117  0.00  0.00    -0.063 SA
ENDBRANCH   9  10
ENDBRANCH   8   9
BRANCH   8  20
ATOM     20  C   UNL d   1      -4.188  -1.432   0.076  0.00  0.00    -0.019 A 
ATOM     21  C   UNL d   1      -3.713  -1.905   1.311  0.00  0.00     0.015 A 
ATOM     22  C   UNL d   1      -3.140  -3.179   1.422  0.00  0.00     0.037 A 
ATOM     23  C   UNL d   1      -3.027  -3.996   0.299  0.00  0.00     0.068 A 
ATOM     24  C   UNL d   1      -3.458  -3.511  -0.940  0.00  0.00     0.037 A 
ATOM     25  C   UNL d   1      -4.033  -2.239  -1.056  0.00  0.00     0.015 A 
BRANCH  23  26
ATOM     26  O   UNL d   1      -2.522  -5.267   0.275  0.00  0.00    -0.356 OA
ATOM     27  C   UNL d   1      -2.219  -5.869   1.528  0.00  0.00     0.210 C 
ENDBRANCH  23  26
ENDBRANCH   8  20
ENDBRANCH   6   7
TORSDOF 5
