REMARK  7 active torsions:
REMARK  status: ('A' for Active; 'I' for Inactive)
REMARK    1  A    between atoms: C_2  and  C_4 
REMARK    2  A    between atoms: C_6  and  C_2 
REMARK    3  A    between atoms: O_11  and  C_6 
REMARK    4  A    between atoms: C_16  and  O_11 
REMARK    5  A    between atoms: O_12  and  C_19 
REMARK    6  A    between atoms: C_15  and  O_12 
REMARK    7  A    between atoms: C_19  and  C_13 
ROOT
ATOM      1  C   UNL d   1      -6.781   5.637  -0.196  0.00  0.00     0.012 A 
ATOM      2  C   UNL d   1      -6.864   4.483   0.593  0.00  0.00     0.018 A 
ATOM      3  C   UNL d   1      -5.652   5.848  -0.992  0.00  0.00     0.018 A 
ATOM      4  C   UNL d   1      -4.654   3.808  -0.132  0.00  0.00     0.069 A 
ATOM      5  C   UNL d   1      -4.599   4.925  -0.969  0.00  0.00     0.038 A 
ATOM      6  C   UNL d   1      -5.802   3.572   0.624  0.00  0.00     0.038 A 
ENDROOT
BRANCH   1   7
ATOM      7  C   UNL d   1      -7.906   6.614  -0.152  0.00  0.00     0.183 C 
ATOM      8  O   UNL d   1      -9.031   6.215   0.146  0.00  0.00    -0.290 OA
BRANCH   7   9
ATOM      9  C   UNL d   1      -7.612   8.090  -0.389  0.00  0.00     0.259 C 
BRANCH   9  10
ATOM     10  O   UNL d   1      -7.599   8.400  -1.774  0.00  0.00    -0.344 OA
BRANCH  10  11
ATOM     11  C   UNL d   1      -7.521   9.727  -2.107  0.00  0.00     0.069 A 
ATOM     12  C   UNL d   1      -7.315  10.787  -1.219  0.00  0.00     0.038 A 
ATOM     13  C   UNL d   1      -7.251  12.103  -1.693  0.00  0.00     0.026 A 
ATOM     14  C   UNL d   1      -7.391  12.361  -3.054  0.00  0.00     0.034 A 
ATOM     15  C   UNL d   1      -7.594  11.314  -3.948  0.00  0.00     0.026 A 
ATOM     16 CL   UNL d   1      -7.309  13.980  -3.632  0.00  0.00    -0.084 Cl
ATOM     17  C   UNL d   1      -7.657  10.001  -3.472  0.00  0.00     0.038 A 
ENDBRANCH  10  11
ENDBRANCH   9  10
ENDBRANCH   7   9
ENDBRANCH   1   7
BRANCH   4  18
ATOM     18  O   UNL d   1      -3.651   2.886   0.013  0.00  0.00    -0.347 OA
BRANCH  18  19
ATOM     19  C   UNL d   1      -2.340   3.362  -0.293  0.00  0.00     0.214 C 
BRANCH  19  20
ATOM     20  C   UNL d   1      -1.319   2.494   0.403  0.00  0.00    -0.032 A 
ATOM     21  C   UNL d   1      -0.502   3.032   1.409  0.00  0.00     0.035 A 
ATOM     22  C   UNL d   1       0.457   2.241   2.052  0.00  0.00     0.056 A 
ATOM     23  C   UNL d   1       0.605   0.898   1.692  0.00  0.00     0.055 A 
ATOM     24 CL   UNL d   1       1.425   2.989   3.272  0.00  0.00    -0.083 Cl
ATOM     25  C   UNL d   1      -0.207   0.355   0.692  0.00  0.00     0.026 A 
ATOM     26 CL   UNL d   1       1.765  -0.139   2.442  0.00  0.00    -0.083 Cl
ATOM     27  C   UNL d   1      -1.164   1.147   0.051  0.00  0.00     0.011 A 
ENDBRANCH  19  20
ENDBRANCH  18  19
ENDBRANCH   4  18
TORSDOF 7
