REMARK  7 active torsions:
REMARK  status: ('A' for Active; 'I' for Inactive)
REMARK    1  A    between atoms: C_3  and  N_1 
REMARK    2  A    between atoms: S_16  and  C_3 
REMARK    3  A    between atoms: N_4  and  N_6 
REMARK    4  A    between atoms: N_21  and  C_8 
REMARK    5  A    between atoms: C_10  and  C_18 
REMARK    6  A    between atoms: C_11  and  C_14 
REMARK    7  A    between atoms: C_18  and  S_16 
ROOT
ATOM      1  C   UNL d   1       2.397   0.021  -0.022  0.00  0.00     0.160 C 
ATOM      2  N   UNL d   1       3.115  -1.039   0.224  0.00  0.00    -0.280 N 
ATOM      3  HN  UNL d   1       4.135  -1.028   0.226  1.00  0.00     0.189 HD
ENDROOT
BRANCH   1   4
ATOM      4  N   UNL d   1       1.020   0.001   0.000  0.00  0.00    -0.332 N 
ATOM      5  C   UNL d   1       0.390   0.658  -0.914  0.00  0.00     0.179 C 
ATOM      6  HN  UNL d   1       0.514  -0.518   0.718  1.00  0.00     0.168 HD
BRANCH   5   7
ATOM      7  N   UNL d   1      -0.976   0.782  -1.041  0.00  0.00    -0.386 N 
ATOM      8  C   UNL d   1      -1.569   1.800  -1.893  0.00  0.00     0.149 C 
ATOM      9  C   UNL d   1      -1.887   0.104  -0.135  0.00  0.00     0.149 C 
ENDBRANCH   5   7
ENDBRANCH   1   4
BRANCH   1  10
ATOM     10  S   UNL d   1       3.215   1.567  -0.283  0.00  0.00    -0.088 SA
BRANCH  10  11
ATOM     11  C   UNL d   1       4.960   1.089  -0.294  0.00  0.00     0.122 C 
BRANCH  11  12
ATOM     12  C   UNL d   1       5.813   2.303  -0.620  0.00  0.00    -0.027 A 
ATOM     13  C   UNL d   1       6.193   3.244   0.356  0.00  0.00     0.042 A 
ATOM     14  C   UNL d   1       6.896   4.399  -0.001  0.00  0.00     0.048 A 
ATOM     15 CL   UNL d   1       5.802   3.039   2.027  0.00  0.00    -0.084 Cl
ATOM     16  C   UNL d   1       7.226   4.624  -1.334  0.00  0.00     0.035 A 
ATOM     17  C   UNL d   1       6.866   3.705  -2.315  0.00  0.00     0.024 A 
ATOM     18 CL   UNL d   1       8.075   6.054  -1.774  0.00  0.00    -0.084 Cl
ATOM     19  C   UNL d   1       6.161   2.552  -1.960  0.00  0.00     0.011 A 
ENDBRANCH  11  12
ENDBRANCH  10  11
ENDBRANCH   1  10
BRANCH   2  20
ATOM     20  N   UNL d   1       2.366  -2.196   0.485  0.00  0.00    -0.302 N 
ATOM     21  C   UNL d   1       2.970  -3.079   1.228  0.00  0.00     0.033 C 
ATOM     22  C   UNL d   1       4.395  -2.914   1.717  0.00  0.00     0.070 C 
ATOM     23  HN  UNL d   1       1.423  -2.334   0.122  1.00  0.00     0.186 HD
BRANCH  21  24
ATOM     24  C   UNL d   1       2.224  -4.307   1.623  0.00  0.00     0.003 A 
ATOM     25  C   UNL d   1       2.450  -4.955   2.830  0.00  0.00     0.101 A 
ATOM     26  N   UNL d   1       1.785  -6.067   3.236  0.00  0.00    -0.369 N 
ATOM     27  C   UNL d   1       0.831  -6.560   2.409  0.00  0.00     0.005 A 
ATOM     28  HN  UNL d   1       1.996  -6.515   4.128  1.00  0.00     0.165 HD
ATOM     29  C   UNL d   1       0.527  -5.967   1.187  0.00  0.00     0.025 A 
ATOM     30  C   UNL d   1       0.091  -7.776   2.883  0.00  0.00     0.068 C 
ATOM     31  C   UNL d   1       1.230  -4.827   0.794  0.00  0.00     0.017 A 
ENDBRANCH  21  24
ENDBRANCH   2  20
TORSDOF 7
