REMARK  6 active torsions:
REMARK  status: ('A' for Active; 'I' for Inactive)
REMARK    1  A    between atoms: N_2  and  S_1 
REMARK    2  A    between atoms: C_6  and  S_1 
REMARK    3  A    between atoms: C_3  and  C_4 
REMARK    4  A    between atoms: C_13  and  C_5 
REMARK    5  A    between atoms: O_25  and  C_13 
REMARK    6  A    between atoms: C_28  and  O_25 
ROOT
ATOM      1  N   UNL d   1       0.460   1.229  -0.954  0.00  0.00    -0.176 N 
ATOM      2  C   UNL d   1      -0.446   1.332  -2.018  0.00  0.00     0.089 A 
ATOM      3  N   UNL d   1       0.833   2.459  -0.471  0.00  0.00    -0.295 N 
ATOM      4  HN  UNL d   1       1.420   2.661   0.338  1.00  0.00     0.187 HD
ATOM      5  C   UNL d   1      -0.534   2.697  -2.261  0.00  0.00     0.052 A 
ATOM      6  C   UNL d   1       0.258   3.327  -1.295  0.00  0.00     0.111 A 
ENDROOT
BRANCH   2   7
ATOM      7  C   UNL d   1      -1.138   0.306  -2.770  0.00  0.00     0.069 A 
ATOM      8  C   UNL d   1      -2.429   0.320  -3.314  0.00  0.00     0.128 A 
ATOM      9  N   UNL d   1      -2.734  -0.787  -4.120  0.00  0.00    -0.348 N 
ATOM     10  C   UNL d   1      -1.710  -1.596  -4.209  0.00  0.00     0.048 A 
ATOM     11  HN  UNL d   1      -3.634  -0.940  -4.576  1.00  0.00     0.166 HD
ATOM     12  S   UNL d   1      -0.325  -1.095  -3.361  0.00  0.00    -0.072 SA
ATOM     13  C   UNL d   1      -1.724  -2.846  -5.014  0.00  0.00     0.076 C 
BRANCH   8  14
ATOM     14  C   UNL d   1      -3.465   1.345  -3.139  0.00  0.00     0.311 C 
ATOM     15  O   UNL d   1      -3.523   2.131  -2.200  0.00  0.00    -0.258 OA
BRANCH  14  16
ATOM     16  O   UNL d   1      -4.379   1.289  -4.154  0.00  0.00    -0.317 OA
BRANCH  16  17
ATOM     17  C   UNL d   1      -5.613   1.990  -3.976  0.00  0.00     0.175 C 
ATOM     18  C   UNL d   1      -6.609   1.037  -3.344  0.00  0.00     0.034 C 
ENDBRANCH  16  17
ENDBRANCH  14  16
ENDBRANCH   8  14
ENDBRANCH   2   7
BRANCH   1  19
ATOM     19  S   UNL d   1       0.906  -0.233  -0.130  0.00  0.00     0.284 S 
ATOM     20  O   UNL d   1       1.592  -1.091  -1.077  0.00  0.00    -0.198 OA
ATOM     21  O   UNL d   1      -0.301  -0.657   0.552  0.00  0.00    -0.198 OA
BRANCH  19  22
ATOM     22  C   UNL d   1       2.111   0.250   1.086  0.00  0.00     0.103 A 
ATOM     23  C   UNL d   1       3.342   0.807   0.718  0.00  0.00     0.059 A 
ATOM     24  C   UNL d   1       4.271   1.152   1.708  0.00  0.00     0.049 A 
ATOM     25 CL   UNL d   1       3.828   1.087  -0.917  0.00  0.00    -0.083 Cl
ATOM     26  C   UNL d   1       3.978   0.924   3.052  0.00  0.00     0.035 A 
ATOM     27  C   UNL d   1       2.766   0.347   3.421  0.00  0.00     0.025 A 
ATOM     28 CL   UNL d   1       5.130   1.344   4.259  0.00  0.00    -0.084 Cl
ATOM     29  C   UNL d   1       1.829   0.008   2.440  0.00  0.00     0.029 A 
ENDBRANCH  19  22
ENDBRANCH   1  19
TORSDOF 6
