REMARK  3 active torsions:
REMARK  status: ('A' for Active; 'I' for Inactive)
REMARK    1  A    between atoms: N_10  and  C_2 
REMARK    2  A    between atoms: N_8  and  N_10 
REMARK    3  A    between atoms: C_15  and  C_14 
ROOT
ATOM      1  N   UNL d   1      -0.433   3.076   0.081  0.00  0.00    -0.132 N 
ATOM      2  H   UNL d   1       0.439   3.588  -0.018  0.00  0.00     0.205 HD
ENDROOT
BRANCH   1   3
ATOM      3  N   UNL d   1      -1.635   3.703   0.188  0.00  0.00    -0.297 N 
ATOM      4  C   UNL d   1      -1.613   4.997   0.195  0.00  0.00     0.119 C 
ATOM      5  HN  UNL d   1      -2.509   3.181   0.259  1.00  0.00     0.186 HD
BRANCH   4   6
ATOM      6  C   UNL d   1      -2.876   5.755   0.287  0.00  0.00    -0.017 A 
ATOM      7  C   UNL d   1      -4.089   5.075   0.390  0.00  0.00     0.030 A 
ATOM      8  C   UNL d   1      -5.247   5.824   0.447  0.00  0.00     0.088 A 
ATOM      9  N   UNL d   1      -5.263   7.173   0.410  0.00  0.00    -0.375 N 
ATOM     10  C   UNL d   1      -4.071   7.803   0.315  0.00  0.00     0.088 A 
ATOM     11  HN  UNL d   1      -6.138   7.696   0.453  1.00  0.00     0.164 HD
ATOM     12  C   UNL d   1      -2.854   7.146   0.253  0.00  0.00     0.030 A 
ENDBRANCH   4   6
ENDBRANCH   1   3
BRANCH   1  13
ATOM     13  C   UNL d   1      -0.299   1.711   0.035  0.00  0.00     0.700 A 
ATOM     14  N   UNL d   1      -1.460   0.999   0.139  0.00  0.00    -0.155 N 
ATOM     15  C   UNL d   1      -1.514  -0.357   0.107  0.00  0.00     0.261 A 
ATOM     16  H   UNL d   1      -2.310   1.531   0.237  0.00  0.00     0.187 HD
ATOM     17  C   UNL d   1      -0.211  -1.015  -0.042  0.00  0.00     0.100 A 
ATOM     18  O   UNL d   1      -2.553  -1.002   0.193  0.00  0.00    -0.268 OA
ATOM     19  C   UNL d   1       0.882  -0.242  -0.135  0.00  0.00     0.028 A 
ATOM     20  C   UNL d   1       2.245  -0.853  -0.282  0.00  0.00     0.069 C 
ATOM     21  N   UNL d   1       0.856   1.135  -0.100  0.00  0.00    -0.194 N 
ATOM     22  HN  UNL d   1       1.714   1.682  -0.178  1.00  0.00     0.184 HD
ENDBRANCH   1  13
TORSDOF 3
