REMARK  5 active torsions:
REMARK  status: ('A' for Active; 'I' for Inactive)
REMARK    1  A    between atoms: C_13  and  N_3 
REMARK    2  A    between atoms: C_8  and  C_4 
REMARK    3  A    between atoms: C_10  and  C_8 
REMARK    4  A    between atoms: O_15  and  C_10 
REMARK    5  A    between atoms: C_18  and  O_15 
ROOT
ATOM      1  N   UNL d   1       4.362   1.958  -2.527  0.00  0.00    -0.195 NA
ATOM      2  C   UNL d   1       4.035   1.714  -1.440  0.00  0.00     0.081 C 
ATOM      3  C   UNL d   1       3.648   1.403  -0.052  0.00  0.00     0.276 C 
ENDROOT
BRANCH   3   4
ATOM      4  N   UNL d   1       2.369   0.703   0.009  0.00  0.00    -0.243 N 
ATOM      5  N   UNL d   1       2.413  -0.670  -0.023  0.00  0.00    -0.298 N 
ATOM      6  C   UNL d   1       1.300  -1.342  -0.033  0.00  0.00     0.046 A 
ATOM      7  HN  UNL d   1       3.309  -1.157  -0.039  1.00  0.00     0.187 HD
ATOM      8  C   UNL d   1      -0.035  -0.698  -0.030  0.00  0.00     0.004 A 
ATOM      9  C   UNL d   1      -0.066   0.691  -0.004  0.00  0.00     0.046 A 
ATOM     10  C   UNL d   1      -1.235  -1.418  -0.061  0.00  0.00     0.014 A 
ATOM     11  C   UNL d   1      -1.291   1.371  -0.018  0.00  0.00     0.018 A 
ATOM     12  C   UNL d   1       1.197   1.448   0.022  0.00  0.00     0.274 A 
ATOM     13  C   UNL d   1      -2.485   0.653  -0.054  0.00  0.00     0.001 A 
ATOM     14  C   UNL d   1      -2.458  -0.739  -0.072  0.00  0.00     0.001 A 
ATOM     15  O   UNL d   1       1.176   2.677   0.046  0.00  0.00    -0.266 OA
BRANCH   6  16
ATOM     16  C   UNL d   1       1.411  -2.849  -0.078  0.00  0.00     0.170 C 
BRANCH  16  17
ATOM     17  C   UNL d   1       1.010  -3.527   1.201  0.00  0.00     0.264 C 
ATOM     18  O   UNL d   1       0.562  -2.966   2.190  0.00  0.00    -0.265 OA
BRANCH  17  19
ATOM     19  O   UNL d   1       1.249  -4.864   1.094  0.00  0.00    -0.322 OA
BRANCH  19  20
ATOM     20  C   UNL d   1       1.228  -5.590   2.331  0.00  0.00     0.174 C 
ATOM     21  C   UNL d   1       2.603  -5.483   2.966  0.00  0.00     0.034 C 
ENDBRANCH  19  20
ENDBRANCH  17  19
ENDBRANCH  16  17
ENDBRANCH   6  16
ENDBRANCH   3   4
TORSDOF 5
