REMARK  8 active torsions:
REMARK  status: ('A' for Active; 'I' for Inactive)
REMARK    1  A    between atoms: N_3  and  C_1 
REMARK    2  A    between atoms: N_7  and  C_1 
REMARK       I    between atoms: C_2  and  N_4 
REMARK       I    between atoms: N_5  and  C_2 
REMARK    3  A    between atoms: N_4  and  N_3 
REMARK    4  A    between atoms: C_9  and  N_5 
REMARK    5  A    between atoms: C_11  and  N_7 
REMARK    6  A    between atoms: C_10  and  C_11 
REMARK    7  A    between atoms: O_18  and  C_10 
REMARK    8  A    between atoms: O_19  and  C_10 
ROOT
ATOM      1  C   UNL d   1      -0.120  -1.213   3.252  0.00  0.00     0.339 C 
ATOM      2  N   UNL d   1       0.947  -0.927   2.421  0.00  0.00    -0.249 N 
ATOM      3  N   UNL d   1       0.205  -2.189   4.169  0.00  0.00    -0.308 N 
ATOM      4  O   UNL d   1      -1.198  -0.631   3.144  0.00  0.00    -0.245 OA
ATOM      5  H   UNL d   1       1.886  -1.239   2.630  0.00  0.00     0.192 HD
ATOM      6  H   UNL d   1       1.184  -2.422   4.234  0.00  0.00     0.170 HD
ENDROOT
BRANCH   2   7
ATOM      7  N   UNL d   1       0.849   0.170   1.554  0.00  0.00    -0.272 N 
ATOM      8  H   UNL d   1       0.032   0.756   1.735  0.00  0.00     0.189 HD
BRANCH   7   9
ATOM      9  C   UNL d   1       1.218   0.062   0.232  0.00  0.00     0.186 C 
ATOM     10  S   UNL d   1       1.703  -1.331  -0.548  0.00  0.00    -0.040 SA
BRANCH   9  11
ATOM     11  N   UNL d   1       1.248   1.245  -0.452  0.00  0.00    -0.361 N 
ATOM     12  H   UNL d   1       1.421   1.184  -1.452  0.00  0.00     0.162 HD
BRANCH  11  13
ATOM     13  C   UNL d   1       1.194   2.585   0.133  0.00  0.00     0.182 C 
BRANCH  13  14
ATOM     14  C   UNL d   1       2.130   3.595  -0.569  0.00  0.00     0.275 C 
BRANCH  14  15
ATOM     15  O   UNL d   1       1.602   3.811  -1.884  0.00  0.00    -0.364 OA
ATOM     16  C   UNL d   1       2.441   4.641  -2.675  0.00  0.00     0.204 C 
ENDBRANCH  14  15
BRANCH  14  17
ATOM     17  O   UNL d   1       2.173   4.832   0.146  0.00  0.00    -0.364 OA
ATOM     18  C   UNL d   1       2.911   4.770   1.358  0.00  0.00     0.204 C 
ENDBRANCH  14  17
ENDBRANCH  13  14
ENDBRANCH  11  13
ENDBRANCH   9  11
ENDBRANCH   7   9
ENDBRANCH   2   7
BRANCH   3  19
ATOM     19  C   UNL d   1      -0.654  -2.854   5.064  0.00  0.00     0.036 A 
ATOM     20  C   UNL d   1      -2.046  -2.756   5.017  0.00  0.00     0.031 A 
ATOM     21  C   UNL d   1      -2.836  -3.502   5.900  0.00  0.00     0.026 A 
ATOM     22  C   UNL d   1      -2.234  -4.338   6.837  0.00  0.00     0.034 A 
ATOM     23  C   UNL d   1      -0.848  -4.433   6.904  0.00  0.00     0.026 A 
ATOM     24 CL   UNL d   1      -3.207  -5.269   7.907  0.00  0.00    -0.084 Cl
ATOM     25  C   UNL d   1      -0.059  -3.694   6.015  0.00  0.00     0.031 A 
ENDBRANCH   3  19
TORSDOF 8
