REMARK  5 active torsions:
REMARK  status: ('A' for Active; 'I' for Inactive)
REMARK    1  A    between atoms: C_2  and  C_1 
REMARK    2  A    between atoms: C_9  and  C_2 
REMARK    3  A    between atoms: C_8  and  C_4 
REMARK    4  A    between atoms: O_13  and  C_5 
REMARK    5  A    between atoms: O_12  and  N_6 
ROOT
ATOM      1  C   UNL d   1       2.470   2.325  -0.009  0.00  0.00     0.027 A 
ATOM      2  C   UNL d   1       3.185   3.542   0.092  0.00  0.00     0.024 A 
ATOM      3  C   UNL d   1       4.592   3.603   0.101  0.00  0.00    -0.050 A 
ATOM      4  C   UNL d   1       3.197   1.142  -0.133  0.00  0.00     0.078 A 
ATOM      5  C   UNL d   1       5.279   2.382   0.037  0.00  0.00     0.011 A 
ATOM      6  C   UNL d   1       4.593   1.169  -0.075  0.00  0.00     0.038 A 
ENDROOT
BRANCH   1   7
ATOM      7  C   UNL d   1       0.960   2.443   0.027  0.00  0.00     0.077 C 
ATOM      8  N   UNL d   1       0.475   3.554  -0.460  0.00  0.00    -0.268 N 
ATOM      9  HN  UNL d   1       1.055   4.240  -0.942  1.00  0.00     0.194 HD
BRANCH   8  10
ATOM     10  O   UNL d   1      -0.897   3.731  -0.271  0.00  0.00    -0.289 OA
ATOM     11  H   UNL d   1      -1.059   4.592  -0.693  0.00  0.00     0.244 HD
ENDBRANCH   8  10
BRANCH   7  12
ATOM     12  C   UNL d   1       0.125   1.342   0.625  0.00  0.00    -0.007 A 
ATOM     13  C   UNL d   1       0.570   0.630   1.744  0.00  0.00     0.014 A 
ATOM     14  C   UNL d   1      -0.192  -0.424   2.262  0.00  0.00     0.001 A 
ATOM     15  C   UNL d   1      -1.425  -0.744   1.691  0.00  0.00     0.000 A 
ATOM     16  C   UNL d   1      -1.887  -0.029   0.593  0.00  0.00     0.001 A 
ATOM     17  C   UNL d   1      -1.105   0.993   0.046  0.00  0.00     0.014 A 
ENDBRANCH   7  12
ENDBRANCH   1   7
BRANCH   4  18
ATOM     18  O   UNL d   1       2.662  -0.098  -0.337  0.00  0.00    -0.360 OA
ATOM     19  H   UNL d   1       1.751  -0.010  -0.663  0.00  0.00     0.217 HD
ENDBRANCH   4  18
BRANCH   3  20
ATOM     20  C   UNL d   1       5.363   4.934   0.172  0.00  0.00    -0.024 C 
ATOM     21  C   UNL d   1       4.453   6.184   0.215  0.00  0.00     0.019 C 
ATOM     22  C   UNL d   1       6.239   4.962   1.442  0.00  0.00     0.019 C 
ATOM     23  C   UNL d   1       6.269   5.080  -1.071  0.00  0.00     0.019 C 
ENDBRANCH   3  20
TORSDOF 5
