REMARK  5 active torsions:
REMARK  status: ('A' for Active; 'I' for Inactive)
REMARK    1  A    between atoms: N_3  and  C_1 
REMARK    2  A    between atoms: O_9  and  C_2 
REMARK    3  A    between atoms: O_11  and  C_5 
REMARK    4  A    between atoms: C_14  and  O_9 
REMARK    5  A    between atoms: C_15  and  O_11 
ROOT
ATOM      1  C   UNL d   1       1.502   1.215  -0.056  0.00  0.00     0.138 C 
ATOM      2  C   UNL d   1       0.108   1.245   0.099  0.00  0.00     0.132 C 
ATOM      3  C   UNL d   1      -0.569   0.017   0.245  0.00  0.00     0.114 C 
ATOM      4  C   UNL d   1       0.117  -1.189  -0.026  0.00  0.00     0.099 C 
ATOM      5  C   UNL d   1      -1.896  -0.015   0.795  0.00  0.00     0.105 C 
ATOM      6  N   UNL d   1      -2.957  -0.040   1.270  0.00  0.00    -0.191 NA
ATOM      7  C   UNL d   1       2.214   0.017  -0.177  0.00  0.00     0.042 C 
ATOM      8  C   UNL d   1       1.509  -1.182  -0.197  0.00  0.00     0.041 C 
ENDROOT
BRANCH   2   9
ATOM      9  O   UNL d   1      -0.482   2.489   0.184  0.00  0.00    -0.307 OA
BRANCH   9  10
ATOM     10  C   UNL d   1      -1.700   2.733  -0.413  0.00  0.00     0.076 A 
ATOM     11  C   UNL d   1      -2.498   3.679   0.235  0.00  0.00     0.037 A 
ATOM     12  C   UNL d   1      -3.794   3.933  -0.213  0.00  0.00     0.003 A 
ATOM     13  C   UNL d   1      -4.291   3.251  -1.322  0.00  0.00     0.000 A 
ATOM     14  C   UNL d   1      -3.472   2.359  -2.015  0.00  0.00     0.003 A 
ATOM     15  C   UNL d   1      -2.164   2.120  -1.580  0.00  0.00     0.037 A 
ENDBRANCH   9  10
ENDBRANCH   2   9
BRANCH   4  16
ATOM     16  O   UNL d   1      -0.439  -2.453  -0.057  0.00  0.00    -0.309 OA
BRANCH  16  17
ATOM     17  C   UNL d   1      -1.673  -2.651  -0.636  0.00  0.00     0.076 A 
ATOM     18  C   UNL d   1      -2.171  -1.927  -1.724  0.00  0.00     0.037 A 
ATOM     19  C   UNL d   1      -3.496  -2.107  -2.126  0.00  0.00     0.003 A 
ATOM     20  C   UNL d   1      -4.298  -3.055  -1.492  0.00  0.00     0.000 A 
ATOM     21  C   UNL d   1      -3.767  -3.851  -0.478  0.00  0.00     0.003 A 
ATOM     22  C   UNL d   1      -2.453  -3.652  -0.055  0.00  0.00     0.037 A 
ENDBRANCH  16  17
ENDBRANCH   4  16
BRANCH   1  23
ATOM     23  N   UNL d   1       2.267   2.449  -0.036  0.00  0.00    -0.113 N 
ATOM     24  O   UNL d   1       2.179   3.157   0.975  0.00  0.00    -0.532 OA
ATOM     25  O   UNL d   1       2.999   2.666  -1.010  0.00  0.00    -0.532 OA
ENDBRANCH   1  23
TORSDOF 5
