REMARK  3 active torsions:
REMARK  status: ('A' for Active; 'I' for Inactive)
REMARK    1  A    between atoms: S_12  and  C_2 
REMARK    2  A    between atoms: O_13  and  N_7 
REMARK    3  A    between atoms: C_11  and  O_13 
ROOT
ATOM      1  C   UNL d   1       0.462   0.737  -0.062  0.00  0.00     0.020 A 
ATOM      2  C   UNL d   1       1.829   0.974  -0.108  0.00  0.00     0.055 A 
ATOM      3  S   UNL d   1       2.731  -0.489  -0.041  0.00  0.00    -0.071 SA
ATOM      4  C   UNL d   1       0.182  -0.694   0.010  0.00  0.00    -0.016 A 
ATOM      5  C   UNL d   1       1.334  -1.458   0.037  0.00  0.00     0.093 A 
ATOM      6  C   UNL d   1      -0.652   1.706  -0.063  0.00  0.00     0.045 C 
ATOM      7  N   UNL d   1      -0.429   2.954  -0.344  0.00  0.00    -0.261 N 
ATOM      8  HN  UNL d   1       0.488   3.333  -0.580  1.00  0.00     0.194 HD
ATOM      9  C   UNL d   1       1.382  -2.886   0.123  0.00  0.00     0.107 C 
ATOM     10  N   UNL d   1       1.371  -4.048   0.190  0.00  0.00    -0.191 NA
ATOM     11  C   UNL d   1      -1.222  -1.235   0.072  0.00  0.00     0.042 C 
ATOM     12  C   UNL d   1      -2.030   1.141   0.285  0.00  0.00     0.060 C 
ATOM     13  C   UNL d   1      -2.243  -0.204  -0.406  0.00  0.00     0.011 C 
ENDROOT
BRANCH   2  14
ATOM     14  S   UNL d   1       2.705   2.506  -0.096  0.00  0.00    -0.126 SA
ATOM     15  C   UNL d   1       2.885   2.852  -1.862  0.00  0.00     0.096 C 
ENDBRANCH   2  14
BRANCH   7  16
ATOM     16  O   UNL d   1      -1.614   3.721  -0.284  0.00  0.00    -0.200 OA
BRANCH  16  17
ATOM     17  C   UNL d   1      -1.367   5.034  -0.602  0.00  0.00     0.277 C 
ATOM     18  O   UNL d   1      -0.283   5.534  -0.895  0.00  0.00    -0.264 OA
ATOM     19  C   UNL d   1      -2.642   5.824  -0.549  0.00  0.00     0.128 C 
ENDBRANCH  16  17
ENDBRANCH   7  16
TORSDOF 3
