REMARK  4 active torsions:
REMARK  status: ('A' for Active; 'I' for Inactive)
REMARK    1  A    between atoms: C_4  and  N_1 
REMARK    2  A    between atoms: C_5  and  C_3 
REMARK    3  A    between atoms: O_16  and  C_6 
REMARK    4  A    between atoms: O_17  and  C_7 
ROOT
ATOM      1  N   UNL d   1       0.938   2.007  -0.927  0.00  0.00    -0.365 N 
ATOM      2  HN  UNL d   1       0.418   2.705  -1.460  1.00  0.00     0.165 HD
ATOM      3  C   UNL d   1       0.303   1.157  -0.188  0.00  0.00     0.099 C 
ENDROOT
BRANCH   1   4
ATOM      4  C   UNL d   1       2.339   1.974  -1.000  0.00  0.00     0.032 A 
ATOM      5  C   UNL d   1       2.929   2.337  -2.216  0.00  0.00     0.032 A 
ATOM      6  C   UNL d   1       4.318   2.357  -2.364  0.00  0.00     0.039 A 
ATOM      7  C   UNL d   1       5.125   2.015  -1.289  0.00  0.00     0.065 A 
ATOM      8  C   UNL d   1       4.565   1.667  -0.063  0.00  0.00     0.039 A 
ATOM      9  C   UNL d   1       3.174   1.659   0.079  0.00  0.00     0.032 A 
BRANCH   7  10
ATOM     10  O   UNL d   1       6.475   2.038  -1.472  0.00  0.00    -0.361 OA
ATOM     11  H   UNL d   1       6.906   1.773  -0.643  0.00  0.00     0.217 HD
ENDBRANCH   7  10
ENDBRANCH   1   4
BRANCH   3  12
ATOM     12  C   UNL d   1      -1.173   1.151  -0.120  0.00  0.00    -0.021 A 
ATOM     13  C   UNL d   1      -1.924   2.014  -0.919  0.00  0.00     0.015 A 
ATOM     14  C   UNL d   1      -3.317   1.973  -0.860  0.00  0.00     0.037 A 
ATOM     15  C   UNL d   1      -3.969   1.080  -0.005  0.00  0.00     0.068 A 
ATOM     16  C   UNL d   1      -3.212   0.224   0.799  0.00  0.00     0.037 A 
ATOM     17  C   UNL d   1      -1.813   0.257   0.741  0.00  0.00     0.015 A 
BRANCH  15  18
ATOM     18  O   UNL d   1      -5.334   1.141  -0.053  0.00  0.00    -0.356 OA
ATOM     19  C   UNL d   1      -6.050   0.250   0.791  0.00  0.00     0.210 C 
ENDBRANCH  15  18
ENDBRANCH   3  12
TORSDOF 4
