REMARK  5 active torsions:
REMARK  status: ('A' for Active; 'I' for Inactive)
REMARK    1  A    between atoms: N_3  and  S_1 
REMARK    2  A    between atoms: C_6  and  S_1 
REMARK    3  A    between atoms: C_2  and  N_5 
REMARK    4  A    between atoms: N_4  and  C_2 
REMARK    5  A    between atoms: N_5  and  C_12 
ROOT
ATOM      1  C   UNL d   1       0.352  -1.477   0.808  0.00  0.00     0.079 A 
ATOM      2  C   UNL d   1       0.514  -2.615   0.004  0.00  0.00     0.027 A 
ATOM      3  C   UNL d   1      -0.119  -1.606   2.111  0.00  0.00     0.027 A 
ATOM      4  C   UNL d   1      -0.268  -4.023   1.821  0.00  0.00     0.034 A 
ATOM      5  C   UNL d   1       0.192  -3.874   0.510  0.00  0.00     0.031 A 
ATOM      6  C   UNL d   1      -0.425  -2.880   2.617  0.00  0.00     0.031 A 
ENDROOT
BRANCH   1   7
ATOM      7  S   UNL d   1       0.913   0.097   0.178  0.00  0.00     0.260 S 
ATOM      8  O   UNL d   1       1.153   0.965   1.314  0.00  0.00    -0.200 OA
ATOM      9  O   UNL d   1       1.968  -0.184  -0.772  0.00  0.00    -0.200 OA
BRANCH   7  10
ATOM     10  N   UNL d   1      -0.429   0.706  -0.697  0.00  0.00    -0.307 N 
ATOM     11  C   UNL d   1      -1.501   1.318   0.125  0.00  0.00     0.135 C 
ATOM     12  C   UNL d   1      -2.539   2.010  -0.757  0.00  0.00     0.021 C 
ATOM     13  C   UNL d   1      -3.084   1.066  -1.821  0.00  0.00     0.003 C 
ATOM     14  C   UNL d   1      -1.936   0.532  -2.665  0.00  0.00     0.021 C 
ATOM     15  C   UNL d   1      -0.913  -0.175  -1.790  0.00  0.00     0.135 C 
ENDBRANCH   7  10
ENDBRANCH   1   7
BRANCH   4  16
ATOM     16  N   UNL d   1      -0.419  -5.347   2.296  0.00  0.00    -0.333 N 
ATOM     17  H   UNL d   1      -0.023  -6.062   1.700  0.00  0.00     0.168 HD
BRANCH  16  18
ATOM     18  C   UNL d   1      -1.132  -5.843   3.373  0.00  0.00     0.174 C 
ATOM     19  S   UNL d   1      -2.566  -5.165   3.933  0.00  0.00    -0.041 SA
BRANCH  18  20
ATOM     20  N   UNL d   1      -0.568  -7.006   3.913  0.00  0.00    -0.358 N 
ATOM     21  C   UNL d   1      -1.081  -7.714   5.082  0.00  0.00     0.125 C 
ATOM     22  C   UNL d   1       0.164  -8.282   5.741  0.00  0.00     0.021 C 
ATOM     23  C   UNL d   1       1.060  -8.634   4.564  0.00  0.00     0.021 C 
ATOM     24  C   UNL d   1       0.678  -7.635   3.475  0.00  0.00     0.125 C 
ENDBRANCH  18  20
ENDBRANCH  16  18
ENDBRANCH   4  16
TORSDOF 5
