REMARK  6 active torsions:
REMARK  status: ('A' for Active; 'I' for Inactive)
REMARK    1  A    between atoms: C_2  and  S_1 
REMARK    2  A    between atoms: N_3  and  S_1 
REMARK    3  A    between atoms: C_5  and  N_3 
REMARK    4  A    between atoms: C_4  and  C_6 
REMARK    5  A    between atoms: C_6  and  S_10 
REMARK    6  A    between atoms: S_10  and  C_11 
ROOT
ATOM      1  C   UNL d   1       0.679  -0.329  -2.541  0.00  0.00     0.039 A 
ATOM      2  C   UNL d   1       2.067  -0.218  -2.759  0.00  0.00     0.022 A 
ATOM      3  C   UNL d   1      -0.214  -0.171  -3.614  0.00  0.00     0.026 A 
ATOM      4  C   UNL d   1       2.496   0.114  -4.063  0.00  0.00     0.020 A 
ATOM      5  C   UNL d   1       0.234   0.147  -4.893  0.00  0.00     0.002 A 
ATOM      6  C   UNL d   1       1.594   0.302  -5.115  0.00  0.00     0.001 A 
ENDROOT
BRANCH   1   7
ATOM      7  N   UNL d   1       0.054  -0.500  -1.262  0.00  0.00    -0.180 NA
ATOM      8  H   UNL d   1       0.509  -1.168  -0.650  0.00  0.00     0.146 HD
BRANCH   7   9
ATOM      9  S   UNL d   1      -0.259   0.902  -0.353  0.00  0.00     0.252 S 
ATOM     10  O   UNL d   1      -0.990   0.468   0.823  0.00  0.00    -0.205 OA
ATOM     11  O   UNL d   1       0.969   1.651  -0.219  0.00  0.00    -0.205 OA
BRANCH   9  12
ATOM     12  C   UNL d   1      -1.355   1.997  -1.228  0.00  0.00     0.115 A 
ATOM     13  S   UNL d   1      -2.920   1.411  -1.595  0.00  0.00    -0.089 SA
ATOM     14  C   UNL d   1      -3.347   2.864  -2.395  0.00  0.00     0.051 A 
ATOM     15  C   UNL d   1      -2.335   3.797  -2.348  0.00  0.00     0.009 A 
ATOM     16  C   UNL d   1      -1.188   3.298  -1.668  0.00  0.00     0.033 A 
ENDBRANCH   9  12
ENDBRANCH   7   9
ENDBRANCH   1   7
BRANCH   2  17
ATOM     17  S   UNL d   1       3.405  -0.304  -1.563  0.00  0.00    -0.123 SA
BRANCH  17  18
ATOM     18  C   UNL d   1       3.105  -1.805  -0.560  0.00  0.00     0.123 C 
BRANCH  18  19
ATOM     19  C   UNL d   1       4.267  -2.083   0.371  0.00  0.00     0.012 A 
ATOM     20  C   UNL d   1       5.180  -3.135   0.208  0.00  0.00     0.044 A 
ATOM     21 CL   UNL d   1       5.047  -4.274  -1.083  0.00  0.00    -0.084 Cl
ATOM     22  C   UNL d   1       6.242  -3.314   1.112  0.00  0.00     0.024 A 
ATOM     23  C   UNL d   1       6.412  -2.446   2.190  0.00  0.00     0.005 A 
ATOM     24  C   UNL d   1       5.511  -1.405   2.373  0.00  0.00     0.043 A 
ATOM     25  C   UNL d   1       4.455  -1.240   1.478  0.00  0.00     0.125 A 
ATOM     26  F   UNL d   1       3.590  -0.242   1.705  0.00  0.00    -0.205 F 
ENDBRANCH  18  19
ENDBRANCH  17  18
ENDBRANCH   2  17
TORSDOF 6
