REMARK  2 active torsions:
REMARK  status: ('A' for Active; 'I' for Inactive)
REMARK    1  A    between atoms: C_5  and  C_1 
REMARK    2  A    between atoms: C_6  and  C_4 
REMARK       I    between atoms: N_13  and  C_5 
ROOT
ATOM      1  C   UNL d   1       1.965   0.805   0.372  0.00  0.00     0.104 A 
ATOM      2  N   UNL d   1       2.342  -0.992   0.592  0.00  0.00    -0.369 N 
ATOM      3  HN  UNL d   1       3.233  -1.330   0.955  1.00  0.00     0.161 HD
ATOM      4  C   UNL d   1       1.129  -1.989   0.157  0.00  0.00     0.180 A 
ATOM      5  S   UNL d   1      -0.761  -0.790  -0.790  0.00  0.00    -0.111 SA
ATOM      6  C   UNL d   1       0.411   1.141  -0.346  0.00  0.00     0.082 A 
ENDROOT
BRANCH   4   7
ATOM      7  C   UNL d   1       0.638  -3.243   0.278  0.00  0.00     0.186 C 
ATOM      8  O   UNL d   1       0.604  -3.288  -1.234  0.00  0.00    -0.338 OA
ATOM      9  C   UNL d   1       1.283  -2.194  -1.941  0.00  0.00     0.102 A 
ATOM     10  C   UNL d   1       1.810  -2.493  -3.179  0.00  0.00     0.039 A 
ATOM     11  C   UNL d   1       1.421  -0.719  -1.286  0.00  0.00     0.102 A 
ATOM     12  C   UNL d   1       2.462  -1.461  -3.863  0.00  0.00     0.003 A 
ATOM     13  C   UNL d   1       2.554  -0.136  -3.360  0.00  0.00     0.003 A 
ATOM     14  C   UNL d   1       2.043   0.274  -2.112  0.00  0.00     0.039 A 
ATOM     15  O   UNL d   1       0.614  -0.451   0.534  0.00  0.00    -0.346 OA
ATOM     16  C   UNL d   1       0.062  -2.010   1.284  0.00  0.00     0.211 C 
ENDBRANCH   4   7
BRANCH   1  17
ATOM     17  C   UNL d   1       2.923   1.893   0.623  0.00  0.00     0.269 C 
ATOM     18  N   UNL d   1       4.245   1.620   0.995  0.00  0.00    -0.355 N 
ATOM     19  C   UNL d   1       5.223   2.689   0.883  0.00  0.00     0.152 C 
ATOM     20  C   UNL d   1       4.794   0.314   1.317  0.00  0.00     0.152 C 
ATOM     21  O   UNL d   1       2.555   3.053   0.419  0.00  0.00    -0.266 OA
ENDBRANCH   1  17
TORSDOF 2
