REMARK  6 active torsions:
REMARK  status: ('A' for Active; 'I' for Inactive)
REMARK    1  A    between atoms: N_6  and  C_1 
REMARK       I    between atoms: C_7  and  N_6 
REMARK       I    between atoms: N_9  and  C_7 
REMARK    2  A    between atoms: C_12  and  N_9 
REMARK    3  A    between atoms: O_18  and  C_10 
REMARK    4  A    between atoms: O_13  and  C_14 
REMARK    5  A    between atoms: C_16  and  O_13 
REMARK    6  A    between atoms: C_23  and  C_16 
ROOT
ATOM      1  N   UNL d   1      -2.558   4.945  -0.247  0.00  0.00    -0.293 N 
ATOM      2  C   UNL d   1      -2.478   3.639   0.126  0.00  0.00     0.326 C 
ATOM      3  N   UNL d   1      -3.619   2.889   0.045  0.00  0.00    -0.309 N 
ATOM      4  O   UNL d   1      -1.388   3.255   0.556  0.00  0.00    -0.247 OA
ATOM      5  H   UNL d   1      -1.698   5.455  -0.100  0.00  0.00     0.172 HD
ATOM      6  H   UNL d   1      -4.407   3.376  -0.377  0.00  0.00     0.170 HD
ENDROOT
BRANCH   1   7
ATOM      7  C   UNL d   1      -3.554   5.626  -0.903  0.00  0.00     0.139 C 
ATOM      8  N   UNL d   1      -4.621   5.045  -1.460  0.00  0.00    -0.282 N 
ATOM      9  N   UNL d   1      -5.183   6.037  -2.181  0.00  0.00    -0.294 N 
ATOM     10  HN  UNL d   1      -4.936   4.080  -1.362  1.00  0.00     0.189 HD
ATOM     11  C   UNL d   1      -6.300   5.747  -3.049  0.00  0.00     0.178 C 
ATOM     12  C   UNL d   1      -4.580   7.260  -2.028  0.00  0.00     0.067 A 
ATOM     13  C   UNL d   1      -3.544   7.039  -1.119  0.00  0.00     0.071 A 
ATOM     14  C   UNL d   1      -4.828   8.512  -2.608  0.00  0.00     0.032 A 
ATOM     15  C   UNL d   1      -2.772   8.147  -0.699  0.00  0.00     0.084 A 
ATOM     16  C   UNL d   1      -3.014   9.408  -1.265  0.00  0.00     0.038 A 
ATOM     17  C   UNL d   1      -4.021   9.583  -2.214  0.00  0.00     0.005 A 
BRANCH  15  18
ATOM     18  O   UNL d   1      -1.713   8.062   0.186  0.00  0.00    -0.355 OA
ATOM     19  C   UNL d   1      -2.123   7.658   1.495  0.00  0.00     0.210 C 
ENDBRANCH  15  18
ENDBRANCH   1   7
BRANCH   3  20
ATOM     20  C   UNL d   1      -3.773   1.520   0.363  0.00  0.00     0.036 A 
ATOM     21  C   UNL d   1      -2.734   0.718   0.839  0.00  0.00     0.032 A 
ATOM     22  C   UNL d   1      -2.909  -0.660   1.025  0.00  0.00     0.039 A 
ATOM     23  C   UNL d   1      -4.133  -1.259   0.743  0.00  0.00     0.069 A 
ATOM     24  C   UNL d   1      -5.205  -0.451   0.363  0.00  0.00     0.039 A 
ATOM     25  C   UNL d   1      -5.026   0.928   0.166  0.00  0.00     0.032 A 
BRANCH  23  26
ATOM     26  O   UNL d   1      -4.376  -2.607   0.829  0.00  0.00    -0.347 OA
BRANCH  26  27
ATOM     27  C   UNL d   1      -3.255  -3.430   0.475  0.00  0.00     0.214 C 
BRANCH  27  28
ATOM     28  C   UNL d   1      -3.625  -4.897   0.406  0.00  0.00    -0.034 A 
ATOM     29  C   UNL d   1      -2.928  -5.751  -0.469  0.00  0.00     0.009 A 
ATOM     30  C   UNL d   1      -3.183  -7.126  -0.479  0.00  0.00     0.001 A 
ATOM     31  C   UNL d   1      -4.128  -7.663   0.386  0.00  0.00     0.000 A 
ATOM     32  C   UNL d   1      -4.825  -6.829   1.260  0.00  0.00     0.001 A 
ATOM     33  C   UNL d   1      -4.571  -5.457   1.273  0.00  0.00     0.009 A 
ENDBRANCH  27  28
ENDBRANCH  26  27
ENDBRANCH  23  26
ENDBRANCH   3  20
TORSDOF 6
