REMARK  3 active torsions:
REMARK  status: ('A' for Active; 'I' for Inactive)
REMARK    1  A    between atoms: C_2  and  C_1 
REMARK    2  A    between atoms: O_4  and  C_1 
REMARK    3  A    between atoms: C_11  and  O_4 
ROOT
ATOM      1  C   UNL d   1       1.024   0.103  -0.130  0.00  0.00     0.298 C 
ATOM      2  O   UNL d   1       2.242   0.152  -0.160  0.00  0.00    -0.259 OA
ENDROOT
BRANCH   1   3
ATOM      3  C   UNL d   1       0.236  -0.834  -0.981  0.00  0.00     0.040 A 
ATOM      4  C   UNL d   1      -1.169  -0.887  -0.958  0.00  0.00     0.027 A 
ATOM      5  C   UNL d   1      -1.803  -1.820  -1.765  0.00  0.00    -0.022 A 
ATOM      6  C   UNL d   1      -3.248  -2.080  -1.960  0.00  0.00     0.068 C 
ATOM      7  C   UNL d   1      -1.077  -2.659  -2.597  0.00  0.00     0.075 A 
ATOM      8  C   UNL d   1      -3.151  -3.419  -2.695  0.00  0.00     0.180 C 
ATOM      9  O   UNL d   1      -1.856  -3.513  -3.332  0.00  0.00    -0.350 OA
ATOM     10  C   UNL d   1       0.298  -2.611  -2.663  0.00  0.00     0.038 A 
ATOM     11  C   UNL d   1       0.958  -1.697  -1.838  0.00  0.00     0.020 A 
ENDBRANCH   1   3
BRANCH   1  12
ATOM     12  O   UNL d   1       0.169   0.869   0.652  0.00  0.00    -0.275 OA
BRANCH  12  13
ATOM     13  C   UNL d   1       0.583   1.878   1.556  0.00  0.00     0.079 A 
ATOM     14  C   UNL d   1      -0.432   2.731   1.995  0.00  0.00     0.038 A 
ATOM     15  C   UNL d   1      -0.137   3.761   2.890  0.00  0.00     0.009 A 
ATOM     16  C   UNL d   1       1.170   3.941   3.357  0.00  0.00    -0.062 A 
ATOM     17  C   UNL d   1       2.176   3.074   2.915  0.00  0.00     0.009 A 
ATOM     18  C   UNL d   1       1.480   5.057   4.311  0.00  0.00     0.048 C 
ATOM     19  C   UNL d   1       1.885   2.037   2.023  0.00  0.00     0.038 A 
ENDBRANCH  12  13
ENDBRANCH   1  12
TORSDOF 3
