REMARK  3 active torsions:
REMARK  status: ('A' for Active; 'I' for Inactive)
REMARK    1  A    between atoms: C_2  and  C_1 
REMARK    2  A    between atoms: C_14  and  N_3 
REMARK    3  A    between atoms: C_13  and  C_8 
ROOT
ATOM      1  C   UNL d   1      -0.443  -2.741   0.009  0.00  0.00     0.056 A 
ATOM      2  C   UNL d   1       0.091  -3.559   0.989  0.00  0.00     0.073 A 
ATOM      3  N   UNL d   1      -1.198  -4.854  -0.388  0.00  0.00    -0.310 N 
ATOM      4  HN  UNL d   1      -1.678  -5.661  -0.786  1.00  0.00     0.186 HD
ATOM      5  N   UNL d   1      -0.392  -4.812   0.685  0.00  0.00    -0.299 N 
ATOM      6  C   UNL d   1      -1.220  -3.590  -0.808  0.00  0.00     0.124 A 
ATOM      7  H   UNL d   1      -0.238  -5.673   1.199  0.00  0.00     0.187 HD
ENDROOT
BRANCH   1   8
ATOM      8  C   UNL d   1      -0.228  -1.282  -0.174  0.00  0.00     0.152 C 
ATOM      9  N   UNL d   1      -1.095  -0.370  -0.753  0.00  0.00    -0.224 N 
ATOM     10  N   UNL d   1      -0.383   0.734  -1.077  0.00  0.00     0.001 NA
ATOM     11  N   UNL d   1       0.795   0.581  -0.490  0.00  0.00    -0.007 NA
ATOM     12  N   UNL d   1       0.896  -0.653   0.102  0.00  0.00    -0.269 N 
ATOM     13  HN  UNL d   1       1.681  -1.011   0.646  1.00  0.00     0.185 HD
BRANCH   9  14
ATOM     14  C   UNL d   1      -2.504  -0.407  -0.876  0.00  0.00     0.056 A 
ATOM     15  C   UNL d   1      -3.274  -1.184   0.005  0.00  0.00     0.031 A 
ATOM     16  C   UNL d   1      -4.664  -1.205  -0.114  0.00  0.00     0.002 A 
ATOM     17  C   UNL d   1      -5.289  -0.456  -1.107  0.00  0.00     0.000 A 
ATOM     18  C   UNL d   1      -4.529   0.335  -1.970  0.00  0.00     0.002 A 
ATOM     19  C   UNL d   1      -3.138   0.376  -1.847  0.00  0.00     0.031 A 
ENDBRANCH   9  14
ENDBRANCH   1   8
BRANCH   2  20
ATOM     20  C   UNL d   1       0.865  -3.300   2.202  0.00  0.00    -0.007 A 
ATOM     21  C   UNL d   1       0.594  -2.170   2.991  0.00  0.00     0.017 A 
ATOM     22  C   UNL d   1       1.293  -1.942   4.177  0.00  0.00     0.043 A 
ATOM     23  C   UNL d   1       2.261  -2.850   4.584  0.00  0.00     0.116 A 
ATOM     24  C   UNL d   1       2.546  -3.977   3.823  0.00  0.00     0.043 A 
ATOM     25  F   UNL d   1       2.924  -2.640   5.728  0.00  0.00    -0.206 F 
ATOM     26  C   UNL d   1       1.852  -4.201   2.631  0.00  0.00     0.017 A 
ENDBRANCH   2  20
TORSDOF 3
