REMARK  4 active torsions:
REMARK  status: ('A' for Active; 'I' for Inactive)
REMARK    1  A    between atoms: C_4  and  C_1 
REMARK    2  A    between atoms: C_5  and  C_1 
REMARK    3  A    between atoms: C_12  and  C_1 
REMARK    4  A    between atoms: N_9  and  C_8 
ROOT
ATOM      1  C   UNL d   1       0.968   0.118  -0.086  0.00  0.00     0.103 C 
ATOM      2  C   UNL d   1       0.404  -0.354   1.220  0.00  0.00     0.079 C 
ATOM      3  N   UNL d   1      -0.021  -0.737   2.234  0.00  0.00    -0.196 NA
ENDROOT
BRANCH   1   4
ATOM      4  C   UNL d   1       0.463   1.586  -0.289  0.00  0.00    -0.031 A 
ATOM      5  C   UNL d   1       1.326   2.695  -0.344  0.00  0.00     0.011 A 
ATOM      6  C   UNL d   1       0.838   3.994  -0.544  0.00  0.00     0.024 A 
ATOM      7  C   UNL d   1      -0.527   4.238  -0.669  0.00  0.00     0.005 A 
ATOM      8  C   UNL d   1      -1.393   3.145  -0.664  0.00  0.00     0.024 A 
ATOM      9  C   UNL d   1      -0.915   1.845  -0.444  0.00  0.00     0.011 A 
BRANCH   7  10
ATOM     10  N   UNL d   1      -0.982   5.510  -1.032  0.00  0.00    -0.303 NA
ATOM     11  H   UNL d   1      -1.964   5.672  -0.829  0.00  0.00     0.124 HD
ATOM     12  H   UNL d   1      -0.392   6.267  -0.701  0.00  0.00     0.124 HD
ENDBRANCH   7  10
ENDBRANCH   1   4
BRANCH   1  13
ATOM     13  C   UNL d   1       0.554  -0.811  -1.267  0.00  0.00    -0.031 A 
ATOM     14  C   UNL d   1       0.434  -0.319  -2.583  0.00  0.00     0.009 A 
ATOM     15  C   UNL d   1       0.139  -1.172  -3.653  0.00  0.00     0.001 A 
ATOM     16  C   UNL d   1      -0.009  -2.538  -3.441  0.00  0.00     0.000 A 
ATOM     17  C   UNL d   1       0.112  -3.053  -2.155  0.00  0.00     0.001 A 
ATOM     18  C   UNL d   1       0.375  -2.199  -1.079  0.00  0.00     0.009 A 
ENDBRANCH   1  13
BRANCH   1  19
ATOM     19  C   UNL d   1       2.536   0.068   0.026  0.00  0.00     0.030 C 
ATOM     20  C   UNL d   1       3.183  -1.297   0.267  0.00  0.00     0.007 C 
ENDBRANCH   1  19
TORSDOF 4
