REMARK  5 active torsions:
REMARK  status: ('A' for Active; 'I' for Inactive)
REMARK    1  A    between atoms: S_5  and  C_1 
REMARK    2  A    between atoms: C_8  and  C_4 
REMARK    3  A    between atoms: C_12  and  S_5 
REMARK    4  A    between atoms: O_13  and  C_8 
REMARK    5  A    between atoms: C_14  and  O_13 
ROOT
ATOM      1  C   UNL d   1      -0.360   1.083   0.067  0.00  0.00     0.203 A 
ATOM      2  N   UNL d   1      -1.200   0.062   0.035  0.00  0.00    -0.327 N 
ATOM      3  HN  UNL d   1      -2.219   0.103   0.022  1.00  0.00     0.168 HD
ATOM      4  C   UNL d   1      -0.404  -1.079   0.022  0.00  0.00     0.126 A 
ATOM      5  N   UNL d   1       0.941   0.648   0.097  0.00  0.00    -0.341 N 
ATOM      6  C   UNL d   1       0.928  -0.715   0.073  0.00  0.00     0.126 A 
ATOM      7  H   UNL d   1       1.749   1.257   0.104  0.00  0.00     0.167 HD
ENDROOT
BRANCH   1   8
ATOM      8  S   UNL d   1      -0.764   2.801   0.044  0.00  0.00     0.206 S 
ATOM      9  O   UNL d   1      -0.255   3.306   1.302  0.00  0.00    -0.220 OA
ATOM     10  O   UNL d   1      -0.247   3.272  -1.227  0.00  0.00    -0.220 OA
BRANCH   8  11
ATOM     11  C   UNL d   1      -2.543   2.848   0.038  0.00  0.00     0.144 C 
ATOM     12  C   UNL d   1      -3.047   4.277   0.039  0.00  0.00     0.021 C 
ENDBRANCH   8  11
ENDBRANCH   1   8
BRANCH   4  13
ATOM     13  C   UNL d   1      -0.904  -2.448  -0.102  0.00  0.00     0.311 C 
ATOM     14  O   UNL d   1      -0.166  -3.425  -0.173  0.00  0.00    -0.258 OA
BRANCH  13  15
ATOM     15  O   UNL d   1      -2.264  -2.495  -0.211  0.00  0.00    -0.317 OA
BRANCH  15  16
ATOM     16  C   UNL d   1      -2.799  -3.732  -0.698  0.00  0.00     0.175 C 
ATOM     17  C   UNL d   1      -2.841  -3.671  -2.215  0.00  0.00     0.034 C 
ENDBRANCH  15  16
ENDBRANCH  13  15
ENDBRANCH   4  13
TORSDOF 5
