REMARK  9 active torsions:
REMARK  status: ('A' for Active; 'I' for Inactive)
REMARK    1  A    between atoms: C_13  and  C_2 
REMARK    2  A    between atoms: S_12  and  C_5 
REMARK    3  A    between atoms: C_8  and  O_14 
REMARK    4  A    between atoms: C_15  and  C_8 
REMARK    5  A    between atoms: C_9  and  C_19 
REMARK    6  A    between atoms: N_27  and  C_9 
REMARK    7  A    between atoms: O_14  and  N_10 
REMARK    8  A    between atoms: C_19  and  S_12 
REMARK    9  A    between atoms: C_16  and  C_17 
ROOT
ATOM      1  N   UNL d   1       7.251  -5.740  -0.423  0.00  0.00    -0.315 N 
ATOM      2  C   UNL d   1       8.438  -6.449  -0.347  0.00  0.00     0.134 A 
ATOM      3  N   UNL d   1       8.131  -7.739  -0.354  0.00  0.00    -0.283 N 
ATOM      4  HN  UNL d   1       8.803  -8.506  -0.366  1.00  0.00     0.188 HD
ATOM      5  C   UNL d   1       6.246  -6.673  -0.360  0.00  0.00     0.163 A 
ATOM      6  N   UNL d   1       6.763  -7.877  -0.344  0.00  0.00    -0.278 N 
ATOM      7  HN  UNL d   1       6.245  -8.755  -0.326  1.00  0.00     0.189 HD
ATOM      8  C   UNL d   1       7.073  -4.322  -0.604  0.00  0.00     0.160 C 
ENDROOT
BRANCH   5   9
ATOM      9  S   UNL d   1       4.561  -6.271  -0.268  0.00  0.00    -0.085 SA
BRANCH   9  10
ATOM     10  C   UNL d   1       3.796  -7.919  -0.359  0.00  0.00     0.160 C 
BRANCH  10  11
ATOM     11  C   UNL d   1       2.265  -7.806  -0.291  0.00  0.00     0.105 C 
ATOM     12  N   UNL d   1       1.650  -7.262  -1.298  0.00  0.00    -0.245 N 
ATOM     13  HN  UNL d   1       2.128  -6.883  -2.115  1.00  0.00     0.196 HD
BRANCH  12  14
ATOM     14  O   UNL d   1       0.240  -7.252  -1.135  0.00  0.00    -0.193 OA
BRANCH  14  15
ATOM     15  C   UNL d   1      -0.327  -6.595  -2.194  0.00  0.00     0.315 C 
ATOM     16  O   UNL d   1       0.256  -6.017  -3.107  0.00  0.00    -0.257 OA
BRANCH  15  17
ATOM     17  C   UNL d   1      -1.817  -6.636  -2.135  0.00  0.00     0.041 A 
ATOM     18  C   UNL d   1      -2.527  -5.937  -3.129  0.00  0.00     0.019 A 
ATOM     19  C   UNL d   1      -3.926  -5.942  -3.151  0.00  0.00     0.025 A 
ATOM     20  C   UNL d   1      -4.627  -6.645  -2.176  0.00  0.00     0.034 A 
ATOM     21  C   UNL d   1      -3.939  -7.342  -1.181  0.00  0.00     0.025 A 
ATOM     22 CL   UNL d   1      -6.347  -6.656  -2.201  0.00  0.00    -0.084 Cl
ATOM     23  C   UNL d   1      -2.537  -7.341  -1.159  0.00  0.00     0.019 A 
ENDBRANCH  15  17
ENDBRANCH  14  15
ENDBRANCH  12  14
BRANCH  11  24
ATOM     24  N   UNL d   1       1.628  -8.303   0.824  0.00  0.00    -0.387 N 
ATOM     25  H   UNL d   1       2.161  -8.360   1.685  0.00  0.00     0.157 HD
ATOM     26  H   UNL d   1       0.678  -7.970   0.941  0.00  0.00     0.157 HD
ENDBRANCH  11  24
ENDBRANCH  10  11
ENDBRANCH   9  10
ENDBRANCH   5   9
BRANCH   2  27
ATOM     27  C   UNL d   1       9.810  -5.915  -0.308  0.00  0.00     0.009 A 
ATOM     28  C   UNL d   1      10.152  -4.742   0.369  0.00  0.00     0.016 A 
ATOM     29  C   UNL d   1      11.465  -4.244   0.342  0.00  0.00     0.009 A 
ATOM     30  C   UNL d   1      12.499  -4.920  -0.329  0.00  0.00    -0.051 A 
ATOM     31  C   UNL d   1      12.161  -6.132  -0.950  0.00  0.00     0.009 A 
ATOM     32  C   UNL d   1      10.843  -6.618  -0.940  0.00  0.00     0.016 A 
BRANCH  30  33
ATOM     33  C   UNL d   1      13.921  -4.326  -0.370  0.00  0.00    -0.024 C 
ATOM     34  C   UNL d   1      14.947  -5.219  -1.103  0.00  0.00     0.019 C 
ATOM     35  C   UNL d   1      13.889  -2.968  -1.108  0.00  0.00     0.019 C 
ATOM     36  C   UNL d   1      14.454  -4.102   1.061  0.00  0.00     0.019 C 
ENDBRANCH  30  33
ENDBRANCH   2  27
TORSDOF 9
