REMARK  4 active torsions:
REMARK  status: ('A' for Active; 'I' for Inactive)
REMARK    1  A    between atoms: C_4  and  N_1 
REMARK    2  A    between atoms: N_5  and  C_2 
REMARK    3  A    between atoms: C_3  and  C_7 
REMARK       I    between atoms: C_6  and  N_5 
REMARK    4  A    between atoms: C_16  and  C_6 
ROOT
ATOM      1  C   UNL d   1       4.735   0.900   0.389  0.00  0.00     0.062 A 
ATOM      2  C   UNL d   1       3.413   1.288   0.749  0.00  0.00     0.057 A 
ATOM      3  C   UNL d   1       5.747   2.643   1.780  0.00  0.00     0.050 A 
ATOM      4  C   UNL d   1       5.868   1.564   0.905  0.00  0.00     0.048 A 
ATOM      5  C   UNL d   1       3.335   2.379   1.640  0.00  0.00     0.032 A 
ATOM      6  C   UNL d   1       4.465   3.045   2.142  0.00  0.00     0.018 A 
ENDROOT
BRANCH   2   7
ATOM      7  N   UNL d   1       2.258   0.623   0.288  0.00  0.00    -0.374 N 
ATOM      8  C   UNL d   1       2.206  -0.857   0.367  0.00  0.00     0.162 C 
ATOM      9  C   UNL d   1       1.025  -1.394  -0.419  0.00  0.00    -0.034 A 
ATOM     10  C   UNL d   1       1.127  -2.442  -1.338  0.00  0.00     0.009 A 
ATOM     11  C   UNL d   1      -0.228  -0.810  -0.180  0.00  0.00    -0.049 A 
ATOM     12  C   UNL d   1      -0.017  -2.912  -1.988  0.00  0.00     0.001 A 
ATOM     13  C   UNL d   1      -1.267  -2.355  -1.706  0.00  0.00     0.001 A 
ATOM     14  C   UNL d   1      -1.376  -1.303  -0.799  0.00  0.00     0.008 A 
ATOM     15  C   UNL d   1      -0.233   0.380   0.736  0.00  0.00     0.059 C 
ATOM     16  C   UNL d   1       0.929   1.310   0.341  0.00  0.00     0.128 C 
ENDBRANCH   2   7
BRANCH   1  17
ATOM     17  N   UNL d   1       4.953  -0.116  -0.571  0.00  0.00    -0.325 N 
ATOM     18  C   UNL d   1       5.880  -1.134  -0.376  0.00  0.00     0.226 C 
ATOM     19  O   UNL d   1       6.677  -1.161   0.568  0.00  0.00    -0.273 OA
ATOM     20  H   UNL d   1       4.185  -0.270  -1.214  0.00  0.00     0.169 HD
BRANCH  18  21
ATOM     21  C   UNL d   1       5.788  -2.311  -1.363  0.00  0.00     0.078 C 
ATOM     22  C   UNL d   1       7.129  -2.765  -2.007  0.00  0.00     0.014 C 
ATOM     23  C   UNL d   1       6.311  -3.182  -3.241  0.00  0.00     0.002 C 
ATOM     24  C   UNL d   1       5.271  -2.127  -2.812  0.00  0.00     0.014 C 
ENDBRANCH  18  21
ENDBRANCH   1  17
BRANCH   3  25
ATOM     25  C   UNL d   1       6.954   3.365   2.315  0.00  0.00     0.417 C 
ATOM     26  F   UNL d   1       8.142   2.876   1.863  0.00  0.00    -0.166 F 
ATOM     27  F   UNL d   1       6.951   4.689   1.986  0.00  0.00    -0.166 F 
ATOM     28  F   UNL d   1       7.025   3.325   3.675  0.00  0.00    -0.166 F 
ENDBRANCH   3  25
TORSDOF 4
