REMARK  3 active torsions:
REMARK  status: ('A' for Active; 'I' for Inactive)
REMARK    1  A    between atoms: C_3  and  C_1 
REMARK    2  A    between atoms: C_2  and  N_7 
REMARK       I    between atoms: N_7  and  C_3 
REMARK    3  A    between atoms: C_16  and  C_8 
ROOT
ATOM      1  C   UNL d   1       1.045  -0.145   0.054  0.00  0.00     0.113 C 
ATOM      2  C   UNL d   1       0.313   0.023  -1.065  0.00  0.00     0.039 C 
ATOM      3  C   UNL d   1       0.459  -0.310   1.336  0.00  0.00     0.105 C 
ATOM      4  N   UNL d   1       0.050  -0.451   2.413  0.00  0.00    -0.191 NA
ENDROOT
BRANCH   1   5
ATOM      5  C   UNL d   1       2.543  -0.070  -0.097  0.00  0.00     0.267 C 
ATOM      6  N   UNL d   1       3.259  -0.060   1.085  0.00  0.00    -0.307 N 
ATOM      7  H   UNL d   1       2.805  -0.195   1.980  0.00  0.00     0.170 HD
ATOM      8  O   UNL d   1       3.028  -0.007  -1.224  0.00  0.00    -0.266 OA
BRANCH   6   9
ATOM      9  C   UNL d   1       4.613   0.232   1.155  0.00  0.00     0.130 A 
ATOM     10  N   UNL d   1       5.395   0.562   0.124  0.00  0.00    -0.245 N 
ATOM     11  O   UNL d   1       6.637   0.849   0.646  0.00  0.00    -0.241 OA
ATOM     12  HN  UNL d   1       5.125   0.596  -0.859  1.00  0.00     0.196 HD
ATOM     13  C   UNL d   1       6.607   0.686   1.994  0.00  0.00     0.076 A 
ATOM     14  C   UNL d   1       5.352   0.271   2.365  0.00  0.00     0.084 A 
ATOM     15  C   UNL d   1       7.856   0.995   2.712  0.00  0.00     0.079 C 
ENDBRANCH   6   9
ENDBRANCH   1   5
BRANCH   2  16
ATOM     16  C   UNL d   1      -1.149   0.112  -1.125  0.00  0.00    -0.035 A 
ATOM     17  C   UNL d   1      -1.733   1.356  -1.391  0.00  0.00     0.013 A 
ATOM     18  C   UNL d   1      -3.123   1.484  -1.463  0.00  0.00     0.023 A 
ATOM     19  C   UNL d   1      -3.938   0.364  -1.274  0.00  0.00     0.044 A 
ATOM     20  C   UNL d   1      -5.366   0.495  -1.352  0.00  0.00     0.099 C 
ATOM     21  C   UNL d   1      -3.357  -0.881  -1.014  0.00  0.00     0.023 A 
ATOM     22  N   UNL d   1      -6.518   0.605  -1.418  0.00  0.00    -0.191 NA
ATOM     23  C   UNL d   1      -1.965  -1.008  -0.941  0.00  0.00     0.013 A 
ENDBRANCH   2  16
TORSDOF 3
