REMARK  4 active torsions:
REMARK  status: ('A' for Active; 'I' for Inactive)
REMARK    1  A    between atoms: C_6  and  S_1 
REMARK    2  A    between atoms: C_16  and  S_1 
REMARK    3  A    between atoms: N_2  and  C_3 
REMARK    4  A    between atoms: N_19  and  C_9 
ROOT
ATOM      1  C   UNL d   1      -0.518   4.307  -0.306  0.00  0.00     0.704 A 
ATOM      2  N   UNL d   1      -1.458   3.352  -0.170  0.00  0.00    -0.178 N 
ATOM      3  HN  UNL d   1      -2.446   3.596  -0.096  1.00  0.00     0.185 HD
ATOM      4  C   UNL d   1       0.261   1.705  -0.254  0.00  0.00     0.114 A 
ATOM      5  C   UNL d   1      -1.060   2.065  -0.134  0.00  0.00     0.117 A 
ATOM      6  N   UNL d   1       0.796   4.028  -0.419  0.00  0.00    -0.198 N 
ATOM      7  HN  UNL d   1       1.488   4.769  -0.533  1.00  0.00     0.183 HD
ATOM      8  C   UNL d   1       1.161   2.729  -0.375  0.00  0.00     0.133 A 
ENDROOT
BRANCH   1   9
ATOM      9  N   UNL d   1      -0.945   5.692  -0.308  0.00  0.00    -0.091 N 
ATOM     10  N   UNL d   1      -2.251   6.015  -0.034  0.00  0.00    -0.284 N 
ATOM     11  C   UNL d   1      -2.288   7.348  -0.002  0.00  0.00     0.025 A 
ATOM     12  HN  UNL d   1      -3.029   5.371   0.113  1.00  0.00     0.188 HD
ATOM     13  C   UNL d   1      -3.546   8.068   0.321  0.00  0.00     0.070 C 
ATOM     14  C   UNL d   1      -1.037   7.905  -0.315  0.00  0.00     0.053 A 
ATOM     15  C   UNL d   1      -0.193   6.836  -0.543  0.00  0.00     0.050 A 
ATOM     16  C   UNL d   1       1.227   6.877  -0.986  0.00  0.00     0.071 C 
ENDBRANCH   1   9
BRANCH   5  17
ATOM     17  N   UNL d   1      -2.112   1.169  -0.039  0.00  0.00    -0.287 NA
ATOM     18  H   UNL d   1      -2.962   1.718   0.094  0.00  0.00     0.125 HD
ATOM     19  H   UNL d   1      -1.974   0.498   0.721  0.00  0.00     0.125 HD
ENDBRANCH   5  17
BRANCH   4  20
ATOM     20  S   UNL d   1       0.839   0.054  -0.060  0.00  0.00     0.187 S 
ATOM     21  O   UNL d   1      -0.078  -0.612   0.850  0.00  0.00    -0.222 OA
ATOM     22  O   UNL d   1       2.239   0.169   0.318  0.00  0.00    -0.222 OA
BRANCH  20  23
ATOM     23  C   UNL d   1       0.774  -0.760  -1.689  0.00  0.00     0.058 C 
ATOM     24  C   UNL d   1       1.679  -0.016  -2.679  0.00  0.00     0.031 C 
ATOM     25  C   UNL d   1       1.296  -2.207  -1.557  0.00  0.00     0.031 C 
ATOM     26  C   UNL d   1      -0.662  -0.811  -2.221  0.00  0.00     0.031 C 
ENDBRANCH  20  23
ENDBRANCH   4  20
TORSDOF 4
