REMARK  3 active torsions:
REMARK  status: ('A' for Active; 'I' for Inactive)
REMARK    1  A    between atoms: C_3  and  C_1 
REMARK    2  A    between atoms: C_4  and  C_3 
REMARK    3  A    between atoms: C_8  and  C_4 
ROOT
ATOM      1  C   UNL d   1       0.764   3.634  -0.074  0.00  0.00     0.012 C 
ENDROOT
BRANCH   1   2
ATOM      2  C   UNL d   1      -0.147   2.647  -0.066  0.00  0.00     0.019 C 
BRANCH   2   3
ATOM      3  C   UNL d   1       0.222   1.268  -0.061  0.00  0.00     0.004 A 
ATOM      4  S   UNL d   1      -1.031   0.077  -0.041  0.00  0.00    -0.102 SA
ATOM      5  C   UNL d   1       0.083  -1.215  -0.011  0.00  0.00     0.050 A 
ATOM      6  C   UNL d   1       1.384  -0.773  -0.021  0.00  0.00     0.008 A 
ATOM      7  C   UNL d   1       1.463   0.650  -0.050  0.00  0.00     0.019 A 
ENDBRANCH   2   3
ENDBRANCH   1   2
BRANCH   1   8
ATOM      8  C   UNL d   1       0.444   5.070  -0.014  0.00  0.00    -0.036 A 
ATOM      9  C   UNL d   1      -0.686   5.562   0.653  0.00  0.00     0.011 A 
ATOM     10  C   UNL d   1      -0.915   6.937   0.750  0.00  0.00     0.001 A 
ATOM     11  C   UNL d   1      -0.012   7.837   0.192  0.00  0.00     0.000 A 
ATOM     12  C   UNL d   1       1.121   7.364  -0.466  0.00  0.00     0.001 A 
ATOM     13  C   UNL d   1       1.349   5.988  -0.565  0.00  0.00     0.011 A 
ENDBRANCH   1   8
TORSDOF 3
