REMARK  6 active torsions:
REMARK  status: ('A' for Active; 'I' for Inactive)
REMARK    1  A    between atoms: C_8  and  C_1 
REMARK       I    between atoms: N_16  and  C_8 
REMARK    2  A    between atoms: C_13  and  C_9 
REMARK    3  A    between atoms: C_10  and  N_17 
REMARK    4  A    between atoms: C_18  and  C_11 
REMARK    5  A    between atoms: C_20  and  C_12 
REMARK    6  A    between atoms: O_30  and  C_18 
ROOT
ATOM      1  C   UNL d   1      -0.217  -2.842  -0.113  0.00  0.00     0.272 C 
ATOM      2  N   UNL d   1       0.883  -3.698   0.059  0.00  0.00    -0.345 N 
ATOM      3  N   UNL d   1       1.949  -6.396   0.768  0.00  0.00    -0.216 N 
ATOM      4  O   UNL d   1      -0.457  -1.951   0.699  0.00  0.00    -0.266 OA
ATOM      5  C   UNL d   1       1.366  -4.690  -0.919  0.00  0.00     0.146 C 
ATOM      6  C   UNL d   1       1.162  -6.133  -0.435  0.00  0.00     0.161 C 
ATOM      7  C   UNL d   1       1.381  -4.552   2.377  0.00  0.00     0.040 C 
ATOM      8  C   UNL d   1       1.712  -3.566   1.258  0.00  0.00     0.128 C 
ATOM      9  C   UNL d   1       1.365  -6.049   2.054  0.00  0.00     0.143 C 
ENDROOT
BRANCH   3  10
ATOM     10  C   UNL d   1       3.177  -6.995   0.659  0.00  0.00     0.680 A 
ATOM     11  N   UNL d   1       3.902  -7.239   1.758  0.00  0.00    -0.185 N 
ATOM     12  C   UNL d   1       5.105  -7.899   1.659  0.00  0.00     0.150 A 
ATOM     13  HN  UNL d   1       3.563  -6.934   2.671  1.00  0.00     0.184 HD
ATOM     14  C   UNL d   1       5.597  -8.317   0.435  0.00  0.00     0.087 A 
ATOM     15  C   UNL d   1       4.792  -8.006  -0.640  0.00  0.00     0.126 A 
ATOM     16  N   UNL d   1       3.614  -7.352  -0.553  0.00  0.00    -0.201 N 
ATOM     17  HN  UNL d   1       3.071  -7.137  -1.389  1.00  0.00     0.183 HD
BRANCH  12  18
ATOM     18  C   UNL d   1       5.836  -8.152   2.962  0.00  0.00     0.434 C 
ATOM     19  F   UNL d   1       5.166  -7.678   4.056  0.00  0.00    -0.165 F 
ATOM     20  F   UNL d   1       6.030  -9.477   3.221  0.00  0.00    -0.165 F 
ATOM     21  F   UNL d   1       7.060  -7.553   3.021  0.00  0.00    -0.165 F 
ENDBRANCH  12  18
BRANCH  14  22
ATOM     22  C   UNL d   1       6.846  -9.046   0.126  0.00  0.00     0.296 C 
ATOM     23  O   UNL d   1       7.126  -9.407  -1.006  0.00  0.00    -0.259 OA
BRANCH  22  24
ATOM     24  O   UNL d   1       7.615  -9.236   1.214  0.00  0.00    -0.322 OA
ATOM     25  C   UNL d   1       8.851  -9.910   0.955  0.00  0.00     0.213 C 
ENDBRANCH  22  24
ENDBRANCH  14  22
ENDBRANCH   3  10
BRANCH   1  26
ATOM     26  C   UNL d   1      -1.055  -3.026  -1.280  0.00  0.00     0.120 C 
ATOM     27  N   UNL d   1      -1.572  -2.024  -2.069  0.00  0.00    -0.291 N 
ATOM     28  N   UNL d   1      -2.206  -2.483  -3.172  0.00  0.00    -0.302 N 
ATOM     29  C   UNL d   1      -1.491  -0.593  -1.892  0.00  0.00     0.178 C 
ATOM     30  C   UNL d   1      -2.221  -3.811  -3.025  0.00  0.00     0.036 C 
ATOM     31  HN  UNL d   1      -2.588  -1.937  -3.944  1.00  0.00     0.186 HD
ATOM     32  C   UNL d   1      -1.588  -4.183  -1.818  0.00  0.00     0.064 C 
BRANCH  30  33
ATOM     33  C   UNL d   1      -2.821  -4.743  -4.063  0.00  0.00    -0.007 C 
ATOM     34  C   UNL d   1      -3.886  -5.641  -3.404  0.00  0.00     0.021 C 
ATOM     35  C   UNL d   1      -3.485  -3.982  -5.228  0.00  0.00     0.021 C 
ATOM     36  C   UNL d   1      -1.709  -5.638  -4.653  0.00  0.00     0.021 C 
ENDBRANCH  30  33
ENDBRANCH   1  26
TORSDOF 6
