REMARK  6 active torsions:
REMARK  status: ('A' for Active; 'I' for Inactive)
REMARK    1  A    between atoms: N_2  and  C_1 
REMARK    2  A    between atoms: N_3  and  C_6 
REMARK    3  A    between atoms: C_5  and  C_8 
REMARK    4  A    between atoms: O_20  and  C_7 
REMARK    5  A    between atoms: N_11  and  O_20 
REMARK    6  A    between atoms: C_24  and  C_23 
ROOT
ATOM      1  N   UNL d   1       3.023   2.014  -0.779  0.00  0.00    -0.271 N 
ATOM      2  HN  UNL d   1       3.233   1.133  -1.250  1.00  0.00     0.194 HD
ATOM      3  C   UNL d   1       3.883   2.940  -0.508  0.00  0.00     0.125 C 
ENDROOT
BRANCH   1   4
ATOM      4  O   UNL d   1       1.758   2.406  -0.326  0.00  0.00    -0.236 OA
BRANCH   4   5
ATOM      5  C   UNL d   1       0.767   1.705  -0.977  0.00  0.00     0.132 A 
ATOM      6  C   UNL d   1      -0.548   2.201  -0.987  0.00  0.00     0.141 A 
ATOM      7  C   UNL d   1      -1.569   1.505  -1.667  0.00  0.00     0.075 A 
ATOM      8  C   UNL d   1      -1.262   0.318  -2.347  0.00  0.00     0.105 A 
ATOM      9  C   UNL d   1       0.040  -0.189  -2.340  0.00  0.00     0.039 A 
ATOM     10  C   UNL d   1       1.039   0.498  -1.646  0.00  0.00     0.044 A 
BRANCH   6  11
ATOM     11  N   UNL d   1      -0.903   3.472  -0.329  0.00  0.00    -0.113 N 
ATOM     12  O   UNL d   1      -2.042   3.914  -0.537  0.00  0.00    -0.532 OA
ATOM     13  O   UNL d   1      -0.068   4.032   0.392  0.00  0.00    -0.532 OA
ENDBRANCH   6  11
BRANCH   8  14
ATOM     14  N   UNL d   1      -2.311  -0.401  -3.079  0.00  0.00    -0.116 N 
ATOM     15  O   UNL d   1      -3.457   0.066  -3.048  0.00  0.00    -0.532 OA
ATOM     16  O   UNL d   1      -1.988  -1.433  -3.685  0.00  0.00    -0.532 OA
ENDBRANCH   8  14
ENDBRANCH   4   5
ENDBRANCH   1   4
BRANCH   3  17
ATOM     17  C   UNL d   1       5.296   2.810  -0.911  0.00  0.00    -0.019 A 
ATOM     18  C   UNL d   1       5.764   1.632  -1.502  0.00  0.00     0.013 A 
ATOM     19  C   UNL d   1       7.095   1.539  -1.914  0.00  0.00     0.017 A 
ATOM     20  C   UNL d   1       7.970   2.622  -1.742  0.00  0.00     0.048 A 
ATOM     21  C   UNL d   1       7.488   3.797  -1.138  0.00  0.00     0.017 A 
ATOM     22  C   UNL d   1       6.157   3.892  -0.723  0.00  0.00     0.013 A 
BRANCH  20  23
ATOM     23  C   UNL d   1       9.406   2.543  -2.205  0.00  0.00     0.417 C 
ATOM     24  F   UNL d   1       9.730   1.348  -2.772  0.00  0.00    -0.166 F 
ATOM     25  F   UNL d   1       9.702   3.490  -3.138  0.00  0.00    -0.166 F 
ATOM     26  F   UNL d   1      10.292   2.728  -1.189  0.00  0.00    -0.166 F 
ENDBRANCH  20  23
ENDBRANCH   3  17
TORSDOF 6
