REMARK  8 active torsions:
REMARK  status: ('A' for Active; 'I' for Inactive)
REMARK    1  A    between atoms: C_3  and  S_1 
REMARK    2  A    between atoms: C_4  and  S_1 
REMARK    3  A    between atoms: S_2  and  C_3 
REMARK    4  A    between atoms: C_5  and  S_2 
REMARK    5  A    between atoms: C_6  and  C_4 
REMARK    6  A    between atoms: C_7  and  C_5 
REMARK       I    between atoms: N_15  and  C_6 
REMARK       I    between atoms: N_14  and  C_7 
REMARK    7  A    between atoms: N_17  and  N_14 
REMARK    8  A    between atoms: N_16  and  N_15 
ROOT
ATOM      1  C   UNL d   1       0.533   0.181   1.568  0.00  0.00     0.281 C 
ENDROOT
BRANCH   1   2
ATOM      2  S   UNL d   1       1.041  -1.132   2.635  0.00  0.00     0.166 S 
ATOM      3  O   UNL d   1       0.644  -0.785   3.987  0.00  0.00    -0.227 OA
ATOM      4  O   UNL d   1       0.537  -2.373   2.067  0.00  0.00    -0.227 OA
BRANCH   2   5
ATOM      5  C   UNL d   1       2.806  -1.274   2.629  0.00  0.00     0.245 C 
BRANCH   5   6
ATOM      6  C   UNL d   1       3.480  -0.013   3.067  0.00  0.00     0.245 C 
ATOM      7  O   UNL d   1       3.063   1.113   2.817  0.00  0.00    -0.271 OA
ATOM      8  N   UNL d   1       4.690  -0.236   3.725  0.00  0.00    -0.293 N 
ATOM      9  H   UNL d   1       4.929  -1.161   4.078  0.00  0.00     0.183 HD
BRANCH   8  10
ATOM     10  N   UNL d   1       5.405   0.869   4.233  0.00  0.00    -0.247 NA
ATOM     11  H   UNL d   1       4.840   1.712   4.052  0.00  0.00     0.143 HD
ATOM     12  H   UNL d   1       6.242   1.003   3.659  0.00  0.00     0.143 HD
ENDBRANCH   8  10
ENDBRANCH   5   6
ENDBRANCH   2   5
ENDBRANCH   1   2
BRANCH   1  13
ATOM     13  S   UNL d   1       0.992  -0.033  -0.123  0.00  0.00     0.166 S 
ATOM     14  O   UNL d   1       2.432  -0.232  -0.161  0.00  0.00    -0.227 OA
ATOM     15  O   UNL d   1       0.433   1.074  -0.881  0.00  0.00    -0.227 OA
BRANCH  13  16
ATOM     16  C   UNL d   1       0.278  -1.520  -0.772  0.00  0.00     0.245 C 
BRANCH  16  17
ATOM     17  C   UNL d   1      -1.209  -1.552  -0.638  0.00  0.00     0.245 C 
ATOM     18  O   UNL d   1      -1.838  -0.980   0.248  0.00  0.00    -0.271 OA
ATOM     19  N   UNL d   1      -1.827  -2.366  -1.585  0.00  0.00    -0.293 N 
ATOM     20  H   UNL d   1      -1.320  -2.699  -2.404  0.00  0.00     0.183 HD
BRANCH  19  21
ATOM     21  N   UNL d   1      -3.233  -2.469  -1.589  0.00  0.00    -0.247 NA
ATOM     22  H   UNL d   1      -3.596  -1.741  -0.956  0.00  0.00     0.143 HD
ATOM     23  H   UNL d   1      -3.490  -3.345  -1.123  0.00  0.00     0.143 HD
ENDBRANCH  19  21
ENDBRANCH  16  17
ENDBRANCH  13  16
ENDBRANCH   1  13
TORSDOF 8
