REMARK  2 active torsions:
REMARK  status: ('A' for Active; 'I' for Inactive)
REMARK    1  A    between atoms: C_12  and  C_6 
REMARK    2  A    between atoms: O_14  and  C_7 
ROOT
ATOM      1  C   UNL d   1       0.199  -0.799   0.048  0.00  0.00     0.149 A 
ATOM      2  N   UNL d   1       0.266   0.587   0.003  0.00  0.00    -0.216 N 
ATOM      3  C   UNL d   1       1.507  -1.215   0.078  0.00  0.00     0.085 A 
ATOM      4  N   UNL d   1       1.541   1.051  -0.025  0.00  0.00    -0.288 N 
ATOM      5  HN  UNL d   1       1.846   2.024  -0.050  1.00  0.00     0.188 HD
ATOM      6  C   UNL d   1       2.318  -0.051  -0.011  0.00  0.00     0.080 A 
ATOM      7  C   UNL d   1      -0.903   1.361  -0.005  0.00  0.00     0.165 A 
ATOM      8  N   UNL d   1      -0.997  -1.466   0.062  0.00  0.00    -0.344 N 
ATOM      9  HN  UNL d   1      -1.041  -2.484   0.091  1.00  0.00     0.167 HD
ATOM     10  C   UNL d   1      -2.100   0.760   0.011  0.00  0.00     0.082 A 
ATOM     11  C   UNL d   1      -2.076  -0.737   0.035  0.00  0.00     0.011 A 
ATOM     12 BR   UNL d   1       2.057  -3.004   0.247  0.00  0.00    -0.044 Br
ATOM     13  C   UNL d   1      -3.405  -1.449   0.021  0.00  0.00     0.068 C 
ENDROOT
BRANCH   6  14
ATOM     14  C   UNL d   1       3.779   0.087  -0.076  0.00  0.00    -0.007 A 
ATOM     15  C   UNL d   1       4.579  -0.846  -0.752  0.00  0.00     0.014 A 
ATOM     16  C   UNL d   1       5.968  -0.697  -0.800  0.00  0.00     0.001 A 
ATOM     17  C   UNL d   1       6.577   0.401  -0.200  0.00  0.00     0.000 A 
ATOM     18  C   UNL d   1       5.796   1.354   0.449  0.00  0.00     0.001 A 
ATOM     19  C   UNL d   1       4.409   1.197   0.512  0.00  0.00     0.014 A 
ENDBRANCH   6  14
BRANCH   7  20
ATOM     20  O   UNL d   1      -0.801   2.743  -0.024  0.00  0.00    -0.345 OA
ATOM     21  H   UNL d   1       0.162   2.935  -0.029  0.00  0.00     0.219 HD
ENDBRANCH   7  20
TORSDOF 2
