REMARK  8 active torsions:
REMARK  status: ('A' for Active; 'I' for Inactive)
REMARK    1  A    between atoms: C_6  and  N_1 
REMARK    2  A    between atoms: C_11  and  C_2 
REMARK    3  A    between atoms: C_8  and  C_3 
REMARK    4  A    between atoms: O_24  and  C_8 
REMARK    5  A    between atoms: C_10  and  N_18 
REMARK    6  A    between atoms: N_16  and  C_10 
REMARK    7  A    between atoms: N_18  and  N_12 
REMARK    8  A    between atoms: C_22  and  N_16 
ROOT
ATOM      1  N   UNL d   1       0.361  -0.516   0.176  0.00  0.00    -0.251 N 
ATOM      2  C   UNL d   1       0.819   0.805   0.172  0.00  0.00     0.091 C 
ATOM      3  C   UNL d   1      -0.333   1.581   0.021  0.00  0.00     0.086 C 
ATOM      4  N   UNL d   1      -0.890  -0.590  -0.355  0.00  0.00    -0.303 N 
ATOM      5  HN  UNL d   1      -1.370  -1.414  -0.717  1.00  0.00     0.186 HD
ATOM      6  C   UNL d   1      -1.343   0.657  -0.294  0.00  0.00     0.127 C 
ENDROOT
BRANCH   2   7
ATOM      7  C   UNL d   1       2.187   1.211   0.348  0.00  0.00     0.139 C 
ATOM      8  N   UNL d   1       2.484   2.306   0.971  0.00  0.00    -0.307 N 
ATOM      9  HN  UNL d   1       1.763   2.926   1.339  1.00  0.00     0.186 HD
BRANCH   8  10
ATOM     10  N   UNL d   1       3.818   2.589   1.111  0.00  0.00    -0.276 N 
ATOM     11  H   UNL d   1       4.495   2.037   0.596  0.00  0.00     0.189 HD
BRANCH  10  12
ATOM     12  C   UNL d   1       4.238   3.771   1.672  0.00  0.00     0.191 C 
ATOM     13  S   UNL d   1       3.242   5.029   2.162  0.00  0.00    -0.039 SA
BRANCH  12  14
ATOM     14  N   UNL d   1       5.584   3.981   1.796  0.00  0.00    -0.332 N 
ATOM     15  H   UNL d   1       5.791   4.959   1.976  0.00  0.00     0.168 HD
BRANCH  14  16
ATOM     16  C   UNL d   1       6.678   3.106   1.939  0.00  0.00     0.034 A 
ATOM     17  C   UNL d   1       7.953   3.691   1.932  0.00  0.00     0.031 A 
ATOM     18  C   UNL d   1       9.098   2.922   2.158  0.00  0.00     0.026 A 
ATOM     19  C   UNL d   1       8.973   1.560   2.401  0.00  0.00     0.034 A 
ATOM     20  C   UNL d   1       7.713   0.964   2.414  0.00  0.00     0.026 A 
ATOM     21 CL   UNL d   1      10.374   0.614   2.716  0.00  0.00    -0.084 Cl
ATOM     22  C   UNL d   1       6.565   1.736   2.189  0.00  0.00     0.031 A 
ENDBRANCH  14  16
ENDBRANCH  12  14
ENDBRANCH  10  12
ENDBRANCH   8  10
ENDBRANCH   2   7
BRANCH   1  23
ATOM     23  C   UNL d   1       0.904  -1.719   0.729  0.00  0.00     0.095 A 
ATOM     24  C   UNL d   1       1.978  -1.738   1.623  0.00  0.00     0.147 A 
ATOM     25  C   UNL d   1       2.363  -2.917   2.262  0.00  0.00     0.087 A 
ATOM     26  F   UNL d   1       2.647  -0.632   1.964  0.00  0.00    -0.203 F 
ATOM     27  C   UNL d   1       1.670  -4.092   2.011  0.00  0.00     0.119 A 
ATOM     28  C   UNL d   1       0.614  -4.116   1.114  0.00  0.00     0.045 A 
ATOM     29  F   UNL d   1       2.014  -5.212   2.658  0.00  0.00    -0.206 F 
ATOM     30  C   UNL d   1       0.233  -2.935   0.472  0.00  0.00     0.038 A 
ENDBRANCH   1  23
BRANCH   3  31
ATOM     31  C   UNL d   1      -0.557   3.013   0.093  0.00  0.00     0.296 C 
ATOM     32  O   UNL d   1      -1.630   3.471   0.473  0.00  0.00    -0.259 OA
BRANCH  31  33
ATOM     33  O   UNL d   1       0.462   3.758  -0.402  0.00  0.00    -0.322 OA
ATOM     34  C   UNL d   1       0.206   5.162  -0.344  0.00  0.00     0.213 C 
ENDBRANCH  31  33
ENDBRANCH   3  31
TORSDOF 8
