REMARK  4 active torsions:
REMARK  status: ('A' for Active; 'I' for Inactive)
REMARK    1  A    between atoms: C_4  and  C_1 
REMARK    2  A    between atoms: C_5  and  C_4 
REMARK    3  A    between atoms: C_19  and  C_9 
REMARK    4  A    between atoms: O_18  and  C_19 
ROOT
ATOM      1  C   UNL d   1       0.105   0.654   0.053  0.00  0.00     0.058 A 
ATOM      2  C   UNL d   1       1.275  -0.125   0.016  0.00  0.00     0.050 A 
ATOM      3  C   UNL d   1      -1.135  -0.005   0.020  0.00  0.00     0.050 A 
ATOM      4  C   UNL d   1       1.197  -1.523   0.025  0.00  0.00     0.034 A 
ATOM      5  C   UNL d   1      -1.200  -1.407  -0.023  0.00  0.00     0.034 A 
ATOM      6  C   UNL d   1      -0.035  -2.184  -0.020  0.00  0.00    -0.032 A 
ATOM      7 CL   UNL d   1      -2.653   0.827   0.072  0.00  0.00    -0.083 Cl
ATOM      8 CL   UNL d   1       2.871   0.535  -0.119  0.00  0.00    -0.083 Cl
ENDROOT
BRANCH   1   9
ATOM      9  C   UNL d   1       0.160   2.138   0.037  0.00  0.00     0.195 C 
ATOM     10  O   UNL d   1      -0.482   2.744  -0.820  0.00  0.00    -0.287 OA
BRANCH   9  11
ATOM     11  C   UNL d   1       1.031   2.917   0.968  0.00  0.00     0.015 A 
ATOM     12  C   UNL d   1       1.483   2.400   2.189  0.00  0.00     0.017 A 
ATOM     13  C   UNL d   1       2.452   3.096   2.922  0.00  0.00     0.025 A 
ATOM     14  C   UNL d   1       2.933   4.320   2.459  0.00  0.00     0.034 A 
ATOM     15  C   UNL d   1       2.428   4.878   1.287  0.00  0.00     0.025 A 
ATOM     16 CL   UNL d   1       4.176   5.134   3.326  0.00  0.00    -0.084 Cl
ATOM     17  C   UNL d   1       1.476   4.178   0.544  0.00  0.00     0.017 A 
ENDBRANCH   9  11
ENDBRANCH   1   9
BRANCH   6  18
ATOM     18  C   UNL d   1      -0.121  -3.686  -0.029  0.00  0.00     0.203 C 
BRANCH  18  19
ATOM     19  O   UNL d   1       1.036  -4.245  -0.640  0.00  0.00    -0.396 OA
ATOM     20  H   UNL d   1       0.915  -5.205  -0.654  0.00  0.00     0.209 HD
ENDBRANCH  18  19
ENDBRANCH   6  18
TORSDOF 4
