REMARK  0 active torsions:
REMARK  status: ('A' for Active; 'I' for Inactive)
ROOT
ATOM      1  C   UNL d   1      -0.721   1.266   0.001  0.00  0.00     0.019 A 
ATOM      2  C   UNL d   1      -1.452   0.043  -0.000  0.00  0.00    -0.039 A 
ATOM      3  C   UNL d   1       0.703   1.282   0.001  0.00  0.00    -0.039 A 
ATOM      4  C   UNL d   1      -0.732  -1.174   0.001  0.00  0.00    -0.054 A 
ATOM      5  C   UNL d   1       1.394   0.048  -0.000  0.00  0.00    -0.054 A 
ATOM      6  C   UNL d   1       0.669  -1.151   0.001  0.00  0.00     0.014 A 
ATOM      7  I   UNL d   1      -1.795   3.133   0.003  0.00  0.00    -0.043 I 
ATOM      8  C   UNL d   1       1.530   2.547   0.003  0.00  0.00     0.050 C 
ATOM      9  C   UNL d   1      -2.961  -0.035  -0.004  0.00  0.00     0.050 C 
ATOM     10  C   UNL d   1      -1.380  -2.537   0.003  0.00  0.00     0.049 C 
ATOM     11  C   UNL d   1       2.897  -0.077  -0.004  0.00  0.00     0.049 C 
ENDROOT
TORSDOF 0
