REMARK  5 active torsions:
REMARK  status: ('A' for Active; 'I' for Inactive)
REMARK    1  A    between atoms: N_2  and  S_1 
REMARK    2  A    between atoms: C_8  and  S_1 
REMARK    3  A    between atoms: C_4  and  N_2 
REMARK    4  A    between atoms: N_5  and  C_4 
REMARK    5  A    between atoms: C_9  and  N_5 
ROOT
ATOM      1  N   UNL d   1       0.835   1.824  -0.276  0.00  0.00    -0.289 N 
ATOM      2  HN  UNL d   1       0.840   2.251  -1.202  1.00  0.00     0.178 HD
ENDROOT
BRANCH   1   3
ATOM      3  S   UNL d   1       0.594   0.308  -0.278  0.00  0.00     0.054 S 
ATOM      4  O   UNL d   1      -0.456  -0.318  -1.069  0.00  0.00    -0.245 OA
ATOM      5  C   UNL d   1       2.080  -0.505  -0.820  0.00  0.00     0.142 C 
BRANCH   3   6
ATOM      6  C   UNL d   1       0.370  -0.318   1.379  0.00  0.00     0.038 A 
ATOM      7  C   UNL d   1      -0.895  -0.810   1.738  0.00  0.00     0.022 A 
ATOM      8  C   UNL d   1      -1.087  -1.358   3.006  0.00  0.00     0.001 A 
ATOM      9  C   UNL d   1      -0.029  -1.425   3.901  0.00  0.00     0.000 A 
ATOM     10  C   UNL d   1       1.235  -0.949   3.542  0.00  0.00     0.001 A 
ATOM     11  C   UNL d   1       1.440  -0.400   2.274  0.00  0.00     0.022 A 
ENDBRANCH   3   6
ENDBRANCH   1   3
BRANCH   1  12
ATOM     12  C   UNL d   1       1.048   2.713   0.765  0.00  0.00     0.183 C 
ATOM     13  S   UNL d   1      -0.224   3.050   1.798  0.00  0.00    -0.040 SA
BRANCH  12  14
ATOM     14  N   UNL d   1       2.221   3.395   0.953  0.00  0.00    -0.333 N 
ATOM     15  H   UNL d   1       2.237   3.915   1.821  0.00  0.00     0.168 HD
BRANCH  14  16
ATOM     16  C   UNL d   1       3.338   3.540   0.108  0.00  0.00     0.034 A 
ATOM     17  C   UNL d   1       3.337   3.196  -1.245  0.00  0.00     0.031 A 
ATOM     18  C   UNL d   1       4.499   3.318  -2.014  0.00  0.00     0.021 A 
ATOM     19  C   UNL d   1       5.668   3.797  -1.431  0.00  0.00     0.011 A 
ATOM     20  C   UNL d   1       5.669   4.205  -0.100  0.00  0.00     0.021 A 
ATOM     21 BR   UNL d   1       7.258   3.882  -2.446  0.00  0.00    -0.051 Br
ATOM     22  C   UNL d   1       4.500   4.093   0.662  0.00  0.00     0.031 A 
ENDBRANCH  14  16
ENDBRANCH  12  14
ENDBRANCH   1  12
TORSDOF 5
