REMARK  8 active torsions:
REMARK  status: ('A' for Active; 'I' for Inactive)
REMARK    1  A    between atoms: C_2  and  C_1 
REMARK    2  A    between atoms: C_3  and  C_1 
REMARK    3  A    between atoms: C_5  and  C_1 
REMARK    4  A    between atoms: O_18  and  C_1 
REMARK       I    between atoms: C_4  and  N_6 
REMARK       I    between atoms: N_10  and  C_4 
REMARK    5  A    between atoms: O_20  and  C_5 
REMARK    6  A    between atoms: N_6  and  C_7 
REMARK    7  A    between atoms: O_22  and  C_9 
REMARK    8  A    between atoms: C_19  and  N_10 
ROOT
ATOM      1  C   UNL d   1       0.565   1.842  -0.546  0.00  0.00    -0.002 C 
ATOM      2  C   UNL d   1      -0.032   4.168  -2.062  0.00  0.00     0.069 C 
ATOM      3  C   UNL d   1      -0.723   2.049  -1.076  0.00  0.00     0.050 C 
ATOM      4  C   UNL d   1      -1.019   3.201  -1.819  0.00  0.00     0.095 C 
ATOM      5  C   UNL d   1       1.487   2.896  -0.668  0.00  0.00     0.013 C 
ATOM      6  C   UNL d   1       1.194   4.043  -1.415  0.00  0.00     0.033 C 
ENDROOT
BRANCH   2   7
ATOM      7  N   UNL d   1      -0.310   5.157  -3.037  0.00  0.00    -0.306 N 
ATOM      8  C   UNL d   1       0.500   6.173  -3.434  0.00  0.00     0.325 C 
ATOM      9  N   UNL d   1       0.279   6.759  -4.645  0.00  0.00    -0.309 N 
ATOM     10  O   UNL d   1       1.500   6.562  -2.828  0.00  0.00    -0.247 OA
ATOM     11  H   UNL d   1       1.099   7.303  -4.887  0.00  0.00     0.170 HD
ATOM     12  H   UNL d   1      -1.143   4.963  -3.565  0.00  0.00     0.171 HD
BRANCH   9  13
ATOM     13  C   UNL d   1      -0.728   6.715  -5.622  0.00  0.00     0.036 A 
ATOM     14  C   UNL d   1      -2.051   6.331  -5.404  0.00  0.00     0.031 A 
ATOM     15  C   UNL d   1      -2.975   6.350  -6.459  0.00  0.00     0.026 A 
ATOM     16  C   UNL d   1      -2.585   6.773  -7.729  0.00  0.00     0.034 A 
ATOM     17  C   UNL d   1      -1.278   7.185  -7.954  0.00  0.00     0.026 A 
ATOM     18 CL   UNL d   1      -3.727   6.809  -9.013  0.00  0.00    -0.084 Cl
ATOM     19  C   UNL d   1      -0.359   7.162  -6.902  0.00  0.00     0.031 A 
ENDBRANCH   9  13
ENDBRANCH   2   7
BRANCH   4  20
ATOM     20  O   UNL d   1      -2.247   3.386  -2.413  0.00  0.00    -0.354 OA
ATOM     21  C   UNL d   1      -3.327   3.232  -1.492  0.00  0.00     0.210 C 
ENDBRANCH   4  20
BRANCH   1  22
ATOM     22  C   UNL d   1       0.976   0.508   0.099  0.00  0.00     0.271 C 
BRANCH  22  23
ATOM     23  C   UNL d   1       0.264   0.238   1.430  0.00  0.00     0.432 C 
ATOM     24  F   UNL d   1       0.407   1.266   2.302  0.00  0.00    -0.167 F 
ATOM     25  F   UNL d   1      -1.062   0.013   1.291  0.00  0.00    -0.167 F 
ATOM     26  F   UNL d   1       0.791  -0.856   2.041  0.00  0.00    -0.167 F 
ENDBRANCH  22  23
BRANCH  22  27
ATOM     27  C   UNL d   1       0.624  -0.715  -0.773  0.00  0.00     0.307 C 
ATOM     28  O   UNL d   1      -0.342  -0.820  -1.523  0.00  0.00    -0.261 OA
BRANCH  27  29
ATOM     29  O   UNL d   1       1.536  -1.719  -0.578  0.00  0.00    -0.324 OA
ATOM     30  C   UNL d   1       1.299  -2.888  -1.367  0.00  0.00     0.213 C 
ENDBRANCH  27  29
ENDBRANCH  22  27
BRANCH  22  31
ATOM     31  O   UNL d   1       2.422   0.520   0.279  0.00  0.00    -0.368 OA
ATOM     32  H   UNL d   1       2.672  -0.384   0.556  0.00  0.00     0.212 HD
ENDBRANCH  22  31
ENDBRANCH   1  22
TORSDOF 8
