REMARK  6 active torsions:
REMARK  status: ('A' for Active; 'I' for Inactive)
REMARK    1  A    between atoms: S_17  and  C_1 
REMARK    2  A    between atoms: C_2  and  C_6 
REMARK    3  A    between atoms: C_3  and  C_7 
REMARK    4  A    between atoms: C_11  and  N_13 
REMARK    5  A    between atoms: C_12  and  C_26 
REMARK       I    between atoms: N_13  and  C_12 
REMARK    6  A    between atoms: C_26  and  S_17 
ROOT
ATOM      1  C   UNL d   1      -4.837  -2.947   0.121  0.00  0.00     0.231 C 
ATOM      2  N   UNL d   1      -5.666  -1.869   0.396  0.00  0.00    -0.326 N 
ATOM      3  O   UNL d   1      -5.236  -4.066  -0.211  0.00  0.00    -0.272 OA
ATOM      4  H   UNL d   1      -5.214  -0.965   0.488  0.00  0.00     0.169 HD
ENDROOT
BRANCH   2   5
ATOM      5  C   UNL d   1      -7.084  -1.892   0.411  0.00  0.00     0.036 A 
ATOM      6  C   UNL d   1      -7.824  -3.079   0.459  0.00  0.00     0.045 A 
ATOM      7  C   UNL d   1      -9.227  -3.077   0.374  0.00  0.00     0.050 A 
ATOM      8  C   UNL d   1      -9.897  -1.854   0.253  0.00  0.00     0.032 A 
ATOM      9  C   UNL d   1      -9.183  -0.646   0.229  0.00  0.00     0.050 A 
ATOM     10  C   UNL d   1      -7.776  -0.676   0.342  0.00  0.00     0.045 A 
BRANCH   7  11
ATOM     11  C   UNL d   1      -9.978  -4.388   0.383  0.00  0.00     0.417 C 
ATOM     12  F   UNL d   1     -11.324  -4.237   0.226  0.00  0.00    -0.166 F 
ATOM     13  F   UNL d   1      -9.582  -5.225  -0.614  0.00  0.00    -0.166 F 
ATOM     14  F   UNL d   1      -9.815  -5.077   1.545  0.00  0.00    -0.166 F 
ENDBRANCH   7  11
BRANCH   9  15
ATOM     15  C   UNL d   1      -9.908   0.666   0.029  0.00  0.00     0.417 C 
ATOM     16  F   UNL d   1     -11.245   0.519  -0.186  0.00  0.00    -0.166 F 
ATOM     17  F   UNL d   1      -9.788   1.500   1.097  0.00  0.00    -0.166 F 
ATOM     18  F   UNL d   1      -9.434   1.357  -1.044  0.00  0.00    -0.166 F 
ENDBRANCH   9  15
ENDBRANCH   2   5
BRANCH   1  19
ATOM     19  C   UNL d   1      -3.337  -2.671   0.091  0.00  0.00     0.183 C 
BRANCH  19  20
ATOM     20  S   UNL d   1      -2.782  -1.472   1.337  0.00  0.00    -0.114 SA
BRANCH  20  21
ATOM     21  C   UNL d   1      -1.041  -1.474   1.070  0.00  0.00     0.041 C 
ATOM     22  C   UNL d   1      -0.257  -1.849   2.083  0.00  0.00     0.075 C 
ATOM     23  C   UNL d   1       1.216  -1.819   2.072  0.00  0.00     0.152 C 
ATOM     24  O   UNL d   1       1.811  -2.409   2.971  0.00  0.00    -0.293 OA
ATOM     25  C   UNL d   1       1.967  -0.950   1.100  0.00  0.00     0.103 C 
ATOM     26  C   UNL d   1       1.321  -0.605  -0.249  0.00  0.00     0.013 C 
ATOM     27  S   UNL d   1      -0.453  -0.978  -0.471  0.00  0.00    -0.113 SA
ATOM     28  C   UNL d   1       1.470   0.909  -0.505  0.00  0.00     0.027 C 
ATOM     29  C   UNL d   1       2.062  -1.351  -1.378  0.00  0.00     0.027 C 
ENDBRANCH  20  21
ENDBRANCH  19  20
ENDBRANCH   1  19
TORSDOF 6
