REMARK  7 active torsions:
REMARK  status: ('A' for Active; 'I' for Inactive)
REMARK    1  A    between atoms: S_16  and  C_1 
REMARK    2  A    between atoms: C_2  and  S_15 
REMARK    3  A    between atoms: S_15  and  C_18 
REMARK    4  A    between atoms: C_17  and  S_16 
REMARK    5  A    between atoms: C_20  and  C_17 
REMARK    6  A    between atoms: C_18  and  C_19 
REMARK    7  A    between atoms: C_19  and  C_20 
ROOT
ATOM      1  C   UNL d   1      -4.721   4.420  -0.033  0.00  0.00     0.011 C 
ENDROOT
BRANCH   1   2
ATOM      2  C   UNL d   1      -5.153   5.890  -0.085  0.00  0.00     0.082 C 
BRANCH   2   3
ATOM      3  S   UNL d   1      -4.655   6.669  -1.655  0.00  0.00    -0.092 SA
BRANCH   3   4
ATOM      4  C   UNL d   1      -5.234   8.270  -1.436  0.00  0.00     0.160 A 
ATOM      5  N   UNL d   1      -4.967   9.227  -2.361  0.00  0.00    -0.331 N 
ATOM      6  C   UNL d   1      -5.574  10.357  -1.906  0.00  0.00     0.199 A 
ATOM      7  H   UNL d   1      -4.430   9.107  -3.207  0.00  0.00     0.168 HD
ATOM      8  N   UNL d   1      -6.168  10.103  -0.761  0.00  0.00    -0.294 N 
ATOM      9  N   UNL d   1      -5.951   8.772  -0.461  0.00  0.00    -0.279 N 
ATOM     10  HN  UNL d   1      -6.695  10.769  -0.195  1.00  0.00     0.187 HD
ATOM     11  HN  UNL d   1      -6.286   8.274   0.364  1.00  0.00     0.189 HD
ENDBRANCH   3   4
ENDBRANCH   2   3
ENDBRANCH   1   2
BRANCH   1  12
ATOM     12  C   UNL d   1      -3.195   4.216  -0.031  0.00  0.00     0.011 C 
BRANCH  12  13
ATOM     13  C   UNL d   1      -2.763   2.747  -0.080  0.00  0.00     0.082 C 
BRANCH  13  14
ATOM     14  S   UNL d   1      -3.258   1.968  -1.650  0.00  0.00    -0.092 SA
BRANCH  14  15
ATOM     15  C   UNL d   1      -2.678   0.368  -1.430  0.00  0.00     0.160 A 
ATOM     16  N   UNL d   1      -2.944  -0.590  -2.356  0.00  0.00    -0.331 N 
ATOM     17  C   UNL d   1      -2.335  -1.719  -1.901  0.00  0.00     0.199 A 
ATOM     18  H   UNL d   1      -3.481  -0.470  -3.201  0.00  0.00     0.168 HD
ATOM     19  N   UNL d   1      -1.739  -1.464  -0.757  0.00  0.00    -0.294 N 
ATOM     20  N   UNL d   1      -1.958  -0.133  -0.457  0.00  0.00    -0.279 N 
ATOM     21  HN  UNL d   1      -1.211  -2.129  -0.192  1.00  0.00     0.187 HD
ATOM     22  HN  UNL d   1      -1.622   0.365   0.367  1.00  0.00     0.189 HD
ENDBRANCH  14  15
ENDBRANCH  13  14
ENDBRANCH  12  13
ENDBRANCH   1  12
TORSDOF 7
