REMARK  2 active torsions:
REMARK  status: ('A' for Active; 'I' for Inactive)
REMARK    1  A    between atoms: C_7  and  C_1 
REMARK    2  A    between atoms: O_19  and  C_14 
ROOT
ATOM      1  C   UNL d   1      -2.692  -0.892   0.042  0.00  0.00     0.090 A 
ATOM      2  C   UNL d   1      -2.694   0.449   0.024  0.00  0.00     0.093 A 
ATOM      3  C   UNL d   1      -0.196   0.361   0.026  0.00  0.00     0.051 A 
ATOM      4  C   UNL d   1      -1.416   1.177   0.027  0.00  0.00     0.187 A 
ATOM      5  O   UNL d   1      -1.538  -1.664   0.051  0.00  0.00    -0.309 OA
ATOM      6  C   UNL d   1      -0.323  -1.028   0.036  0.00  0.00     0.090 A 
ATOM      7  C   UNL d   1       1.062   0.964   0.010  0.00  0.00     0.060 A 
ATOM      8  O   UNL d   1      -1.385   2.398   0.025  0.00  0.00    -0.287 OA
ATOM      9  C   UNL d   1       0.819  -1.830   0.028  0.00  0.00     0.041 A 
ATOM     10  C   UNL d   1       2.191   0.155   0.002  0.00  0.00     0.117 A 
ATOM     11  C   UNL d   1       2.082  -1.234   0.011  0.00  0.00     0.045 A 
ATOM     12  F   UNL d   1       3.405   0.718  -0.015  0.00  0.00    -0.206 F 
ENDROOT
BRANCH   1  13
ATOM     13  C   UNL d   1      -3.949  -1.675   0.020  0.00  0.00    -0.002 A 
ATOM     14  C   UNL d   1      -3.983  -2.938  -0.592  0.00  0.00     0.017 A 
ATOM     15  C   UNL d   1      -5.163  -3.692  -0.635  0.00  0.00     0.037 A 
ATOM     16  C   UNL d   1      -6.331  -3.193  -0.063  0.00  0.00     0.068 A 
ATOM     17  C   UNL d   1      -6.303  -1.956   0.578  0.00  0.00     0.037 A 
ATOM     18  C   UNL d   1      -5.127  -1.202   0.618  0.00  0.00     0.017 A 
BRANCH  16  19
ATOM     19  O   UNL d   1      -7.533  -3.842  -0.027  0.00  0.00    -0.356 OA
ATOM     20  C   UNL d   1      -7.790  -4.715  -1.121  0.00  0.00     0.210 C 
ENDBRANCH  16  19
ENDBRANCH   1  13
TORSDOF 2
