REMARK  6 active torsions:
REMARK  status: ('A' for Active; 'I' for Inactive)
REMARK    1  A    between atoms: C_3  and  C_1 
REMARK    2  A    between atoms: C_2  and  C_4 
REMARK    3  A    between atoms: C_19  and  C_10 
REMARK    4  A    between atoms: O_17  and  C_19 
REMARK    5  A    between atoms: C_18  and  O_17 
REMARK    6  A    between atoms: C_25  and  C_20 
ROOT
ATOM      1  N   UNL d   1       3.277   8.770  -7.872  0.00  0.00    -0.197 NA
ATOM      2  C   UNL d   1       2.179   8.814  -7.491  0.00  0.00     0.063 C 
ATOM      3  C   UNL d   1       0.791   8.897  -7.014  0.00  0.00     0.162 C 
ENDROOT
BRANCH   3   4
ATOM      4  C   UNL d   1       0.364   7.663  -6.257  0.00  0.00    -0.045 A 
ATOM      5  C   UNL d   1       0.588   7.574  -4.877  0.00  0.00     0.011 A 
ATOM      6  C   UNL d   1       0.243   6.418  -4.174  0.00  0.00     0.037 A 
ATOM      7  C   UNL d   1      -0.308   5.328  -4.846  0.00  0.00     0.069 A 
ATOM      8  C   UNL d   1      -0.566   5.422  -6.214  0.00  0.00     0.037 A 
ATOM      9  C   UNL d   1      -0.224   6.577  -6.921  0.00  0.00     0.011 A 
BRANCH   7  10
ATOM     10  O   UNL d   1      -0.633   4.136  -4.262  0.00  0.00    -0.347 OA
BRANCH  10  11
ATOM     11  C   UNL d   1       0.097   3.824  -3.072  0.00  0.00     0.214 C 
BRANCH  11  12
ATOM     12  C   UNL d   1      -0.002   2.338  -2.833  0.00  0.00    -0.033 A 
ATOM     13  C   UNL d   1       0.426   1.441  -3.822  0.00  0.00     0.025 A 
ATOM     14  C   UNL d   1       0.315   0.055  -3.642  0.00  0.00     0.049 A 
ATOM     15  C   UNL d   1      -0.212  -0.430  -2.434  0.00  0.00     0.032 A 
ATOM     16  C   UNL d   1      -0.631   0.450  -1.422  0.00  0.00     0.049 A 
ATOM     17  C   UNL d   1      -0.514   1.834  -1.632  0.00  0.00     0.025 A 
BRANCH  14  18
ATOM     18  C   UNL d   1       0.743  -0.876  -4.751  0.00  0.00     0.417 C 
ATOM     19  F   UNL d   1       0.519  -2.190  -4.473  0.00  0.00    -0.166 F 
ATOM     20  F   UNL d   1       0.089  -0.625  -5.919  0.00  0.00    -0.166 F 
ATOM     21  F   UNL d   1       2.070  -0.773  -5.035  0.00  0.00    -0.166 F 
ENDBRANCH  14  18
BRANCH  16  22
ATOM     22  C   UNL d   1      -1.219  -0.060  -0.128  0.00  0.00     0.417 C 
ATOM     23  F   UNL d   1      -1.323  -1.417  -0.074  0.00  0.00    -0.166 F 
ATOM     24  F   UNL d   1      -2.474   0.420   0.096  0.00  0.00    -0.166 F 
ATOM     25  F   UNL d   1      -0.481   0.303   0.957  0.00  0.00    -0.166 F 
ENDBRANCH  16  22
ENDBRANCH  11  12
ENDBRANCH  10  11
ENDBRANCH   7  10
ENDBRANCH   3   4
TORSDOF 6
