REMARK  4 active torsions:
REMARK  status: ('A' for Active; 'I' for Inactive)
REMARK    1  A    between atoms: C_12  and  C_3 
REMARK    2  A    between atoms: C_6  and  C_7 
REMARK    3  A    between atoms: C_13  and  O_16 
REMARK    4  A    between atoms: O_16  and  C_22 
ROOT
ATOM      1  C   UNL d   1       2.467   1.530   0.010  0.00  0.00     0.010 A 
ATOM      2  C   UNL d   1       2.577   2.459   1.052  0.00  0.00     0.018 A 
ATOM      3  C   UNL d   1       3.507   1.445  -0.929  0.00  0.00     0.018 A 
ATOM      4  C   UNL d   1       4.713   3.221   0.196  0.00  0.00     0.077 A 
ATOM      5  C   UNL d   1       3.700   3.281   1.158  0.00  0.00     0.038 A 
ATOM      6  C   UNL d   1       4.624   2.284  -0.834  0.00  0.00     0.038 A 
ENDROOT
BRANCH   4   7
ATOM      7  O   UNL d   1       5.853   3.996   0.228  0.00  0.00    -0.294 OA
BRANCH   7   8
ATOM      8  C   UNL d   1       5.745   5.285   0.728  0.00  0.00     0.147 A 
ATOM      9  N   UNL d   1       4.592   5.971   0.552  0.00  0.00    -0.346 N 
ATOM     10  C   UNL d   1       4.497   7.179   1.145  0.00  0.00     0.106 A 
ATOM     11  HN  UNL d   1       3.827   5.591  -0.006  1.00  0.00     0.167 HD
ATOM     12  C   UNL d   1       5.516   7.759   1.887  0.00  0.00     0.063 A 
ATOM     13  C   UNL d   1       6.723   7.057   1.988  0.00  0.00     0.022 A 
ATOM     14  C   UNL d   1       6.843   5.800   1.397  0.00  0.00     0.057 A 
BRANCH  12  15
ATOM     15  C   UNL d   1       5.300   9.074   2.569  0.00  0.00     0.418 C 
ATOM     16  F   UNL d   1       4.048   9.580   2.395  0.00  0.00    -0.166 F 
ATOM     17  F   UNL d   1       5.483   8.993   3.916  0.00  0.00    -0.166 F 
ATOM     18  F   UNL d   1       6.157  10.036   2.132  0.00  0.00    -0.166 F 
ENDBRANCH  12  15
ENDBRANCH   7   8
ENDBRANCH   4   7
BRANCH   1  19
ATOM     19  C   UNL d   1       1.293   0.668  -0.070  0.00  0.00     0.137 A 
ATOM     20  N   UNL d   1       0.248   0.773   0.826  0.00  0.00    -0.323 N 
ATOM     21  C   UNL d   1      -0.573  -0.168   0.421  0.00  0.00     0.144 A 
ATOM     22  HN  UNL d   1       0.141   1.420   1.607  1.00  0.00     0.169 HD
ATOM     23  O   UNL d   1      -0.112  -0.854  -0.663  0.00  0.00    -0.223 OA
ATOM     24  C   UNL d   1      -1.876  -0.577   0.963  0.00  0.00     0.100 C 
ATOM     25  N   UNL d   1       1.124  -0.297  -0.989  0.00  0.00    -0.242 N 
ATOM     26  HN  UNL d   1       1.753  -0.561  -1.748  1.00  0.00     0.196 HD
ENDBRANCH   1  19
TORSDOF 4
