REMARK  6 active torsions:
REMARK  status: ('A' for Active; 'I' for Inactive)
REMARK    1  A    between atoms: C_8  and  N_1 
REMARK    2  A    between atoms: S_7  and  C_2 
REMARK    3  A    between atoms: C_18  and  S_7 
REMARK    4  A    between atoms: C_10  and  C_12 
REMARK    5  A    between atoms: C_12  and  C_18 
REMARK    6  A    between atoms: N_19  and  C_16 
ROOT
ATOM      1  N   UNL d   1      -0.177  -1.363  -0.137  0.00  0.00    -0.219 N 
ATOM      2  C   UNL d   1       1.064  -0.744  -0.183  0.00  0.00     0.177 A 
ATOM      3  N   UNL d   1       0.897   0.560  -0.194  0.00  0.00    -0.264 N 
ATOM      4  HN  UNL d   1       1.627   1.273  -0.195  1.00  0.00     0.186 HD
ATOM      5  N   UNL d   1      -0.455   0.765  -0.203  0.00  0.00    -0.006 NA
ATOM      6  N   UNL d   1      -1.114  -0.384  -0.230  0.00  0.00     0.001 NA
ENDROOT
BRANCH   2   7
ATOM      7  S   UNL d   1       2.577  -1.548  -0.447  0.00  0.00    -0.084 SA
BRANCH   7   8
ATOM      8  C   UNL d   1       3.469  -0.278  -1.382  0.00  0.00     0.166 C 
BRANCH   8   9
ATOM      9  C   UNL d   1       4.751  -0.836  -1.977  0.00  0.00     0.169 C 
ATOM     10  O   UNL d   1       4.908  -2.023  -2.261  0.00  0.00    -0.291 OA
BRANCH   9  11
ATOM     11  C   UNL d   1       5.880   0.110  -2.224  0.00  0.00     0.013 A 
ATOM     12  C   UNL d   1       7.151  -0.440  -2.447  0.00  0.00     0.055 A 
ATOM     13  C   UNL d   1       8.222   0.424  -2.469  0.00  0.00     0.105 A 
ATOM     14  O   UNL d   1       9.532   0.063  -2.545  0.00  0.00    -0.323 OA
ATOM     15  C   UNL d   1       8.064   1.784  -2.341  0.00  0.00     0.105 A 
ATOM     16  C   UNL d   1      10.154   1.312  -2.187  0.00  0.00     0.352 C 
ATOM     17  O   UNL d   1       9.257   2.437  -2.299  0.00  0.00    -0.323 OA
ATOM     18  C   UNL d   1       6.822   2.364  -2.222  0.00  0.00     0.040 A 
ATOM     19  C   UNL d   1       5.714   1.512  -2.156  0.00  0.00     0.018 A 
ENDBRANCH   9  11
ENDBRANCH   8   9
ENDBRANCH   7   8
ENDBRANCH   2   7
BRANCH   1  20
ATOM     20  C   UNL d   1      -0.545  -2.730  -0.065  0.00  0.00     0.057 A 
ATOM     21  C   UNL d   1       0.290  -3.676   0.529  0.00  0.00     0.033 A 
ATOM     22  C   UNL d   1      -0.065  -5.030   0.519  0.00  0.00     0.031 A 
ATOM     23  C   UNL d   1      -1.240  -5.495  -0.085  0.00  0.00     0.029 A 
ATOM     24  C   UNL d   1      -2.092  -4.516  -0.621  0.00  0.00     0.031 A 
ATOM     25  C   UNL d   1      -1.766  -3.148  -0.598  0.00  0.00     0.033 A 
BRANCH  23  26
ATOM     26  N   UNL d   1      -1.540  -6.854  -0.083  0.00  0.00    -0.390 N 
ATOM     27  C   UNL d   1      -0.468  -7.816  -0.348  0.00  0.00     0.149 C 
ATOM     28  C   UNL d   1      -2.882  -7.332  -0.397  0.00  0.00     0.149 C 
ENDBRANCH  23  26
ENDBRANCH   1  20
TORSDOF 6
