REMARK  4 active torsions:
REMARK  status: ('A' for Active; 'I' for Inactive)
REMARK    1  A    between atoms: C_8  and  N_1 
REMARK    2  A    between atoms: C_9  and  C_4 
REMARK    3  A    between atoms: C_10  and  C_9 
REMARK    4  A    between atoms: N_15  and  C_12 
ROOT
ATOM      1  N   UNL d   1      -0.171  -1.222   0.026  0.00  0.00    -0.243 N 
ATOM      2  N   UNL d   1       1.068  -0.680   0.040  0.00  0.00    -0.235 N 
ATOM      3  HN  UNL d   1       1.941  -1.205   0.093  1.00  0.00     0.209 HD
ATOM      4  C   UNL d   1      -0.352   0.974  -0.080  0.00  0.00     0.123 A 
ATOM      5  C   UNL d   1      -1.111  -0.194  -0.068  0.00  0.00     0.064 A 
ATOM      6  N   UNL d   1       0.972   0.633  -0.026  0.00  0.00    -0.280 N 
ATOM      7  HN  UNL d   1       1.755   1.287  -0.036  1.00  0.00     0.188 HD
ATOM      8  C   UNL d   1      -2.585  -0.386  -0.028  0.00  0.00     0.073 C 
ENDROOT
BRANCH   1   9
ATOM      9  C   UNL d   1      -0.337  -2.638   0.043  0.00  0.00     0.081 A 
ATOM     10  C   UNL d   1      -1.387  -3.225  -0.686  0.00  0.00     0.057 A 
ATOM     11  C   UNL d   1      -1.552  -4.613  -0.701  0.00  0.00     0.036 A 
ATOM     12 CL   UNL d   1      -2.846  -5.310  -1.598  0.00  0.00    -0.084 Cl
ATOM     13  C   UNL d   1      -0.679  -5.440  -0.005  0.00  0.00     0.026 A 
ATOM     14  C   UNL d   1       0.372  -4.873   0.712  0.00  0.00     0.028 A 
ATOM     15  C   UNL d   1       0.552  -3.481   0.744  0.00  0.00     0.062 A 
ATOM     16 CL   UNL d   1       1.820  -2.929   1.785  0.00  0.00    -0.082 Cl
ENDBRANCH   1   9
BRANCH   4  17
ATOM     17  C   UNL d   1      -0.810   2.366  -0.106  0.00  0.00     0.203 C 
ATOM     18  O   UNL d   1      -1.991   2.686  -0.181  0.00  0.00    -0.286 OA
BRANCH  17  19
ATOM     19  C   UNL d   1       0.289   3.382  -0.029  0.00  0.00     0.074 C 
ATOM     20  C   UNL d   1       0.003   4.693  -0.030  0.00  0.00     0.088 C 
BRANCH  20  21
ATOM     21  N   UNL d   1       0.841   5.803   0.030  0.00  0.00    -0.398 N 
ATOM     22  C   UNL d   1       2.302   5.753   0.084  0.00  0.00     0.148 C 
ATOM     23  C   UNL d   1       0.305   7.168  -0.003  0.00  0.00     0.148 C 
ENDBRANCH  20  21
ENDBRANCH  17  19
ENDBRANCH   4  17
TORSDOF 4
