REMARK  6 active torsions:
REMARK  status: ('A' for Active; 'I' for Inactive)
REMARK    1  A    between atoms: C_2  and  S_1 
REMARK    2  A    between atoms: N_10  and  S_1 
REMARK    3  A    between atoms: C_12  and  N_10 
REMARK    4  A    between atoms: C_11  and  C_12 
REMARK       I    between atoms: N_20  and  C_11 
REMARK    5  A    between atoms: N_16  and  N_20 
REMARK    6  A    between atoms: C_23  and  C_22 
ROOT
ATOM      1  S   UNL d   1       1.781  -0.378   0.064  0.00  0.00     0.244 S 
ATOM      2  O   UNL d   1       2.436  -0.942   1.226  0.00  0.00    -0.206 OA
ATOM      3  O   UNL d   1       2.504   0.451  -0.874  0.00  0.00    -0.206 OA
ENDROOT
BRANCH   1   4
ATOM      4  C   UNL d   1       0.380   0.509   0.616  0.00  0.00     0.104 A 
ATOM      5  C   UNL d   1      -0.625  -0.099   1.398  0.00  0.00     0.089 A 
ATOM      6  N   UNL d   1      -0.708  -1.385   1.783  0.00  0.00    -0.309 N 
ATOM      7  C   UNL d   1      -1.794   0.723   1.885  0.00  0.00     0.068 A 
ATOM      8  S   UNL d   1      -2.072  -1.525   2.714  0.00  0.00     0.068 SA
ATOM      9  HN  UNL d   1      -0.055  -2.132   1.546  1.00  0.00     0.176 HD
ATOM     10  N   UNL d   1      -2.666   0.020   2.623  0.00  0.00    -0.310 N 
ATOM     11  HN  UNL d   1      -3.526   0.368   3.046  1.00  0.00     0.176 HD
ATOM     12  C   UNL d   1      -1.909   2.096   1.561  0.00  0.00     0.032 A 
ATOM     13  C   UNL d   1      -0.888   2.638   0.761  0.00  0.00     0.004 A 
ATOM     14  C   UNL d   1       0.215   1.878   0.305  0.00  0.00     0.027 A 
ENDBRANCH   1   4
BRANCH   1  15
ATOM     15  N   UNL d   1       1.114  -1.670  -0.793  0.00  0.00    -0.207 NA
ATOM     16  H   UNL d   1       1.563  -2.542  -0.506  0.00  0.00     0.140 HD
BRANCH  15  17
ATOM     17  C   UNL d   1       0.910  -1.464  -2.238  0.00  0.00     0.208 C 
BRANCH  17  18
ATOM     18  C   UNL d   1       0.370  -2.695  -2.947  0.00  0.00     0.249 C 
ATOM     19  N   UNL d   1      -0.457  -3.492  -2.164  0.00  0.00    -0.270 N 
ATOM     20  H   UNL d   1      -0.657  -3.230  -1.203  0.00  0.00     0.190 HD
ATOM     21  O   UNL d   1       0.636  -2.908  -4.129  0.00  0.00    -0.270 OA
BRANCH  19  22
ATOM     22  N   UNL d   1      -0.992  -4.622  -2.711  0.00  0.00    -0.312 N 
ATOM     23  C   UNL d   1      -1.748  -5.350  -1.954  0.00  0.00     0.088 C 
ATOM     24  HN  UNL d   1      -0.803  -4.883  -3.679  1.00  0.00     0.185 HD
BRANCH  23  25
ATOM     25  C   UNL d   1      -2.385  -6.631  -2.496  0.00  0.00    -0.018 C 
ATOM     26  C   UNL d   1      -1.282  -7.597  -2.947  0.00  0.00     0.020 C 
ATOM     27  C   UNL d   1      -3.223  -7.292  -1.394  0.00  0.00     0.020 C 
ATOM     28  C   UNL d   1      -3.293  -6.284  -3.683  0.00  0.00     0.020 C 
ENDBRANCH  23  25
ENDBRANCH  19  22
ENDBRANCH  17  18
ENDBRANCH  15  17
ENDBRANCH   1  15
TORSDOF 6
