REMARK  5 active torsions:
REMARK  status: ('A' for Active; 'I' for Inactive)
REMARK    1  A    between atoms: C_12  and  C_9 
REMARK    2  A    between atoms: C_13  and  C_12 
REMARK    3  A    between atoms: C_16  and  C_13 
REMARK    4  A    between atoms: C_14  and  C_15 
REMARK    5  A    between atoms: C_15  and  C_16 
ROOT
ATOM      1  C   UNL d   1       1.133   0.875   0.001  0.00  0.00    -0.042 A 
ATOM      2  C   UNL d   1       0.667  -0.455   0.001  0.00  0.00    -0.019 A 
ATOM      3  C   UNL d   1      -0.780  -0.442  -0.009  0.00  0.00    -0.019 A 
ATOM      4  C   UNL d   1      -1.221   0.899  -0.011  0.00  0.00    -0.043 A 
ATOM      5  C   UNL d   1      -0.034   1.841  -0.009  0.00  0.00     0.078 A 
ATOM      6  C   UNL d   1       1.562  -1.510   0.018  0.00  0.00     0.013 A 
ATOM      7  C   UNL d   1       2.487   1.172   0.015  0.00  0.00     0.015 A 
ATOM      8  C   UNL d   1       2.932  -1.221   0.038  0.00  0.00     0.008 A 
ATOM      9  C   UNL d   1       3.405   0.111   0.028  0.00  0.00    -0.058 A 
ATOM     10  C   UNL d   1      -1.696  -1.481  -0.012  0.00  0.00     0.013 A 
ATOM     11  C   UNL d   1      -2.568   1.220  -0.011  0.00  0.00     0.008 A 
ATOM     12  C   UNL d   1      -3.058  -1.166  -0.012  0.00  0.00     0.001 A 
ATOM     13  C   UNL d   1      -3.490   0.171  -0.010  0.00  0.00     0.001 A 
ENDROOT
BRANCH   9  14
ATOM     14  C   UNL d   1       4.888   0.399   0.048  0.00  0.00     0.038 C 
BRANCH  14  15
ATOM     15  C   UNL d   1       5.668  -0.195  -1.131  0.00  0.00     0.005 C 
BRANCH  15  16
ATOM     16  C   UNL d   1       5.224   0.357  -2.490  0.00  0.00     0.000 C 
BRANCH  16  17
ATOM     17  C   UNL d   1       6.056  -0.251  -3.621  0.00  0.00    -0.000 C 
BRANCH  17  18
ATOM     18  C   UNL d   1       5.606   0.264  -4.988  0.00  0.00    -0.005 C 
ATOM     19  C   UNL d   1       6.430  -0.353  -6.107  0.00  0.00     0.005 C 
ENDBRANCH  17  18
ENDBRANCH  16  17
ENDBRANCH  15  16
ENDBRANCH  14  15
ENDBRANCH   9  14
TORSDOF 5
