REMARK  5 active torsions:
REMARK  status: ('A' for Active; 'I' for Inactive)
REMARK    1  A    between atoms: O_3  and  C_1 
REMARK    2  A    between atoms: C_2  and  C_8 
REMARK    3  A    between atoms: N_9  and  C_2 
REMARK    4  A    between atoms: C_8  and  O_3 
REMARK    5  A    between atoms: O_12  and  N_4 
ROOT
ATOM      1  O   UNL d   1      -1.700   6.544  -0.094  0.00  0.00    -0.341 OA
ENDROOT
BRANCH   1   2
ATOM      2  C   UNL d   1      -2.595   7.584  -0.032  0.00  0.00     0.112 A 
ATOM      3  C   UNL d   1      -2.029   8.873   0.019  0.00  0.00     0.069 A 
ATOM      4 CL   UNL d   1      -0.310   9.095   0.064  0.00  0.00    -0.081 Cl
ATOM      5  C   UNL d   1      -2.829  10.021   0.037  0.00  0.00     0.027 A 
ATOM      6  C   UNL d   1      -4.214   9.904   0.001  0.00  0.00     0.003 A 
ATOM      7  C   UNL d   1      -4.792   8.639  -0.071  0.00  0.00     0.027 A 
ATOM      8  C   UNL d   1      -3.995   7.484  -0.105  0.00  0.00     0.069 A 
ATOM      9 CL   UNL d   1      -4.849   5.997  -0.327  0.00  0.00    -0.081 Cl
ENDBRANCH   1   2
BRANCH   1  10
ATOM     10  C   UNL d   1      -2.010   5.375   0.662  0.00  0.00     0.247 C 
BRANCH  10  11
ATOM     11  C   UNL d   1      -0.726   4.721   1.188  0.00  0.00     0.099 C 
ATOM     12  N   UNL d   1      -0.835   3.928   2.216  0.00  0.00    -0.260 N 
ATOM     13  HN  UNL d   1      -1.711   3.713   2.692  1.00  0.00     0.195 HD
BRANCH  12  14
ATOM     14  O   UNL d   1       0.419   3.408   2.580  0.00  0.00    -0.289 OA
ATOM     15  H   UNL d   1       0.179   2.776   3.283  0.00  0.00     0.244 HD
ENDBRANCH  12  14
BRANCH  11  16
ATOM     16  N   UNL d   1       0.462   4.981   0.547  0.00  0.00    -0.289 NA
ATOM     17  H   UNL d   1       0.519   5.897   0.113  0.00  0.00     0.125 HD
ATOM     18  H   UNL d   1       1.260   4.734   1.124  0.00  0.00     0.125 HD
ENDBRANCH  11  16
ENDBRANCH  10  11
ENDBRANCH   1  10
TORSDOF 5
