REMARK  4 active torsions:
REMARK  status: ('A' for Active; 'I' for Inactive)
REMARK    1  A    between atoms: N_9  and  C_2 
REMARK       I    between atoms: C_11  and  N_9 
REMARK    2  A    between atoms: C_14  and  C_11 
REMARK    3  A    between atoms: C_13  and  O_16 
REMARK    4  A    between atoms: O_16  and  C_23 
ROOT
ATOM      1  N   UNL d   1      -3.256   1.236   0.200  0.00  0.00    -0.303 N 
ATOM      2  C   UNL d   1      -4.508   0.625   0.155  0.00  0.00     0.257 C 
ATOM      3  O   UNL d   1      -5.579   1.197  -0.007  0.00  0.00    -0.267 OA
ATOM      4  H   UNL d   1      -2.475   0.674   0.507  0.00  0.00     0.171 HD
ENDROOT
BRANCH   1   5
ATOM      5  C   UNL d   1      -2.846   2.520  -0.133  0.00  0.00     0.155 C 
ATOM      6  S   UNL d   1      -4.056   3.619  -0.711  0.00  0.00    -0.010 SA
ATOM      7  C   UNL d   1      -3.068   4.690  -1.670  0.00  0.00     0.235 C 
ATOM      8  C   UNL d   1      -1.744   4.848  -1.166  0.00  0.00     0.089 A 
ATOM      9  O   UNL d   1      -3.550   5.277  -2.632  0.00  0.00    -0.279 OA
ATOM     10  C   UNL d   1      -1.078   3.980  -0.340  0.00  0.00     0.062 A 
ATOM     11  S   UNL d   1      -0.795   6.203  -1.565  0.00  0.00    -0.095 SA
ATOM     12  N   UNL d   1      -1.580   2.733   0.045  0.00  0.00    -0.335 N 
ATOM     13  C   UNL d   1       0.222   4.443   0.034  0.00  0.00    -0.027 A 
ATOM     14  HN  UNL d   1      -0.974   2.020   0.450  1.00  0.00     0.168 HD
ATOM     15  C   UNL d   1       1.182   3.752   0.940  0.00  0.00     0.051 C 
ATOM     16  C   UNL d   1       0.490   5.656  -0.578  0.00  0.00     0.059 A 
ENDBRANCH   1   5
BRANCH   2  17
ATOM     17  C   UNL d   1      -4.531  -0.845   0.397  0.00  0.00     0.032 A 
ATOM     18  C   UNL d   1      -5.669  -1.399   1.000  0.00  0.00     0.020 A 
ATOM     19  C   UNL d   1      -5.774  -2.780   1.202  0.00  0.00     0.038 A 
ATOM     20  C   UNL d   1      -4.752  -3.627   0.777  0.00  0.00     0.078 A 
ATOM     21  C   UNL d   1      -3.611  -3.071   0.185  0.00  0.00     0.038 A 
ATOM     22  C   UNL d   1      -3.496  -1.690  -0.013  0.00  0.00     0.020 A 
BRANCH  20  23
ATOM     23  O   UNL d   1      -4.738  -4.989   0.853  0.00  0.00    -0.255 OA
BRANCH  23  24
ATOM     24  C   UNL d   1      -5.913  -5.649   1.298  0.00  0.00     0.530 C 
ATOM     25  F   UNL d   1      -7.007  -5.234   0.626  0.00  0.00    -0.144 F 
ATOM     26  F   UNL d   1      -5.769  -6.975   1.080  0.00  0.00    -0.144 F 
ATOM     27  F   UNL d   1      -6.094  -5.455   2.621  0.00  0.00    -0.144 F 
ENDBRANCH  23  24
ENDBRANCH  20  23
ENDBRANCH   2  17
TORSDOF 4
