REMARK  5 active torsions:
REMARK  status: ('A' for Active; 'I' for Inactive)
REMARK    1  A    between atoms: N_3  and  N_1 
REMARK    2  A    between atoms: C_9  and  C_2 
REMARK       I    between atoms: C_6  and  N_3 
REMARK    3  A    between atoms: C_16  and  N_3 
REMARK    4  A    between atoms: N_5  and  C_10 
REMARK    5  A    between atoms: C_12  and  C_6 
ROOT
ATOM      1  N   UNL d   1       2.160  -1.446  -0.020  0.00  0.00    -0.211 N 
ATOM      2  C   UNL d   1       3.373  -1.043   0.584  0.00  0.00     0.277 C 
ATOM      3  O   UNL d   1       3.448  -0.286   1.554  0.00  0.00    -0.265 OA
ENDROOT
BRANCH   1   4
ATOM      4  N   UNL d   1       0.973  -0.591   0.207  0.00  0.00    -0.227 N 
ATOM      5  C   UNL d   1       0.976   0.780  -0.100  0.00  0.00     0.076 A 
ATOM      6  C   UNL d   1      -0.199   1.399   0.082  0.00  0.00     0.085 A 
ATOM      7  S   UNL d   1      -1.428   0.334   0.632  0.00  0.00    -0.068 SA
ATOM      8  C   UNL d   1      -0.277  -1.036   0.720  0.00  0.00     0.165 A 
ATOM      9  S   UNL d   1      -0.831  -2.473   1.363  0.00  0.00    -0.050 SA
BRANCH   5  10
ATOM     10  C   UNL d   1       2.124   1.624  -0.444  0.00  0.00    -0.004 A 
ATOM     11  C   UNL d   1       2.846   2.246   0.590  0.00  0.00     0.050 A 
ATOM     12  C   UNL d   1       3.900   3.117   0.292  0.00  0.00     0.103 A 
ATOM     13  C   UNL d   1       4.194   3.438  -1.035  0.00  0.00     0.036 A 
ATOM     14  C   UNL d   1       3.435   2.873  -2.063  0.00  0.00     0.003 A 
ATOM     15  C   UNL d   1       2.409   1.965  -1.772  0.00  0.00     0.014 A 
BRANCH  12  16
ATOM     16  N   UNL d   1       4.697   3.694   1.381  0.00  0.00    -0.116 N 
ATOM     17  O   UNL d   1       4.324   3.491   2.547  0.00  0.00    -0.532 OA
ATOM     18  O   UNL d   1       5.694   4.364   1.071  0.00  0.00    -0.532 OA
ENDBRANCH  12  16
ENDBRANCH   5  10
ENDBRANCH   1   4
BRANCH   1  19
ATOM     19  C   UNL d   1       1.969  -2.869  -0.087  0.00  0.00     0.060 A 
ATOM     20  C   UNL d   1       2.377  -3.671   1.000  0.00  0.00     0.031 A 
ATOM     21  C   UNL d   1       2.210  -5.052   0.971  0.00  0.00     0.002 A 
ATOM     22  C   UNL d   1       1.662  -5.650  -0.158  0.00  0.00     0.000 A 
ATOM     23  C   UNL d   1       1.275  -4.867  -1.250  0.00  0.00     0.002 A 
ATOM     24  C   UNL d   1       1.409  -3.475  -1.214  0.00  0.00     0.031 A 
ENDBRANCH   1  19
BRANCH   2  25
ATOM     25  C   UNL d   1       4.656  -1.632   0.032  0.00  0.00     0.034 A 
ATOM     26  C   UNL d   1       4.754  -2.216  -1.244  0.00  0.00     0.017 A 
ATOM     27  C   UNL d   1       5.928  -2.878  -1.632  0.00  0.00     0.007 A 
ATOM     28  C   UNL d   1       7.034  -2.926  -0.781  0.00  0.00    -0.062 A 
ATOM     29  C   UNL d   1       6.962  -2.276   0.455  0.00  0.00     0.007 A 
ATOM     30  C   UNL d   1       8.252  -3.718  -1.164  0.00  0.00     0.048 C 
ATOM     31  C   UNL d   1       5.785  -1.632   0.853  0.00  0.00     0.017 A 
ENDBRANCH   2  25
TORSDOF 5
