REMARK  4 active torsions:
REMARK  status: ('A' for Active; 'I' for Inactive)
REMARK    1  A    between atoms: S_10  and  C_1 
REMARK    2  A    between atoms: O_5  and  C_2 
REMARK    3  A    between atoms: C_11  and  O_5 
REMARK    4  A    between atoms: C_15  and  S_10 
ROOT
ATOM      1  C   UNL d   1      -0.514   1.224   0.743  0.00  0.00     0.112 C 
ATOM      2  C   UNL d   1      -1.276   0.217   0.160  0.00  0.00     0.132 C 
ATOM      3  N   UNL d   1       0.819   1.110   0.935  0.00  0.00    -0.338 N 
ATOM      4  HN  UNL d   1       1.368   1.874   1.329  1.00  0.00     0.168 HD
ATOM      5  N   UNL d   1       0.709  -1.132   0.164  0.00  0.00    -0.347 N 
ATOM      6  HN  UNL d   1       1.182  -2.019  -0.006  1.00  0.00     0.167 HD
ATOM      7  C   UNL d   1      -0.624  -0.997  -0.025  0.00  0.00     0.043 C 
ATOM      8  C   UNL d   1       1.384  -0.050   0.585  0.00  0.00     0.078 C 
ATOM      9  C   UNL d   1      -1.334  -2.231  -0.494  0.00  0.00     0.071 C 
ATOM     10  C   UNL d   1       2.881  -0.099   0.537  0.00  0.00     0.089 C 
ENDROOT
BRANCH   2  11
ATOM     11  O   UNL d   1      -2.587   0.314  -0.236  0.00  0.00    -0.304 OA
BRANCH  11  12
ATOM     12  C   UNL d   1      -2.949   1.398  -1.014  0.00  0.00     0.098 A 
ATOM     13  C   UNL d   1      -2.248   1.886  -2.130  0.00  0.00     0.069 A 
ATOM     14  C   UNL d   1      -2.651   3.078  -2.739  0.00  0.00     0.050 A 
ATOM     15 CL   UNL d   1      -0.900   1.068  -2.837  0.00  0.00    -0.081 Cl
ATOM     16  C   UNL d   1      -3.777   3.750  -2.271  0.00  0.00     0.035 A 
ATOM     17  C   UNL d   1      -4.529   3.226  -1.221  0.00  0.00     0.026 A 
ATOM     18 CL   UNL d   1      -4.247   5.237  -2.997  0.00  0.00    -0.084 Cl
ATOM     19  C   UNL d   1      -4.120   2.045  -0.599  0.00  0.00     0.041 A 
ENDBRANCH  11  12
ENDBRANCH   2  11
BRANCH   1  20
ATOM     20  S   UNL d   1      -1.187   2.797   1.250  0.00  0.00    -0.070 SA
BRANCH  20  21
ATOM     21  C   UNL d   1      -1.162   2.754   3.032  0.00  0.00     0.007 A 
ATOM     22  C   UNL d   1      -1.122   3.985   3.697  0.00  0.00     0.019 A 
ATOM     23  C   UNL d   1      -1.154   4.053   5.092  0.00  0.00     0.008 A 
ATOM     24  C   UNL d   1      -1.234   2.883   5.854  0.00  0.00    -0.062 A 
ATOM     25  C   UNL d   1      -1.275   1.650   5.196  0.00  0.00     0.008 A 
ATOM     26  C   UNL d   1      -1.270   2.972   7.351  0.00  0.00     0.048 C 
ATOM     27  C   UNL d   1      -1.246   1.584   3.796  0.00  0.00     0.019 A 
ENDBRANCH  20  21
ENDBRANCH   1  20
TORSDOF 4
