REMARK  6 active torsions:
REMARK  status: ('A' for Active; 'I' for Inactive)
REMARK    1  A    between atoms: C_12  and  C_3 
REMARK    2  A    between atoms: C_11  and  C_4 
REMARK    3  A    between atoms: C_16  and  C_10 
REMARK       I    between atoms: N_13  and  C_11 
REMARK    4  A    between atoms: C_15  and  N_13 
REMARK    5  A    between atoms: N_17  and  C_15 
REMARK    6  A    between atoms: C_18  and  N_17 
ROOT
ATOM      1  C   UNL d   1       1.817   0.132  -0.509  0.00  0.00     0.145 A 
ATOM      2  N   UNL d   1       1.091   1.137   0.161  0.00  0.00    -0.234 N 
ATOM      3  C   UNL d   1       1.307   2.479  -0.130  0.00  0.00     0.144 A 
ATOM      4  C   UNL d   1       1.417  -1.073   0.049  0.00  0.00     0.095 A 
ATOM      5  N   UNL d   1       2.720   0.429  -1.495  0.00  0.00    -0.336 N 
ATOM      6  HN  UNL d   1       3.194  -0.308  -2.016  1.00  0.00     0.167 HD
ATOM      7  C   UNL d   1       2.229   2.815  -1.053  0.00  0.00     0.071 A 
ATOM      8  N   UNL d   1       0.219   0.605   1.045  0.00  0.00    -0.302 N 
ATOM      9  HN  UNL d   1      -0.430   1.103   1.654  1.00  0.00     0.186 HD
ATOM     10  C   UNL d   1       2.952   1.693  -1.744  0.00  0.00     0.120 A 
ATOM     11  C   UNL d   1       0.393  -0.708   0.948  0.00  0.00     0.128 A 
ENDROOT
BRANCH   4  12
ATOM     12  C   UNL d   1       1.792  -2.431  -0.258  0.00  0.00     0.263 C 
ATOM     13  N   UNL d   1       3.077  -2.803  -0.626  0.00  0.00    -0.299 N 
ATOM     14  H   UNL d   1       3.031  -3.736  -1.002  0.00  0.00     0.171 HD
ATOM     15  O   UNL d   1       0.957  -3.342  -0.164  0.00  0.00    -0.267 OA
BRANCH  13  16
ATOM     16  C   UNL d   1       4.388  -2.424  -0.302  0.00  0.00     0.179 C 
ATOM     17  S   UNL d   1       4.901  -1.093   0.551  0.00  0.00    -0.040 SA
BRANCH  16  18
ATOM     18  N   UNL d   1       5.338  -3.264  -0.854  0.00  0.00    -0.332 N 
ATOM     19  H   UNL d   1       6.222  -2.830  -1.110  0.00  0.00     0.168 HD
BRANCH  18  20
ATOM     20  C   UNL d   1       5.315  -4.680  -0.907  0.00  0.00     0.056 A 
ATOM     21  C   UNL d   1       6.096  -5.365  -1.850  0.00  0.00     0.060 A 
ATOM     22 CL   UNL d   1       7.043  -4.511  -3.016  0.00  0.00    -0.082 Cl
ATOM     23  C   UNL d   1       6.085  -6.762  -1.899  0.00  0.00     0.026 A 
ATOM     24  C   UNL d   1       5.332  -7.489  -0.978  0.00  0.00     0.002 A 
ATOM     25  C   UNL d   1       4.589  -6.821  -0.008  0.00  0.00     0.002 A 
ATOM     26  C   UNL d   1       4.575  -5.423   0.025  0.00  0.00     0.031 A 
ENDBRANCH  18  20
ENDBRANCH  16  18
ENDBRANCH  13  16
ENDBRANCH   4  12
BRANCH   3  27
ATOM     27  C   UNL d   1       0.500   3.493   0.594  0.00  0.00     0.434 C 
ATOM     28  F   UNL d   1      -0.763   3.116   0.903  0.00  0.00    -0.165 F 
ATOM     29  F   UNL d   1       1.107   3.884   1.742  0.00  0.00    -0.165 F 
ATOM     30  F   UNL d   1       0.367   4.623  -0.160  0.00  0.00    -0.165 F 
ENDBRANCH   3  27
BRANCH  10  31
ATOM     31  C   UNL d   1       4.030   2.103  -2.753  0.00  0.00     0.432 C 
ATOM     32  F   UNL d   1       3.831   3.365  -3.232  0.00  0.00    -0.165 F 
ATOM     33  F   UNL d   1       5.271   2.105  -2.196  0.00  0.00    -0.165 F 
ATOM     34  F   UNL d   1       4.085   1.287  -3.839  0.00  0.00    -0.165 F 
ENDBRANCH  10  31
TORSDOF 6
