REMARK  6 active torsions:
REMARK  status: ('A' for Active; 'I' for Inactive)
REMARK    1  A    between atoms: N_5  and  C_1 
REMARK       I    between atoms: C_8  and  N_5 
REMARK    2  A    between atoms: C_14  and  C_8 
REMARK    3  A    between atoms: C_9  and  C_15 
REMARK    4  A    between atoms: O_13  and  C_9 
REMARK    5  A    between atoms: S_12  and  C_14 
REMARK    6  A    between atoms: C_15  and  S_12 
ROOT
ATOM      1  N   UNL d   1      -2.433  -1.717   0.037  0.00  0.00    -0.311 N 
ATOM      2  C   UNL d   1      -2.372  -3.095   0.022  0.00  0.00     0.232 C 
ATOM      3  O   UNL d   1      -1.354  -3.793  -0.031  0.00  0.00    -0.272 OA
ATOM      4  H   UNL d   1      -3.332  -1.256   0.010  0.00  0.00     0.170 HD
ENDROOT
BRANCH   1   5
ATOM      5  C   UNL d   1      -1.317  -0.900   0.012  0.00  0.00     0.130 A 
ATOM      6  N   UNL d   1      -0.054  -1.333   0.004  0.00  0.00    -0.245 N 
ATOM      7  O   UNL d   1       0.748  -0.216  -0.029  0.00  0.00    -0.241 OA
ATOM      8  HN  UNL d   1       0.257  -2.305   0.019  1.00  0.00     0.196 HD
ATOM      9  C   UNL d   1      -0.026   0.896  -0.040  0.00  0.00     0.076 A 
ATOM     10  C   UNL d   1      -1.348   0.519  -0.013  0.00  0.00     0.084 A 
ATOM     11  C   UNL d   1       0.696   2.180  -0.076  0.00  0.00     0.079 C 
ENDBRANCH   1   5
BRANCH   2  12
ATOM     12  C   UNL d   1      -3.723  -3.783  -0.012  0.00  0.00     0.177 C 
BRANCH  12  13
ATOM     13  S   UNL d   1      -4.240  -4.074  -1.736  0.00  0.00    -0.149 SA
BRANCH  13  14
ATOM     14  C   UNL d   1      -2.824  -5.037  -2.383  0.00  0.00     0.184 C 
BRANCH  14  15
ATOM     15  C   UNL d   1      -2.625  -6.349  -1.658  0.00  0.00     0.149 C 
ATOM     16  O   UNL d   1      -3.227  -7.377  -1.936  0.00  0.00    -0.649 OA
BRANCH  15  17
ATOM     17  O   UNL d   1      -1.732  -6.298  -0.643  0.00  0.00    -0.776 OA
ATOM     18  H   UNL d   1      -1.323  -5.411  -0.480  0.00  0.00     0.167 HD
ENDBRANCH  15  17
ENDBRANCH  14  15
ENDBRANCH  13  14
ENDBRANCH  12  13
ENDBRANCH   2  12
TORSDOF 6
