REMARK  4 active torsions:
REMARK  status: ('A' for Active; 'I' for Inactive)
REMARK    1  A    between atoms: C_12  and  C_3 
REMARK    2  A    between atoms: C_7  and  C_5 
REMARK    3  A    between atoms: C_11  and  C_6 
REMARK    4  A    between atoms: O_18  and  C_15 
ROOT
ATOM      1  C   UNL d   1      -2.297  -2.676   0.011  0.00  0.00     0.057 C 
ATOM      2  C   UNL d   1      -0.966  -2.429  -0.055  0.00  0.00     0.054 C 
ATOM      3  C   UNL d   1      -3.244  -1.579   0.009  0.00  0.00     0.100 C 
ATOM      4  N   UNL d   1      -4.027  -0.724  -0.021  0.00  0.00    -0.191 NA
ENDROOT
BRANCH   1   5
ATOM      5  C   UNL d   1      -2.803  -4.090   0.028  0.00  0.00    -0.015 A 
ATOM      6  C   UNL d   1      -2.093  -5.145   0.638  0.00  0.00     0.015 A 
ATOM      7  C   UNL d   1      -2.605  -6.455   0.685  0.00  0.00     0.037 A 
ATOM      8  C   UNL d   1      -3.846  -6.740   0.125  0.00  0.00     0.068 A 
ATOM      9  C   UNL d   1      -4.569  -5.711  -0.472  0.00  0.00     0.037 A 
ATOM     10  C   UNL d   1      -4.052  -4.409  -0.530  0.00  0.00     0.015 A 
BRANCH   8  11
ATOM     11  O   UNL d   1      -4.468  -7.957   0.150  0.00  0.00    -0.356 OA
ATOM     12  C   UNL d   1      -3.607  -9.090   0.152  0.00  0.00     0.210 C 
ENDBRANCH   8  11
ENDBRANCH   1   5
BRANCH   2  13
ATOM     13  C   UNL d   1      -0.349  -1.147  -0.033  0.00  0.00     0.050 A 
ATOM     14  N   UNL d   1      -0.949  -0.083   0.574  0.00  0.00    -0.341 N 
ATOM     15  C   UNL d   1      -0.162   0.959   0.382  0.00  0.00     0.116 A 
ATOM     16  HN  UNL d   1      -1.836  -0.092   1.078  1.00  0.00     0.167 HD
ATOM     17  N   UNL d   1       0.964   0.552  -0.301  0.00  0.00    -0.349 N 
ATOM     18  C   UNL d   1       0.871  -0.792  -0.550  0.00  0.00     0.119 A 
ATOM     19  H   UNL d   1       1.729   1.151  -0.568  0.00  0.00     0.167 HD
BRANCH  15  20
ATOM     20  C   UNL d   1      -0.420   2.332   0.838  0.00  0.00     0.008 A 
ATOM     21  C   UNL d   1      -1.575   2.608   1.587  0.00  0.00     0.015 A 
ATOM     22  C   UNL d   1      -1.827   3.895   2.076  0.00  0.00     0.001 A 
ATOM     23  C   UNL d   1      -0.931   4.928   1.814  0.00  0.00     0.000 A 
ATOM     24  C   UNL d   1       0.206   4.679   1.051  0.00  0.00     0.001 A 
ATOM     25  C   UNL d   1       0.459   3.391   0.564  0.00  0.00     0.015 A 
ENDBRANCH  15  20
ENDBRANCH   2  13
TORSDOF 4
