REMARK  2 active torsions:
REMARK  status: ('A' for Active; 'I' for Inactive)
REMARK    1  A    between atoms: C_3  and  O_9 
REMARK    2  A    between atoms: C_4  and  C_8 
ROOT
ATOM      1  C   UNL d   1      -1.191   1.536  -0.233  0.00  0.00     0.193 C 
ATOM      2  O   UNL d   1      -1.143  -1.330  -0.069  0.00  0.00    -0.337 OA
ATOM      3  C   UNL d   1      -2.436   0.689  -0.444  0.00  0.00     0.226 C 
ATOM      4  C   UNL d   1      -2.288  -0.578   0.421  0.00  0.00     0.198 C 
ATOM      5  C   UNL d   1       0.075   0.785  -0.119  0.00  0.00     0.046 A 
ATOM      6  C   UNL d   1       0.025  -0.610  -0.101  0.00  0.00     0.083 A 
ATOM      7  O   UNL d   1      -1.205   2.763  -0.198  0.00  0.00    -0.289 OA
ATOM      8  C   UNL d   1       1.301   1.452  -0.062  0.00  0.00     0.018 A 
ATOM      9  C   UNL d   1       1.210  -1.346  -0.102  0.00  0.00     0.038 A 
ATOM     10  C   UNL d   1       2.485   0.712  -0.028  0.00  0.00     0.001 A 
ATOM     11  C   UNL d   1       2.438  -0.684  -0.063  0.00  0.00     0.003 A 
ENDROOT
BRANCH   4  12
ATOM     12  C   UNL d   1      -2.236  -0.361   1.937  0.00  0.00    -0.026 A 
ATOM     13  C   UNL d   1      -2.928   0.695   2.554  0.00  0.00     0.010 A 
ATOM     14  C   UNL d   1      -2.802   0.934   3.924  0.00  0.00     0.001 A 
ATOM     15  C   UNL d   1      -2.004   0.108   4.708  0.00  0.00     0.000 A 
ATOM     16  C   UNL d   1      -1.355  -0.978   4.128  0.00  0.00     0.001 A 
ATOM     17  C   UNL d   1      -1.484  -1.220   2.758  0.00  0.00     0.010 A 
ENDBRANCH   4  12
BRANCH   3  18
ATOM     18  O   UNL d   1      -2.606   0.351  -1.824  0.00  0.00    -0.385 OA
ATOM     19  H   UNL d   1      -1.895  -0.271  -2.065  0.00  0.00     0.210 HD
ENDBRANCH   3  18
TORSDOF 2
