REMARK  6 active torsions:
REMARK  status: ('A' for Active; 'I' for Inactive)
REMARK    1  A    between atoms: C_8  and  C_1 
REMARK    2  A    between atoms: C_9  and  C_6 
REMARK    3  A    between atoms: C_7  and  C_12 
REMARK    4  A    between atoms: C_13  and  C_7 
REMARK    5  A    between atoms: O_23  and  C_13 
REMARK    6  A    between atoms: C_24  and  O_23 
ROOT
ATOM      1  C   UNL d   1       5.768   5.191  -0.202  0.00  0.00     0.120 C 
ATOM      2  C   UNL d   1       5.996   6.595  -0.230  0.00  0.00     0.105 C 
ATOM      3  N   UNL d   1       6.202   7.739  -0.240  0.00  0.00    -0.191 NA
ENDROOT
BRANCH   1   4
ATOM      4  C   UNL d   1       5.295   4.523   0.871  0.00  0.00     0.048 C 
ATOM      5  C   UNL d   1       5.032   5.147   2.129  0.00  0.00     0.007 C 
ATOM      6  S   UNL d   1       3.687   4.635   3.085  0.00  0.00    -0.088 SA
ATOM      7  C   UNL d   1       5.733   6.140   2.795  0.00  0.00     0.020 C 
ATOM      8  C   UNL d   1       3.935   5.868   4.237  0.00  0.00     0.033 C 
ATOM      9  C   UNL d   1       5.076   6.588   3.972  0.00  0.00     0.023 C 
BRANCH   8  10
ATOM     10  C   UNL d   1       3.040   6.173   5.399  0.00  0.00     0.067 A 
ATOM     11  C   UNL d   1       1.974   5.402   5.897  0.00  0.00     0.068 A 
ATOM     12  C   UNL d   1       1.453   6.125   6.960  0.00  0.00     0.136 A 
ATOM     13  N   UNL d   1       2.174   7.287   6.994  0.00  0.00    -0.292 N 
ATOM     14  N   UNL d   1       3.186   7.299   6.106  0.00  0.00    -0.297 N 
ATOM     15  C   UNL d   1       1.991   8.496   7.764  0.00  0.00     0.178 C 
ATOM     16  HN  UNL d   1       3.908   8.011   5.996  1.00  0.00     0.187 HD
BRANCH  12  17
ATOM     17  C   UNL d   1       0.348   5.766   7.870  0.00  0.00     0.434 C 
ATOM     18  F   UNL d   1       0.133   6.654   8.868  0.00  0.00    -0.165 F 
ATOM     19  F   UNL d   1      -0.823   5.647   7.196  0.00  0.00    -0.165 F 
ATOM     20  F   UNL d   1       0.578   4.568   8.467  0.00  0.00    -0.165 F 
ENDBRANCH  12  17
ENDBRANCH   8  10
ENDBRANCH   1   4
BRANCH   1  21
ATOM     21  C   UNL d   1       6.127   4.401  -1.409  0.00  0.00     0.304 C 
ATOM     22  O   UNL d   1       6.020   3.187  -1.503  0.00  0.00    -0.258 OA
BRANCH  21  23
ATOM     23  O   UNL d   1       6.683   5.221  -2.336  0.00  0.00    -0.317 OA
BRANCH  23  24
ATOM     24  C   UNL d   1       7.422   4.603  -3.398  0.00  0.00     0.174 C 
ATOM     25  C   UNL d   1       8.857   4.417  -2.937  0.00  0.00     0.034 C 
ENDBRANCH  23  24
ENDBRANCH  21  23
ENDBRANCH   1  21
TORSDOF 6
