REMARK  4 active torsions:
REMARK  status: ('A' for Active; 'I' for Inactive)
REMARK       I    between atoms: N_4  and  C_1 
REMARK    1  A    between atoms: C_10  and  C_1 
REMARK    2  A    between atoms: C_15  and  N_4 
REMARK    3  A    between atoms: O_11  and  C_10 
REMARK    4  A    between atoms: C_12  and  O_11 
ROOT
ATOM      1  O   UNL d   1       0.564   2.272  -0.615  0.00  0.00    -0.337 OA
ENDROOT
BRANCH   1   2
ATOM      2  C   UNL d   1       0.321   0.927  -0.190  0.00  0.00     0.217 C 
ATOM      3  C   UNL d   1      -1.021   0.908   0.537  0.00  0.00     0.050 C 
BRANCH   2   4
ATOM      4  C   UNL d   1       0.296  -0.151  -1.301  0.00  0.00     0.251 C 
ATOM      5  N   UNL d   1       0.548   0.333  -2.574  0.00  0.00    -0.325 N 
ATOM      6  H   UNL d   1       0.650   1.340  -2.652  0.00  0.00     0.169 HD
ATOM      7  O   UNL d   1       0.095  -1.329  -1.005  0.00  0.00    -0.270 OA
BRANCH   5   8
ATOM      8  C   UNL d   1       0.738  -0.422  -3.755  0.00  0.00     0.034 A 
ATOM      9  C   UNL d   1       0.678  -1.817  -3.804  0.00  0.00     0.029 A 
ATOM     10  C   UNL d   1       0.901  -2.504  -5.005  0.00  0.00     0.002 A 
ATOM     11  C   UNL d   1       1.188  -1.799  -6.169  0.00  0.00     0.000 A 
ATOM     12  C   UNL d   1       1.252  -0.410  -6.135  0.00  0.00     0.002 A 
ATOM     13  C   UNL d   1       1.028   0.275  -4.933  0.00  0.00     0.029 A 
ENDBRANCH   5   8
ENDBRANCH   2   4
ENDBRANCH   1   2
BRANCH   1  14
ATOM     14  C   UNL d   1       1.873   2.679  -0.583  0.00  0.00     0.072 A 
ATOM     15  C   UNL d   1       2.954   1.827  -0.786  0.00  0.00     0.074 A 
ATOM     16  C   UNL d   1       4.250   2.329  -0.760  0.00  0.00     0.083 A 
ATOM     17  O   UNL d   1       5.240   1.406  -0.948  0.00  0.00    -0.336 OA
ATOM     18  C   UNL d   1       4.495   3.692  -0.585  0.00  0.00    -0.003 A 
ATOM     19  C   UNL d   1       6.549   1.773  -0.470  0.00  0.00     0.078 C 
ATOM     20  C   UNL d   1       6.652   1.357   1.005  0.00  0.00     0.051 C 
ATOM     21  C   UNL d   1       7.520   0.935  -1.308  0.00  0.00     0.051 C 
ATOM     22  C   UNL d   1       6.846   3.252  -0.614  0.00  0.00     0.011 C 
ATOM     23  C   UNL d   1       5.871   4.170  -0.655  0.00  0.00     0.013 C 
ATOM     24  C   UNL d   1       3.411   4.552  -0.389  0.00  0.00     0.017 A 
ATOM     25  C   UNL d   1       2.104   4.044  -0.386  0.00  0.00     0.038 A 
ENDBRANCH   1  14
TORSDOF 4
