REMARK  4 active torsions:
REMARK  status: ('A' for Active; 'I' for Inactive)
REMARK    1  A    between atoms: C_7  and  N_1 
REMARK       I    between atoms: C_2  and  N_6 
REMARK    2  A    between atoms: C_5  and  C_2 
REMARK    3  A    between atoms: N_6  and  C_3 
REMARK    4  A    between atoms: C_4  and  C_8 
ROOT
ATOM      1  C   UNL d   1       4.650   0.952   0.437  0.00  0.00     0.062 A 
ATOM      2  C   UNL d   1       3.403   1.474   0.879  0.00  0.00     0.057 A 
ATOM      3  C   UNL d   1       5.866   2.641   1.696  0.00  0.00     0.050 A 
ATOM      4  C   UNL d   1       5.862   1.509   0.873  0.00  0.00     0.048 A 
ATOM      5  C   UNL d   1       3.439   2.645   1.657  0.00  0.00     0.032 A 
ATOM      6  C   UNL d   1       4.644   3.221   2.060  0.00  0.00     0.018 A 
ENDROOT
BRANCH   1   7
ATOM      7  N   UNL d   1       4.619  -0.139  -0.441  0.00  0.00    -0.321 N 
ATOM      8  C   UNL d   1       5.481  -1.200  -0.557  0.00  0.00     0.259 C 
ATOM      9  O   UNL d   1       6.514  -1.373   0.079  0.00  0.00    -0.267 OA
ATOM     10  H   UNL d   1       3.737  -0.246  -0.903  0.00  0.00     0.169 HD
BRANCH   8  11
ATOM     11  C   UNL d   1       4.965  -2.274  -1.460  0.00  0.00     0.070 A 
ATOM     12  C   UNL d   1       4.161  -1.985  -2.570  0.00  0.00     0.132 A 
ATOM     13  F   UNL d   1       3.880  -0.716  -2.904  0.00  0.00    -0.205 F 
ATOM     14  C   UNL d   1       3.586  -3.000  -3.331  0.00  0.00     0.043 A 
ATOM     15  C   UNL d   1       3.814  -4.330  -2.988  0.00  0.00     0.003 A 
ATOM     16  C   UNL d   1       4.627  -4.635  -1.895  0.00  0.00     0.001 A 
ATOM     17  C   UNL d   1       5.207  -3.613  -1.134  0.00  0.00     0.020 A 
ENDBRANCH   8  11
ENDBRANCH   1   7
BRANCH   2  18
ATOM     18  N   UNL d   1       2.205   0.739   0.742  0.00  0.00    -0.374 N 
ATOM     19  C   UNL d   1       1.539   0.599  -0.565  0.00  0.00     0.162 C 
ATOM     20  C   UNL d   1       0.062   0.246  -0.480  0.00  0.00    -0.034 A 
ATOM     21  C   UNL d   1      -0.760   0.401  -1.602  0.00  0.00     0.009 A 
ATOM     22  C   UNL d   1      -0.479  -0.333   0.683  0.00  0.00    -0.049 A 
ATOM     23  C   UNL d   1      -2.098   0.007  -1.559  0.00  0.00     0.001 A 
ATOM     24  C   UNL d   1      -2.624  -0.571  -0.404  0.00  0.00     0.001 A 
ATOM     25  C   UNL d   1      -1.814  -0.751   0.715  0.00  0.00     0.008 A 
ATOM     26  C   UNL d   1       0.411  -0.490   1.885  0.00  0.00     0.059 C 
ATOM     27  C   UNL d   1       1.349   0.712   1.940  0.00  0.00     0.128 C 
ENDBRANCH   2  18
BRANCH   3  28
ATOM     28  C   UNL d   1       7.151   3.239   2.214  0.00  0.00     0.417 C 
ATOM     29  F   UNL d   1       8.276   2.673   1.704  0.00  0.00    -0.166 F 
ATOM     30  F   UNL d   1       7.249   4.572   1.947  0.00  0.00    -0.166 F 
ATOM     31  F   UNL d   1       7.260   3.129   3.571  0.00  0.00    -0.166 F 
ENDBRANCH   3  28
TORSDOF 4
