REMARK  10 active torsions:
REMARK  status: ('A' for Active; 'I' for Inactive)
REMARK    1  A    between atoms: N_2  and  C_1 
REMARK    2  A    between atoms: C_4  and  C_1 
REMARK    3  A    between atoms: C_6  and  C_1 
REMARK    4  A    between atoms: N_7  and  C_1 
REMARK       I    between atoms: C_3  and  N_2 
REMARK    5  A    between atoms: C_5  and  C_3 
REMARK    6  A    between atoms: O_14  and  C_6 
REMARK    7  A    between atoms: C_17  and  N_7 
REMARK    8  A    between atoms: C_21  and  O_14 
REMARK    9  A    between atoms: C_20  and  C_17 
REMARK   10  A    between atoms: C_18  and  C_20 
ROOT
ATOM      1  C   UNL d   1       0.941   0.104   0.110  0.00  0.00     0.416 C 
ENDROOT
BRANCH   1   2
ATOM      2  N   UNL d   1       0.637   0.448  -1.310  0.00  0.00    -0.306 N 
ATOM      3  C   UNL d   1       1.095   1.545  -1.994  0.00  0.00     0.256 C 
ATOM      4  O   UNL d   1       1.908   2.332  -1.507  0.00  0.00    -0.268 OA
ATOM      5  H   UNL d   1      -0.070  -0.134  -1.746  0.00  0.00     0.166 HD
BRANCH   3   6
ATOM      6  C   UNL d   1       0.620   1.718  -3.406  0.00  0.00     0.053 A 
ATOM      7  C   UNL d   1      -0.604   1.253  -3.908  0.00  0.00     0.049 A 
ATOM      8 CL   UNL d   1      -1.875   0.641  -2.907  0.00  0.00    -0.083 Cl
ATOM      9  C   UNL d   1      -0.880   1.330  -5.284  0.00  0.00     0.025 A 
ATOM     10  C   UNL d   1       0.036   1.917  -6.156  0.00  0.00     0.002 A 
ATOM     11  C   UNL d   1       1.212   2.466  -5.654  0.00  0.00     0.001 A 
ATOM     12  C   UNL d   1       1.502   2.366  -4.289  0.00  0.00     0.019 A 
ENDBRANCH   3   6
ENDBRANCH   1   2
BRANCH   1  13
ATOM     13  C   UNL d   1       0.085  -1.170   0.518  0.00  0.00     0.452 C 
ATOM     14  F   UNL d   1      -0.774  -1.490  -0.498  0.00  0.00    -0.166 F 
ATOM     15  F   UNL d   1       0.837  -2.280   0.716  0.00  0.00    -0.166 F 
ATOM     16  F   UNL d   1      -0.687  -1.009   1.614  0.00  0.00    -0.166 F 
ENDBRANCH   1  13
BRANCH   1  17
ATOM     17  C   UNL d   1       0.442   1.192   1.110  0.00  0.00     0.329 C 
ATOM     18  O   UNL d   1       0.674   1.185   2.316  0.00  0.00    -0.260 OA
BRANCH  17  19
ATOM     19  O   UNL d   1      -0.329   2.149   0.514  0.00  0.00    -0.318 OA
BRANCH  19  20
ATOM     20  C   UNL d   1      -0.789   3.189   1.391  0.00  0.00     0.174 C 
ATOM     21  C   UNL d   1      -2.077   2.750   2.060  0.00  0.00     0.034 C 
ENDBRANCH  19  20
ENDBRANCH  17  19
ENDBRANCH   1  17
BRANCH   1  22
ATOM     22  N   UNL d   1       2.435  -0.041   0.137  0.00  0.00     0.133 N 
ATOM     23  H   UNL d   1       2.813   0.868  -0.152  0.00  0.00     0.320 HD
BRANCH  22  24
ATOM     24  C   UNL d   1       2.983  -0.413   1.450  0.00  0.00     0.278 C 
BRANCH  24  25
ATOM     25  C   UNL d   1       4.510  -0.580   1.433  0.00  0.00     0.068 C 
BRANCH  25  26
ATOM     26  C   UNL d   1       5.009  -0.995   2.801  0.00  0.00    -0.057 A 
ATOM     27  C   UNL d   1       5.132  -2.351   3.131  0.00  0.00     0.007 A 
ATOM     28  C   UNL d   1       5.540  -2.737   4.411  0.00  0.00     0.001 A 
ATOM     29  C   UNL d   1       5.822  -1.771   5.374  0.00  0.00     0.000 A 
ATOM     30  C   UNL d   1       5.697  -0.420   5.059  0.00  0.00     0.001 A 
ATOM     31  C   UNL d   1       5.292  -0.033   3.782  0.00  0.00     0.007 A 
ENDBRANCH  25  26
ENDBRANCH  24  25
ENDBRANCH  22  24
ENDBRANCH   1  22
TORSDOF 10
