REMARK  4 active torsions:
REMARK  status: ('A' for Active; 'I' for Inactive)
REMARK    1  A    between atoms: C_14  and  C_6 
REMARK    2  A    between atoms: O_12  and  C_9 
REMARK    3  A    between atoms: C_13  and  O_12 
REMARK    4  A    between atoms: C_17  and  C_14 
ROOT
ATOM      1  C   UNL d   1       1.347   4.984   1.129  0.00  0.00    -0.091 C 
ATOM      2  C   UNL d   1       1.088   6.077   1.562  0.00  0.00     0.014 C 
ATOM      3  C   UNL d   1       1.819   3.679   0.651  0.00  0.00     0.268 C 
ENDROOT
BRANCH   3   4
ATOM      4  O   UNL d   1       0.742   2.813   0.268  0.00  0.00    -0.338 OA
BRANCH   4   5
ATOM      5  C   UNL d   1       1.074   1.486   0.105  0.00  0.00     0.086 A 
ATOM      6  C   UNL d   1       0.050   0.517   0.065  0.00  0.00     0.081 A 
ATOM      7  C   UNL d   1      -1.397   0.840   0.110  0.00  0.00     0.190 A 
ATOM      8  C   UNL d   1       0.392  -0.841  -0.022  0.00  0.00     0.092 A 
ATOM      9  C   UNL d   1      -2.334  -0.304   0.046  0.00  0.00     0.088 A 
ATOM     10  O   UNL d   1      -1.853   1.973   0.180  0.00  0.00    -0.287 OA
ATOM     11  C   UNL d   1      -1.866  -1.556  -0.027  0.00  0.00     0.057 A 
ATOM     12  O   UNL d   1      -0.521  -1.864  -0.057  0.00  0.00    -0.314 OA
ATOM     13  C   UNL d   1       1.725  -1.248  -0.080  0.00  0.00     0.038 A 
ATOM     14  C   UNL d   1       2.734  -0.298  -0.093  0.00  0.00     0.006 A 
ATOM     15  C   UNL d   1       2.409   1.056  -0.018  0.00  0.00     0.038 A 
BRANCH  11  16
ATOM     16  C   UNL d   1      -2.762  -2.767  -0.110  0.00  0.00     0.065 C 
BRANCH  16  17
ATOM     17  C   UNL d   1      -2.550  -3.781   1.023  0.00  0.00     0.002 C 
ATOM     18  C   UNL d   1      -2.862  -3.219   2.402  0.00  0.00     0.005 C 
ENDBRANCH  16  17
ENDBRANCH  11  16
ENDBRANCH   4   5
ENDBRANCH   3   4
TORSDOF 4
