REMARK  2 active torsions:
REMARK  status: ('A' for Active; 'I' for Inactive)
REMARK    1  A    between atoms: N_8  and  C_1 
REMARK       I    between atoms: C_9  and  N_8 
REMARK    2  A    between atoms: C_16  and  C_9 
ROOT
ATOM      1  C   UNL d   1       2.523  -0.527  -0.070  0.00  0.00     0.155 C 
ATOM      2  S   UNL d   1       1.228  -1.659   0.045  0.00  0.00    -0.011 SA
ATOM      3  C   UNL d   1      -0.022   0.837  -0.241  0.00  0.00     0.051 A 
ATOM      4  C   UNL d   1      -0.139  -0.629  -0.289  0.00  0.00     0.229 C 
ATOM      5  N   UNL d   1       2.430   0.748  -0.142  0.00  0.00    -0.334 N 
ATOM      6  HN  UNL d   1       3.295   1.285  -0.193  1.00  0.00     0.168 HD
ATOM      7  C   UNL d   1       1.226   1.452  -0.157  0.00  0.00     0.066 A 
ATOM      8  C   UNL d   1       1.262   2.863  -0.119  0.00  0.00     0.040 A 
ATOM      9  C   UNL d   1       0.095   3.631  -0.169  0.00  0.00     0.040 A 
ATOM     10  C   UNL d   1      -1.202   1.605  -0.296  0.00  0.00     0.037 A 
ATOM     11  O   UNL d   1      -1.228  -1.139  -0.526  0.00  0.00    -0.279 OA
ATOM     12  C   UNL d   1      -1.135   2.993  -0.260  0.00  0.00     0.013 A 
ATOM     13 BR   UNL d   1       2.911   3.807  -0.002  0.00  0.00    -0.049 Br
ATOM     14 BR   UNL d   1      -2.720   4.019  -0.339  0.00  0.00    -0.051 Br
ENDROOT
BRANCH   1  15
ATOM     15  N   UNL d   1       3.739  -1.179  -0.050  0.00  0.00    -0.307 N 
ATOM     16  C   UNL d   1       4.993  -0.584  -0.097  0.00  0.00     0.227 C 
ATOM     17  O   UNL d   1       5.158   0.630  -0.270  0.00  0.00    -0.273 OA
ATOM     18  H   UNL d   1       3.682  -2.181   0.045  0.00  0.00     0.171 HD
BRANCH  16  19
ATOM     19  C   UNL d   1       6.220  -1.500   0.053  0.00  0.00     0.078 C 
ATOM     20  C   UNL d   1       6.162  -3.042   0.183  0.00  0.00     0.014 C 
ATOM     21  C   UNL d   1       7.355  -2.939   1.159  0.00  0.00     0.002 C 
ATOM     22  C   UNL d   1       6.899  -1.501   1.452  0.00  0.00     0.014 C 
ENDBRANCH  16  19
ENDBRANCH   1  15
TORSDOF 2
