REMARK  2 active torsions:
REMARK  status: ('A' for Active; 'I' for Inactive)
REMARK    1  A    between atoms: O_10  and  N_4 
REMARK    2  A    between atoms: C_9  and  C_8 
ROOT
ATOM      1  C   UNL d   1       0.144   0.776  -0.012  0.00  0.00    -0.022 A 
ATOM      2  C   UNL d   1       0.239  -0.606   0.018  0.00  0.00     0.075 A 
ATOM      3  O   UNL d   1       1.529  -1.065   0.075  0.00  0.00    -0.350 OA
ATOM      4  C   UNL d   1      -1.088   1.403  -0.052  0.00  0.00     0.022 A 
ATOM      5  C   UNL d   1      -0.877  -1.419   0.008  0.00  0.00     0.038 A 
ATOM      6  C   UNL d   1      -2.234   0.598  -0.083  0.00  0.00    -0.018 A 
ATOM      7  C   UNL d   1      -2.132  -0.806  -0.052  0.00  0.00     0.015 A 
ATOM      8  C   UNL d   1       2.321   0.108  -0.229  0.00  0.00     0.180 C 
ATOM      9  C   UNL d   1       1.499   1.362   0.072  0.00  0.00     0.068 C 
ENDROOT
BRANCH   6  10
ATOM     10  C   UNL d   1      -3.574   1.212  -0.149  0.00  0.00     0.125 C 
ATOM     11  N   UNL d   1      -3.739   2.496  -0.183  0.00  0.00    -0.280 N 
ATOM     12  HN  UNL d   1      -2.991   3.189  -0.165  1.00  0.00     0.193 HD
BRANCH  11  13
ATOM     13  O   UNL d   1      -5.107   2.781  -0.248  0.00  0.00    -0.290 OA
ATOM     14  H   UNL d   1      -5.117   3.756  -0.269  0.00  0.00     0.244 HD
ENDBRANCH  11  13
ENDBRANCH   6  10
TORSDOF 2
