REMARK  8 active torsions:
REMARK  status: ('A' for Active; 'I' for Inactive)
REMARK    1  A    between atoms: C_3  and  C_1 
REMARK    2  A    between atoms: C_4  and  C_1 
REMARK    3  A    between atoms: N_5  and  C_2 
REMARK    4  A    between atoms: O_9  and  C_3 
REMARK    5  A    between atoms: O_10  and  C_4 
REMARK    6  A    between atoms: C_8  and  N_5 
REMARK    7  A    between atoms: C_17  and  O_9 
REMARK    8  A    between atoms: C_18  and  O_10 
ROOT
ATOM      1  C   UNL d   1       1.006   0.030  -0.003  0.00  0.00     0.129 C 
ATOM      2  C   UNL d   1       0.335   1.048  -0.589  0.00  0.00     0.112 C 
ENDROOT
BRANCH   1   3
ATOM      3  C   UNL d   1       0.288  -1.123   0.581  0.00  0.00     0.300 C 
ATOM      4  O   UNL d   1       0.775  -1.889   1.398  0.00  0.00    -0.259 OA
BRANCH   3   5
ATOM      5  O   UNL d   1      -0.936  -1.272   0.009  0.00  0.00    -0.318 OA
BRANCH   5   6
ATOM      6  C   UNL d   1      -1.506  -2.586   0.105  0.00  0.00     0.174 C 
ATOM      7  C   UNL d   1      -1.056  -3.366  -1.117  0.00  0.00     0.034 C 
ENDBRANCH   5   6
ENDBRANCH   3   5
ENDBRANCH   1   3
BRANCH   1   8
ATOM      8  C   UNL d   1       2.491   0.064  -0.061  0.00  0.00     0.300 C 
ATOM      9  O   UNL d   1       3.135   1.081  -0.279  0.00  0.00    -0.259 OA
BRANCH   8  10
ATOM     10  O   UNL d   1       2.997  -1.189  -0.027  0.00  0.00    -0.318 OA
BRANCH  10  11
ATOM     11  C   UNL d   1       4.308  -1.334  -0.590  0.00  0.00     0.174 C 
ATOM     12  C   UNL d   1       4.131  -1.640  -2.067  0.00  0.00     0.034 C 
ENDBRANCH  10  11
ENDBRANCH   8  10
ENDBRANCH   1   8
BRANCH   2  13
ATOM     13  N   UNL d   1       0.859   2.169  -1.192  0.00  0.00    -0.365 N 
ATOM     14  H   UNL d   1       1.878   2.266  -1.121  0.00  0.00     0.165 HD
BRANCH  13  15
ATOM     15  C   UNL d   1       0.206   3.205  -1.875  0.00  0.00     0.032 A 
ATOM     16  C   UNL d   1       0.838   4.457  -1.945  0.00  0.00     0.031 A 
ATOM     17  C   UNL d   1       0.221   5.545  -2.568  0.00  0.00     0.026 A 
ATOM     18  C   UNL d   1      -1.041   5.389  -3.131  0.00  0.00     0.034 A 
ATOM     19  C   UNL d   1      -1.693   4.161  -3.060  0.00  0.00     0.026 A 
ATOM     20 CL   UNL d   1      -1.798   6.718  -3.917  0.00  0.00    -0.084 Cl
ATOM     21  C   UNL d   1      -1.075   3.078  -2.423  0.00  0.00     0.031 A 
ENDBRANCH  13  15
ENDBRANCH   2  13
TORSDOF 8
