REMARK  5 active torsions:
REMARK  status: ('A' for Active; 'I' for Inactive)
REMARK    1  A    between atoms: N_6  and  C_1 
REMARK    2  A    between atoms: S_2  and  N_6 
REMARK    3  A    between atoms: C_9  and  S_2 
REMARK    4  A    between atoms: C_15  and  N_3 
REMARK    5  A    between atoms: C_14  and  C_8 
ROOT
ATOM      1  C   UNL d   1      -0.405  -1.179  -0.138  0.00  0.00     0.118 C 
ATOM      2  N   UNL d   1       0.893  -0.715   0.012  0.00  0.00    -0.244 N 
ATOM      3  N   UNL d   1       0.901   0.618   0.274  0.00  0.00    -0.296 N 
ATOM      4  HN  UNL d   1       1.678   1.179   0.626  1.00  0.00     0.187 HD
ATOM      5  C   UNL d   1      -1.193  -0.067  -0.281  0.00  0.00     0.072 C 
ATOM      6  C   UNL d   1      -0.340   1.036  -0.031  0.00  0.00     0.037 C 
ENDROOT
BRANCH   1   7
ATOM      7  N   UNL d   1      -0.898  -2.529  -0.127  0.00  0.00    -0.165 NA
ATOM      8  H   UNL d   1      -0.252  -3.274  -0.380  0.00  0.00     0.147 HD
BRANCH   7   9
ATOM      9  S   UNL d   1      -1.627  -3.013   1.343  0.00  0.00     0.247 S 
ATOM     10  O   UNL d   1      -2.680  -2.087   1.697  0.00  0.00    -0.205 OA
ATOM     11  O   UNL d   1      -1.883  -4.432   1.207  0.00  0.00    -0.205 OA
BRANCH   9  12
ATOM     12  C   UNL d   1      -0.321  -2.856   2.558  0.00  0.00     0.076 A 
ATOM     13  C   UNL d   1       0.551  -3.932   2.774  0.00  0.00     0.050 A 
ATOM     14  C   UNL d   1       1.481  -3.875   3.819  0.00  0.00     0.057 A 
ATOM     15 CL   UNL d   1       2.507  -5.247   4.055  0.00  0.00    -0.083 Cl
ATOM     16  C   UNL d   1       1.542  -2.748   4.646  0.00  0.00     0.055 A 
ATOM     17  C   UNL d   1       0.669  -1.678   4.423  0.00  0.00     0.027 A 
ATOM     18 CL   UNL d   1       2.640  -2.629   5.974  0.00  0.00    -0.083 Cl
ATOM     19  C   UNL d   1      -0.262  -1.729   3.385  0.00  0.00     0.026 A 
ENDBRANCH   9  12
ENDBRANCH   7   9
ENDBRANCH   1   7
BRANCH   2  20
ATOM     20  C   UNL d   1       2.091  -1.467  -0.023  0.00  0.00     0.058 A 
ATOM     21  C   UNL d   1       2.193  -2.588  -0.861  0.00  0.00     0.031 A 
ATOM     22  C   UNL d   1       3.378  -3.321  -0.906  0.00  0.00     0.002 A 
ATOM     23  C   UNL d   1       4.460  -2.941  -0.117  0.00  0.00     0.000 A 
ATOM     24  C   UNL d   1       4.368  -1.818   0.708  0.00  0.00     0.002 A 
ATOM     25  C   UNL d   1       3.190  -1.069   0.746  0.00  0.00     0.031 A 
ENDBRANCH   2  20
BRANCH   6  26
ATOM     26  C   UNL d   1      -0.692   2.518  -0.000  0.00  0.00    -0.007 C 
ATOM     27  C   UNL d   1      -2.115   2.776  -0.541  0.00  0.00     0.021 C 
ATOM     28  C   UNL d   1      -0.631   3.034   1.451  0.00  0.00     0.021 C 
ATOM     29  C   UNL d   1       0.286   3.339  -0.866  0.00  0.00     0.021 C 
ENDBRANCH   6  26
TORSDOF 5
