REMARK  3 active torsions:
REMARK  status: ('A' for Active; 'I' for Inactive)
REMARK    1  A    between atoms: S_10  and  C_2 
REMARK    2  A    between atoms: C_7  and  C_4 
REMARK       I    between atoms: N_12  and  C_7 
REMARK    3  A    between atoms: N_14  and  N_12 
ROOT
ATOM      1  C   UNL d   1       0.208   0.934   0.106  0.00  0.00     0.002 C 
ATOM      2  C   UNL d   1       1.553   1.175  -0.161  0.00  0.00     0.051 C 
ATOM      3  C   UNL d   1      -0.102  -0.473  -0.127  0.00  0.00    -0.025 C 
ATOM      4  C   UNL d   1       1.034  -1.252  -0.288  0.00  0.00     0.082 C 
ATOM      5  S   UNL d   1       2.418  -0.271  -0.453  0.00  0.00    -0.076 SA
ATOM      6  C   UNL d   1      -0.871   1.903   0.597  0.00  0.00     0.085 C 
ATOM      7  S   UNL d   1      -1.009   3.411  -0.436  0.00  0.00    -0.142 SA
ATOM      8  S   UNL d   1      -0.469   2.406   2.338  0.00  0.00    -0.142 SA
ATOM      9  C   UNL d   1      -1.511  -0.992  -0.090  0.00  0.00     0.041 C 
ATOM     10  C   UNL d   1      -2.291   1.257   0.670  0.00  0.00     0.037 C 
ATOM     11  C   UNL d   1      -2.507   0.137  -0.351  0.00  0.00     0.007 C 
ATOM     12  C   UNL d   1      -0.463   4.195   2.086  0.00  0.00     0.086 C 
ATOM     13  C   UNL d   1      -1.384   4.538   0.933  0.00  0.00     0.086 C 
ENDROOT
BRANCH   4  14
ATOM     14  C   UNL d   1       1.137  -2.711  -0.303  0.00  0.00     0.273 C 
ATOM     15  O   UNL d   1       0.179  -3.466  -0.147  0.00  0.00    -0.266 OA
ATOM     16  N   UNL d   1       2.426  -3.225  -0.463  0.00  0.00    -0.289 N 
ATOM     17  H   UNL d   1       3.204  -2.588  -0.617  0.00  0.00     0.183 HD
BRANCH  16  18
ATOM     18  N   UNL d   1       2.662  -4.618  -0.404  0.00  0.00    -0.247 NA
ATOM     19  H   UNL d   1       1.762  -5.079  -0.595  0.00  0.00     0.143 HD
ATOM     20  H   UNL d   1       2.852  -4.857   0.574  0.00  0.00     0.143 HD
ENDBRANCH  16  18
ENDBRANCH   4  14
BRANCH   2  21
ATOM     21  S   UNL d   1       2.431   2.708  -0.127  0.00  0.00    -0.126 SA
ATOM     22  C   UNL d   1       3.123   2.757  -1.801  0.00  0.00     0.096 C 
ENDBRANCH   2  21
TORSDOF 3
