REMARK  4 active torsions:
REMARK  status: ('A' for Active; 'I' for Inactive)
REMARK    1  A    between atoms: C_2  and  C_1 
REMARK    2  A    between atoms: C_9  and  C_6 
REMARK    3  A    between atoms: C_11  and  C_12 
REMARK    4  A    between atoms: O_17  and  C_11 
ROOT
ATOM      1  C   UNL d   1      -0.090   1.113  -0.029  0.00  0.00     0.089 A 
ATOM      2  O   UNL d   1      -0.977   0.075  -0.038  0.00  0.00    -0.310 OA
ATOM      3  C   UNL d   1       1.194   0.614  -0.033  0.00  0.00     0.041 A 
ATOM      4  C   UNL d   1      -0.273  -1.112  -0.019  0.00  0.00     0.076 A 
ATOM      5  C   UNL d   1       1.078  -0.794  -0.024  0.00  0.00     0.040 A 
ENDROOT
BRANCH   1   6
ATOM      6  C   UNL d   1      -0.657   2.456   0.016  0.00  0.00     0.036 A 
ATOM      7  C   UNL d   1       0.082   3.529   0.540  0.00  0.00     0.132 A 
ATOM      8  C   UNL d   1      -0.447   4.813   0.619  0.00  0.00     0.085 A 
ATOM      9  F   UNL d   1       1.329   3.338   1.000  0.00  0.00    -0.205 F 
ATOM     10  C   UNL d   1      -1.735   5.039   0.159  0.00  0.00     0.119 A 
ATOM     11  C   UNL d   1      -2.492   4.006  -0.381  0.00  0.00     0.043 A 
ATOM     12  F   UNL d   1      -2.257   6.269   0.240  0.00  0.00    -0.206 F 
ATOM     13  C   UNL d   1      -1.955   2.716  -0.452  0.00  0.00     0.020 A 
ENDBRANCH   1   6
BRANCH   4  14
ATOM     14  C   UNL d   1      -0.869  -2.402   0.005  0.00  0.00     0.044 C 
ATOM     15  C   UNL d   1      -2.201  -2.548   0.024  0.00  0.00     0.084 C 
BRANCH  15  16
ATOM     16  C   UNL d   1      -2.764  -3.910   0.043  0.00  0.00     0.165 C 
ATOM     17  O   UNL d   1      -2.103  -4.933   0.043  0.00  0.00    -0.647 OA
BRANCH  16  18
ATOM     18  O   UNL d   1      -4.112  -3.900   0.057  0.00  0.00    -0.773 OA
ATOM     19  H   UNL d   1      -4.527  -3.019   0.059  0.00  0.00     0.167 HD
ENDBRANCH  16  18
ENDBRANCH  15  16
ENDBRANCH   4  14
TORSDOF 4
