REMARK  0 active torsions:
REMARK  status: ('A' for Active; 'I' for Inactive)
ROOT
ATOM      1  C   UNL d   1       0.271  -0.749   0.000  0.00  0.00     0.068 A 
ATOM      2  C   UNL d   1       0.258   0.757  -0.001  0.00  0.00     0.068 A 
ATOM      3  C   UNL d   1      -0.933  -1.487   0.001  0.00  0.00     0.058 A 
ATOM      4  C   UNL d   1      -0.959   1.475  -0.001  0.00  0.00     0.058 A 
ATOM      5  S   UNL d   1       2.558   0.024  -0.001  0.00  0.00     0.068 SA
ATOM      6  C   UNL d   1      -2.120  -0.729   0.001  0.00  0.00     0.058 A 
ATOM      7  C   UNL d   1      -2.132   0.696   0.000  0.00  0.00     0.058 A 
ATOM      8  N   UNL d   1       1.487   1.294  -0.001  0.00  0.00    -0.310 N 
ATOM      9  HN  UNL d   1       1.718   2.288  -0.002  1.00  0.00     0.176 HD
ATOM     10  N   UNL d   1       1.509  -1.265   0.000  0.00  0.00    -0.310 N 
ATOM     11  HN  UNL d   1       1.757  -2.254   0.001  1.00  0.00     0.176 HD
ATOM     12 CL   UNL d   1      -3.599  -1.638   0.002  0.00  0.00    -0.082 Cl
ATOM     13 CL   UNL d   1      -3.627   1.581   0.000  0.00  0.00    -0.082 Cl
ENDROOT
TORSDOF 0
