REMARK  4 active torsions:
REMARK  status: ('A' for Active; 'I' for Inactive)
REMARK       I    between atoms: N_2  and  C_1 
REMARK    1  A    between atoms: C_8  and  C_1 
REMARK    2  A    between atoms: C_5  and  N_2 
REMARK    3  A    between atoms: C_3  and  C_4 
REMARK    4  A    between atoms: O_10  and  C_3 
ROOT
ATOM      1  C   UNL d   1       2.670  -3.991   0.900  0.00  0.00     0.041 A 
ATOM      2  C   UNL d   1       0.939  -2.503   0.051  0.00  0.00     0.035 A 
ATOM      3  C   UNL d   1       1.984  -2.771   0.938  0.00  0.00     0.047 A 
ATOM      4  C   UNL d   1       2.259  -4.982   0.003  0.00  0.00     0.018 A 
ATOM      5  C   UNL d   1       1.172  -4.748  -0.842  0.00  0.00     0.003 A 
ATOM      6  C   UNL d   1       0.511  -3.514  -0.816  0.00  0.00     0.029 A 
ENDROOT
BRANCH   2   7
ATOM      7  N   UNL d   1       0.315  -1.234  -0.029  0.00  0.00    -0.323 N 
ATOM      8  C   UNL d   1       0.870  -0.058   0.457  0.00  0.00     0.256 C 
ATOM      9  O   UNL d   1       1.974   0.055   0.979  0.00  0.00    -0.267 OA
ATOM     10  H   UNL d   1      -0.482  -1.156  -0.645  0.00  0.00     0.169 HD
BRANCH   8  11
ATOM     11  C   UNL d   1       0.082   1.187   0.271  0.00  0.00     0.032 A 
ATOM     12  C   UNL d   1      -1.316   1.206   0.288  0.00  0.00     0.017 A 
ATOM     13  C   UNL d   1      -1.991   2.428   0.201  0.00  0.00     0.001 A 
ATOM     14  C   UNL d   1      -1.277   3.625   0.102  0.00  0.00     0.000 A 
ATOM     15  C   UNL d   1       0.115   3.607   0.077  0.00  0.00     0.001 A 
ATOM     16  C   UNL d   1       0.792   2.393   0.163  0.00  0.00     0.017 A 
ENDBRANCH   8  11
ENDBRANCH   2   7
BRANCH   1  17
ATOM     17  C   UNL d   1       3.868  -4.237   1.748  0.00  0.00     0.293 C 
ATOM     18  O   UNL d   1       4.467  -5.301   1.780  0.00  0.00    -0.259 OA
BRANCH  17  19
ATOM     19  O   UNL d   1       4.214  -3.108   2.412  0.00  0.00    -0.323 OA
ATOM     20  C   UNL d   1       5.453  -3.176   3.115  0.00  0.00     0.213 C 
ENDBRANCH  17  19
ENDBRANCH   1  17
TORSDOF 4
