REMARK  2 active torsions:
REMARK  status: ('A' for Active; 'I' for Inactive)
REMARK    1  A    between atoms: N_13  and  C_10 
REMARK    2  A    between atoms: C_15  and  N_13 
ROOT
ATOM      1  S   UNL d   1      -1.015  -1.436   0.055  0.00  0.00     0.270 S 
ATOM      2  C   UNL d   1      -1.720  -0.195   2.285  0.00  0.00     0.101 A 
ATOM      3  N   UNL d   1      -1.439  -1.473   1.688  0.00  0.00    -0.269 N 
ATOM      4  C   UNL d   1      -2.014   0.963   1.569  0.00  0.00     0.057 A 
ATOM      5  C   UNL d   1      -2.099  -0.271  -0.558  0.00  0.00     0.146 C 
ATOM      6  C   UNL d   1      -2.062   1.029   0.101  0.00  0.00     0.210 C 
ATOM      7  S   UNL d   1      -1.783   0.052   3.966  0.00  0.00    -0.075 SA
ATOM      8  C   UNL d   1      -2.338   2.064   2.469  0.00  0.00    -0.032 A 
ATOM      9  C   UNL d   1      -2.222   1.684   3.797  0.00  0.00    -0.012 A 
ATOM     10  C   UNL d   1      -3.082  -0.610  -1.403  0.00  0.00     0.119 C 
ATOM     11  O   UNL d   1      -1.323  -2.745  -0.492  0.00  0.00    -0.200 OA
ATOM     12  O   UNL d   1       0.344  -0.933  -0.026  0.00  0.00    -0.200 OA
ATOM     13  O   UNL d   1      -2.169   2.068  -0.546  0.00  0.00    -0.286 OA
ATOM     14  C   UNL d   1      -1.127  -2.703   2.421  0.00  0.00     0.170 C 
ATOM     15  C   UNL d   1      -2.781   3.441   2.066  0.00  0.00     0.050 C 
ATOM     16  C   UNL d   1      -2.462   2.518   5.014  0.00  0.00     0.057 C 
ENDROOT
BRANCH  10  17
ATOM     17  N   UNL d   1      -4.104   0.177  -1.872  0.00  0.00    -0.351 N 
ATOM     18  H   UNL d   1      -3.942   1.184  -1.911  0.00  0.00     0.166 HD
BRANCH  17  19
ATOM     19  C   UNL d   1      -5.183  -0.200  -2.671  0.00  0.00     0.104 A 
ATOM     20  N   UNL d   1      -5.732   0.778  -3.417  0.00  0.00    -0.352 N 
ATOM     21  C   UNL d   1      -6.751   0.446  -4.242  0.00  0.00     0.089 A 
ATOM     22  HN  UNL d   1      -5.391   1.738  -3.361  1.00  0.00     0.166 HD
ATOM     23  C   UNL d   1      -7.277  -0.829  -4.345  0.00  0.00     0.017 A 
ATOM     24  C   UNL d   1      -6.736  -1.820  -3.542  0.00  0.00     0.005 A 
ATOM     25  C   UNL d   1      -5.678  -1.503  -2.694  0.00  0.00     0.048 A 
ENDBRANCH  17  19
ENDBRANCH  10  17
TORSDOF 2
