REMARK  1 active torsions:
REMARK  status: ('A' for Active; 'I' for Inactive)
REMARK    1  A    between atoms: C_11  and  C_8 
ROOT
ATOM      1  N   UNL d   1       1.241  -0.615  -0.070  0.00  0.00    -0.203 N 
ATOM      2  C   UNL d   1       1.203   0.768   0.034  0.00  0.00     0.133 A 
ATOM      3  N   UNL d   1       2.513  -1.087  -0.136  0.00  0.00    -0.287 N 
ATOM      4  HN  UNL d   1       2.820  -2.052  -0.259  1.00  0.00     0.188 HD
ATOM      5  C   UNL d   1       0.102  -1.444  -0.100  0.00  0.00     0.277 A 
ATOM      6  C   UNL d   1      -1.172  -0.691  -0.038  0.00  0.00     0.044 A 
ATOM      7  C   UNL d   1       2.502   1.194   0.113  0.00  0.00     0.084 A 
ATOM      8  C   UNL d   1       3.271   0.011  -0.003  0.00  0.00     0.086 A 
ATOM      9  N   UNL d   1       0.002   1.391   0.056  0.00  0.00    -0.343 N 
ATOM     10  C   UNL d   1      -1.165   0.653   0.017  0.00  0.00     0.032 A 
ATOM     11  S   UNL d   1      -3.724  -0.062   0.004  0.00  0.00    -0.158 SA
ATOM     12  O   UNL d   1       0.178  -2.664  -0.169  0.00  0.00    -0.266 OA
ATOM     13  C   UNL d   1      -2.474  -1.394  -0.042  0.00  0.00     0.120 A 
ATOM     14  C   UNL d   1      -2.516   1.304   0.033  0.00  0.00     0.132 A 
ATOM     15  H   UNL d   1      -0.084   2.405   0.117  0.00  0.00     0.167 HD
ENDROOT
BRANCH   8  16
ATOM     16  C   UNL d   1       4.761  -0.039   0.026  0.00  0.00     0.103 A 
ATOM     17  O   UNL d   1       5.569   1.043   0.250  0.00  0.00    -0.320 OA
ATOM     18  C   UNL d   1       6.852   0.598   0.231  0.00  0.00     0.142 A 
ATOM     19  C   UNL d   1       6.891  -0.752  -0.024  0.00  0.00     0.027 A 
ATOM     20  C   UNL d   1       5.543  -1.164  -0.155  0.00  0.00     0.041 A 
ENDBRANCH   8  16
TORSDOF 1
