REMARK  6 active torsions:
REMARK  status: ('A' for Active; 'I' for Inactive)
REMARK    1  A    between atoms: C_5  and  C_1 
REMARK    2  A    between atoms: N_2  and  O_12 
REMARK    3  A    between atoms: C_11  and  C_4 
REMARK    4  A    between atoms: N_17  and  C_4 
REMARK    5  A    between atoms: C_8  and  C_9 
REMARK    6  A    between atoms: O_12  and  C_8 
ROOT
ATOM      1  N   UNL d   1      -0.365  -5.061   0.133  0.00  0.00    -0.246 N 
ATOM      2  HN  UNL d   1       0.590  -5.414   0.071  1.00  0.00     0.196 HD
ATOM      3  C   UNL d   1      -1.422  -5.815   0.206  0.00  0.00     0.109 C 
ENDROOT
BRANCH   1   4
ATOM      4  O   UNL d   1      -0.707  -3.695   0.149  0.00  0.00    -0.194 OA
BRANCH   4   5
ATOM      5  C   UNL d   1       0.368  -2.843   0.043  0.00  0.00     0.304 C 
ATOM      6  O   UNL d   1       0.200  -1.628  -0.043  0.00  0.00    -0.258 OA
BRANCH   5   7
ATOM      7  C   UNL d   1       1.727  -3.442   0.070  0.00  0.00     0.085 C 
ATOM      8  C   UNL d   1       2.810  -2.659  -0.053  0.00  0.00     0.025 C 
BRANCH   8   9
ATOM      9  C   UNL d   1       4.150  -3.156   0.015  0.00  0.00     0.011 A 
ATOM     10  C   UNL d   1       4.754  -4.344  -0.405  0.00  0.00    -0.044 A 
ATOM     11  C   UNL d   1       6.160  -4.362  -0.098  0.00  0.00     0.015 A 
ATOM     12  C   UNL d   1       4.124  -5.501  -1.117  0.00  0.00     0.049 C 
ATOM     13  C   UNL d   1       6.594  -3.213   0.513  0.00  0.00     0.051 A 
ATOM     14  S   UNL d   1       5.329  -2.100   0.725  0.00  0.00    -0.102 SA
ENDBRANCH   8   9
ENDBRANCH   5   7
ENDBRANCH   4   5
ENDBRANCH   1   4
BRANCH   3  15
ATOM     15  C   UNL d   1      -1.210  -7.298   0.190  0.00  0.00     0.004 A 
ATOM     16  C   UNL d   1      -0.003  -7.830   0.661  0.00  0.00     0.016 A 
ATOM     17  C   UNL d   1       0.209  -9.210   0.643  0.00  0.00     0.024 A 
ATOM     18  C   UNL d   1      -0.781 -10.057   0.148  0.00  0.00     0.034 A 
ATOM     19  C   UNL d   1      -1.985  -9.534  -0.327  0.00  0.00     0.024 A 
ATOM     20 CL   UNL d   1      -0.515 -11.756   0.120  0.00  0.00    -0.084 Cl
ATOM     21  C   UNL d   1      -2.201  -8.154  -0.307  0.00  0.00     0.016 A 
ENDBRANCH   3  15
BRANCH   3  22
ATOM     22  N   UNL d   1      -2.707  -5.335   0.308  0.00  0.00    -0.286 NA
ATOM     23  H   UNL d   1      -2.742  -4.348   0.547  0.00  0.00     0.125 HD
ATOM     24  H   UNL d   1      -3.347  -5.888   0.866  0.00  0.00     0.125 HD
ENDBRANCH   3  22
TORSDOF 6
