REMARK  1 active torsions:
REMARK  status: ('A' for Active; 'I' for Inactive)
REMARK    1  A    between atoms: C_11  and  N_3 
ROOT
ATOM      1  C   UNL d   1       0.203  -0.606  -0.056  0.00  0.00     0.186 A 
ATOM      2  C   UNL d   1       0.227   0.770  -0.004  0.00  0.00     0.047 A 
ATOM      3  N   UNL d   1       1.506  -1.044   0.050  0.00  0.00    -0.233 N 
ATOM      4  N   UNL d   1       2.352   0.002   0.235  0.00  0.00    -0.295 N 
ATOM      5  HN  UNL d   1       3.352  -0.041   0.431  1.00  0.00     0.187 HD
ATOM      6  C   UNL d   1       1.596   1.106   0.107  0.00  0.00     0.037 A 
ATOM      7  C   UNL d   1      -1.045   1.411  -0.060  0.00  0.00    -0.040 A 
ATOM      8  O   UNL d   1      -0.845  -1.416  -0.121  0.00  0.00    -0.255 OA
ATOM      9  C   UNL d   1      -2.070  -0.836  -0.139  0.00  0.00     0.290 A 
ATOM     10  C   UNL d   1      -2.152   0.642  -0.117  0.00  0.00     0.090 A 
ATOM     11  O   UNL d   1      -3.103  -1.496  -0.183  0.00  0.00    -0.260 OA
ATOM     12  C   UNL d   1      -1.181   2.896  -0.020  0.00  0.00     0.049 C 
ATOM     13  C   UNL d   1       2.320   2.403   0.114  0.00  0.00     0.070 C 
ENDROOT
BRANCH   3  14
ATOM     14  C   UNL d   1       2.002  -2.374  -0.005  0.00  0.00     0.059 A 
ATOM     15  C   UNL d   1       1.318  -3.367  -0.720  0.00  0.00     0.031 A 
ATOM     16  C   UNL d   1       1.822  -4.669  -0.762  0.00  0.00     0.002 A 
ATOM     17  C   UNL d   1       2.990  -4.990  -0.071  0.00  0.00     0.000 A 
ATOM     18  C   UNL d   1       3.671  -4.004   0.643  0.00  0.00     0.002 A 
ATOM     19  C   UNL d   1       3.194  -2.693   0.659  0.00  0.00     0.031 A 
ENDBRANCH   3  14
TORSDOF 1
