REMARK  6 active torsions:
REMARK  status: ('A' for Active; 'I' for Inactive)
REMARK    1  A    between atoms: C_2  and  C_1 
REMARK    2  A    between atoms: C_15  and  N_3 
REMARK    3  A    between atoms: C_17  and  N_6 
REMARK    4  A    between atoms: S_14  and  C_7 
REMARK    5  A    between atoms: C_16  and  S_14 
REMARK    6  A    between atoms: C_18  and  C_16 
ROOT
ATOM      1  C   UNL d   1      -0.119  -1.263   0.225  0.00  0.00     0.158 C 
ATOM      2  N   UNL d   1       1.181  -0.753   0.154  0.00  0.00    -0.274 N 
ATOM      3  N   UNL d   1      -0.978  -0.269   0.339  0.00  0.00    -0.281 N 
ATOM      4  HN  UNL d   1      -1.983  -0.360   0.491  1.00  0.00     0.188 HD
ATOM      5  C   UNL d   1       0.984   0.623   0.048  0.00  0.00     0.168 C 
ATOM      6  N   UNL d   1      -0.287   0.909   0.217  0.00  0.00    -0.278 N 
ATOM      7  HN  UNL d   1      -0.690   1.846   0.252  1.00  0.00     0.189 HD
ENDROOT
BRANCH   1   8
ATOM      8  C   UNL d   1      -0.524  -2.635   0.063  0.00  0.00     0.098 A 
ATOM      9  N   UNL d   1      -1.610  -3.238   0.655  0.00  0.00    -0.289 N 
ATOM     10  N   UNL d   1      -1.692  -4.563   0.390  0.00  0.00    -0.303 N 
ATOM     11  C   UNL d   1      -0.690  -4.795  -0.460  0.00  0.00     0.024 A 
ATOM     12  HN  UNL d   1      -2.368  -5.233   0.757  1.00  0.00     0.186 HD
ATOM     13  C   UNL d   1       0.041  -3.621  -0.725  0.00  0.00     0.061 A 
ATOM     14  C   UNL d   1      -0.447  -6.161  -0.984  0.00  0.00     0.070 C 
BRANCH   9  15
ATOM     15  C   UNL d   1      -2.600  -2.670   1.555  0.00  0.00     0.145 C 
ATOM     16  C   UNL d   1      -3.860  -2.238   0.824  0.00  0.00     0.028 C 
ENDBRANCH   9  15
ENDBRANCH   1   8
BRANCH   2  17
ATOM     17  C   UNL d   1       2.404  -1.489   0.261  0.00  0.00     0.043 A 
ATOM     18  C   UNL d   1       3.555  -1.110  -0.438  0.00  0.00     0.030 A 
ATOM     19  C   UNL d   1       4.748  -1.821  -0.278  0.00  0.00     0.002 A 
ATOM     20  C   UNL d   1       4.797  -2.932   0.560  0.00  0.00     0.000 A 
ATOM     21  C   UNL d   1       3.654  -3.335   1.241  0.00  0.00     0.002 A 
ATOM     22  C   UNL d   1       2.465  -2.613   1.104  0.00  0.00     0.030 A 
ENDBRANCH   2  17
BRANCH   5  23
ATOM     23  S   UNL d   1       2.228   1.821  -0.172  0.00  0.00    -0.087 SA
BRANCH  23  24
ATOM     24  C   UNL d   1       1.536   3.262   0.681  0.00  0.00     0.121 C 
BRANCH  24  25
ATOM     25  C   UNL d   1       2.443   4.480   0.628  0.00  0.00    -0.049 A 
ATOM     26  C   UNL d   1       1.961   5.692   0.108  0.00  0.00     0.008 A 
ATOM     27  C   UNL d   1       2.750   6.847   0.132  0.00  0.00     0.001 A 
ATOM     28  C   UNL d   1       4.033   6.806   0.672  0.00  0.00     0.000 A 
ATOM     29  C   UNL d   1       4.533   5.608   1.177  0.00  0.00     0.001 A 
ATOM     30  C   UNL d   1       3.743   4.454   1.160  0.00  0.00     0.008 A 
ENDBRANCH  24  25
ENDBRANCH  23  24
ENDBRANCH   5  23
TORSDOF 6
