REMARK  2 active torsions:
REMARK  status: ('A' for Active; 'I' for Inactive)
REMARK    1  A    between atoms: N_2  and  S_1 
REMARK    2  A    between atoms: C_6  and  S_1 
REMARK       I    between atoms: C_3  and  N_2 
ROOT
ATOM      1  S   UNL d   1       1.030   0.003   0.000  0.00  0.00     0.265 S 
ATOM      2  O   UNL d   1       0.598  -1.306   0.449  0.00  0.00    -0.200 OA
ATOM      3  O   UNL d   1       0.530   1.200   0.634  0.00  0.00    -0.200 OA
ENDROOT
BRANCH   1   4
ATOM      4  N   UNL d   1       0.675   0.032  -1.622  0.00  0.00    -0.251 N 
ATOM      5  C   UNL d   1       0.863   1.124  -2.476  0.00  0.00     0.227 C 
ATOM      6  O   UNL d   1       1.377   2.176  -2.125  0.00  0.00    -0.273 OA
ATOM      7  C   UNL d   1       0.408   0.901  -3.892  0.00  0.00     0.118 C 
ATOM      8  H   UNL d   1       0.244  -0.828  -1.942  0.00  0.00     0.181 HD
ENDBRANCH   1   4
BRANCH   1   9
ATOM      9  C   UNL d   1       2.805   0.019   0.036  0.00  0.00     0.079 A 
ATOM     10  C   UNL d   1       3.488   1.238   0.076  0.00  0.00     0.025 A 
ATOM     11  C   UNL d   1       4.880   1.246   0.176  0.00  0.00     0.002 A 
ATOM     12  C   UNL d   1       5.582   0.042   0.252  0.00  0.00     0.000 A 
ATOM     13  C   UNL d   1       4.898  -1.174   0.221  0.00  0.00     0.002 A 
ATOM     14  C   UNL d   1       3.506  -1.189   0.116  0.00  0.00     0.025 A 
ENDBRANCH   1   9
TORSDOF 2
