REMARK  6 active torsions:
REMARK  status: ('A' for Active; 'I' for Inactive)
REMARK    1  A    between atoms: C_9  and  C_3 
REMARK    2  A    between atoms: C_13  and  C_4 
REMARK    3  A    between atoms: C_12  and  C_11 
REMARK    4  A    between atoms: C_14  and  C_12 
REMARK    5  A    between atoms: O_25  and  C_14 
REMARK    6  A    between atoms: O_26  and  C_22 
ROOT
ATOM      1  N   UNL d   1       0.367   0.691  -0.009  0.00  0.00    -0.202 N 
ATOM      2  C   UNL d   1       0.310  -0.685   0.075  0.00  0.00     0.144 A 
ATOM      3  C   UNL d   1       2.410   0.043  -0.042  0.00  0.00     0.147 A 
ATOM      4  C   UNL d   1       1.612  -1.151   0.053  0.00  0.00     0.053 A 
ATOM      5  N   UNL d   1       1.638   1.152  -0.057  0.00  0.00    -0.284 N 
ATOM      6  HN  UNL d   1       1.945   2.124  -0.095  1.00  0.00     0.187 HD
ATOM      7  C   UNL d   1      -0.755   1.534  -0.057  0.00  0.00     0.270 A 
ATOM      8  N   UNL d   1      -0.915  -1.264   0.151  0.00  0.00    -0.343 N 
ATOM      9  C   UNL d   1      -2.057   0.814  -0.061  0.00  0.00     0.101 A 
ATOM     10  C   UNL d   1      -2.091  -0.531   0.036  0.00  0.00     0.025 A 
ATOM     11  O   UNL d   1      -0.662   2.754  -0.107  0.00  0.00    -0.266 OA
ATOM     12  H   UNL d   1      -1.022  -2.286   0.136  0.00  0.00     0.167 HD
ENDROOT
BRANCH   4  13
ATOM     13  C   UNL d   1       1.980  -2.562   0.125  0.00  0.00    -0.020 A 
ATOM     14  C   UNL d   1       1.272  -3.533  -0.600  0.00  0.00     0.015 A 
ATOM     15  C   UNL d   1       1.606  -4.891  -0.511  0.00  0.00     0.037 A 
ATOM     16  C   UNL d   1       2.678  -5.294   0.281  0.00  0.00     0.068 A 
ATOM     17  C   UNL d   1       3.416  -4.335   0.971  0.00  0.00     0.037 A 
ATOM     18  C   UNL d   1       3.054  -2.983   0.918  0.00  0.00     0.015 A 
BRANCH  16  19
ATOM     19  O   UNL d   1       3.122  -6.582   0.395  0.00  0.00    -0.356 OA
ATOM     20  C   UNL d   1       2.098  -7.570   0.429  0.00  0.00     0.210 C 
ENDBRANCH  16  19
ENDBRANCH   4  13
BRANCH   3  21
ATOM     21  C   UNL d   1       3.913   0.177  -0.124  0.00  0.00     0.434 C 
ATOM     22  F   UNL d   1       4.551  -0.997  -0.368  0.00  0.00    -0.165 F 
ATOM     23  F   UNL d   1       4.305   1.025  -1.114  0.00  0.00    -0.165 F 
ATOM     24  F   UNL d   1       4.437   0.660   1.037  0.00  0.00    -0.165 F 
ENDBRANCH   3  21
BRANCH  10  25
ATOM     25  C   UNL d   1      -3.425  -1.257   0.027  0.00  0.00     0.168 C 
BRANCH  25  26
ATOM     26  C   UNL d   1      -3.410  -2.602  -0.687  0.00  0.00     0.264 C 
ATOM     27  O   UNL d   1      -2.439  -3.353  -0.751  0.00  0.00    -0.265 OA
BRANCH  26  28
ATOM     28  O   UNL d   1      -4.651  -2.893  -1.165  0.00  0.00    -0.326 OA
ATOM     29  C   UNL d   1      -4.751  -4.173  -1.795  0.00  0.00     0.213 C 
ENDBRANCH  26  28
ENDBRANCH  25  26
ENDBRANCH  10  25
TORSDOF 6
