REMARK  4 active torsions:
REMARK  status: ('A' for Active; 'I' for Inactive)
REMARK    1  A    between atoms: C_7  and  C_1 
REMARK    2  A    between atoms: O_12  and  C_2 
REMARK    3  A    between atoms: O_13  and  C_3 
REMARK    4  A    between atoms: O_14  and  C_5 
ROOT
ATOM      1  C   UNL d   1       1.735   1.270   0.016  0.00  0.00     0.080 A 
ATOM      2  C   UNL d   1       1.949  -0.138  -0.025  0.00  0.00     0.118 A 
ATOM      3  C   UNL d   1       0.419   1.796   0.056  0.00  0.00     0.098 A 
ATOM      4  C   UNL d   1      -0.636   0.849   0.041  0.00  0.00     0.037 A 
ATOM      5  C   UNL d   1       0.904  -1.077  -0.005  0.00  0.00     0.137 A 
ATOM      6  C   UNL d   1      -0.370  -0.509   0.017  0.00  0.00     0.124 A 
ATOM      7  O   UNL d   1      -1.542  -1.216  -0.002  0.00  0.00    -0.319 OA
ATOM      8  C   UNL d   1      -2.062   0.960   0.026  0.00  0.00     0.042 A 
ATOM      9  C   UNL d   1      -2.558  -0.318  -0.002  0.00  0.00     0.143 A 
ENDROOT
BRANCH   1  10
ATOM     10  C   UNL d   1       2.954   2.123  -0.122  0.00  0.00     0.161 C 
ATOM     11  O   UNL d   1       3.000   2.980  -1.009  0.00  0.00    -0.293 OA
ATOM     12  C   UNL d   1       4.164   1.865   0.745  0.00  0.00     0.097 C 
ENDBRANCH   1  10
BRANCH   2  13
ATOM     13  O   UNL d   1       3.241  -0.589  -0.162  0.00  0.00    -0.357 OA
ATOM     14  H   UNL d   1       3.312  -0.912  -1.079  0.00  0.00     0.217 HD
ENDBRANCH   2  13
BRANCH   3  15
ATOM     15  O   UNL d   1      -0.047   3.067   0.123  0.00  0.00    -0.354 OA
ATOM     16  C   UNL d   1       0.767   4.218   0.061  0.00  0.00     0.210 C 
ENDBRANCH   3  15
BRANCH   5  17
ATOM     17  O   UNL d   1       0.962  -2.436  -0.068  0.00  0.00    -0.351 OA
ATOM     18  C   UNL d   1       2.195  -3.105   0.131  0.00  0.00     0.210 C 
ENDBRANCH   5  17
TORSDOF 4
