REMARK  3 active torsions:
REMARK  status: ('A' for Active; 'I' for Inactive)
REMARK    1  A    between atoms: S_11  and  C_2 
REMARK    2  A    between atoms: C_6  and  C_3 
REMARK       I    between atoms: N_10  and  C_6 
REMARK    3  A    between atoms: N_12  and  N_10 
ROOT
ATOM      1  C   UNL d   1      -0.696  -0.099  -0.040  0.00  0.00     0.069 A 
ATOM      2  C   UNL d   1       0.209   0.945  -0.030  0.00  0.00     0.062 A 
ATOM      3  C   UNL d   1       1.334  -1.269   0.021  0.00  0.00     0.076 A 
ATOM      4  S   UNL d   1       1.826   0.368  -0.017  0.00  0.00    -0.076 SA
ATOM      5  C   UNL d   1      -0.043  -1.370  -0.025  0.00  0.00     0.049 A 
ATOM      6  C   UNL d   1      -2.120   0.053  -0.033  0.00  0.00     0.101 C 
ATOM      7  N   UNL d   1      -3.274   0.164  -0.046  0.00  0.00    -0.191 NA
ENDROOT
BRANCH   2   8
ATOM      8  S   UNL d   1      -0.104   2.677   0.052  0.00  0.00    -0.126 SA
ATOM      9  C   UNL d   1      -0.952   2.983  -1.514  0.00  0.00     0.096 C 
ENDBRANCH   2   8
BRANCH   3  10
ATOM     10  C   UNL d   1       2.276  -2.378   0.112  0.00  0.00     0.272 C 
ATOM     11  O   UNL d   1       1.915  -3.554   0.185  0.00  0.00    -0.266 OA
ATOM     12  N   UNL d   1       3.630  -2.045   0.125  0.00  0.00    -0.289 N 
ATOM     13  H   UNL d   1       3.914  -1.080  -0.028  0.00  0.00     0.183 HD
BRANCH  12  14
ATOM     14  N   UNL d   1       4.614  -3.061   0.167  0.00  0.00    -0.247 NA
ATOM     15  H   UNL d   1       4.127  -3.955   0.006  0.00  0.00     0.143 HD
ATOM     16  H   UNL d   1       4.949  -3.136   1.131  0.00  0.00     0.143 HD
ENDBRANCH  12  14
ENDBRANCH   3  10
TORSDOF 3
