REMARK  8 active torsions:
REMARK  status: ('A' for Active; 'I' for Inactive)
REMARK    1  A    between atoms: C_10  and  C_1 
REMARK    2  A    between atoms: C_7  and  C_2 
REMARK    3  A    between atoms: N_8  and  C_9 
REMARK    4  A    between atoms: O_22  and  C_10 
REMARK    5  A    between atoms: C_12  and  C_13 
REMARK    6  A    between atoms: O_24  and  C_12 
REMARK    7  A    between atoms: C_30  and  O_22 
REMARK    8  A    between atoms: C_29  and  O_24 
ROOT
ATOM      1  C   UNL d   1       2.082  -1.418  -0.418  0.00  0.00     0.052 C 
ATOM      2  C   UNL d   1       0.576  -1.702  -0.330  0.00  0.00     0.100 C 
ATOM      3  C   UNL d   1      -0.303  -0.450  -0.445  0.00  0.00     0.023 C 
ATOM      4  C   UNL d   1       2.526  -0.139  -0.578  0.00  0.00     0.018 C 
ATOM      5  C   UNL d   1       0.241   0.781  -0.574  0.00  0.00     0.020 C 
ATOM      6  N   UNL d   1       1.613   0.913  -0.731  0.00  0.00    -0.362 N 
ATOM      7  C   UNL d   1      -1.776  -0.573  -0.266  0.00  0.00     0.158 C 
ATOM      8  O   UNL d   1      -2.374  -1.600  -0.574  0.00  0.00    -0.293 OA
ATOM      9  C   UNL d   1      -0.544   2.053  -0.348  0.00  0.00     0.058 C 
ATOM     10  C   UNL d   1       3.961   0.326  -0.444  0.00  0.00     0.069 C 
ATOM     11  C   UNL d   1      -2.501   0.620   0.309  0.00  0.00     0.084 C 
ATOM     12  C   UNL d   1      -2.056   1.874  -0.422  0.00  0.00     0.014 C 
ATOM     13  H   UNL d   1       1.994   1.853  -0.608  0.00  0.00     0.165 HD
ENDROOT
BRANCH   2  14
ATOM     14  C   UNL d   1       0.158  -2.598   0.890  0.00  0.00    -0.018 A 
ATOM     15  C   UNL d   1       0.269  -2.377   2.309  0.00  0.00     0.037 A 
ATOM     16  C   UNL d   1      -0.410  -3.337   3.115  0.00  0.00     0.030 A 
ATOM     17  C   UNL d   1      -1.063  -4.477   2.628  0.00  0.00     0.002 A 
ATOM     18  C   UNL d   1      -1.092  -4.715   1.277  0.00  0.00     0.001 A 
ATOM     19  C   UNL d   1      -0.502  -3.791   0.430  0.00  0.00     0.010 A 
BRANCH  15  20
ATOM     20  N   UNL d   1       0.857  -1.298   3.008  0.00  0.00    -0.380 N 
ATOM     21  C   UNL d   1       1.540  -0.229   2.315  0.00  0.00     0.124 C 
ATOM     22  C   UNL d   1       1.452   1.105   3.035  0.00  0.00     0.034 C 
ATOM     23  C   UNL d   1       2.038   0.997   4.432  0.00  0.00     0.088 C 
ATOM     24  C   UNL d   1       1.361  -0.187   5.141  0.00  0.00     0.034 C 
ATOM     25  C   UNL d   1       1.468  -1.500   4.342  0.00  0.00     0.124 C 
BRANCH  23  26
ATOM     26  C   UNL d   1       3.553   0.886   4.338  0.00  0.00     0.263 C 
ATOM     27  O   UNL d   1       4.229   1.407   3.464  0.00  0.00    -0.265 OA
BRANCH  26  28
ATOM     28  O   UNL d   1       4.046   0.138   5.364  0.00  0.00    -0.322 OA
BRANCH  28  29
ATOM     29  C   UNL d   1       5.413  -0.272   5.267  0.00  0.00     0.174 C 
ATOM     30  C   UNL d   1       6.265   0.540   6.221  0.00  0.00     0.034 C 
ENDBRANCH  28  29
ENDBRANCH  26  28
ENDBRANCH  23  26
ENDBRANCH  15  20
ENDBRANCH   2  14
BRANCH   1  31
ATOM     31  C   UNL d   1       3.005  -2.560  -0.185  0.00  0.00     0.292 C 
ATOM     32  O   UNL d   1       4.089  -2.498   0.377  0.00  0.00    -0.259 OA
BRANCH  31  33
ATOM     33  O   UNL d   1       2.447  -3.699  -0.677  0.00  0.00    -0.318 OA
BRANCH  33  34
ATOM     34  C   UNL d   1       3.180  -4.921  -0.469  0.00  0.00     0.174 C 
ATOM     35  C   UNL d   1       3.096  -5.398   0.972  0.00  0.00     0.034 C 
ENDBRANCH  33  34
ENDBRANCH  31  33
ENDBRANCH   1  31
TORSDOF 8
