REMARK  5 active torsions:
REMARK  status: ('A' for Active; 'I' for Inactive)
REMARK    1  A    between atoms: N_2  and  S_1 
REMARK    2  A    between atoms: C_11  and  S_1 
REMARK    3  A    between atoms: S_4  and  N_2 
REMARK    4  A    between atoms: C_5  and  C_7 
REMARK    5  A    between atoms: C_8  and  N_6 
ROOT
ATOM      1  S   UNL d   1       0.924   0.274  -2.594  0.00  0.00    -0.115 SA
ATOM      2  N   UNL d   1      -0.380   3.148  -2.912  0.00  0.00    -0.268 NA
ATOM      3  C   UNL d   1       1.635   1.933  -2.314  0.00  0.00     0.100 C 
ATOM      4  C   UNL d   1      -0.564   0.787  -3.517  0.00  0.00     0.100 C 
ATOM      5  C   UNL d   1       0.634   2.990  -1.862  0.00  0.00     0.108 C 
ATOM      6  C   UNL d   1      -1.308   2.014  -2.981  0.00  0.00     0.108 C 
ENDROOT
BRANCH   1   7
ATOM      7  N   UNL d   1       0.269  -0.025  -1.155  0.00  0.00    -0.264 N 
ATOM      8  HN  UNL d   1      -0.735  -0.159  -1.039  1.00  0.00     0.186 HD
BRANCH   7   9
ATOM      9  S   UNL d   1       1.363  -0.105   0.183  0.00  0.00     0.267 S 
ATOM     10  O   UNL d   1       1.267   1.141   0.920  0.00  0.00    -0.200 OA
ATOM     11  O   UNL d   1       2.661  -0.602  -0.242  0.00  0.00    -0.200 OA
BRANCH   9  12
ATOM     12  C   UNL d   1       0.626  -1.375   1.185  0.00  0.00     0.080 A 
ATOM     13  C   UNL d   1       1.116  -2.684   1.101  0.00  0.00     0.027 A 
ATOM     14  C   UNL d   1       0.640  -3.656   1.983  0.00  0.00     0.025 A 
ATOM     15  C   UNL d   1      -0.314  -3.315   2.942  0.00  0.00     0.034 A 
ATOM     16  C   UNL d   1      -0.806  -2.011   3.022  0.00  0.00     0.025 A 
ATOM     17 CL   UNL d   1      -0.868  -4.506   4.053  0.00  0.00    -0.084 Cl
ATOM     18  C   UNL d   1      -0.332  -1.033   2.144  0.00  0.00     0.027 A 
ENDBRANCH   9  12
ENDBRANCH   7   9
ENDBRANCH   1   7
BRANCH   2  19
ATOM     19  C   UNL d   1      -0.938   4.426  -2.983  0.00  0.00     0.082 A 
ATOM     20  N   UNL d   1      -2.262   4.613  -2.802  0.00  0.00    -0.356 N 
ATOM     21  C   UNL d   1      -2.754   5.873  -2.923  0.00  0.00     0.105 A 
ATOM     22  HN  UNL d   1      -2.877   3.830  -2.580  1.00  0.00     0.166 HD
ATOM     23  C   UNL d   1      -1.991   6.987  -3.239  0.00  0.00     0.063 A 
ATOM     24  C   UNL d   1      -0.628   6.781  -3.441  0.00  0.00     0.021 A 
ATOM     25  C   UNL d   1      -0.106   5.499  -3.314  0.00  0.00     0.043 A 
BRANCH  23  26
ATOM     26  C   UNL d   1      -2.600   8.344  -3.380  0.00  0.00     0.418 C 
ATOM     27  F   UNL d   1      -3.925   8.387  -3.075  0.00  0.00    -0.166 F 
ATOM     28  F   UNL d   1      -2.002   9.268  -2.576  0.00  0.00    -0.166 F 
ATOM     29  F   UNL d   1      -2.491   8.832  -4.647  0.00  0.00    -0.166 F 
ENDBRANCH  23  26
ENDBRANCH   2  19
TORSDOF 5
