REMARK  4 active torsions:
REMARK  status: ('A' for Active; 'I' for Inactive)
REMARK    1  A    between atoms: C_2  and  C_1 
REMARK       I    between atoms: N_3  and  C_2 
REMARK       I    between atoms: C_4  and  N_3 
REMARK       I    between atoms: N_10  and  C_4 
REMARK    2  A    between atoms: O_22  and  C_5 
REMARK    3  A    between atoms: O_21  and  C_6 
REMARK    4  A    between atoms: C_7  and  N_10 
ROOT
ATOM      1  C   UNL d   1       1.152  -4.255   1.083  0.00  0.00     0.265 C 
ATOM      2  N   UNL d   1       0.079  -4.901   1.686  0.00  0.00    -0.275 N 
ATOM      3  C   UNL d   1      -1.089  -5.337   1.084  0.00  0.00     0.327 C 
ATOM      4  N   UNL d   1      -1.567  -4.540   0.070  0.00  0.00    -0.308 N 
ATOM      5  O   UNL d   1       0.979  -3.602   0.047  0.00  0.00    -0.267 OA
ATOM      6  O   UNL d   1      -1.547  -6.405   1.480  0.00  0.00    -0.247 OA
ATOM      7  H   UNL d   1       0.315  -5.514   2.457  0.00  0.00     0.173 HD
ATOM      8  H   UNL d   1      -0.863  -3.878  -0.244  0.00  0.00     0.170 HD
ENDROOT
BRANCH   1   9
ATOM      9  C   UNL d   1       2.503  -4.293   1.793  0.00  0.00     0.102 C 
ATOM     10  C   UNL d   1       3.588  -3.499   1.324  0.00  0.00     0.104 C 
ATOM     11  C   UNL d   1       4.755  -3.378   2.106  0.00  0.00     0.047 C 
ATOM     12 BR   UNL d   1       6.204  -2.210   1.698  0.00  0.00    -0.048 Br
ATOM     13  C   UNL d   1       4.873  -4.054   3.319  0.00  0.00     0.048 C 
ATOM     14  C   UNL d   1       3.851  -4.889   3.749  0.00  0.00     0.069 C 
ATOM     15  C   UNL d   1       2.703  -5.077   2.959  0.00  0.00     0.108 C 
ATOM     16 CL   UNL d   1       4.029  -5.596   5.318  0.00  0.00    -0.081 Cl
BRANCH  10  17
ATOM     17  O   UNL d   1       3.420  -2.770   0.173  0.00  0.00    -0.353 OA
ATOM     18  C   UNL d   1       4.396  -2.982  -0.848  0.00  0.00     0.210 C 
ENDBRANCH  10  17
BRANCH  15  19
ATOM     19  O   UNL d   1       1.744  -5.992   3.330  0.00  0.00    -0.353 OA
ATOM     20  C   UNL d   1       2.251  -7.337   3.380  0.00  0.00     0.210 C 
ENDBRANCH  15  19
ENDBRANCH   1   9
BRANCH   4  21
ATOM     21  C   UNL d   1      -2.632  -4.820  -0.834  0.00  0.00     0.048 C 
ATOM     22  C   UNL d   1      -3.707  -5.693  -0.570  0.00  0.00    -0.033 C 
ATOM     23  C   UNL d   1      -4.492  -6.177  -1.641  0.00  0.00     0.028 C 
ATOM     24  C   UNL d   1      -4.171  -6.091   0.804  0.00  0.00     0.050 C 
ATOM     25  C   UNL d   1      -4.296  -5.718  -2.932  0.00  0.00     0.012 C 
ATOM     26  C   UNL d   1      -3.381  -4.696  -3.162  0.00  0.00     0.028 C 
ATOM     27 BR   UNL d   1      -5.310  -6.419  -4.359  0.00  0.00    -0.051 Br
ATOM     28  C   UNL d   1      -2.577  -4.203  -2.113  0.00  0.00    -0.033 C 
ATOM     29  C   UNL d   1      -1.684  -3.039  -2.443  0.00  0.00     0.050 C 
ENDBRANCH   4  21
TORSDOF 4
