REMARK  4 active torsions:
REMARK  status: ('A' for Active; 'I' for Inactive)
REMARK    1  A    between atoms: C_2  and  C_1 
REMARK       I    between atoms: N_3  and  C_2 
REMARK       I    between atoms: C_4  and  N_3 
REMARK       I    between atoms: N_9  and  C_4 
REMARK    2  A    between atoms: O_18  and  C_5 
REMARK    3  A    between atoms: O_19  and  C_6 
REMARK    4  A    between atoms: C_10  and  N_9 
ROOT
ATOM      1  C   UNL d   1       0.396  -3.860  -1.120  0.00  0.00     0.265 C 
ATOM      2  N   UNL d   1       1.494  -4.678  -0.925  0.00  0.00    -0.275 N 
ATOM      3  C   UNL d   1       2.683  -4.374  -0.290  0.00  0.00     0.327 C 
ATOM      4  N   UNL d   1       2.771  -3.095   0.196  0.00  0.00    -0.308 N 
ATOM      5  O   UNL d   1       0.399  -2.644  -0.952  0.00  0.00    -0.267 OA
ATOM      6  O   UNL d   1       3.543  -5.248  -0.197  0.00  0.00    -0.247 OA
ATOM      7  H   UNL d   1       1.455  -5.634  -1.240  0.00  0.00     0.173 HD
ATOM      8  H   UNL d   1       2.233  -2.428  -0.353  0.00  0.00     0.170 HD
ENDROOT
BRANCH   1   9
ATOM      9  C   UNL d   1      -0.831  -4.529  -1.631  0.00  0.00     0.102 A 
ATOM     10  C   UNL d   1      -2.001  -4.453  -0.856  0.00  0.00     0.108 A 
ATOM     11  C   UNL d   1      -3.203  -4.925  -1.392  0.00  0.00     0.070 A 
ATOM     12 CL   UNL d   1      -4.716  -4.758  -0.577  0.00  0.00    -0.081 Cl
ATOM     13  C   UNL d   1      -3.215  -5.510  -2.656  0.00  0.00     0.053 A 
ATOM     14  C   UNL d   1      -2.039  -5.628  -3.410  0.00  0.00     0.070 A 
ATOM     15  C   UNL d   1      -0.818  -5.155  -2.901  0.00  0.00     0.108 A 
ATOM     16 CL   UNL d   1      -2.266  -6.290  -4.992  0.00  0.00    -0.081 Cl
BRANCH  10  17
ATOM     17  O   UNL d   1      -1.940  -3.855   0.377  0.00  0.00    -0.353 OA
ATOM     18  C   UNL d   1      -2.223  -4.743   1.460  0.00  0.00     0.210 C 
ENDBRANCH  10  17
BRANCH  15  19
ATOM     19  O   UNL d   1       0.411  -5.168  -3.506  0.00  0.00    -0.353 OA
ATOM     20  C   UNL d   1       0.704  -6.100  -4.535  0.00  0.00     0.210 C 
ENDBRANCH  15  19
ENDBRANCH   1   9
BRANCH   4  21
ATOM     21  C   UNL d   1       3.848  -2.578   0.947  0.00  0.00     0.048 A 
ATOM     22  C   UNL d   1       4.485  -1.405   0.482  0.00  0.00    -0.035 A 
ATOM     23  C   UNL d   1       5.400  -0.737   1.312  0.00  0.00     0.009 A 
ATOM     24  C   UNL d   1       4.272  -0.838  -0.898  0.00  0.00     0.050 C 
ATOM     25  C   UNL d   1       5.704  -1.230   2.575  0.00  0.00     0.001 A 
ATOM     26  C   UNL d   1       5.113  -2.411   3.012  0.00  0.00     0.009 A 
ATOM     27  C   UNL d   1       4.188  -3.109   2.209  0.00  0.00    -0.035 A 
ATOM     28  C   UNL d   1       3.512  -4.291   2.851  0.00  0.00     0.050 C 
ENDBRANCH   4  21
TORSDOF 4
