REMARK  8 active torsions:
REMARK  status: ('A' for Active; 'I' for Inactive)
REMARK    1  A    between atoms: C_8  and  C_1 
REMARK    2  A    between atoms: C_3  and  C_2 
REMARK    3  A    between atoms: N_13  and  C_6 
REMARK    4  A    between atoms: C_7  and  C_12 
REMARK    5  A    between atoms: O_14  and  C_8 
REMARK    6  A    between atoms: C_16  and  N_13 
REMARK    7  A    between atoms: C_24  and  O_14 
REMARK    8  A    between atoms: C_26  and  C_24 
ROOT
ATOM      1  C   UNL d   1      -0.034  -1.467  -0.052  0.00  0.00     0.087 A 
ATOM      2  C   UNL d   1       1.204  -0.863  -0.012  0.00  0.00     0.150 A 
ATOM      3  N   UNL d   1       1.315   0.504   0.022  0.00  0.00    -0.185 N 
ATOM      4  HN  UNL d   1       2.236   0.941   0.027  1.00  0.00     0.184 HD
ATOM      5  C   UNL d   1       0.216   1.266   0.048  0.00  0.00     0.683 A 
ATOM      6  N   UNL d   1      -1.014   0.743  -0.009  0.00  0.00    -0.201 N 
ATOM      7  HN  UNL d   1      -1.843   1.337  -0.023  1.00  0.00     0.183 HD
ATOM      8  C   UNL d   1      -1.113  -0.606  -0.048  0.00  0.00     0.126 A 
ENDROOT
BRANCH   5   9
ATOM      9  N   UNL d   1       0.293   2.646   0.225  0.00  0.00    -0.192 N 
ATOM     10  H   UNL d   1      -0.642   3.009   0.354  0.00  0.00     0.184 HD
BRANCH   9  11
ATOM     11  C   UNL d   1       1.351   3.465   0.651  0.00  0.00     0.050 A 
ATOM     12  C   UNL d   1       1.060   4.730   1.190  0.00  0.00     0.046 A 
ATOM     13  C   UNL d   1       2.073   5.577   1.679  0.00  0.00     0.050 A 
ATOM     14  C   UNL d   1       3.406   5.151   1.612  0.00  0.00     0.016 A 
ATOM     15  C   UNL d   1       3.715   3.916   1.055  0.00  0.00     0.003 A 
ATOM     16  C   UNL d   1       2.697   3.090   0.574  0.00  0.00     0.030 A 
BRANCH  13  17
ATOM     17  C   UNL d   1       1.753   6.921   2.283  0.00  0.00     0.417 C 
ATOM     18  F   UNL d   1       0.423   7.219   2.279  0.00  0.00    -0.166 F 
ATOM     19  F   UNL d   1       2.150   7.015   3.583  0.00  0.00    -0.166 F 
ATOM     20  F   UNL d   1       2.366   7.946   1.631  0.00  0.00    -0.166 F 
ENDBRANCH  13  17
ENDBRANCH   9  11
ENDBRANCH   5   9
BRANCH   2  21
ATOM     21  C   UNL d   1       2.517  -1.612   0.046  0.00  0.00     0.434 C 
ATOM     22  F   UNL d   1       2.437  -2.922   0.398  0.00  0.00    -0.165 F 
ATOM     23  F   UNL d   1       3.181  -1.585  -1.148  0.00  0.00    -0.165 F 
ATOM     24  F   UNL d   1       3.382  -1.068   0.954  0.00  0.00    -0.165 F 
ENDBRANCH   2  21
BRANCH   1  25
ATOM     25  C   UNL d   1      -0.322  -2.901   0.034  0.00  0.00     0.297 C 
ATOM     26  O   UNL d   1      -1.189  -3.329   0.780  0.00  0.00    -0.259 OA
BRANCH  25  27
ATOM     27  O   UNL d   1       0.437  -3.611  -0.822  0.00  0.00    -0.313 OA
BRANCH  27  28
ATOM     28  C   UNL d   1       0.314  -5.043  -0.708  0.00  0.00     0.217 C 
BRANCH  28  29
ATOM     29  C   UNL d   1       0.193  -5.676  -2.074  0.00  0.00    -0.034 A 
ATOM     30  C   UNL d   1       0.884  -5.162  -3.179  0.00  0.00     0.011 A 
ATOM     31  C   UNL d   1       0.767  -5.764  -4.433  0.00  0.00     0.024 A 
ATOM     32  C   UNL d   1      -0.027  -6.899  -4.586  0.00  0.00     0.034 A 
ATOM     33  C   UNL d   1      -0.693  -7.446  -3.492  0.00  0.00     0.024 A 
ATOM     34 CL   UNL d   1      -0.183  -7.630  -6.136  0.00  0.00    -0.084 Cl
ATOM     35  C   UNL d   1      -0.580  -6.840  -2.238  0.00  0.00     0.011 A 
ENDBRANCH  28  29
ENDBRANCH  27  28
ENDBRANCH  25  27
ENDBRANCH   1  25
TORSDOF 8
