REMARK  6 active torsions:
REMARK  status: ('A' for Active; 'I' for Inactive)
REMARK    1  A    between atoms: C_2  and  S_1 
REMARK    2  A    between atoms: C_7  and  S_1 
REMARK    3  A    between atoms: C_3  and  O_11 
REMARK    4  A    between atoms: N_10  and  C_4 
REMARK    5  A    between atoms: C_17  and  N_10 
REMARK    6  A    between atoms: O_11  and  C_18 
ROOT
ATOM      1  C   UNL d   1       0.517  -1.448   0.893  0.00  0.00     0.159 C 
ATOM      2  C   UNL d   1      -0.043  -1.139   2.075  0.00  0.00     0.123 C 
ATOM      3  C   UNL d   1       0.717  -0.508  -0.140  0.00  0.00     0.113 C 
ATOM      4  N   UNL d   1       0.883   0.290  -0.964  0.00  0.00    -0.191 NA
ENDROOT
BRANCH   1   5
ATOM      5  S   UNL d   1       0.887  -3.114   0.585  0.00  0.00     0.218 S 
ATOM      6  O   UNL d   1      -0.267  -3.739  -0.038  0.00  0.00    -0.216 OA
ATOM      7  O   UNL d   1       1.465  -3.708   1.777  0.00  0.00    -0.216 OA
BRANCH   5   8
ATOM      8  C   UNL d   1       2.186  -3.123  -0.649  0.00  0.00     0.065 A 
ATOM      9  C   UNL d   1       3.523  -3.207  -0.249  0.00  0.00     0.026 A 
ATOM     10  C   UNL d   1       4.535  -3.292  -1.214  0.00  0.00     0.038 A 
ATOM     11  C   UNL d   1       4.215  -3.267  -2.572  0.00  0.00     0.078 A 
ATOM     12  C   UNL d   1       2.871  -3.241  -2.958  0.00  0.00     0.038 A 
ATOM     13  C   UNL d   1       1.853  -3.173  -2.005  0.00  0.00     0.026 A 
BRANCH  11  14
ATOM     14  O   UNL d   1       5.104  -3.348  -3.600  0.00  0.00    -0.255 OA
BRANCH  14  15
ATOM     15  C   UNL d   1       6.372  -2.718  -3.471  0.00  0.00     0.530 C 
ATOM     16  F   UNL d   1       6.504  -1.962  -2.361  0.00  0.00    -0.144 F 
ATOM     17  F   UNL d   1       7.340  -3.661  -3.472  0.00  0.00    -0.144 F 
ATOM     18  F   UNL d   1       6.564  -1.916  -4.542  0.00  0.00    -0.144 F 
ENDBRANCH  14  15
ENDBRANCH  11  14
ENDBRANCH   5   8
ENDBRANCH   1   5
BRANCH   2  19
ATOM     19  N   UNL d   1      -0.562   0.066   2.503  0.00  0.00    -0.364 N 
ATOM     20  H   UNL d   1      -0.689   0.800   1.808  0.00  0.00     0.165 HD
BRANCH  19  21
ATOM     21  C   UNL d   1      -1.040   0.386   3.787  0.00  0.00     0.032 A 
ATOM     22  C   UNL d   1      -0.556  -0.223   4.953  0.00  0.00     0.031 A 
ATOM     23  C   UNL d   1      -1.079   0.108   6.209  0.00  0.00     0.026 A 
ATOM     24  C   UNL d   1      -2.118   1.029   6.308  0.00  0.00     0.034 A 
ATOM     25  C   UNL d   1      -2.636   1.623   5.162  0.00  0.00     0.026 A 
ATOM     26 CL   UNL d   1      -2.763   1.434   7.850  0.00  0.00    -0.084 Cl
ATOM     27  C   UNL d   1      -2.097   1.303   3.910  0.00  0.00     0.031 A 
ENDBRANCH  19  21
ENDBRANCH   2  19
TORSDOF 6
