REMARK  4 active torsions:
REMARK  status: ('A' for Active; 'I' for Inactive)
REMARK    1  A    between atoms: C_2  and  C_1 
REMARK    2  A    between atoms: C_4  and  C_2 
REMARK    3  A    between atoms: N_6  and  C_3 
REMARK    4  A    between atoms: O_12  and  C_9 
ROOT
ATOM      1  C   UNL d   1       0.991   2.208   1.472  0.00  0.00     0.014 A 
ATOM      2  C   UNL d   1       2.049   2.858   0.821  0.00  0.00     0.018 A 
ATOM      3  C   UNL d   1       0.570   2.669   2.723  0.00  0.00     0.018 A 
ATOM      4  C   UNL d   1       2.301   4.369   2.698  0.00  0.00     0.068 A 
ATOM      5  C   UNL d   1       1.222   3.747   3.329  0.00  0.00     0.037 A 
ATOM      6  C   UNL d   1       2.703   3.933   1.435  0.00  0.00     0.037 A 
ENDROOT
BRANCH   1   7
ATOM      7  C   UNL d   1       0.266   1.065   0.851  0.00  0.00     0.183 C 
ATOM      8  O   UNL d   1      -0.914   0.863   1.115  0.00  0.00    -0.288 OA
BRANCH   7   9
ATOM      9  C   UNL d   1       1.046   0.170  -0.048  0.00  0.00     0.072 C 
ATOM     10  C   UNL d   1       0.424  -0.673  -0.882  0.00  0.00     0.088 C 
BRANCH  10  11
ATOM     11  N   UNL d   1       0.965  -1.582  -1.784  0.00  0.00    -0.398 N 
ATOM     12  C   UNL d   1       2.393  -1.838  -1.952  0.00  0.00     0.148 C 
ATOM     13  C   UNL d   1       0.113  -2.353  -2.694  0.00  0.00     0.148 C 
ENDBRANCH  10  11
ENDBRANCH   7   9
ENDBRANCH   1   7
BRANCH   4  14
ATOM     14  O   UNL d   1       2.849   5.421   3.378  0.00  0.00    -0.356 OA
ATOM     15  C   UNL d   1       4.228   5.670   3.123  0.00  0.00     0.210 C 
ENDBRANCH   4  14
TORSDOF 4
