REMARK  2 active torsions:
REMARK  status: ('A' for Active; 'I' for Inactive)
REMARK    1  A    between atoms: C_3  and  C_1 
REMARK    2  A    between atoms: O_5  and  C_3 
ROOT
ATOM      1  C   UNL d   1       1.277  -1.395  -0.022  0.00  0.00    -0.019 A 
ATOM      2  C   UNL d   1       0.014  -0.720  -0.005  0.00  0.00    -0.017 A 
ATOM      3  C   UNL d   1      -0.013   0.700  -0.013  0.00  0.00    -0.025 A 
ATOM      4  C   UNL d   1       2.456  -0.625  -0.043  0.00  0.00     0.011 A 
ATOM      5  C   UNL d   1      -1.238  -1.383   0.018  0.00  0.00     0.013 A 
ATOM      6  C   UNL d   1       2.412   0.767  -0.043  0.00  0.00     0.002 A 
ATOM      7  C   UNL d   1       1.187   1.422  -0.029  0.00  0.00     0.012 A 
ATOM      8  C   UNL d   1      -1.236   1.391  -0.005  0.00  0.00     0.012 A 
ATOM      9  C   UNL d   1      -2.449  -0.684   0.021  0.00  0.00     0.001 A 
ATOM     10  C   UNL d   1      -2.448   0.704   0.009  0.00  0.00     0.001 A 
ENDROOT
BRANCH   1  11
ATOM     11  C   UNL d   1       1.347  -2.920  -0.007  0.00  0.00     0.148 C 
ATOM     12  C   UNL d   1       2.737  -3.551   0.054  0.00  0.00     0.044 C 
BRANCH  11  13
ATOM     13  O   UNL d   1       0.727  -3.457  -1.179  0.00  0.00    -0.391 OA
ATOM     14  H   UNL d   1       0.753  -2.765  -1.862  0.00  0.00     0.210 HD
ENDBRANCH  11  13
ENDBRANCH   1  11
TORSDOF 2
