REMARK  5 active torsions:
REMARK  status: ('A' for Active; 'I' for Inactive)
REMARK    1  A    between atoms: C_2  and  C_1 
REMARK    2  A    between atoms: C_5  and  C_15 
REMARK       I    between atoms: N_8  and  C_5 
REMARK    3  A    between atoms: S_9  and  C_6 
REMARK    4  A    between atoms: C_16  and  N_8 
REMARK    5  A    between atoms: C_15  and  S_9 
ROOT
ATOM      1  S   UNL d   1      -1.299  -5.006  -2.392  0.00  0.00    -0.103 SA
ENDROOT
BRANCH   1   2
ATOM      2  C   UNL d   1      -0.381  -3.767  -1.489  0.00  0.00     0.070 A 
ATOM      3  C   UNL d   1      -1.041  -2.656  -0.982  0.00  0.00     0.038 A 
ATOM      4  C   UNL d   1      -0.289  -1.645  -0.380  0.00  0.00     0.020 A 
ATOM      5  C   UNL d   1       1.101  -1.770  -0.295  0.00  0.00     0.063 A 
ATOM      6  C   UNL d   1       1.664  -2.937  -0.782  0.00  0.00     0.105 A 
ATOM      7  N   UNL d   1       0.956  -3.925  -1.376  0.00  0.00    -0.360 N 
ATOM      8  HN  UNL d   1       1.418  -4.764  -1.728  1.00  0.00     0.166 HD
BRANCH   5   9
ATOM      9  C   UNL d   1       1.965  -0.672   0.249  0.00  0.00     0.418 C 
ATOM     10  F   UNL d   1       3.293  -0.960   0.221  0.00  0.00    -0.166 F 
ATOM     11  F   UNL d   1       1.672  -0.363   1.540  0.00  0.00    -0.166 F 
ATOM     12  F   UNL d   1       1.821   0.486  -0.454  0.00  0.00    -0.166 F 
ENDBRANCH   5   9
ENDBRANCH   1   2
BRANCH   1  13
ATOM     13  C   UNL d   1       0.063  -6.153  -2.774  0.00  0.00     0.184 C 
BRANCH  13  14
ATOM     14  C   UNL d   1      -0.389  -7.377  -3.545  0.00  0.00     0.231 C 
ATOM     15  N   UNL d   1      -1.235  -7.137  -4.615  0.00  0.00    -0.327 N 
ATOM     16  H   UNL d   1      -1.465  -6.167  -4.798  0.00  0.00     0.169 HD
ATOM     17  O   UNL d   1       0.085  -8.476  -3.249  0.00  0.00    -0.272 OA
BRANCH  15  18
ATOM     18  C   UNL d   1      -1.826  -8.109  -5.456  0.00  0.00     0.034 A 
ATOM     19  C   UNL d   1      -1.731  -9.485  -5.230  0.00  0.00     0.031 A 
ATOM     20  C   UNL d   1      -2.371 -10.400  -6.074  0.00  0.00     0.026 A 
ATOM     21  C   UNL d   1      -3.108  -9.943  -7.157  0.00  0.00     0.034 A 
ATOM     22  C   UNL d   1      -3.206  -8.575  -7.408  0.00  0.00     0.026 A 
ATOM     23 CL   UNL d   1      -3.908 -11.068  -8.184  0.00  0.00    -0.084 Cl
ATOM     24  C   UNL d   1      -2.572  -7.661  -6.558  0.00  0.00     0.031 A 
ENDBRANCH  15  18
ENDBRANCH  13  14
ENDBRANCH   1  13
TORSDOF 5
