REMARK  7 active torsions:
REMARK  status: ('A' for Active; 'I' for Inactive)
REMARK    1  A    between atoms: S_4  and  C_1 
REMARK       I    between atoms: C_2  and  N_5 
REMARK       I    between atoms: N_6  and  C_2 
REMARK    2  A    between atoms: C_3  and  C_13 
REMARK       I    between atoms: N_7  and  C_3 
REMARK    3  A    between atoms: C_16  and  S_4 
REMARK    4  A    between atoms: N_5  and  N_7 
REMARK    5  A    between atoms: C_15  and  N_6 
REMARK    6  A    between atoms: C_13  and  O_14 
REMARK    7  A    between atoms: O_14  and  C_17 
ROOT
ATOM      1  C   UNL d   1       2.977   0.519  -8.630  0.00  0.00     0.260 C 
ATOM      2  N   UNL d   1       2.881  -0.742  -9.178  0.00  0.00    -0.264 N 
ATOM      3  O   UNL d   1       3.330   1.498  -9.289  0.00  0.00    -0.269 OA
ATOM      4  H   UNL d   1       2.561  -1.568  -8.672  0.00  0.00     0.190 HD
ENDROOT
BRANCH   1   5
ATOM      5  C   UNL d   1       2.610   0.598  -7.151  0.00  0.00     0.280 C 
BRANCH   5   6
ATOM      6  O   UNL d   1       3.786   0.467  -6.363  0.00  0.00    -0.342 OA
BRANCH   6   7
ATOM      7  C   UNL d   1       3.651   0.633  -5.012  0.00  0.00     0.069 A 
ATOM      8  C   UNL d   1       4.845   0.572  -4.290  0.00  0.00     0.038 A 
ATOM      9  C   UNL d   1       4.852   0.720  -2.899  0.00  0.00     0.021 A 
ATOM     10  C   UNL d   1       3.654   0.921  -2.211  0.00  0.00     0.009 A 
ATOM     11  C   UNL d   1       2.459   0.998  -2.931  0.00  0.00     0.021 A 
ATOM     12  C   UNL d   1       2.455   0.850  -4.325  0.00  0.00     0.038 A 
BRANCH  10  13
ATOM     13  S   UNL d   1       3.648   1.131  -0.446  0.00  0.00    -0.016 SA
BRANCH  13  14
ATOM     14  C   UNL d   1       3.513  -0.583   0.082  0.00  0.00     0.448 C 
ATOM     15  F   UNL d   1       3.409  -1.461  -0.943  0.00  0.00    -0.160 F 
ATOM     16  F   UNL d   1       2.421  -0.758   0.867  0.00  0.00    -0.160 F 
ATOM     17  F   UNL d   1       4.593  -0.948   0.814  0.00  0.00    -0.160 F 
ENDBRANCH  13  14
ENDBRANCH  10  13
ENDBRANCH   6   7
ENDBRANCH   5   6
ENDBRANCH   1   5
BRANCH   2  18
ATOM     18  N   UNL d   1       3.067  -0.898 -10.561  0.00  0.00    -0.249 N 
ATOM     19  C   UNL d   1       2.937  -2.174 -11.080  0.00  0.00     0.339 C 
ATOM     20  N   UNL d   1       3.149  -2.217 -12.441  0.00  0.00    -0.308 N 
ATOM     21  O   UNL d   1       2.604  -3.108 -10.353  0.00  0.00    -0.245 OA
ATOM     22  H   UNL d   1       3.483  -1.365 -12.869  0.00  0.00     0.170 HD
ATOM     23  H   UNL d   1       3.594  -0.161 -11.022  0.00  0.00     0.192 HD
BRANCH  20  24
ATOM     24  C   UNL d   1       2.918  -3.311 -13.304  0.00  0.00     0.036 A 
ATOM     25  C   UNL d   1       2.353  -4.519 -12.886  0.00  0.00     0.031 A 
ATOM     26  C   UNL d   1       2.087  -5.541 -13.805  0.00  0.00     0.026 A 
ATOM     27  C   UNL d   1       2.393  -5.362 -15.150  0.00  0.00     0.034 A 
ATOM     28  C   UNL d   1       2.976  -4.174 -15.581  0.00  0.00     0.026 A 
ATOM     29 CL   UNL d   1       2.037  -6.606 -16.282  0.00  0.00    -0.084 Cl
ATOM     30  C   UNL d   1       3.236  -3.151 -14.660  0.00  0.00     0.031 A 
ENDBRANCH  20  24
ENDBRANCH   2  18
TORSDOF 7
