REMARK  4 active torsions:
REMARK  status: ('A' for Active; 'I' for Inactive)
REMARK       I    between atoms: N_2  and  C_1 
REMARK       I    between atoms: N_3  and  C_1 
REMARK    1  A    between atoms: C_19  and  N_3 
REMARK    2  A    between atoms: C_17  and  N_4 
REMARK    3  A    between atoms: C_10  and  C_11 
REMARK    4  A    between atoms: C_16  and  C_17 
ROOT
ATOM      1  C   UNL d   1       1.016  -0.130   0.009  0.00  0.00     0.323 C 
ATOM      2  N   UNL d   1       0.460  -0.047  -1.261  0.00  0.00    -0.331 N 
ATOM      3  N   UNL d   1       0.605   0.821   0.914  0.00  0.00    -0.309 N 
ATOM      4  N   UNL d   1      -0.266   0.135  -4.126  0.00  0.00     0.095 N 
ATOM      5  O   UNL d   1       1.854  -0.996   0.258  0.00  0.00    -0.247 OA
ATOM      6  C   UNL d   1       0.895  -1.065  -2.227  0.00  0.00     0.158 C 
ATOM      7  C   UNL d   1      -0.707   0.743  -1.677  0.00  0.00     0.158 C 
ATOM      8  C   UNL d   1       0.981  -0.504  -3.652  0.00  0.00     0.292 C 
ATOM      9  C   UNL d   1      -0.628   1.194  -3.156  0.00  0.00     0.292 C 
ATOM     10  H   UNL d   1      -0.163   1.415   0.658  0.00  0.00     0.170 HD
ENDROOT
BRANCH   3  11
ATOM     11  C   UNL d   1       1.198   1.106   2.163  0.00  0.00     0.036 A 
ATOM     12  C   UNL d   1       2.300   0.424   2.673  0.00  0.00     0.030 A 
ATOM     13  C   UNL d   1       2.913   0.838   3.857  0.00  0.00     0.010 A 
ATOM     14  C   UNL d   1       2.450   1.950   4.579  0.00  0.00    -0.051 A 
ATOM     15  C   UNL d   1       1.301   2.591   4.090  0.00  0.00     0.010 A 
ATOM     16  C   UNL d   1       0.685   2.175   2.900  0.00  0.00     0.030 A 
BRANCH  14  17
ATOM     17  C   UNL d   1       3.228   2.429   5.813  0.00  0.00    -0.024 C 
ATOM     18  C   UNL d   1       2.616   3.677   6.484  0.00  0.00     0.019 C 
ATOM     19  C   UNL d   1       3.283   1.308   6.872  0.00  0.00     0.019 C 
ATOM     20  C   UNL d   1       4.668   2.798   5.391  0.00  0.00     0.019 C 
ENDBRANCH  14  17
ENDBRANCH   3  11
BRANCH   4  21
ATOM     21  C   UNL d   1      -1.379  -0.817  -4.290  0.00  0.00     0.311 C 
BRANCH  21  22
ATOM     22  C   UNL d   1      -1.091  -1.964  -5.237  0.00  0.00    -0.027 A 
ATOM     23  C   UNL d   1      -1.172  -3.289  -4.777  0.00  0.00     0.048 A 
ATOM     24  C   UNL d   1      -0.929  -4.307  -5.673  0.00  0.00     0.105 A 
ATOM     25  O   UNL d   1      -0.976  -5.637  -5.393  0.00  0.00    -0.323 OA
ATOM     26  C   UNL d   1      -0.612  -4.056  -6.987  0.00  0.00     0.105 A 
ATOM     27  C   UNL d   1      -0.660  -6.195  -6.685  0.00  0.00     0.352 A 
ATOM     28  O   UNL d   1      -0.421  -5.197  -7.700  0.00  0.00    -0.323 OA
ATOM     29  C   UNL d   1      -0.513  -2.771  -7.475  0.00  0.00     0.040 A 
ATOM     30  C   UNL d   1      -0.756  -1.716  -6.589  0.00  0.00     0.012 A 
ENDBRANCH  21  22
ENDBRANCH   4  21
TORSDOF 4
