REMARK  4 active torsions:
REMARK  status: ('A' for Active; 'I' for Inactive)
REMARK    1  A    between atoms: N_2  and  S_1 
REMARK    2  A    between atoms: C_9  and  S_1 
REMARK    3  A    between atoms: C_11  and  C_5 
REMARK    4  A    between atoms: O_26  and  C_23 
ROOT
ATOM      1  N   UNL d   1       1.090  -2.308   0.850  0.00  0.00    -0.188 N 
ATOM      2  N   UNL d   1       0.767  -2.591   2.141  0.00  0.00    -0.284 N 
ATOM      3  HN  UNL d   1       1.376  -2.552   2.959  1.00  0.00     0.188 HD
ATOM      4  C   UNL d   1      -0.531  -2.934   2.099  0.00  0.00     0.060 A 
ATOM      5  C   UNL d   1       0.001  -2.368   0.012  0.00  0.00     0.131 A 
ATOM      6  C   UNL d   1      -1.055  -2.780   0.787  0.00  0.00     0.052 A 
ENDROOT
BRANCH   4   7
ATOM      7  C   UNL d   1      -1.242  -3.422   3.282  0.00  0.00    -0.007 A 
ATOM      8  C   UNL d   1      -0.545  -4.092   4.300  0.00  0.00     0.023 A 
ATOM      9  C   UNL d   1      -1.215  -4.598   5.426  0.00  0.00    -0.024 A 
ATOM     10  C   UNL d   1      -0.445  -5.307   6.499  0.00  0.00     0.044 C 
ATOM     11  C   UNL d   1      -2.592  -4.402   5.543  0.00  0.00     0.076 A 
ATOM     12  C   UNL d   1      -1.386  -6.123   7.372  0.00  0.00     0.042 C 
ATOM     13  C   UNL d   1      -2.629  -5.307   7.759  0.00  0.00     0.061 C 
ATOM     14  O   UNL d   1      -3.342  -4.835   6.601  0.00  0.00    -0.340 OA
ATOM     15  C   UNL d   1      -3.610  -6.221   8.508  0.00  0.00     0.046 C 
ATOM     16  C   UNL d   1      -2.295  -4.109   8.661  0.00  0.00     0.046 C 
ATOM     17  C   UNL d   1      -3.295  -3.743   4.534  0.00  0.00     0.038 A 
ATOM     18  C   UNL d   1      -2.627  -3.256   3.409  0.00  0.00     0.016 A 
ENDBRANCH   4   7
BRANCH   1  19
ATOM     19  S   UNL d   1       2.693  -2.053   0.227  0.00  0.00     0.282 S 
ATOM     20  O   UNL d   1       2.518  -1.829  -1.195  0.00  0.00    -0.198 OA
ATOM     21  O   UNL d   1       3.484  -3.159   0.734  0.00  0.00    -0.198 OA
BRANCH  19  22
ATOM     22  C   UNL d   1       3.339  -0.559   0.924  0.00  0.00     0.081 A 
ATOM     23  C   UNL d   1       2.996  -0.111   2.198  0.00  0.00     0.028 A 
ATOM     24  C   UNL d   1       3.590   1.052   2.707  0.00  0.00     0.038 A 
ATOM     25  C   UNL d   1       4.534   1.761   1.958  0.00  0.00     0.068 A 
ATOM     26  C   UNL d   1       4.875   1.303   0.684  0.00  0.00     0.038 A 
ATOM     27  C   UNL d   1       4.280   0.150   0.164  0.00  0.00     0.028 A 
BRANCH  25  28
ATOM     28  O   UNL d   1       5.185   2.894   2.363  0.00  0.00    -0.356 OA
ATOM     29  C   UNL d   1       4.868   3.376   3.666  0.00  0.00     0.210 C 
ENDBRANCH  25  28
ENDBRANCH  19  22
ENDBRANCH   1  19
TORSDOF 4
