REMARK  3 active torsions:
REMARK  status: ('A' for Active; 'I' for Inactive)
REMARK    1  A    between atoms: N_7  and  S_1 
REMARK    2  A    between atoms: C_8  and  S_1 
REMARK    3  A    between atoms: C_10  and  N_7 
ROOT
ATOM      1  S   UNL d   1       0.929   0.177  -0.118  0.00  0.00     0.245 S 
ATOM      2  O   UNL d   1       0.526  -1.066   0.505  0.00  0.00    -0.206 OA
ATOM      3  O   UNL d   1       0.509   0.545  -1.452  0.00  0.00    -0.206 OA
ENDROOT
BRANCH   1   4
ATOM      4  N   UNL d   1       2.633   0.239   0.002  0.00  0.00    -0.180 NA
ATOM      5  H   UNL d   1       2.869  -0.385   0.780  0.00  0.00     0.146 HD
BRANCH   4   6
ATOM      6  C   UNL d   1       3.330  -0.202  -1.188  0.00  0.00     0.044 A 
ATOM      7  C   UNL d   1       3.715  -1.540  -1.372  0.00  0.00     0.057 A 
ATOM      8  C   UNL d   1       4.399  -1.929  -2.527  0.00  0.00     0.049 A 
ATOM      9 CL   UNL d   1       3.411  -2.732  -0.160  0.00  0.00    -0.082 Cl
ATOM     10  C   UNL d   1       4.688  -0.978  -3.502  0.00  0.00     0.035 A 
ATOM     11  C   UNL d   1       4.284   0.347  -3.345  0.00  0.00     0.026 A 
ATOM     12 CL   UNL d   1       5.568  -1.440  -4.908  0.00  0.00    -0.084 Cl
ATOM     13  C   UNL d   1       3.595   0.733  -2.191  0.00  0.00     0.028 A 
ENDBRANCH   4   6
ENDBRANCH   1   4
BRANCH   1  14
ATOM     14  C   UNL d   1       0.451   1.508   0.963  0.00  0.00     0.075 A 
ATOM     15  C   UNL d   1      -0.313   1.241   2.102  0.00  0.00     0.035 A 
ATOM     16  C   UNL d   1      -0.655   2.312   2.914  0.00  0.00    -0.017 A 
ATOM     17  C   UNL d   1      -1.434   2.311   4.203  0.00  0.00     0.109 A 
ATOM     18  C   UNL d   1      -0.273   3.619   2.596  0.00  0.00     0.043 A 
ATOM     19  C   UNL d   1      -1.441   3.801   4.584  0.00  0.00     0.232 A 
ATOM     20  C   UNL d   1      -0.762   1.482   5.285  0.00  0.00     0.025 C 
ATOM     21  O   UNL d   1      -1.950   4.283   5.583  0.00  0.00    -0.272 OA
ATOM     22  N   UNL d   1      -0.747   4.490   3.583  0.00  0.00    -0.321 N 
ATOM     23  C   UNL d   1      -0.539   5.911   3.633  0.00  0.00     0.159 C 
ATOM     24  C   UNL d   1       0.470   3.894   1.462  0.00  0.00     0.032 A 
ATOM     25  C   UNL d   1       0.837   2.824   0.636  0.00  0.00     0.027 A 
ENDBRANCH   1  14
TORSDOF 3
