REMARK  7 active torsions:
REMARK  status: ('A' for Active; 'I' for Inactive)
REMARK    1  A    between atoms: C_2  and  C_1 
REMARK       I    between atoms: N_10  and  C_1 
REMARK    2  A    between atoms: N_4  and  C_2 
REMARK    3  A    between atoms: C_13  and  C_2 
REMARK       I    between atoms: C_3  and  N_4 
REMARK    4  A    between atoms: C_14  and  C_3 
REMARK    5  A    between atoms: C_6  and  C_14 
REMARK    6  A    between atoms: N_15  and  N_10 
REMARK    7  A    between atoms: C_16  and  C_13 
ROOT
ATOM      1  C   UNL d   1       0.295  -0.444  -1.222  0.00  0.00     0.178 C 
ENDROOT
BRANCH   1   2
ATOM      2  C   UNL d   1       1.230   0.050  -0.098  0.00  0.00     0.254 C 
ATOM      3  O   UNL d   1       1.549   1.235   0.025  0.00  0.00    -0.270 OA
ATOM      4  N   UNL d   1       1.690  -0.947   0.753  0.00  0.00    -0.292 N 
ATOM      5  H   UNL d   1       1.238  -1.860   0.746  0.00  0.00     0.183 HD
BRANCH   4   6
ATOM      6  N   UNL d   1       2.418  -0.590   1.913  0.00  0.00    -0.247 NA
ATOM      7  H   UNL d   1       2.250   0.410   2.085  0.00  0.00     0.143 HD
ATOM      8  H   UNL d   1       3.415  -0.635   1.686  0.00  0.00     0.143 HD
ENDBRANCH   4   6
ENDBRANCH   1   2
BRANCH   1   9
ATOM      9  N   UNL d   1      -0.591   0.680  -1.552  0.00  0.00    -0.347 N 
ATOM     10  C   UNL d   1      -1.781   0.501  -2.220  0.00  0.00     0.222 C 
ATOM     11  O   UNL d   1      -2.223  -0.611  -2.494  0.00  0.00    -0.273 OA
ATOM     12  H   UNL d   1      -0.216   1.614  -1.409  0.00  0.00     0.163 HD
BRANCH  10  13
ATOM     13  C   UNL d   1      -2.501   1.787  -2.606  0.00  0.00     0.141 C 
BRANCH  13  14
ATOM     14  C   UNL d   1      -2.197   2.203  -4.019  0.00  0.00    -0.043 A 
ATOM     15  C   UNL d   1      -2.477   1.448  -5.145  0.00  0.00     0.057 A 
ATOM     16  S   UNL d   1      -2.004   2.214  -6.599  0.00  0.00    -0.113 SA
ATOM     17  C   UNL d   1      -1.440   3.586  -5.753  0.00  0.00     0.050 A 
ATOM     18  C   UNL d   1      -1.607   3.457  -4.391  0.00  0.00     0.015 A 
ENDBRANCH  13  14
ENDBRANCH  10  13
ENDBRANCH   1   9
BRANCH   1  19
ATOM     19  C   UNL d   1       1.067  -0.876  -2.479  0.00  0.00     0.038 C 
BRANCH  19  20
ATOM     20  C   UNL d   1       1.964  -2.124  -2.373  0.00  0.00    -0.020 C 
ATOM     21  C   UNL d   1       1.209  -3.374  -1.921  0.00  0.00     0.009 C 
ATOM     22  C   UNL d   1       2.605  -2.393  -3.741  0.00  0.00     0.009 C 
ENDBRANCH  19  20
ENDBRANCH   1  19
TORSDOF 7
