REMARK  4 active torsions:
REMARK  status: ('A' for Active; 'I' for Inactive)
REMARK    1  A    between atoms: C_5  and  C_1 
REMARK    2  A    between atoms: O_13  and  C_2 
REMARK    3  A    between atoms: C_3  and  C_5 
REMARK    4  A    between atoms: N_11  and  C_7 
ROOT
ATOM      1  C   UNL d   1      -0.629   1.145   0.011  0.00  0.00     0.052 A 
ATOM      2  C   UNL d   1      -1.415  -0.029  -0.024  0.00  0.00     0.101 A 
ATOM      3  C   UNL d   1      -0.805  -1.294  -0.042  0.00  0.00     0.071 A 
ATOM      4  C   UNL d   1       0.581  -1.406  -0.027  0.00  0.00     0.069 A 
ATOM      5  C   UNL d   1       0.766   1.014   0.032  0.00  0.00     0.060 A 
ATOM      6  C   UNL d   1       1.348  -0.251   0.008  0.00  0.00     0.119 A 
ATOM      7 CL   UNL d   1      -1.737  -2.748  -0.070  0.00  0.00    -0.081 Cl
ATOM      8  F   UNL d   1       2.684  -0.353   0.026  0.00  0.00    -0.206 F 
ENDROOT
BRANCH   1   9
ATOM      9  C   UNL d   1      -1.308   2.476   0.062  0.00  0.00     0.186 C 
ATOM     10  O   UNL d   1      -2.538   2.501   0.133  0.00  0.00    -0.287 OA
BRANCH   9  11
ATOM     11  C   UNL d   1      -0.517   3.736   0.026  0.00  0.00     0.072 C 
ATOM     12  C   UNL d   1      -1.115   4.885   0.370  0.00  0.00     0.088 C 
BRANCH  12  13
ATOM     13  N   UNL d   1      -0.615   6.178   0.432  0.00  0.00    -0.398 N 
ATOM     14  C   UNL d   1       0.743   6.572   0.066  0.00  0.00     0.148 C 
ATOM     15  C   UNL d   1      -1.457   7.295   0.872  0.00  0.00     0.148 C 
ENDBRANCH  12  13
ENDBRANCH   9  11
ENDBRANCH   1   9
BRANCH   2  16
ATOM     16  O   UNL d   1      -2.789   0.012  -0.037  0.00  0.00    -0.358 OA
ATOM     17  H   UNL d   1      -3.081   0.950   0.023  0.00  0.00     0.217 HD
ENDBRANCH   2  16
TORSDOF 4
