REMARK  4 active torsions:
REMARK  status: ('A' for Active; 'I' for Inactive)
REMARK    1  A    between atoms: S_4  and  C_1 
REMARK    2  A    between atoms: C_3  and  C_2 
REMARK    3  A    between atoms: O_9  and  C_3 
REMARK    4  A    between atoms: C_8  and  S_4 
ROOT
ATOM      1  C   UNL d   1      -3.241   3.147  -0.721  0.00  0.00     0.091 A 
ATOM      2  C   UNL d   1      -3.739   2.857  -1.992  0.00  0.00     0.071 A 
ATOM      3  N   UNL d   1      -3.990   3.797   0.214  0.00  0.00    -0.359 N 
ATOM      4  HN  UNL d   1      -3.615   3.994   1.142  1.00  0.00     0.166 HD
ATOM      5  C   UNL d   1      -5.039   3.277  -2.316  0.00  0.00     0.022 A 
ATOM      6  C   UNL d   1      -5.243   4.174  -0.125  0.00  0.00     0.089 A 
ATOM      7  C   UNL d   1      -5.805   3.945  -1.367  0.00  0.00     0.018 A 
ENDROOT
BRANCH   1   8
ATOM      8  S   UNL d   1      -1.665   2.563  -0.124  0.00  0.00    -0.072 SA
BRANCH   8   9
ATOM      9  C   UNL d   1      -0.695   4.059  -0.153  0.00  0.00     0.007 A 
ATOM     10  C   UNL d   1      -0.735   4.955   0.919  0.00  0.00     0.019 A 
ATOM     11  C   UNL d   1       0.119   6.062   0.948  0.00  0.00     0.008 A 
ATOM     12  C   UNL d   1       1.028   6.286  -0.093  0.00  0.00    -0.062 A 
ATOM     13  C   UNL d   1       1.049   5.403  -1.177  0.00  0.00     0.008 A 
ATOM     14  C   UNL d   1       1.977   7.447  -0.023  0.00  0.00     0.048 C 
ATOM     15  C   UNL d   1       0.195   4.295  -1.204  0.00  0.00     0.019 A 
ENDBRANCH   8   9
ENDBRANCH   1   8
BRANCH   2  16
ATOM     16  C   UNL d   1      -2.959   2.118  -2.999  0.00  0.00     0.179 C 
ATOM     17  O   UNL d   1      -1.779   2.238  -3.266  0.00  0.00    -0.646 OA
BRANCH  16  18
ATOM     18  O   UNL d   1      -3.735   1.225  -3.642  0.00  0.00    -0.773 OA
ATOM     19  H   UNL d   1      -3.118   0.760  -4.247  0.00  0.00     0.167 HD
ENDBRANCH  16  18
ENDBRANCH   2  16
TORSDOF 4
