REMARK  4 active torsions:
REMARK  status: ('A' for Active; 'I' for Inactive)
REMARK    1  A    between atoms: N_9  and  C_2 
REMARK    2  A    between atoms: C_7  and  C_3 
REMARK    3  A    between atoms: C_10  and  C_4 
REMARK    4  A    between atoms: O_12  and  C_7 
ROOT
ATOM      1  C   UNL d   1      -0.711  -0.066  -0.002  0.00  0.00     0.090 A 
ATOM      2  C   UNL d   1       0.185   1.002  -0.017  0.00  0.00     0.094 A 
ATOM      3  C   UNL d   1       1.304  -1.262   0.026  0.00  0.00     0.095 A 
ATOM      4  C   UNL d   1      -0.083  -1.379   0.001  0.00  0.00     0.021 A 
ATOM      5  S   UNL d   1       1.793   0.376  -0.024  0.00  0.00    -0.064 SA
ATOM      6  C   UNL d   1      -2.132   0.128   0.039  0.00  0.00     0.103 C 
ATOM      7  N   UNL d   1      -3.286   0.283   0.089  0.00  0.00    -0.191 NA
ENDROOT
BRANCH   2   8
ATOM      8  N   UNL d   1      -0.053   2.360  -0.038  0.00  0.00    -0.383 N 
ATOM      9  C   UNL d   1       0.873   3.327   0.547  0.00  0.00     0.149 C 
ATOM     10  C   UNL d   1      -1.233   2.954  -0.660  0.00  0.00     0.149 C 
ENDBRANCH   2   8
BRANCH   4  11
ATOM     11  C   UNL d   1      -0.775  -2.686  -0.036  0.00  0.00    -0.023 A 
ATOM     12  C   UNL d   1      -1.934  -2.908   0.723  0.00  0.00     0.012 A 
ATOM     13  C   UNL d   1      -2.638  -4.113   0.630  0.00  0.00     0.001 A 
ATOM     14  C   UNL d   1      -2.167  -5.137  -0.183  0.00  0.00     0.000 A 
ATOM     15  C   UNL d   1      -1.003  -4.949  -0.921  0.00  0.00     0.001 A 
ATOM     16  C   UNL d   1      -0.328  -3.725  -0.869  0.00  0.00     0.012 A 
ENDBRANCH   4  11
BRANCH   3  17
ATOM     17  C   UNL d   1       2.321  -2.293   0.131  0.00  0.00     0.300 C 
ATOM     18  O   UNL d   1       2.224  -3.329   0.776  0.00  0.00    -0.259 OA
BRANCH  17  19
ATOM     19  O   UNL d   1       3.400  -1.990  -0.653  0.00  0.00    -0.322 OA
ATOM     20  C   UNL d   1       4.392  -3.017  -0.701  0.00  0.00     0.213 C 
ENDBRANCH  17  19
ENDBRANCH   3  17
TORSDOF 4
