REMARK  4 active torsions:
REMARK  status: ('A' for Active; 'I' for Inactive)
REMARK       I    between atoms: N_2  and  C_1 
REMARK    1  A    between atoms: C_3  and  C_1 
REMARK       I    between atoms: C_5  and  N_2 
REMARK    2  A    between atoms: C_4  and  N_6 
REMARK       I    between atoms: N_6  and  C_5 
REMARK    3  A    between atoms: O_20  and  C_13 
REMARK    4  A    between atoms: O_19  and  C_14 
ROOT
ATOM      1  C   UNL d   1       0.837   0.006  -0.008  0.00  0.00     0.265 C 
ATOM      2  N   UNL d   1       2.174   0.002  -0.373  0.00  0.00    -0.275 N 
ATOM      3  C   UNL d   1       3.225   0.748   0.087  0.00  0.00     0.327 C 
ATOM      4  N   UNL d   1       2.918   1.886   0.791  0.00  0.00    -0.306 N 
ATOM      5  O   UNL d   1       0.333   0.786   0.792  0.00  0.00    -0.267 OA
ATOM      6  O   UNL d   1       4.365   0.342  -0.139  0.00  0.00    -0.247 OA
ATOM      7  H   UNL d   1       2.506  -0.798  -0.893  0.00  0.00     0.173 HD
ATOM      8  H   UNL d   1       2.106   1.770   1.395  0.00  0.00     0.171 HD
ENDROOT
BRANCH   1   9
ATOM      9  C   UNL d   1       0.062  -1.091  -0.654  0.00  0.00     0.099 A 
ATOM     10  C   UNL d   1       0.545  -2.414  -0.583  0.00  0.00     0.086 A 
ATOM     11  C   UNL d   1      -0.022  -3.414  -1.372  0.00  0.00     0.038 A 
ATOM     12  C   UNL d   1      -1.091  -3.114  -2.211  0.00  0.00     0.005 A 
ATOM     13  C   UNL d   1      -1.608  -1.816  -2.247  0.00  0.00     0.038 A 
ATOM     14  C   UNL d   1      -1.052  -0.798  -1.459  0.00  0.00     0.086 A 
BRANCH  10  15
ATOM     15  O   UNL d   1       1.658  -2.784   0.133  0.00  0.00    -0.355 OA
ATOM     16  C   UNL d   1       1.472  -2.663   1.547  0.00  0.00     0.210 C 
ENDBRANCH  10  15
BRANCH  14  17
ATOM     17  O   UNL d   1      -1.492   0.499  -1.494  0.00  0.00    -0.355 OA
ATOM     18  C   UNL d   1      -2.833   0.699  -1.939  0.00  0.00     0.210 C 
ENDBRANCH  14  17
ENDBRANCH   1   9
BRANCH   4  19
ATOM     19  C   UNL d   1       3.966   2.732   1.245  0.00  0.00     0.071 A 
ATOM     20  C   UNL d   1       4.924   3.272   0.361  0.00  0.00     0.040 A 
ATOM     21  C   UNL d   1       6.028   3.979   0.848  0.00  0.00     0.040 A 
ATOM     22 BR   UNL d   1       4.720   3.231  -1.536  0.00  0.00    -0.049 Br
ATOM     23  C   UNL d   1       6.165   4.185   2.216  0.00  0.00     0.013 A 
ATOM     24  C   UNL d   1       5.189   3.733   3.101  0.00  0.00     0.040 A 
ATOM     25 BR   UNL d   1       7.682   5.101   2.873  0.00  0.00    -0.051 Br
ATOM     26  C   UNL d   1       4.085   3.022   2.614  0.00  0.00     0.040 A 
ATOM     27 BR   UNL d   1       2.811   2.398   3.879  0.00  0.00    -0.049 Br
ENDBRANCH   4  19
TORSDOF 4
