REMARK  3 active torsions:
REMARK  status: ('A' for Active; 'I' for Inactive)
REMARK    1  A    between atoms: C_3  and  C_1 
REMARK    2  A    between atoms: C_4  and  C_2 
REMARK       I    between atoms: N_6  and  C_4 
REMARK       I    between atoms: C_12  and  N_6 
REMARK       I    between atoms: N_17  and  C_12 
REMARK    3  A    between atoms: C_20  and  N_17 
ROOT
ATOM      1  C   UNL d   1      -0.998  -0.612   0.515  0.00  0.00     0.137 A 
ATOM      2  C   UNL d   1       0.200  -1.295   0.319  0.00  0.00     0.093 A 
ATOM      3  O   UNL d   1      -0.769   0.704   0.195  0.00  0.00    -0.235 OA
ATOM      4  N   UNL d   1       0.539   0.909  -0.155  0.00  0.00    -0.264 N 
ATOM      5  HN  UNL d   1       0.971   1.791  -0.432  1.00  0.00     0.194 HD
ATOM      6  C   UNL d   1       1.131  -0.281  -0.060  0.00  0.00     0.047 A 
ATOM      7  C   UNL d   1       2.578  -0.403  -0.364  0.00  0.00     0.071 C 
ENDROOT
BRANCH   2   8
ATOM      8  C   UNL d   1       0.527  -2.701   0.454  0.00  0.00     0.264 C 
ATOM      9  N   UNL d   1      -0.391  -3.579  -0.081  0.00  0.00    -0.275 N 
ATOM     10  C   UNL d   1      -0.186  -4.883  -0.474  0.00  0.00     0.327 C 
ATOM     11  H   UNL d   1      -1.231  -3.213  -0.505  0.00  0.00     0.173 HD
ATOM     12  N   UNL d   1       1.002  -5.451  -0.095  0.00  0.00    -0.309 N 
ATOM     13  O   UNL d   1      -1.062  -5.397  -1.165  0.00  0.00    -0.247 OA
ATOM     14  H   UNL d   1       1.569  -4.904   0.550  0.00  0.00     0.170 HD
ATOM     15  O   UNL d   1       1.575  -3.069   0.981  0.00  0.00    -0.267 OA
BRANCH  12  16
ATOM     16  C   UNL d   1       1.527  -6.699  -0.492  0.00  0.00     0.036 A 
ATOM     17  C   UNL d   1       0.915  -7.538  -1.426  0.00  0.00     0.029 A 
ATOM     18  C   UNL d   1       1.510  -8.749  -1.794  0.00  0.00     0.002 A 
ATOM     19  C   UNL d   1       2.724  -9.134  -1.231  0.00  0.00     0.000 A 
ATOM     20  C   UNL d   1       3.343  -8.306  -0.298  0.00  0.00     0.002 A 
ATOM     21  C   UNL d   1       2.749  -7.094   0.067  0.00  0.00     0.029 A 
ENDBRANCH  12  16
ENDBRANCH   2   8
BRANCH   1  22
ATOM     22  C   UNL d   1      -2.304  -1.000   0.976  0.00  0.00     0.083 A 
ATOM     23  C   UNL d   1      -3.511  -0.313   0.849  0.00  0.00     0.043 A 
ATOM     24  N   UNL d   1      -4.607  -0.949   1.424  0.00  0.00    -0.298 N 
ATOM     25  C   UNL d   1      -3.757   1.003   0.200  0.00  0.00     0.071 C 
ATOM     26  N   UNL d   1      -4.271  -2.080   2.012  0.00  0.00    -0.269 N 
ATOM     27  HN  UNL d   1      -5.559  -0.584   1.393  1.00  0.00     0.187 HD
ATOM     28  S   UNL d   1      -2.639  -2.396   1.919  0.00  0.00     0.006 SA
ATOM     29  HN  UNL d   1      -4.940  -2.695   2.475  1.00  0.00     0.195 HD
ENDBRANCH   1  22
TORSDOF 3
