REMARK  8 active torsions:
REMARK  status: ('A' for Active; 'I' for Inactive)
REMARK    1  A    between atoms: C_6  and  C_1 
REMARK    2  A    between atoms: C_12  and  N_2 
REMARK    3  A    between atoms: C_18  and  C_3 
REMARK       I    between atoms: N_8  and  C_6 
REMARK    4  A    between atoms: C_11  and  N_8 
REMARK    5  A    between atoms: C_13  and  N_8 
REMARK    6  A    between atoms: C_9  and  C_11 
REMARK    7  A    between atoms: C_19  and  C_13 
REMARK    8  A    between atoms: C_24  and  C_18 
ROOT
ATOM      1  C   UNL d   1      -0.659   2.410  -0.340  0.00  0.00     0.257 C 
ATOM      2  N   UNL d   1       0.025   3.618  -0.084  0.00  0.00    -0.339 N 
ATOM      3  O   UNL d   1      -1.798   2.430  -0.799  0.00  0.00    -0.267 OA
ENDROOT
BRANCH   1   4
ATOM      4  C   UNL d   1      -0.052   1.127   0.017  0.00  0.00     0.073 C 
ATOM      5  C   UNL d   1      -0.155  -0.122  -0.623  0.00  0.00     0.051 C 
ATOM      6  N   UNL d   1       0.483  -1.035   0.234  0.00  0.00    -0.260 N 
ATOM      7  N   UNL d   1       1.129  -0.398   1.241  0.00  0.00    -0.304 N 
ATOM      8  C   UNL d   1       0.664   0.841   1.193  0.00  0.00     0.126 C 
ATOM      9  HN  UNL d   1       1.816  -0.785   1.888  1.00  0.00     0.186 HD
BRANCH   5  10
ATOM     10  C   UNL d   1      -0.731  -0.584  -1.941  0.00  0.00     0.060 C 
BRANCH  10  11
ATOM     11  C   UNL d   1      -1.162   0.453  -2.972  0.00  0.00     0.002 C 
ATOM     12  C   UNL d   1      -1.612  -0.233  -4.261  0.00  0.00     0.005 C 
ENDBRANCH  10  11
ENDBRANCH   5  10
BRANCH   6  13
ATOM     13  C   UNL d   1       0.503  -2.466   0.246  0.00  0.00     0.056 A 
ATOM     14  C   UNL d   1       1.596  -3.117   0.846  0.00  0.00     0.031 A 
ATOM     15  C   UNL d   1       1.626  -4.510   0.948  0.00  0.00     0.002 A 
ATOM     16  C   UNL d   1       0.559  -5.266   0.473  0.00  0.00     0.000 A 
ATOM     17  C   UNL d   1      -0.538  -4.630  -0.105  0.00  0.00     0.002 A 
ATOM     18  C   UNL d   1      -0.568  -3.235  -0.219  0.00  0.00     0.031 A 
ENDBRANCH   6  13
ENDBRANCH   1   4
BRANCH   2  19
ATOM     19  C   UNL d   1      -0.711   4.856  -0.381  0.00  0.00     0.172 C 
BRANCH  19  20
ATOM     20  C   UNL d   1      -0.521   5.910   0.677  0.00  0.00     0.000 A 
ATOM     21  S   UNL d   1       0.279   7.381   0.289  0.00  0.00    -0.105 SA
ATOM     22  C   UNL d   1       0.075   7.986   1.873  0.00  0.00     0.050 A 
ATOM     23  C   UNL d   1      -0.604   7.103   2.681  0.00  0.00     0.008 A 
ATOM     24  C   UNL d   1      -0.949   5.904   1.991  0.00  0.00     0.017 A 
ENDBRANCH  19  20
ENDBRANCH   2  19
BRANCH   2  25
ATOM     25  C   UNL d   1       1.465   3.731   0.192  0.00  0.00     0.165 C 
BRANCH  25  26
ATOM     26  C   UNL d   1       2.409   3.444  -0.952  0.00  0.00    -0.040 A 
ATOM     27  C   UNL d   1       2.176   3.894  -2.257  0.00  0.00     0.009 A 
ATOM     28  C   UNL d   1       3.145   3.734  -3.252  0.00  0.00     0.001 A 
ATOM     29  C   UNL d   1       4.362   3.126  -2.955  0.00  0.00     0.000 A 
ATOM     30  C   UNL d   1       4.610   2.669  -1.665  0.00  0.00     0.001 A 
ATOM     31  C   UNL d   1       3.643   2.829  -0.671  0.00  0.00     0.009 A 
ENDBRANCH  25  26
ENDBRANCH   2  25
TORSDOF 8
