REMARK  5 active torsions:
REMARK  status: ('A' for Active; 'I' for Inactive)
REMARK    1  A    between atoms: N_6  and  S_1 
REMARK    2  A    between atoms: S_2  and  N_5 
REMARK    3  A    between atoms: C_3  and  C_4 
REMARK    4  A    between atoms: N_5  and  C_8 
REMARK    5  A    between atoms: C_7  and  N_6 
ROOT
ATOM      1  C   UNL d   1       2.392   3.369   2.562  0.00  0.00     0.051 A 
ATOM      2  C   UNL d   1       0.913   2.509   0.841  0.00  0.00     0.025 A 
ATOM      3  C   UNL d   1       0.005   3.798   2.659  0.00  0.00     0.025 A 
ATOM      4  C   UNL d   1       1.284   3.952   3.194  0.00  0.00     0.040 A 
ATOM      5  C   UNL d   1       2.193   2.646   1.377  0.00  0.00     0.040 A 
ATOM      6  C   UNL d   1      -0.188   3.081   1.479  0.00  0.00     0.048 A 
ENDROOT
BRANCH   2   7
ATOM      7  N   UNL d   1       0.735   1.684  -0.308  0.00  0.00    -0.186 NA
ATOM      8  H   UNL d   1       0.042   2.018  -0.983  0.00  0.00     0.145 HD
BRANCH   7   9
ATOM      9  S   UNL d   1       0.458   0.034  -0.022  0.00  0.00     0.210 S 
ATOM     10  O   UNL d   1      -0.329  -0.420  -1.148  0.00  0.00    -0.211 OA
ATOM     11  O   UNL d   1       0.009  -0.160   1.339  0.00  0.00    -0.211 OA
ATOM     12  C   UNL d   1       2.097  -0.640  -0.198  0.00  0.00     0.180 C 
ENDBRANCH   7   9
ENDBRANCH   2   7
BRANCH   1  13
ATOM     13  C   UNL d   1       3.776   3.490   3.143  0.00  0.00     0.417 C 
ATOM     14  F   UNL d   1       3.811   4.160   4.328  0.00  0.00    -0.166 F 
ATOM     15  F   UNL d   1       4.344   2.276   3.381  0.00  0.00    -0.166 F 
ATOM     16  F   UNL d   1       4.630   4.149   2.314  0.00  0.00    -0.166 F 
ENDBRANCH   1  13
BRANCH   3  17
ATOM     17  N   UNL d   1      -1.092   4.421   3.325  0.00  0.00    -0.186 NA
ATOM     18  H   UNL d   1      -1.933   3.845   3.409  0.00  0.00     0.145 HD
BRANCH  17  19
ATOM     19  S   UNL d   1      -1.538   5.969   2.803  0.00  0.00     0.210 S 
ATOM     20  O   UNL d   1      -1.192   6.125   1.407  0.00  0.00    -0.211 OA
ATOM     21  O   UNL d   1      -2.896   6.157   3.265  0.00  0.00    -0.211 OA
ATOM     22  C   UNL d   1      -0.478   7.008   3.789  0.00  0.00     0.180 C 
ENDBRANCH  17  19
ENDBRANCH   3  17
TORSDOF 5
