REMARK  5 active torsions:
REMARK  status: ('A' for Active; 'I' for Inactive)
REMARK    1  A    between atoms: C_2  and  S_1 
REMARK    2  A    between atoms: C_4  and  S_1 
REMARK    3  A    between atoms: C_3  and  C_2 
REMARK    4  A    between atoms: O_5  and  C_3 
REMARK    5  A    between atoms: C_11  and  O_5 
ROOT
ATOM      1  S   UNL d   1       1.232  -0.030  -0.013  0.00  0.00     0.208 S 
ATOM      2  O   UNL d   1       0.837   0.288   1.347  0.00  0.00    -0.220 OA
ATOM      3  O   UNL d   1       0.931   0.932  -1.068  0.00  0.00    -0.220 OA
ENDROOT
BRANCH   1   4
ATOM      4  C   UNL d   1       0.484  -1.596  -0.449  0.00  0.00     0.150 C 
ATOM      5  C   UNL d   1      -1.009  -1.340  -0.738  0.00  0.00     0.043 C 
ATOM      6  C   UNL d   1       1.079  -2.261  -1.694  0.00  0.00     0.043 C 
BRANCH   4   7
ATOM      7  C   UNL d   1       0.629  -2.534   0.736  0.00  0.00     0.283 C 
ATOM      8  O   UNL d   1      -0.308  -3.119   1.262  0.00  0.00    -0.263 OA
BRANCH   7   9
ATOM      9  O   UNL d   1       1.933  -2.729   1.062  0.00  0.00    -0.310 OA
BRANCH   9  10
ATOM     10  C   UNL d   1       2.335  -3.718   2.052  0.00  0.00     0.060 C 
ATOM     11  C   UNL d   1       1.883  -5.127   1.649  0.00  0.00     0.045 C 
ATOM     12  C   UNL d   1       3.872  -3.664   2.045  0.00  0.00     0.045 C 
ATOM     13  C   UNL d   1       1.834  -3.347   3.451  0.00  0.00     0.045 C 
ENDBRANCH   9  10
ENDBRANCH   7   9
ENDBRANCH   4   7
ENDBRANCH   1   4
BRANCH   1  14
ATOM     14  C   UNL d   1       3.008  -0.213  -0.003  0.00  0.00     0.129 A 
ATOM     15  N   UNL d   1       3.534  -0.635  -1.181  0.00  0.00    -0.357 N 
ATOM     16  C   UNL d   1       4.880  -0.730  -1.230  0.00  0.00     0.089 A 
ATOM     17  HN  UNL d   1       2.948  -0.867  -1.983  1.00  0.00     0.166 HD
ATOM     18  C   UNL d   1       5.711  -0.420  -0.163  0.00  0.00     0.017 A 
ATOM     19  C   UNL d   1       5.134   0.019   1.026  0.00  0.00     0.004 A 
ATOM     20  C   UNL d   1       3.750   0.131   1.115  0.00  0.00     0.042 A 
ENDBRANCH   1  14
TORSDOF 5
