REMARK  3 active torsions:
REMARK  status: ('A' for Active; 'I' for Inactive)
REMARK    1  A    between atoms: C_5  and  C_1 
REMARK    2  A    between atoms: C_4  and  N_10 
REMARK       I    between atoms: N_11  and  C_5 
REMARK    3  A    between atoms: N_10  and  N_11 
ROOT
ATOM      1  C   UNL d   1      -0.227  -2.592   0.064  0.00  0.00     0.280 C 
ATOM      2  N   UNL d   1       0.743  -3.582  -0.000  0.00  0.00    -0.265 N 
ATOM      3  O   UNL d   1       0.090  -1.407   0.189  0.00  0.00    -0.265 OA
ATOM      4  H   UNL d   1       0.500  -4.568  -0.019  0.00  0.00     0.190 HD
ENDROOT
BRANCH   2   5
ATOM      5  N   UNL d   1       2.077  -3.277   0.201  0.00  0.00    -0.294 N 
ATOM      6  H   UNL d   1       2.287  -2.328   0.530  0.00  0.00     0.187 HD
BRANCH   5   7
ATOM      7  C   UNL d   1       3.067  -3.901  -0.599  0.00  0.00     0.094 A 
ATOM      8  C   UNL d   1       2.836  -4.660  -1.766  0.00  0.00     0.079 A 
ATOM      9 CL   UNL d   1       1.310  -4.789  -2.571  0.00  0.00    -0.080 Cl
ATOM     10  C   UNL d   1       3.904  -5.329  -2.366  0.00  0.00     0.114 A 
ATOM     11  N   UNL d   1       5.173  -5.324  -1.901  0.00  0.00    -0.372 N 
ATOM     12  C   UNL d   1       5.391  -4.593  -0.788  0.00  0.00     0.114 A 
ATOM     13  HN  UNL d   1       5.920  -5.842  -2.363  1.00  0.00     0.164 HD
ATOM     14  C   UNL d   1       4.400  -3.874  -0.127  0.00  0.00     0.079 A 
ATOM     15 CL   UNL d   1       4.840  -3.001   1.302  0.00  0.00    -0.080 Cl
ENDBRANCH   5   7
ENDBRANCH   2   5
BRANCH   1  16
ATOM     16  C   UNL d   1      -1.599  -3.054  -0.008  0.00  0.00     0.115 A 
ATOM     17  C   UNL d   1      -2.800  -2.352  -0.019  0.00  0.00     0.046 A 
ATOM     18  N   UNL d   1      -3.940  -3.151  -0.081  0.00  0.00    -0.298 N 
ATOM     19  C   UNL d   1      -3.023  -0.885   0.026  0.00  0.00     0.071 C 
ATOM     20  N   UNL d   1      -3.647  -4.437  -0.121  0.00  0.00    -0.269 N 
ATOM     21  HN  UNL d   1      -4.892  -2.784  -0.095  1.00  0.00     0.187 HD
ATOM     22  S   UNL d   1      -2.009  -4.723  -0.090  0.00  0.00     0.009 SA
ATOM     23  HN  UNL d   1      -4.349  -5.176  -0.165  1.00  0.00     0.195 HD
ENDBRANCH   1  16
TORSDOF 3
