REMARK  3 active torsions:
REMARK  status: ('A' for Active; 'I' for Inactive)
REMARK    1  A    between atoms: C_4  and  C_1 
REMARK    2  A    between atoms: O_10  and  C_3 
REMARK       I    between atoms: N_9  and  C_4 
REMARK    3  A    between atoms: N_11  and  N_9 
ROOT
ATOM      1  C   UNL d   1       1.905   1.187  -0.032  0.00  0.00     0.067 A 
ATOM      2  C   UNL d   1       0.590   1.670  -0.041  0.00  0.00     0.032 A 
ATOM      3  C   UNL d   1       2.128  -0.193   0.009  0.00  0.00     0.082 A 
ATOM      4  C   UNL d   1       1.054  -1.080   0.073  0.00  0.00     0.049 A 
ATOM      5  C   UNL d   1      -0.503   0.788  -0.001  0.00  0.00    -0.025 A 
ATOM      6  C   UNL d   1      -0.267  -0.605   0.055  0.00  0.00    -0.023 A 
ATOM      7  C   UNL d   1      -1.825   1.260  -0.024  0.00  0.00     0.012 A 
ATOM      8  C   UNL d   1      -1.360  -1.487   0.073  0.00  0.00     0.012 A 
ATOM      9  C   UNL d   1      -2.667  -1.002   0.036  0.00  0.00     0.001 A 
ATOM     10  C   UNL d   1      -2.900   0.370  -0.009  0.00  0.00     0.001 A 
ENDROOT
BRANCH   1  11
ATOM     11  C   UNL d   1       3.006   2.181  -0.091  0.00  0.00     0.268 C 
ATOM     12  O   UNL d   1       2.861   3.249  -0.677  0.00  0.00    -0.266 OA
ATOM     13  N   UNL d   1       4.184   1.825   0.559  0.00  0.00    -0.290 N 
ATOM     14  H   UNL d   1       4.169   1.068   1.245  0.00  0.00     0.183 HD
BRANCH  13  15
ATOM     15  N   UNL d   1       5.236   2.766   0.620  0.00  0.00    -0.247 NA
ATOM     16  H   UNL d   1       4.827   3.683   0.383  0.00  0.00     0.143 HD
ATOM     17  H   UNL d   1       5.873   2.582  -0.159  0.00  0.00     0.143 HD
ENDBRANCH  13  15
ENDBRANCH   1  11
BRANCH   3  18
ATOM     18  O   UNL d   1       3.372  -0.760  -0.045  0.00  0.00    -0.360 OA
ATOM     19  H   UNL d   1       3.962  -0.171  -0.552  0.00  0.00     0.217 HD
ENDBRANCH   3  18
TORSDOF 3
