REMARK  7 active torsions:
REMARK  status: ('A' for Active; 'I' for Inactive)
REMARK    1  A    between atoms: C_8  and  C_1 
REMARK    2  A    between atoms: S_2  and  C_6 
REMARK    3  A    between atoms: C_12  and  S_2 
REMARK    4  A    between atoms: C_6  and  C_5 
REMARK    5  A    between atoms: O_15  and  C_8 
REMARK    6  A    between atoms: C_14  and  C_12 
REMARK    7  A    between atoms: C_22  and  O_15 
ROOT
ATOM      1  C   UNL d   1       0.125  -2.633  -0.031  0.00  0.00     0.205 C 
ENDROOT
BRANCH   1   2
ATOM      2  S   UNL d   1       1.722  -3.421  -0.046  0.00  0.00     0.154 S 
ATOM      3  O   UNL d   1       1.459  -4.852  -0.024  0.00  0.00    -0.227 OA
ATOM      4  O   UNL d   1       2.510  -2.850  -1.127  0.00  0.00    -0.227 OA
BRANCH   2   5
ATOM      5  C   UNL d   1       2.462  -2.970   1.528  0.00  0.00     0.179 C 
BRANCH   5   6
ATOM      6  C   UNL d   1       3.821  -3.619   1.641  0.00  0.00    -0.044 A 
ATOM      7  C   UNL d   1       4.970  -2.934   1.210  0.00  0.00     0.011 A 
ATOM      8  C   UNL d   1       6.228  -3.533   1.302  0.00  0.00     0.043 A 
ATOM      9  C   UNL d   1       6.340  -4.816   1.821  0.00  0.00     0.116 A 
ATOM     10  C   UNL d   1       5.217  -5.514   2.247  0.00  0.00     0.043 A 
ATOM     11  F   UNL d   1       7.548  -5.390   1.906  0.00  0.00    -0.206 F 
ATOM     12  C   UNL d   1       3.958  -4.918   2.158  0.00  0.00     0.011 A 
ENDBRANCH   5   6
ENDBRANCH   2   5
ENDBRANCH   1   2
BRANCH   1  13
ATOM     13  C   UNL d   1       0.302  -1.160  -0.030  0.00  0.00     0.065 A 
ATOM     14  N   UNL d   1       0.424  -0.438   1.063  0.00  0.00    -0.348 N 
ATOM     15  C   UNL d   1       0.577   0.916   0.739  0.00  0.00     0.115 A 
ATOM     16  HN  UNL d   1       0.410  -0.812   2.013  1.00  0.00     0.166 HD
ATOM     17  C   UNL d   1       0.543   1.177  -0.619  0.00  0.00     0.087 A 
ATOM     18  S   UNL d   1       0.295  -0.268  -1.500  0.00  0.00    -0.085 SA
BRANCH  15  19
ATOM     19  C   UNL d   1       0.823   1.945   1.750  0.00  0.00     0.310 C 
ATOM     20  O   UNL d   1       1.066   3.114   1.473  0.00  0.00    -0.258 OA
BRANCH  19  21
ATOM     21  O   UNL d   1       0.841   1.423   3.011  0.00  0.00    -0.317 OA
BRANCH  21  22
ATOM     22  C   UNL d   1       1.495   2.225   4.001  0.00  0.00     0.175 C 
ATOM     23  C   UNL d   1       2.970   1.864   3.991  0.00  0.00     0.034 C 
ENDBRANCH  21  22
ENDBRANCH  19  21
ENDBRANCH  15  19
ENDBRANCH   1  13
TORSDOF 7
