REMARK  6 active torsions:
REMARK  status: ('A' for Active; 'I' for Inactive)
REMARK    1  A    between atoms: C_2  and  C_1 
REMARK    2  A    between atoms: S_17  and  C_7 
REMARK    3  A    between atoms: S_13  and  C_9 
REMARK    4  A    between atoms: C_19  and  S_13 
REMARK    5  A    between atoms: C_14  and  C_19 
REMARK       I    between atoms: N_16  and  C_14 
REMARK    6  A    between atoms: C_23  and  N_16 
ROOT
ATOM      1  C   UNL d   1       0.134   1.358   0.024  0.00  0.00     0.141 A 
ATOM      2  N   UNL d   1       1.012   0.317   0.238  0.00  0.00    -0.315 N 
ATOM      3  N   UNL d   1      -1.099   0.875   0.085  0.00  0.00    -0.282 N 
ATOM      4  HN  UNL d   1      -1.956   1.413  -0.049  1.00  0.00     0.188 HD
ATOM      5  C   UNL d   1       0.231  -0.781   0.493  0.00  0.00     0.163 A 
ATOM      6  N   UNL d   1      -1.032  -0.469   0.360  0.00  0.00    -0.278 N 
ATOM      7  HN  UNL d   1      -1.823  -1.108   0.445  1.00  0.00     0.189 HD
ATOM      8  C   UNL d   1       2.453   0.334   0.266  0.00  0.00     0.160 C 
ENDROOT
BRANCH   5   9
ATOM      9  S   UNL d   1       0.842  -2.250   1.175  0.00  0.00    -0.083 SA
BRANCH   9  10
ATOM     10  C   UNL d   1      -0.551  -3.393   1.098  0.00  0.00     0.185 C 
BRANCH  10  11
ATOM     11  C   UNL d   1      -1.731  -3.160   2.035  0.00  0.00     0.231 C 
ATOM     12  N   UNL d   1      -1.804  -1.937   2.666  0.00  0.00    -0.327 N 
ATOM     13  H   UNL d   1      -1.157  -1.233   2.337  0.00  0.00     0.169 HD
ATOM     14  O   UNL d   1      -2.570  -4.057   2.138  0.00  0.00    -0.272 OA
BRANCH  12  15
ATOM     15  C   UNL d   1      -2.874  -1.442   3.436  0.00  0.00     0.034 A 
ATOM     16  C   UNL d   1      -3.884  -2.246   3.964  0.00  0.00     0.029 A 
ATOM     17  C   UNL d   1      -4.966  -1.670   4.633  0.00  0.00     0.002 A 
ATOM     18  C   UNL d   1      -5.039  -0.288   4.790  0.00  0.00     0.000 A 
ATOM     19  C   UNL d   1      -4.013   0.519   4.305  0.00  0.00     0.002 A 
ATOM     20  C   UNL d   1      -2.929  -0.056   3.639  0.00  0.00     0.029 A 
ENDBRANCH  12  15
ENDBRANCH  10  11
ENDBRANCH   9  10
ENDBRANCH   5   9
BRANCH   1  21
ATOM     21  C   UNL d   1       0.419   2.767  -0.116  0.00  0.00     0.059 C 
ATOM     22  S   UNL d   1       1.786   3.334  -0.986  0.00  0.00    -0.078 SA
ATOM     23  C   UNL d   1       1.599   4.933  -0.419  0.00  0.00     0.052 C 
ATOM     24  C   UNL d   1       0.375   5.088   0.196  0.00  0.00    -0.005 A 
ATOM     25  C   UNL d   1      -0.329   3.842   0.360  0.00  0.00    -0.025 A 
ATOM     26  C   UNL d   1      -0.168   6.309   0.702  0.00  0.00     0.010 A 
ATOM     27  C   UNL d   1      -1.665   3.774   1.059  0.00  0.00     0.045 A 
ATOM     28  C   UNL d   1      -2.214   5.131   1.555  0.00  0.00     0.032 A 
ATOM     29  C   UNL d   1      -1.358   6.347   1.321  0.00  0.00    -0.025 A 
BRANCH  23  30
ATOM     30  S   UNL d   1       2.909   6.091  -0.617  0.00  0.00    -0.126 SA
ATOM     31  C   UNL d   1       2.272   7.132  -1.941  0.00  0.00     0.096 C 
ENDBRANCH  23  30
ENDBRANCH   1  21
TORSDOF 6
