REMARK  2 active torsions:
REMARK  status: ('A' for Active; 'I' for Inactive)
REMARK    1  A    between atoms: C_5  and  C_3 
REMARK    2  A    between atoms: C_13  and  N_4 
ROOT
ATOM      1  N   UNL d   1       1.202  -0.687  -0.022  0.00  0.00    -0.288 N 
ATOM      2  HN  UNL d   1       2.073  -1.218  -0.021  1.00  0.00     0.188 HD
ATOM      3  C   UNL d   1       1.215   0.616  -0.111  0.00  0.00     0.127 A 
ATOM      4  N   UNL d   1      -0.011  -1.330   0.070  0.00  0.00    -0.267 N 
ATOM      5  C   UNL d   1      -0.076   1.422  -0.046  0.00  0.00     0.203 A 
ATOM      6  C   UNL d   1      -1.335   0.677   0.015  0.00  0.00     0.076 A 
ATOM      7  C   UNL d   1      -1.211  -0.647   0.064  0.00  0.00     0.120 A 
ATOM      8  O   UNL d   1      -0.084   2.646  -0.022  0.00  0.00    -0.286 OA
ENDROOT
BRANCH   3   9
ATOM      9  C   UNL d   1       2.503   1.292  -0.303  0.00  0.00     0.081 A 
ATOM     10  N   UNL d   1       3.673   0.742   0.075  0.00  0.00    -0.299 N 
ATOM     11  N   UNL d   1       4.598   1.662  -0.239  0.00  0.00    -0.311 N 
ATOM     12  HN  UNL d   1       3.823  -0.171   0.505  1.00  0.00     0.187 HD
ATOM     13  C   UNL d   1       4.084   2.774  -0.828  0.00  0.00     0.109 A 
ATOM     14  H   UNL d   1       5.569   1.461  -0.021  0.00  0.00     0.186 HD
ATOM     15  C   UNL d   1       2.729   2.566  -0.896  0.00  0.00     0.052 A 
ENDBRANCH   3   9
BRANCH   4  16
ATOM     16  C   UNL d   1       0.072  -2.753   0.187  0.00  0.00     0.056 A 
ATOM     17  C   UNL d   1       1.182  -3.352   0.816  0.00  0.00     0.034 A 
ATOM     18  C   UNL d   1       1.267  -4.738   0.972  0.00  0.00     0.044 A 
ATOM     19  C   UNL d   1       0.250  -5.543   0.480  0.00  0.00     0.116 A 
ATOM     20  C   UNL d   1      -0.849  -4.990  -0.161  0.00  0.00     0.044 A 
ATOM     21  F   UNL d   1       0.331  -6.872   0.622  0.00  0.00    -0.206 F 
ATOM     22  C   UNL d   1      -0.938  -3.603  -0.306  0.00  0.00     0.034 A 
ENDBRANCH   4  16
TORSDOF 2
