REMARK  1 active torsions:
REMARK  status: ('A' for Active; 'I' for Inactive)
REMARK    1  A    between atoms: C_12  and  C_8 
ROOT
ATOM      1  N   UNL d   1      -3.396   2.748   0.022  0.00  0.00    -0.220 N 
ATOM      2  C   UNL d   1      -3.200   1.396  -0.067  0.00  0.00     0.176 A 
ATOM      3  N   UNL d   1      -2.267   3.540   0.054  0.00  0.00    -0.287 N 
ATOM      4  HN  UNL d   1      -2.262   4.557   0.129  1.00  0.00     0.188 HD
ATOM      5  S   UNL d   1      -1.491   1.045  -0.126  0.00  0.00    -0.036 SA
ATOM      6  N   UNL d   1      -4.084   0.464  -0.108  0.00  0.00    -0.305 N 
ATOM      7  HN  UNL d   1      -3.820  -0.517  -0.191  1.00  0.00     0.171 HD
ATOM      8  C   UNL d   1      -1.210   2.785  -0.024  0.00  0.00     0.078 A 
ATOM      9  C   UNL d   1      -4.655   3.295   0.038  0.00  0.00     0.108 C 
ATOM     10  C   UNL d   1      -5.409   0.850  -0.034  0.00  0.00     0.230 C 
ATOM     11  C   UNL d   1      -5.794   2.321  -0.057  0.00  0.00     0.181 C 
ATOM     12  N   UNL d   1      -4.905   4.567   0.110  0.00  0.00    -0.387 N 
ATOM     13  HN  UNL d   1      -5.824   5.011   0.119  1.00  0.00     0.157 HD
ATOM     14  O   UNL d   1      -6.304   0.010   0.023  0.00  0.00    -0.273 OA
ATOM     15  H   UNL d   1      -3.989   5.041   0.156  0.00  0.00     0.157 HD
ENDROOT
BRANCH   8  16
ATOM     16  C   UNL d   1       0.211   3.344  -0.026  0.00  0.00    -0.001 C 
ATOM     17  C   UNL d   1       0.967   2.891  -1.284  0.00  0.00     0.021 C 
ATOM     18  C   UNL d   1       0.156   4.885  -0.031  0.00  0.00     0.021 C 
ATOM     19  C   UNL d   1       0.956   2.892   1.238  0.00  0.00     0.021 C 
ENDBRANCH   8  16
TORSDOF 1
