REMARK  5 active torsions:
REMARK  status: ('A' for Active; 'I' for Inactive)
REMARK       I    between atoms: N_3  and  C_1 
REMARK       I    between atoms: N_4  and  C_1 
REMARK       I    between atoms: C_2  and  N_7 
REMARK       I    between atoms: N_5  and  C_2 
REMARK    1  A    between atoms: C_6  and  N_3 
REMARK    2  A    between atoms: C_12  and  N_4 
REMARK    3  A    between atoms: C_13  and  N_5 
REMARK    4  A    between atoms: N_7  and  C_11 
REMARK    5  A    between atoms: C_11  and  C_8 
ROOT
ATOM      1  C   UNL d   1       0.978   2.424  -0.741  0.00  0.00     0.091 C 
ATOM      2  C   UNL d   1       0.179   3.675  -0.335  0.00  0.00     0.026 C 
ATOM      3  C   UNL d   1       0.787   4.787  -1.209  0.00  0.00     0.008 C 
ATOM      4  C   UNL d   1       1.126   2.611  -2.248  0.00  0.00     0.026 C 
ATOM      5  C   UNL d   1       1.452   4.090  -2.398  0.00  0.00     0.002 C 
ENDROOT
BRANCH   2   6
ATOM      6  C   UNL d   1       0.240   3.976   1.166  0.00  0.00     0.131 C 
BRANCH   6   7
ATOM      7  N   UNL d   1      -0.417   5.220   1.539  0.00  0.00    -0.343 N 
ATOM      8  C   UNL d   1      -1.730   5.530   1.691  0.00  0.00     0.316 C 
ATOM      9  N   UNL d   1      -2.624   4.557   1.374  0.00  0.00    -0.335 N 
ATOM     10  O   UNL d   1      -2.034   6.654   2.071  0.00  0.00    -0.247 OA
ATOM     11  H   UNL d   1      -2.252   3.663   1.104  0.00  0.00     0.165 HD
ATOM     12  H   UNL d   1       0.176   5.986   1.832  0.00  0.00     0.164 HD
BRANCH   9  13
ATOM     13  C   UNL d   1      -4.087   4.754   1.309  0.00  0.00     0.023 C 
ATOM     14  C   UNL d   1      -4.434   5.926   0.368  0.00  0.00     0.037 C 
ATOM     15  C   UNL d   1      -4.722   3.453   0.773  0.00  0.00     0.037 C 
ATOM     16  C   UNL d   1      -4.675   5.036   2.706  0.00  0.00     0.037 C 
ENDBRANCH   9  13
ENDBRANCH   6   7
ENDBRANCH   2   6
BRANCH   1  17
ATOM     17  N   UNL d   1       0.316   1.174  -0.421  0.00  0.00    -0.338 N 
ATOM     18  C   UNL d   1       0.474   0.562   0.804  0.00  0.00     0.317 C 
ATOM     19  N   UNL d   1      -0.291  -0.568   0.898  0.00  0.00    -0.335 N 
ATOM     20  O   UNL d   1       1.202   0.997   1.678  0.00  0.00    -0.247 OA
ATOM     21  H   UNL d   1      -0.736  -0.893   0.055  0.00  0.00     0.165 HD
ATOM     22  H   UNL d   1      -0.414   0.844  -1.032  0.00  0.00     0.164 HD
BRANCH  19  23
ATOM     23  C   UNL d   1      -0.327  -1.465   2.066  0.00  0.00     0.023 C 
ATOM     24  C   UNL d   1      -0.883  -0.734   3.299  0.00  0.00     0.037 C 
ATOM     25  C   UNL d   1      -1.267  -2.638   1.733  0.00  0.00     0.037 C 
ATOM     26  C   UNL d   1       1.064  -2.040   2.383  0.00  0.00     0.037 C 
ENDBRANCH  19  23
ENDBRANCH   1  17
TORSDOF 5
