REMARK  4 active torsions:
REMARK  status: ('A' for Active; 'I' for Inactive)
REMARK    1  A    between atoms: N_2  and  C_1 
REMARK    2  A    between atoms: C_14  and  C_5 
REMARK    3  A    between atoms: N_15  and  N_9 
REMARK    4  A    between atoms: C_16  and  N_15 
ROOT
ATOM      1  N   UNL d   1       3.841  -0.888   0.132  0.00  0.00    -0.311 N 
ATOM      2  HN  UNL d   1       3.920   0.128   0.159  1.00  0.00     0.186 HD
ATOM      3  C   UNL d   1       2.697  -1.486   0.079  0.00  0.00     0.119 C 
ENDROOT
BRANCH   1   4
ATOM      4  N   UNL d   1       4.934  -1.701   0.149  0.00  0.00    -0.301 N 
ATOM      5  H   UNL d   1       4.902  -2.592  -0.345  0.00  0.00     0.187 HD
BRANCH   4   6
ATOM      6  C   UNL d   1       6.202  -1.080   0.101  0.00  0.00     0.049 A 
ATOM      7  C   UNL d   1       7.354  -1.870  -0.002  0.00  0.00     0.056 A 
ATOM      8  C   UNL d   1       8.630  -1.288  -0.002  0.00  0.00     0.053 A 
ATOM      9 CL   UNL d   1       9.988  -2.347  -0.157  0.00  0.00    -0.083 Cl
ATOM     10  C   UNL d   1       8.766   0.098   0.123  0.00  0.00     0.032 A 
ATOM     11  C   UNL d   1       7.628   0.890   0.271  0.00  0.00     0.023 A 
ATOM     12 BR   UNL d   1      10.449   0.975   0.109  0.00  0.00    -0.049 Br
ATOM     13  C   UNL d   1       6.361   0.301   0.274  0.00  0.00     0.032 A 
ENDBRANCH   4   6
ENDBRANCH   1   4
BRANCH   3  14
ATOM     14  C   UNL d   1       1.496  -0.670   0.070  0.00  0.00    -0.010 A 
ATOM     15  C   UNL d   1       1.438   0.766   0.129  0.00  0.00     0.057 A 
ATOM     16  C   UNL d   1       0.144   1.237   0.102  0.00  0.00     0.144 A 
ATOM     17  S   UNL d   1      -1.003  -0.012   0.013  0.00  0.00    -0.077 SA
ATOM     18  C   UNL d   1       0.224  -1.210   0.006  0.00  0.00     0.065 A 
BRANCH  16  19
ATOM     19  N   UNL d   1      -0.271   2.616   0.141  0.00  0.00    -0.108 N 
ATOM     20  O   UNL d   1       0.633   3.460   0.210  0.00  0.00    -0.531 OA
ATOM     21  O   UNL d   1      -1.482   2.866   0.102  0.00  0.00    -0.531 OA
ENDBRANCH  16  19
ENDBRANCH   3  14
TORSDOF 4
