REMARK  8 active torsions:
REMARK  status: ('A' for Active; 'I' for Inactive)
REMARK    1  A    between atoms: C_3  and  N_1 
REMARK    2  A    between atoms: C_2  and  S_10 
REMARK    3  A    between atoms: N_8  and  C_2 
REMARK    4  A    between atoms: C_7  and  C_5 
REMARK    5  A    between atoms: C_13  and  C_7 
REMARK    6  A    between atoms: N_12  and  N_8 
REMARK    7  A    between atoms: S_10  and  C_13 
REMARK    8  A    between atoms: C_15  and  N_12 
ROOT
ATOM      1  S   UNL d   1      -2.545   3.754  -4.806  0.00  0.00    -0.092 SA
ENDROOT
BRANCH   1   2
ATOM      2  C   UNL d   1      -2.890   5.428  -5.223  0.00  0.00     0.149 C 
ATOM      3  S   UNL d   1      -1.784   6.635  -5.572  0.00  0.00    -0.052 SA
BRANCH   2   4
ATOM      4  N   UNL d   1      -4.227   5.779  -5.200  0.00  0.00    -0.302 N 
ATOM      5  H   UNL d   1      -4.470   6.765  -5.155  0.00  0.00     0.182 HD
BRANCH   4   6
ATOM      6  N   UNL d   1      -5.266   4.864  -4.969  0.00  0.00    -0.204 NA
ATOM      7  H   UNL d   1      -5.019   3.939  -5.345  0.00  0.00     0.153 HD
BRANCH   6   8
ATOM      8  C   UNL d   1      -6.521   5.241  -5.522  0.00  0.00     0.027 A 
ATOM      9  C   UNL d   1      -6.679   6.190  -6.542  0.00  0.00     0.025 A 
ATOM     10  C   UNL d   1      -7.945   6.475  -7.066  0.00  0.00     0.002 A 
ATOM     11  C   UNL d   1      -9.068   5.801  -6.590  0.00  0.00     0.000 A 
ATOM     12  C   UNL d   1      -8.925   4.838  -5.596  0.00  0.00     0.002 A 
ATOM     13  C   UNL d   1      -7.660   4.555  -5.074  0.00  0.00     0.025 A 
ENDBRANCH   6   8
ENDBRANCH   4   6
ENDBRANCH   2   4
ENDBRANCH   1   2
BRANCH   1  14
ATOM     14  C   UNL d   1      -0.739   3.606  -4.981  0.00  0.00     0.165 C 
BRANCH  14  15
ATOM     15  C   UNL d   1      -0.327   3.497  -6.439  0.00  0.00     0.169 C 
ATOM     16  O   UNL d   1      -1.088   3.062  -7.310  0.00  0.00    -0.291 OA
BRANCH  15  17
ATOM     17  C   UNL d   1       1.064   3.860  -6.854  0.00  0.00     0.013 A 
ATOM     18  C   UNL d   1       1.375   3.769  -8.220  0.00  0.00     0.051 A 
ATOM     19  C   UNL d   1       2.664   4.075  -8.673  0.00  0.00     0.103 A 
ATOM     20  C   UNL d   1       3.655   4.475  -7.771  0.00  0.00     0.036 A 
ATOM     21  C   UNL d   1       3.348   4.573  -6.413  0.00  0.00     0.003 A 
ATOM     22  C   UNL d   1       2.059   4.266  -5.954  0.00  0.00     0.015 A 
BRANCH  19  23
ATOM     23  N   UNL d   1       2.974   3.970 -10.105  0.00  0.00    -0.116 N 
ATOM     24  O   UNL d   1       2.061   3.644 -10.873  0.00  0.00    -0.532 OA
ATOM     25  O   UNL d   1       4.138   4.216 -10.459  0.00  0.00    -0.532 OA
ENDBRANCH  19  23
ENDBRANCH  15  17
ENDBRANCH  14  15
ENDBRANCH   1  14
TORSDOF 8
