REMARK  1 active torsions:
REMARK  status: ('A' for Active; 'I' for Inactive)
REMARK    1  A    between atoms: C_12  and  C_6 
ROOT
ATOM      1  C   UNL d   1      -1.787   1.679   0.626  0.00  0.00     0.026 C 
ATOM      2  N   UNL d   1      -2.824   1.401   1.343  0.00  0.00    -0.357 N 
ATOM      3  HN  UNL d   1      -2.889   1.606   2.340  1.00  0.00     0.166 HD
ATOM      4  C   UNL d   1      -1.460   3.122   0.377  0.00  0.00     0.059 C 
ATOM      5  S   UNL d   1      -4.291   3.268  -0.667  0.00  0.00    -0.117 SA
ATOM      6  C   UNL d   1      -2.463   3.697  -0.672  0.00  0.00     0.095 C 
ATOM      7  C   UNL d   1      -0.965   0.843  -0.254  0.00  0.00    -0.007 A 
ATOM      8  C   UNL d   1      -0.037   3.056  -0.229  0.00  0.00     0.051 C 
ATOM      9  C   UNL d   1       0.027   1.668  -0.787  0.00  0.00    -0.045 A 
ATOM     10  C   UNL d   1      -3.850   0.791   0.614  0.00  0.00     0.049 C 
ATOM     11  C   UNL d   1      -4.428   1.478  -0.475  0.00  0.00     0.028 C 
ATOM     12  C   UNL d   1      -1.040  -0.501  -0.563  0.00  0.00     0.014 A 
ATOM     13  C   UNL d   1       0.956   1.164  -1.685  0.00  0.00     0.008 A 
ATOM     14  C   UNL d   1      -4.317  -0.472   0.976  0.00  0.00     0.031 C 
ATOM     15  C   UNL d   1      -5.337   0.800  -1.294  0.00  0.00     0.021 C 
ATOM     16  C   UNL d   1      -0.108  -1.015  -1.469  0.00  0.00     0.001 A 
ATOM     17  C   UNL d   1       0.878  -0.187  -2.033  0.00  0.00     0.001 A 
ATOM     18  C   UNL d   1      -5.732  -0.504  -0.979  0.00  0.00     0.002 C 
ATOM     19  C   UNL d   1      -5.262  -1.119   0.181  0.00  0.00     0.002 C 
ENDROOT
BRANCH   6  20
ATOM     20  C   UNL d   1      -2.366   5.226  -0.626  0.00  0.00    -0.043 A 
ATOM     21  C   UNL d   1      -2.676   5.928   0.553  0.00  0.00     0.009 A 
ATOM     22  C   UNL d   1      -2.520   7.312   0.625  0.00  0.00     0.007 A 
ATOM     23  C   UNL d   1      -2.061   8.029  -0.483  0.00  0.00    -0.062 A 
ATOM     24  C   UNL d   1      -1.796   7.343  -1.674  0.00  0.00     0.007 A 
ATOM     25  C   UNL d   1      -1.900   9.517  -0.392  0.00  0.00     0.048 C 
ATOM     26  C   UNL d   1      -1.946   5.955  -1.746  0.00  0.00     0.009 A 
ENDBRANCH   6  20
TORSDOF 1
