REMARK  1 active torsions:
REMARK  status: ('A' for Active; 'I' for Inactive)
REMARK       I    between atoms: C_2  and  N_1 
REMARK       I    between atoms: N_7  and  C_2 
REMARK    1  A    between atoms: C_14  and  N_7 
ROOT
ATOM      1  N   UNL d   1       2.139   0.751   0.195  0.00  0.00    -0.325 N 
ATOM      2  C   UNL d   1       2.946   1.122   1.262  0.00  0.00     0.319 C 
ATOM      3  C   UNL d   1      -0.253   0.613  -0.235  0.00  0.00    -0.022 A 
ATOM      4  C   UNL d   1       0.973   1.498  -0.342  0.00  0.00     0.119 C 
ATOM      5  C   UNL d   1      -0.173  -0.757  -0.051  0.00  0.00    -0.008 A 
ATOM      6  C   UNL d   1       2.291  -0.626  -0.316  0.00  0.00     0.133 C 
ATOM      7  N   UNL d   1       2.723   2.359   1.799  0.00  0.00    -0.339 N 
ATOM      8  S   UNL d   1      -1.694  -1.506   0.059  0.00  0.00    -0.106 SA
ATOM      9  C   UNL d   1       1.108  -1.515   0.105  0.00  0.00     0.067 C 
ATOM     10  C   UNL d   1      -1.618   1.042  -0.268  0.00  0.00     0.017 A 
ATOM     11  C   UNL d   1      -2.500  -0.006  -0.105  0.00  0.00     0.051 A 
ATOM     12  O   UNL d   1       3.804   0.373   1.719  0.00  0.00    -0.247 OA
ATOM     13  C   UNL d   1       1.231   1.948  -1.783  0.00  0.00     0.037 C 
ATOM     14  H   UNL d   1       2.227   3.035   1.246  0.00  0.00     0.164 HD
ENDROOT
BRANCH   7  15
ATOM     15  C   UNL d   1       3.469   2.912   2.931  0.00  0.00     0.078 C 
ATOM     16  C   UNL d   1       3.383   2.049   4.189  0.00  0.00     0.032 C 
ATOM     17  C   UNL d   1       4.922   3.227   2.582  0.00  0.00     0.032 C 
ENDBRANCH   7  15
TORSDOF 1
