REMARK  6 active torsions:
REMARK  status: ('A' for Active; 'I' for Inactive)
REMARK    1  A    between atoms: C_7  and  C_1 
REMARK    2  A    between atoms: C_8  and  C_2 
REMARK    3  A    between atoms: C_11  and  N_3 
REMARK    4  A    between atoms: N_9  and  C_7 
REMARK    5  A    between atoms: O_14  and  C_8 
REMARK    6  A    between atoms: C_13  and  N_9 
ROOT
ATOM      1  C   UNL d   1       0.993  -0.846   0.013  0.00  0.00     0.089 C 
ATOM      2  C   UNL d   1      -0.335  -1.262   0.019  0.00  0.00     0.086 C 
ATOM      3  N   UNL d   1       0.956   0.542   0.076  0.00  0.00    -0.255 N 
ATOM      4  N   UNL d   1      -0.307   1.003   0.265  0.00  0.00    -0.303 N 
ATOM      5  HN  UNL d   1      -0.600   1.959   0.469  1.00  0.00     0.186 HD
ATOM      6  C   UNL d   1      -1.077  -0.073   0.126  0.00  0.00     0.127 C 
ENDROOT
BRANCH   1   7
ATOM      7  C   UNL d   1       2.198  -1.631   0.014  0.00  0.00     0.121 C 
BRANCH   7   8
ATOM      8  N   UNL d   1       2.221  -2.803  -0.525  0.00  0.00    -0.364 N 
ATOM      9  HN  UNL d   1       1.391  -3.159  -1.000  1.00  0.00     0.165 HD
BRANCH   8  10
ATOM     10  C   UNL d   1       3.381  -3.591  -0.463  0.00  0.00     0.032 A 
ATOM     11  C   UNL d   1       4.305  -3.557   0.589  0.00  0.00     0.030 A 
ATOM     12  C   UNL d   1       5.405  -4.420   0.606  0.00  0.00     0.009 A 
ATOM     13  C   UNL d   1       5.587  -5.357  -0.416  0.00  0.00    -0.062 A 
ATOM     14  C   UNL d   1       4.660  -5.407  -1.460  0.00  0.00     0.009 A 
ATOM     15  C   UNL d   1       6.758  -6.292  -0.374  0.00  0.00     0.048 C 
ATOM     16  C   UNL d   1       3.570  -4.532  -1.478  0.00  0.00     0.030 A 
ENDBRANCH   8  10
ENDBRANCH   7   8
ENDBRANCH   1   7
BRANCH   2  17
ATOM     17  C   UNL d   1      -0.890  -2.603  -0.021  0.00  0.00     0.296 C 
ATOM     18  O   UNL d   1      -1.975  -2.850  -0.535  0.00  0.00    -0.259 OA
BRANCH  17  19
ATOM     19  O   UNL d   1      -0.128  -3.516   0.641  0.00  0.00    -0.322 OA
ATOM     20  C   UNL d   1      -0.560  -4.868   0.493  0.00  0.00     0.213 C 
ENDBRANCH  17  19
ENDBRANCH   2  17
BRANCH   3  21
ATOM     21  C   UNL d   1       2.030   1.471  -0.029  0.00  0.00     0.057 A 
ATOM     22  C   UNL d   1       3.174   1.183  -0.787  0.00  0.00     0.031 A 
ATOM     23  C   UNL d   1       4.230   2.095  -0.833  0.00  0.00     0.002 A 
ATOM     24  C   UNL d   1       4.149   3.296  -0.131  0.00  0.00     0.000 A 
ATOM     25  C   UNL d   1       2.999   3.604   0.595  0.00  0.00     0.002 A 
ATOM     26  C   UNL d   1       1.933   2.704   0.632  0.00  0.00     0.031 A 
ENDBRANCH   3  21
TORSDOF 6
