REMARK  8 active torsions:
REMARK  status: ('A' for Active; 'I' for Inactive)
REMARK    1  A    between atoms: C_4  and  S_1 
REMARK    2  A    between atoms: C_11  and  S_1 
REMARK    3  A    between atoms: S_2  and  C_3 
REMARK    4  A    between atoms: C_12  and  S_2 
REMARK    5  A    between atoms: C_3  and  C_13 
REMARK    6  A    between atoms: C_14  and  C_4 
REMARK    7  A    between atoms: N_5  and  C_14 
REMARK    8  A    between atoms: C_13  and  N_6 
ROOT
ATOM      1  N   UNL d   1       0.551  -0.662  -3.840  0.00  0.00     0.092 N 
ATOM      2  N   UNL d   1      -1.395  -2.860  -3.049  0.00  0.00     0.092 N 
ATOM      3  C   UNL d   1       0.073  -2.988  -2.942  0.00  0.00     0.302 C 
ATOM      4  C   UNL d   1      -0.918  -0.513  -3.978  0.00  0.00     0.302 C 
ATOM      5  C   UNL d   1       0.869  -2.100  -3.927  0.00  0.00     0.302 C 
ATOM      6  C   UNL d   1      -1.759  -1.421  -3.039  0.00  0.00     0.302 C 
ENDROOT
BRANCH   1   7
ATOM      7  C   UNL d   1       1.037  -0.009  -2.602  0.00  0.00     0.287 C 
BRANCH   7   8
ATOM      8  C   UNL d   1       2.547  -0.137  -2.419  0.00  0.00     0.176 C 
BRANCH   8   9
ATOM      9  S   UNL d   1       3.105   0.712  -0.961  0.00  0.00     0.177 S 
ATOM     10  O   UNL d   1       2.421   0.155   0.189  0.00  0.00    -0.223 OA
ATOM     11  O   UNL d   1       3.100   2.138  -1.216  0.00  0.00    -0.223 OA
BRANCH   9  12
ATOM     12  C   UNL d   1       4.807   0.186  -0.866  0.00  0.00     0.059 A 
ATOM     13  C   UNL d   1       5.796   0.924  -1.520  0.00  0.00     0.023 A 
ATOM     14  C   UNL d   1       7.121   0.491  -1.463  0.00  0.00     0.002 A 
ATOM     15  C   UNL d   1       7.451  -0.665  -0.754  0.00  0.00     0.000 A 
ATOM     16  C   UNL d   1       6.458  -1.393  -0.094  0.00  0.00     0.002 A 
ATOM     17  C   UNL d   1       5.131  -0.967  -0.145  0.00  0.00     0.023 A 
ENDBRANCH   9  12
ENDBRANCH   8   9
ENDBRANCH   7   8
ENDBRANCH   1   7
BRANCH   2  18
ATOM     18  C   UNL d   1      -1.954  -3.536  -4.237  0.00  0.00     0.287 C 
BRANCH  18  19
ATOM     19  C   UNL d   1      -1.793  -5.050  -4.165  0.00  0.00     0.176 C 
BRANCH  19  20
ATOM     20  S   UNL d   1      -2.467  -5.820  -5.616  0.00  0.00     0.177 S 
ATOM     21  O   UNL d   1      -3.897  -5.580  -5.652  0.00  0.00    -0.223 OA
ATOM     22  O   UNL d   1      -1.625  -5.477  -6.746  0.00  0.00    -0.223 OA
BRANCH  20  23
ATOM     23  C   UNL d   1      -2.225  -7.545  -5.269  0.00  0.00     0.059 A 
ATOM     24  C   UNL d   1      -3.206  -8.243  -4.559  0.00  0.00     0.023 A 
ATOM     25  C   UNL d   1      -3.023  -9.599  -4.295  0.00  0.00     0.002 A 
ATOM     26  C   UNL d   1      -1.870 -10.248  -4.743  0.00  0.00     0.000 A 
ATOM     27  C   UNL d   1      -0.893  -9.544  -5.450  0.00  0.00     0.002 A 
ATOM     28  C   UNL d   1      -1.068  -8.187  -5.719  0.00  0.00     0.023 A 
ENDBRANCH  20  23
ENDBRANCH  19  20
ENDBRANCH  18  19
ENDBRANCH   2  18
TORSDOF 8
