REMARK  3 active torsions:
REMARK  status: ('A' for Active; 'I' for Inactive)
REMARK    1  A    between atoms: N_9  and  N_1 
REMARK    2  A    between atoms: C_2  and  C_13 
REMARK    3  A    between atoms: O_18  and  C_12 
ROOT
ATOM      1  C   UNL d   1      -2.422   4.177   0.038  0.00  0.00     0.017 A 
ATOM      2  C   UNL d   1      -3.873   5.926   0.865  0.00  0.00     0.046 A 
ATOM      3  C   UNL d   1      -3.473   4.586   0.865  0.00  0.00     0.094 A 
ATOM      4  C   UNL d   1      -3.237   6.853   0.039  0.00  0.00     0.041 A 
ATOM      5  C   UNL d   1      -1.781   5.103  -0.794  0.00  0.00     0.034 A 
ATOM      6  C   UNL d   1      -2.197   6.433  -0.790  0.00  0.00     0.013 A 
ATOM      7 BR   UNL d   1      -5.274   6.516   1.997  0.00  0.00    -0.048 Br
ATOM      8 BR   UNL d   1      -1.335   7.685  -1.914  0.00  0.00    -0.051 Br
ENDROOT
BRANCH   1   9
ATOM      9  C   UNL d   1      -1.971   2.769   0.065  0.00  0.00     0.122 C 
ATOM     10  N   UNL d   1      -1.002   2.361  -0.688  0.00  0.00    -0.303 N 
ATOM     11  HN  UNL d   1      -0.529   2.994  -1.334  1.00  0.00     0.186 HD
BRANCH  10  12
ATOM     12  N   UNL d   1      -0.638   1.049  -0.584  0.00  0.00    -0.245 N 
ATOM     13  C   UNL d   1      -1.094   0.018   0.200  0.00  0.00     0.224 A 
ATOM     14  N   UNL d   1      -0.419  -1.083  -0.050  0.00  0.00    -0.293 N 
ATOM     15  N   UNL d   1       0.510  -0.789  -1.016  0.00  0.00    -0.293 N 
ATOM     16  HN  UNL d   1      -0.561  -1.991   0.394  1.00  0.00     0.187 HD
ATOM     17  C   UNL d   1       0.369   0.481  -1.322  0.00  0.00     0.224 A 
ATOM     18  HN  UNL d   1       1.186  -1.436  -1.421  1.00  0.00     0.187 HD
ENDBRANCH  10  12
ENDBRANCH   1   9
BRANCH   3  19
ATOM     19  O   UNL d   1      -4.091   3.664   1.669  0.00  0.00    -0.358 OA
ATOM     20  H   UNL d   1      -4.772   4.128   2.193  0.00  0.00     0.217 HD
ENDBRANCH   3  19
TORSDOF 3
