REMARK  4 active torsions:
REMARK  status: ('A' for Active; 'I' for Inactive)
REMARK    1  A    between atoms: C_7  and  C_1 
REMARK    2  A    between atoms: C_6  and  N_3 
REMARK    3  A    between atoms: C_10  and  C_6 
REMARK    4  A    between atoms: C_13  and  C_10 
ROOT
ATOM      1  C   UNL d   1       0.766  -0.805  -0.975  0.00  0.00     0.075 A 
ATOM      2  C   UNL d   1       0.226   0.406   1.157  0.00  0.00     0.146 A 
ATOM      3  N   UNL d   1      -0.090   1.102  -0.018  0.00  0.00    -0.335 N 
ATOM      4  S   UNL d   1       0.887  -1.170   0.711  0.00  0.00    -0.055 SA
ATOM      5  C   UNL d   1       0.233   0.411  -1.199  0.00  0.00     0.030 A 
ATOM      6  S   UNL d   1       0.065   0.892   2.743  0.00  0.00    -0.052 SA
ATOM      7  C   UNL d   1       0.013   0.999  -2.562  0.00  0.00     0.070 C 
ENDROOT
BRANCH   3   8
ATOM      8  C   UNL d   1      -0.626   2.476  -0.010  0.00  0.00     0.135 C 
BRANCH   8   9
ATOM      9  C   UNL d   1       0.496   3.525  -0.045  0.00  0.00     0.058 C 
BRANCH   9  10
ATOM     10  C   UNL d   1       0.106   4.988  -0.016  0.00  0.00    -0.057 A 
ATOM     11  C   UNL d   1      -1.215   5.454  -0.009  0.00  0.00     0.009 A 
ATOM     12  C   UNL d   1      -1.486   6.828   0.016  0.00  0.00     0.024 A 
ATOM     13  C   UNL d   1      -0.439   7.747   0.035  0.00  0.00     0.034 A 
ATOM     14  C   UNL d   1       0.878   7.306   0.029  0.00  0.00     0.024 A 
ATOM     15 CL   UNL d   1      -0.777   9.434   0.067  0.00  0.00    -0.084 Cl
ATOM     16  C   UNL d   1       1.147   5.935   0.002  0.00  0.00     0.009 A 
ENDBRANCH   9  10
ENDBRANCH   8   9
ENDBRANCH   3   8
BRANCH   1  17
ATOM     17  C   UNL d   1       1.210  -1.778  -2.019  0.00  0.00     0.164 C 
ATOM     18  O   UNL d   1       0.827  -1.660  -3.186  0.00  0.00    -0.292 OA
ATOM     19  C   UNL d   1       2.142  -2.915  -1.665  0.00  0.00     0.097 C 
ENDBRANCH   1  17
TORSDOF 4
