REMARK  4 active torsions:
REMARK  status: ('A' for Active; 'I' for Inactive)
REMARK    1  A    between atoms: S_13  and  C_1 
REMARK    2  A    between atoms: N_8  and  C_3 
REMARK    3  A    between atoms: C_10  and  S_13 
REMARK    4  A    between atoms: N_19  and  C_16 
ROOT
ATOM      1  C   UNL d   1       0.137   1.151  -0.131  0.00  0.00     0.135 A 
ATOM      2  S   UNL d   1      -0.037   0.157   1.247  0.00  0.00    -0.026 SA
ATOM      3  C   UNL d   1      -0.078  -1.208   0.178  0.00  0.00     0.166 A 
ATOM      4  N   UNL d   1       0.153   0.504  -1.274  0.00  0.00    -0.286 N 
ATOM      5  HN  UNL d   1       0.242   0.955  -2.185  1.00  0.00     0.188 HD
ATOM      6  N   UNL d   1       0.035  -0.859  -1.093  0.00  0.00    -0.278 N 
ATOM      7  HN  UNL d   1       0.034  -1.529  -1.861  1.00  0.00     0.189 HD
ENDROOT
BRANCH   1   8
ATOM      8  S   UNL d   1       0.197   2.899  -0.069  0.00  0.00    -0.063 SA
BRANCH   8   9
ATOM      9  C   UNL d   1       1.981   3.146  -0.015  0.00  0.00     0.021 A 
ATOM     10  C   UNL d   1       2.600   3.897   1.021  0.00  0.00     0.008 A 
ATOM     11  C   UNL d   1       3.995   4.086   0.923  0.00  0.00     0.044 A 
ATOM     12  C   UNL d   1       1.922   4.475   2.128  0.00  0.00     0.015 A 
ATOM     13  C   UNL d   1       4.651   4.824   1.900  0.00  0.00     0.030 A 
ATOM     14  N   UNL d   1       4.733   3.595  -0.082  0.00  0.00    -0.359 N 
ATOM     15  C   UNL d   1       3.973   5.391   2.981  0.00  0.00     0.002 A 
ATOM     16  C   UNL d   1       2.603   5.214   3.094  0.00  0.00     0.001 A 
ATOM     17  C   UNL d   1       4.121   2.898  -1.065  0.00  0.00     0.007 A 
ATOM     18  HN  UNL d   1       5.741   3.745  -0.105  1.00  0.00     0.166 HD
ATOM     19  C   UNL d   1       2.757   2.659  -1.071  0.00  0.00     0.044 A 
ATOM     20  C   UNL d   1       4.988   2.394  -2.181  0.00  0.00     0.068 C 
ENDBRANCH   8   9
ENDBRANCH   1   8
BRANCH   3  21
ATOM     21  N   UNL d   1      -0.210  -2.446   0.725  0.00  0.00    -0.332 N 
ATOM     22  C   UNL d   1      -0.209  -3.429  -0.113  0.00  0.00     0.179 C 
ATOM     23  HN  UNL d   1      -0.304  -2.589   1.731  1.00  0.00     0.168 HD
BRANCH  22  24
ATOM     24  N   UNL d   1      -0.319  -4.768   0.200  0.00  0.00    -0.386 N 
ATOM     25  C   UNL d   1      -0.429  -5.233   1.573  0.00  0.00     0.149 C 
ATOM     26  C   UNL d   1      -0.274  -5.804  -0.818  0.00  0.00     0.149 C 
ENDBRANCH  22  24
ENDBRANCH   3  21
TORSDOF 4
