REMARK  8 active torsions:
REMARK  status: ('A' for Active; 'I' for Inactive)
REMARK    1  A    between atoms: C_8  and  N_1 
REMARK    2  A    between atoms: C_9  and  C_2 
REMARK    3  A    between atoms: S_10  and  C_5 
REMARK    4  A    between atoms: C_11  and  C_8 
REMARK    5  A    between atoms: C_22  and  S_10 
REMARK    6  A    between atoms: O_20  and  C_11 
REMARK    7  A    between atoms: O_21  and  C_11 
REMARK    8  A    between atoms: C_14  and  C_22 
ROOT
ATOM      1  N   UNL d   1      -0.161  -1.154  -0.389  0.00  0.00    -0.306 N 
ATOM      2  C   UNL d   1       1.022  -0.437  -0.525  0.00  0.00     0.134 A 
ATOM      3  N   UNL d   1       0.703   0.838  -0.689  0.00  0.00    -0.283 N 
ATOM      4  HN  UNL d   1       1.365   1.594  -0.865  1.00  0.00     0.188 HD
ATOM      5  C   UNL d   1      -1.157  -0.205  -0.376  0.00  0.00     0.163 A 
ATOM      6  N   UNL d   1      -0.648   0.982  -0.585  0.00  0.00    -0.278 N 
ATOM      7  HN  UNL d   1      -1.168   1.857  -0.657  1.00  0.00     0.189 HD
ENDROOT
BRANCH   2   8
ATOM      8  C   UNL d   1       2.421  -0.894  -0.486  0.00  0.00     0.010 A 
ATOM      9  C   UNL d   1       3.364  -0.179  -1.249  0.00  0.00     0.017 A 
ATOM     10  C   UNL d   1       4.730  -0.471  -1.185  0.00  0.00     0.025 A 
ATOM     11  C   UNL d   1       5.173  -1.497  -0.359  0.00  0.00     0.034 A 
ATOM     12  C   UNL d   1       4.262  -2.228   0.399  0.00  0.00     0.025 A 
ATOM     13 CL   UNL d   1       6.854  -1.839  -0.241  0.00  0.00    -0.084 Cl
ATOM     14  C   UNL d   1       2.896  -1.914   0.351  0.00  0.00     0.017 A 
ENDBRANCH   2   8
BRANCH   1  15
ATOM     15  C   UNL d   1      -0.311  -2.577  -0.173  0.00  0.00     0.193 C 
BRANCH  15  16
ATOM     16  C   UNL d   1      -1.239  -3.357  -1.129  0.00  0.00     0.276 C 
BRANCH  16  17
ATOM     17  O   UNL d   1      -0.679  -3.266  -2.444  0.00  0.00    -0.364 OA
ATOM     18  C   UNL d   1      -1.506  -3.885  -3.423  0.00  0.00     0.204 C 
ENDBRANCH  16  17
BRANCH  16  19
ATOM     19  O   UNL d   1      -1.294  -4.739  -0.743  0.00  0.00    -0.364 OA
ATOM     20  C   UNL d   1      -1.919  -4.971   0.512  0.00  0.00     0.204 C 
ENDBRANCH  16  19
ENDBRANCH  15  16
ENDBRANCH   1  15
BRANCH   5  21
ATOM     21  S   UNL d   1      -2.828  -0.511  -0.063  0.00  0.00    -0.089 SA
BRANCH  21  22
ATOM     22  C   UNL d   1      -3.560   1.002  -0.762  0.00  0.00     0.108 C 
BRANCH  22  23
ATOM     23  C   UNL d   1      -5.055   0.925  -0.645  0.00  0.00    -0.026 C 
ATOM     24  C   UNL d   1      -5.902   0.926  -1.680  0.00  0.00     0.007 C 
ENDBRANCH  22  23
ENDBRANCH  21  22
ENDBRANCH   5  21
TORSDOF 8
