REMARK  4 active torsions:
REMARK  status: ('A' for Active; 'I' for Inactive)
REMARK    1  A    between atoms: C_7  and  C_2 
REMARK    2  A    between atoms: N_6  and  C_3 
REMARK    3  A    between atoms: N_10  and  C_5 
REMARK    4  A    between atoms: O_12  and  C_7 
ROOT
ATOM      1  C   UNL d   1      -0.564   0.342   0.034  0.00  0.00     0.106 A 
ATOM      2  C   UNL d   1       1.292  -1.079  -0.020  0.00  0.00     0.110 A 
ATOM      3  C   UNL d   1       0.453   1.285   0.038  0.00  0.00     0.096 A 
ATOM      4  S   UNL d   1       1.981   0.495  -0.041  0.00  0.00    -0.063 SA
ATOM      5  C   UNL d   1      -0.087  -1.006   0.015  0.00  0.00     0.073 A 
ATOM      6  C   UNL d   1      -1.952   0.699   0.032  0.00  0.00     0.104 C 
ATOM      7  N   UNL d   1      -3.086   0.951   0.049  0.00  0.00    -0.191 NA
ENDROOT
BRANCH   3   8
ATOM      8  N   UNL d   1       0.299   2.652   0.084  0.00  0.00    -0.374 N 
ATOM      9  C   UNL d   1       1.274   3.536  -0.568  0.00  0.00     0.123 C 
ATOM     10  C   UNL d   1       0.575   4.840  -0.964  0.00  0.00     0.020 C 
ATOM     11  C   UNL d   1      -0.113   5.501   0.230  0.00  0.00     0.003 C 
ATOM     12  C   UNL d   1      -1.026   4.516   0.957  0.00  0.00     0.020 C 
ATOM     13  C   UNL d   1      -0.287   3.228   1.307  0.00  0.00     0.123 C 
ENDBRANCH   3   8
BRANCH   5  14
ATOM     14  N   UNL d   1      -0.906  -2.084   0.026  0.00  0.00    -0.397 N 
ATOM     15  H   UNL d   1      -0.540  -3.036   0.010  0.00  0.00     0.156 HD
ATOM     16  H   UNL d   1      -1.922  -2.031   0.049  0.00  0.00     0.156 HD
ENDBRANCH   5  14
BRANCH   2  17
ATOM     17  C   UNL d   1       2.188  -2.227  -0.046  0.00  0.00     0.302 C 
ATOM     18  O   UNL d   1       3.413  -2.195  -0.076  0.00  0.00    -0.259 OA
BRANCH  17  19
ATOM     19  O   UNL d   1       1.466  -3.391  -0.028  0.00  0.00    -0.322 OA
ATOM     20  C   UNL d   1       2.249  -4.586  -0.043  0.00  0.00     0.213 C 
ENDBRANCH  17  19
ENDBRANCH   2  17
TORSDOF 4
