REMARK  7 active torsions:
REMARK  status: ('A' for Active; 'I' for Inactive)
REMARK    1  A    between atoms: N_9  and  C_1 
REMARK    2  A    between atoms: N_6  and  C_2 
REMARK    3  A    between atoms: C_13  and  C_3 
REMARK    4  A    between atoms: C_8  and  N_6 
REMARK    5  A    between atoms: N_11  and  C_8 
REMARK       I    between atoms: C_12  and  N_11 
REMARK    6  A    between atoms: C_20  and  C_12 
REMARK    7  A    between atoms: C_21  and  N_14 
ROOT
ATOM      1  C   UNL d   1       1.097   0.527  -0.169  0.00  0.00     0.118 A 
ATOM      2  C   UNL d   1       1.099  -0.855  -0.128  0.00  0.00     0.152 A 
ATOM      3  C   UNL d   1      -0.252   0.887  -0.419  0.00  0.00     0.062 A 
ATOM      4  N   UNL d   1      -1.027  -0.194  -0.583  0.00  0.00    -0.300 N 
ATOM      5  HN  UNL d   1      -2.031  -0.227  -0.758  1.00  0.00     0.186 HD
ATOM      6  N   UNL d   1      -0.178  -1.220  -0.462  0.00  0.00    -0.283 N 
ATOM      7  H   UNL d   1      -0.546  -2.158  -0.567  0.00  0.00     0.188 HD
ENDROOT
BRANCH   2   8
ATOM      8  N   UNL d   1       2.155  -1.686   0.238  0.00  0.00    -0.316 N 
ATOM      9  H   UNL d   1       2.927  -1.250   0.759  0.00  0.00     0.170 HD
BRANCH   8  10
ATOM     10  C   UNL d   1       2.201  -3.095   0.015  0.00  0.00     0.180 C 
ATOM     11  S   UNL d   1       1.294  -3.988  -1.066  0.00  0.00    -0.040 SA
BRANCH  10  12
ATOM     12  N   UNL d   1       3.098  -3.761   0.810  0.00  0.00    -0.299 N 
ATOM     13  C   UNL d   1       3.763  -3.255   1.911  0.00  0.00     0.257 C 
ATOM     14  O   UNL d   1       3.958  -2.051   2.038  0.00  0.00    -0.267 OA
ATOM     15  H   UNL d   1       3.075  -4.758   0.660  0.00  0.00     0.171 HD
BRANCH  13  16
ATOM     16  C   UNL d   1       4.270  -4.243   2.921  0.00  0.00     0.032 A 
ATOM     17  C   UNL d   1       3.988  -5.619   2.870  0.00  0.00     0.017 A 
ATOM     18  C   UNL d   1       4.466  -6.479   3.866  0.00  0.00     0.001 A 
ATOM     19  C   UNL d   1       5.219  -5.977   4.924  0.00  0.00     0.000 A 
ATOM     20  C   UNL d   1       5.495  -4.613   4.991  0.00  0.00     0.001 A 
ATOM     21  C   UNL d   1       5.025  -3.751   3.997  0.00  0.00     0.017 A 
ENDBRANCH  13  16
ENDBRANCH  10  12
ENDBRANCH   8  10
ENDBRANCH   2   8
BRANCH   1  22
ATOM     22  N   UNL d   1       2.197   1.379   0.032  0.00  0.00    -0.295 N 
ATOM     23  N   UNL d   1       3.200   0.984  -0.603  0.00  0.00    -0.300 N 
ATOM     24  HN  UNL d   1       3.180   0.179  -1.228  1.00  0.00     0.187 HD
ATOM     25  HN  UNL d   1       2.179   2.213   0.620  1.00  0.00     0.187 HD
BRANCH  23  26
ATOM     26  C   UNL d   1       4.361   1.752  -0.377  0.00  0.00     0.048 A 
ATOM     27  C   UNL d   1       4.366   3.150  -0.252  0.00  0.00     0.034 A 
ATOM     28  C   UNL d   1       5.569   3.846  -0.075  0.00  0.00     0.044 A 
ATOM     29  C   UNL d   1       6.770   3.146  -0.034  0.00  0.00     0.116 A 
ATOM     30  C   UNL d   1       6.793   1.766  -0.170  0.00  0.00     0.044 A 
ATOM     31  F   UNL d   1       7.920   3.813   0.131  0.00  0.00    -0.206 F 
ATOM     32  C   UNL d   1       5.591   1.074  -0.344  0.00  0.00     0.034 A 
ENDBRANCH  23  26
ENDBRANCH   1  22
BRANCH   3  33
ATOM     33  C   UNL d   1      -0.917   2.252  -0.519  0.00  0.00     0.040 A 
ATOM     34  C   UNL d   1      -0.239   3.390  -1.241  0.00  0.00     0.011 A 
ATOM     35  C   UNL d   1      -0.390   3.443   0.243  0.00  0.00     0.011 A 
ENDBRANCH   3  33
TORSDOF 7
