REMARK  3 active torsions:
REMARK  status: ('A' for Active; 'I' for Inactive)
REMARK    1  A    between atoms: C_7  and  C_1 
REMARK    2  A    between atoms: C_8  and  C_6 
REMARK    3  A    between atoms: C_13  and  C_10 
ROOT
ATOM      1  C   UNL d   1       0.152  -1.199   0.001  0.00  0.00     0.136 A 
ATOM      2  N   UNL d   1      -0.641  -0.085   0.060  0.00  0.00    -0.292 N 
ATOM      3  C   UNL d   1       1.447  -0.719  -0.082  0.00  0.00     0.068 A 
ATOM      4  N   UNL d   1       0.068   1.064   0.088  0.00  0.00    -0.297 N 
ATOM      5  HN  UNL d   1      -0.292   2.014   0.181  1.00  0.00     0.187 HD
ATOM      6  C   UNL d   1       1.343   0.685  -0.033  0.00  0.00     0.067 A 
ATOM      7  C   UNL d   1      -2.080   0.052   0.039  0.00  0.00     0.178 C 
ENDROOT
BRANCH   6   8
ATOM      8  C   UNL d   1       2.463   1.675  -0.128  0.00  0.00     0.034 A 
ATOM      9  S   UNL d   1       4.087   1.271  -0.446  0.00  0.00    -0.085 SA
ATOM     10  C   UNL d   1       4.583   2.917  -0.474  0.00  0.00     0.051 A 
ATOM     11  C   UNL d   1       3.519   3.751  -0.178  0.00  0.00     0.024 A 
ATOM     12  C   UNL d   1       2.298   3.036   0.015  0.00  0.00     0.023 A 
BRANCH  10  13
ATOM     13  C   UNL d   1       5.977   3.222  -0.786  0.00  0.00     0.162 C 
ATOM     14  O   UNL d   1       6.833   2.358  -0.995  0.00  0.00    -0.292 OA
ATOM     15  C   UNL d   1       6.395   4.671  -0.889  0.00  0.00     0.097 C 
ENDBRANCH  10  13
ENDBRANCH   6   8
BRANCH   1  16
ATOM     16  C   UNL d   1      -0.310  -2.601   0.001  0.00  0.00     0.434 C 
ATOM     17  F   UNL d   1      -1.639  -2.755   0.210  0.00  0.00    -0.165 F 
ATOM     18  F   UNL d   1      -0.030  -3.209  -1.179  0.00  0.00    -0.165 F 
ATOM     19  F   UNL d   1       0.314  -3.321   0.968  0.00  0.00    -0.165 F 
ENDBRANCH   1  16
TORSDOF 3
