REMARK  2 active torsions:
REMARK  status: ('A' for Active; 'I' for Inactive)
REMARK    1  A    between atoms: C_7  and  C_4 
REMARK    2  A    between atoms: C_8  and  C_6 
ROOT
ATOM      1  C   UNL d   1      -0.599  -1.041  -0.169  0.00  0.00     0.004 C 
ATOM      2  C   UNL d   1      -0.154   0.925   1.227  0.00  0.00     0.052 C 
ATOM      3  C   UNL d   1      -1.145   0.256   0.326  0.00  0.00     0.195 C 
ATOM      4  C   UNL d   1      -0.243   2.126   1.814  0.00  0.00     0.041 C 
ATOM      5  S   UNL d   1       1.246  -0.079   1.477  0.00  0.00    -0.121 SA
ATOM      6  C   UNL d   1      -1.428  -1.957  -0.695  0.00  0.00     0.030 C 
ATOM      7  C   UNL d   1       0.868  -1.168   0.078  0.00  0.00     0.122 C 
ATOM      8  O   UNL d   1      -2.261   0.663   0.053  0.00  0.00    -0.286 OA
ENDROOT
BRANCH   6   9
ATOM      9  C   UNL d   1      -0.948  -3.243  -1.056  0.00  0.00     0.005 A 
ATOM     10  S   UNL d   1      -0.312  -3.539  -2.624  0.00  0.00    -0.102 SA
ATOM     11  C   UNL d   1       0.093  -5.154  -2.231  0.00  0.00     0.050 A 
ATOM     12  C   UNL d   1      -0.274  -5.480  -0.945  0.00  0.00     0.008 A 
ATOM     13  C   UNL d   1      -0.889  -4.384  -0.275  0.00  0.00     0.019 A 
ENDBRANCH   6   9
BRANCH   4  14
ATOM     14  C   UNL d   1      -1.317   3.029   1.618  0.00  0.00     0.006 A 
ATOM     15  S   UNL d   1      -1.232   4.194   0.356  0.00  0.00    -0.102 SA
ATOM     16  C   UNL d   1      -2.734   4.881   0.794  0.00  0.00     0.050 A 
ATOM     17  C   UNL d   1      -3.289   4.255   1.887  0.00  0.00     0.008 A 
ATOM     18  C   UNL d   1      -2.470   3.190   2.364  0.00  0.00     0.019 A 
ENDBRANCH   4  14
TORSDOF 2
