REMARK  4 active torsions:
REMARK  status: ('A' for Active; 'I' for Inactive)
REMARK    1  A    between atoms: N_7  and  C_1 
REMARK    2  A    between atoms: C_8  and  C_6 
REMARK    3  A    between atoms: C_15  and  N_7 
REMARK    4  A    between atoms: C_9  and  C_12 
ROOT
ATOM      1  C   UNL d   1       2.314   0.797  -0.027  0.00  0.00     0.133 A 
ATOM      2  N   UNL d   1       1.118   1.433  -0.004  0.00  0.00    -0.339 N 
ATOM      3  HN  UNL d   1       1.067   2.452  -0.001  1.00  0.00     0.167 HD
ATOM      4  N   UNL d   1       1.239  -1.370  -0.008  0.00  0.00    -0.351 N 
ATOM      5  HN  UNL d   1       1.283  -2.389  -0.011  1.00  0.00     0.166 HD
ATOM      6  C   UNL d   1       2.369  -0.612  -0.024  0.00  0.00     0.077 A 
ATOM      7  C   UNL d   1       0.002   0.688   0.013  0.00  0.00     0.060 A 
ATOM      8  C   UNL d   1       0.061  -0.722   0.011  0.00  0.00     0.059 A 
ATOM      9  C   UNL d   1      -1.127  -1.444   0.028  0.00  0.00     0.032 A 
ATOM     10  C   UNL d   1      -1.236   1.317   0.025  0.00  0.00     0.032 A 
ATOM     11  C   UNL d   1      -2.422   0.584   0.037  0.00  0.00     0.002 A 
ATOM     12  C   UNL d   1      -2.367  -0.804   0.040  0.00  0.00     0.002 A 
ENDROOT
BRANCH   1  13
ATOM     13  N   UNL d   1       3.495   1.579  -0.100  0.00  0.00    -0.341 N 
ATOM     14  H   UNL d   1       3.954   1.389  -0.985  0.00  0.00     0.167 HD
BRANCH  13  15
ATOM     15  C   UNL d   1       3.602   2.940   0.272  0.00  0.00     0.034 A 
ATOM     16  C   UNL d   1       2.935   3.444   1.399  0.00  0.00     0.036 A 
ATOM     17  C   UNL d   1       3.082   4.778   1.804  0.00  0.00    -0.060 A 
ATOM     18  C   UNL d   1       2.349   5.298   3.005  0.00  0.00     0.048 C 
ATOM     19  C   UNL d   1       3.918   5.621   1.068  0.00  0.00     0.007 A 
ATOM     20  C   UNL d   1       4.609   5.131  -0.040  0.00  0.00     0.003 A 
ATOM     21  C   UNL d   1       4.463   3.796  -0.426  0.00  0.00     0.029 A 
ENDBRANCH  13  15
ENDBRANCH   1  13
BRANCH   6  22
ATOM     22  C   UNL d   1       3.645  -1.363   0.013  0.00  0.00     0.035 C 
ATOM     23  C   UNL d   1       3.709  -2.705  -0.006  0.00  0.00     0.021 C 
BRANCH  23  24
ATOM     24  C   UNL d   1       4.936  -3.431   0.065  0.00  0.00     0.004 A 
ATOM     25  S   UNL d   1       4.880  -5.159  -0.019  0.00  0.00    -0.102 SA
ATOM     26  C   UNL d   1       6.572  -5.308   0.136  0.00  0.00     0.050 A 
ATOM     27  C   UNL d   1       7.188  -4.084   0.247  0.00  0.00     0.008 A 
ATOM     28  C   UNL d   1       6.249  -3.010   0.206  0.00  0.00     0.019 A 
ENDBRANCH  23  24
ENDBRANCH   6  22
TORSDOF 4
