REMARK  6 active torsions:
REMARK  status: ('A' for Active; 'I' for Inactive)
REMARK    1  A    between atoms: C_3  and  C_1 
REMARK    2  A    between atoms: C_12  and  C_2 
REMARK       I    between atoms: C_9  and  N_6 
REMARK    3  A    between atoms: C_17  and  C_8 
REMARK       I    between atoms: N_13  and  C_9 
REMARK    4  A    between atoms: O_20  and  C_12 
REMARK    5  A    between atoms: C_19  and  N_13 
REMARK    6  A    between atoms: C_23  and  O_20 
ROOT
ATOM      1  C   UNL d   1       0.083   1.253  -0.028  0.00  0.00     0.069 A 
ATOM      2  C   UNL d   1       1.383   0.767  -0.016  0.00  0.00     0.129 A 
ATOM      3  N   UNL d   1       1.469  -0.638   0.032  0.00  0.00    -0.344 N 
ATOM      4  HN  UNL d   1       2.345  -1.160   0.033  1.00  0.00     0.167 HD
ATOM      5  S   UNL d   1      -1.013  -0.068   0.143  0.00  0.00    -0.067 SA
ATOM      6  C   UNL d   1       0.275  -1.192   0.076  0.00  0.00     0.085 A 
ENDROOT
BRANCH   1   7
ATOM      7  C   UNL d   1      -0.432   2.601  -0.022  0.00  0.00     0.082 C 
ATOM      8  N   UNL d   1      -1.608   2.999  -0.651  0.00  0.00    -0.204 N 
ATOM      9  C   UNL d   1      -2.340   2.331  -1.663  0.00  0.00     0.346 C 
ATOM     10  N   UNL d   1      -2.084   4.173  -0.119  0.00  0.00    -0.301 N 
ATOM     11  N   UNL d   1      -3.690   2.536  -1.471  0.00  0.00    -0.307 N 
ATOM     12  O   UNL d   1      -1.750   1.622  -2.464  0.00  0.00    -0.245 OA
ATOM     13  H   UNL d   1      -3.935   3.122  -0.675  0.00  0.00     0.170 HD
ATOM     14  C   UNL d   1      -1.040   4.644   0.569  0.00  0.00     0.110 C 
ATOM     15  HN  UNL d   1      -3.011   4.585  -0.225  1.00  0.00     0.186 HD
ATOM     16  C   UNL d   1       0.009   3.713   0.666  0.00  0.00     0.052 C 
BRANCH  11  17
ATOM     17  C   UNL d   1      -4.726   1.864  -2.144  0.00  0.00     0.036 A 
ATOM     18  C   UNL d   1      -4.532   1.151  -3.330  0.00  0.00     0.029 A 
ATOM     19  C   UNL d   1      -5.606   0.513  -3.957  0.00  0.00     0.002 A 
ATOM     20  C   UNL d   1      -6.878   0.566  -3.392  0.00  0.00     0.000 A 
ATOM     21  C   UNL d   1      -7.077   1.260  -2.200  0.00  0.00     0.002 A 
ATOM     22  C   UNL d   1      -6.007   1.914  -1.583  0.00  0.00     0.029 A 
ENDBRANCH  11  17
ENDBRANCH   1   7
BRANCH   2  23
ATOM     23  C   UNL d   1       2.602   1.569  -0.082  0.00  0.00     0.311 C 
ATOM     24  O   UNL d   1       2.665   2.696  -0.555  0.00  0.00    -0.258 OA
BRANCH  23  25
ATOM     25  O   UNL d   1       3.668   0.893   0.438  0.00  0.00    -0.317 OA
BRANCH  25  26
ATOM     26  C   UNL d   1       4.962   1.433   0.157  0.00  0.00     0.175 C 
ATOM     27  C   UNL d   1       5.472   0.770  -1.107  0.00  0.00     0.034 C 
ENDBRANCH  25  26
ENDBRANCH  23  25
ENDBRANCH   2  23
BRANCH   6  28
ATOM     28  C   UNL d   1       0.023  -2.645   0.058  0.00  0.00    -0.002 A 
ATOM     29  C   UNL d   1       1.006  -3.507  -0.457  0.00  0.00     0.014 A 
ATOM     30  C   UNL d   1       0.797  -4.888  -0.507  0.00  0.00     0.001 A 
ATOM     31  C   UNL d   1      -0.395  -5.430  -0.036  0.00  0.00     0.000 A 
ATOM     32  C   UNL d   1      -1.377  -4.593   0.486  0.00  0.00     0.001 A 
ATOM     33  C   UNL d   1      -1.170  -3.214   0.534  0.00  0.00     0.014 A 
ENDBRANCH   6  28
TORSDOF 6
