REMARK  4 active torsions:
REMARK  status: ('A' for Active; 'I' for Inactive)
REMARK    1  A    between atoms: C_2  and  C_1 
REMARK       I    between atoms: N_7  and  C_2 
REMARK    2  A    between atoms: C_5  and  C_9 
REMARK    3  A    between atoms: N_10  and  C_6 
REMARK    4  A    between atoms: C_11  and  N_7 
ROOT
ATOM      1  C   UNL d   1      -3.238   0.408   0.368  0.00  0.00     0.258 C 
ATOM      2  N   UNL d   1      -3.769   1.471  -0.335  0.00  0.00    -0.320 N 
ATOM      3  O   UNL d   1      -3.968  -0.587   0.479  0.00  0.00    -0.267 OA
ATOM      4  H   UNL d   1      -4.767   1.333  -0.395  0.00  0.00     0.169 HD
ENDROOT
BRANCH   2   5
ATOM      5  C   UNL d   1      -3.335   2.805  -0.330  0.00  0.00     0.079 A 
ATOM      6  C   UNL d   1      -3.749   3.769   0.621  0.00  0.00     0.130 A 
ATOM      7  N   UNL d   1      -3.165   4.993   0.621  0.00  0.00    -0.351 N 
ATOM      8  C   UNL d   1      -2.233   5.287  -0.317  0.00  0.00     0.090 A 
ATOM      9  HN  UNL d   1      -3.426   5.687   1.321  1.00  0.00     0.166 HD
ATOM     10  C   UNL d   1      -1.834   4.415  -1.309  0.00  0.00     0.019 A 
ATOM     11  C   UNL d   1      -2.399   3.150  -1.315  0.00  0.00     0.035 A 
BRANCH   6  12
ATOM     12  N   UNL d   1      -4.594   3.477   1.680  0.00  0.00    -0.361 N 
ATOM     13  C   UNL d   1      -5.880   2.786   1.519  0.00  0.00     0.150 C 
ATOM     14  C   UNL d   1      -7.079   3.687   1.874  0.00  0.00     0.187 C 
ATOM     15  O   UNL d   1      -6.919   4.363   3.127  0.00  0.00    -0.388 OA
ATOM     16  C   UNL d   1      -5.733   5.172   3.091  0.00  0.00     0.187 C 
ATOM     17  C   UNL d   1      -4.493   4.293   2.905  0.00  0.00     0.150 C 
ENDBRANCH   6  12
ENDBRANCH   2   5
BRANCH   1  18
ATOM     18  C   UNL d   1      -1.882   0.378   0.995  0.00  0.00     0.054 A 
ATOM     19  C   UNL d   1      -1.181  -0.835   1.110  0.00  0.00     0.021 A 
ATOM     20  N   UNL d   1      -0.024  -0.958   1.827  0.00  0.00    -0.355 N 
ATOM     21  C   UNL d   1      -1.646  -2.121   0.491  0.00  0.00     0.069 C 
ATOM     22  C   UNL d   1       0.482   0.127   2.470  0.00  0.00     0.117 A 
ATOM     23  HN  UNL d   1       0.456  -1.856   1.878  1.00  0.00     0.166 HD
ATOM     24  C   UNL d   1      -0.126   1.371   2.358  0.00  0.00     0.035 A 
ATOM     25  C   UNL d   1      -1.315   1.487   1.633  0.00  0.00     0.021 A 
BRANCH  22  26
ATOM     26  C   UNL d   1       1.693  -0.031   3.378  0.00  0.00     0.432 C 
ATOM     27  F   UNL d   1       2.156  -1.308   3.485  0.00  0.00    -0.165 F 
ATOM     28  F   UNL d   1       2.758   0.719   2.970  0.00  0.00    -0.165 F 
ATOM     29  F   UNL d   1       1.434   0.375   4.657  0.00  0.00    -0.165 F 
ENDBRANCH  22  26
ENDBRANCH   1  18
TORSDOF 4
