REMARK  4 active torsions:
REMARK  status: ('A' for Active; 'I' for Inactive)
REMARK    1  A    between atoms: C_6  and  C_1 
REMARK    2  A    between atoms: C_12  and  C_2 
REMARK       I    between atoms: N_10  and  C_6 
REMARK    3  A    between atoms: C_7  and  C_9 
REMARK       I    between atoms: C_9  and  N_11 
REMARK    4  A    between atoms: N_11  and  N_10 
ROOT
ATOM      1  C   UNL d   1       0.320  -2.721   0.053  0.00  0.00     0.275 C 
ATOM      2  N   UNL d   1       1.449  -3.068  -0.663  0.00  0.00    -0.263 N 
ATOM      3  O   UNL d   1      -0.330  -3.550   0.683  0.00  0.00    -0.266 OA
ATOM      4  H   UNL d   1       1.953  -2.437  -1.281  0.00  0.00     0.190 HD
ENDROOT
BRANCH   1   5
ATOM      5  C   UNL d   1      -0.032  -1.317  -0.010  0.00  0.00     0.094 A 
ATOM      6  C   UNL d   1      -1.308  -0.779   0.044  0.00  0.00     0.126 A 
ATOM      7  O   UNL d   1      -1.210   0.582  -0.011  0.00  0.00    -0.236 OA
ATOM      8  N   UNL d   1       0.107   0.965  -0.082  0.00  0.00    -0.264 N 
ATOM      9  C   UNL d   1       0.817  -0.167  -0.062  0.00  0.00     0.047 A 
ATOM     10  HN  UNL d   1       0.469   1.917  -0.138  1.00  0.00     0.194 HD
ATOM     11  C   UNL d   1       2.298  -0.077  -0.048  0.00  0.00     0.071 C 
BRANCH   6  12
ATOM     12  C   UNL d   1      -2.685  -1.266   0.093  0.00  0.00     0.001 A 
ATOM     13  C   UNL d   1      -3.678  -0.507   0.738  0.00  0.00     0.016 A 
ATOM     14  C   UNL d   1      -5.016  -0.914   0.740  0.00  0.00     0.024 A 
ATOM     15  C   UNL d   1      -5.376  -2.092   0.095  0.00  0.00     0.034 A 
ATOM     16  C   UNL d   1      -4.408  -2.868  -0.539  0.00  0.00     0.024 A 
ATOM     17 CL   UNL d   1      -7.024  -2.583   0.067  0.00  0.00    -0.084 Cl
ATOM     18  C   UNL d   1      -3.069  -2.457  -0.538  0.00  0.00     0.016 A 
ENDBRANCH   6  12
ENDBRANCH   1   5
BRANCH   2  19
ATOM     19  N   UNL d   1       1.954  -4.374  -0.591  0.00  0.00    -0.263 N 
ATOM     20  C   UNL d   1       3.192  -4.602  -1.156  0.00  0.00     0.271 C 
ATOM     21  O   UNL d   1       3.741  -3.721  -1.823  0.00  0.00    -0.266 OA
ATOM     22  H   UNL d   1       1.484  -5.021   0.043  0.00  0.00     0.190 HD
BRANCH  20  23
ATOM     23  C   UNL d   1       3.871  -5.920  -0.945  0.00  0.00     0.055 A 
ATOM     24  C   UNL d   1       3.445  -6.955  -0.098  0.00  0.00     0.049 A 
ATOM     25 CL   UNL d   1       2.002  -6.909   0.852  0.00  0.00    -0.083 Cl
ATOM     26  C   UNL d   1       4.216  -8.123   0.031  0.00  0.00     0.025 A 
ATOM     27  C   UNL d   1       5.408  -8.276  -0.675  0.00  0.00     0.002 A 
ATOM     28  C   UNL d   1       5.837  -7.264  -1.524  0.00  0.00     0.001 A 
ATOM     29  C   UNL d   1       5.077  -6.100  -1.657  0.00  0.00     0.019 A 
ENDBRANCH  20  23
ENDBRANCH   2  19
TORSDOF 4
