REMARK  3 active torsions:
REMARK  status: ('A' for Active; 'I' for Inactive)
REMARK    1  A    between atoms: C_2  and  C_1 
REMARK       I    between atoms: N_3  and  C_1 
REMARK    2  A    between atoms: N_5  and  N_3 
REMARK    3  A    between atoms: C_6  and  N_5 
ROOT
ATOM      1  N   UNL d   1      -0.990   0.113  -1.318  0.00  0.00    -0.203 NA
ATOM      2  H   UNL d   1      -1.490  -0.256  -0.497  0.00  0.00     0.153 HD
ENDROOT
BRANCH   1   3
ATOM      3  N   UNL d   1       0.376  -0.184  -1.218  0.00  0.00    -0.282 N 
ATOM      4  C   UNL d   1       0.884  -0.473   0.042  0.00  0.00     0.273 C 
ATOM      5  O   UNL d   1       0.135  -0.589   1.012  0.00  0.00    -0.266 OA
ATOM      6  H   UNL d   1       0.976   0.115  -1.981  0.00  0.00     0.184 HD
BRANCH   4   7
ATOM      7  C   UNL d   1       2.329  -0.642   0.128  0.00  0.00     0.073 A 
ATOM      8  S   UNL d   1       3.329  -0.729  -1.261  0.00  0.00    -0.097 SA
ATOM      9  C   UNL d   1       4.731  -1.004  -0.321  0.00  0.00     0.050 A 
ATOM     10  C   UNL d   1       4.457  -1.001   1.027  0.00  0.00     0.009 A 
ATOM     11  C   UNL d   1       3.072  -0.790   1.285  0.00  0.00     0.025 A 
ENDBRANCH   4   7
ENDBRANCH   1   3
BRANCH   1  12
ATOM     12  C   UNL d   1      -1.637  -0.313  -2.506  0.00  0.00     0.033 A 
ATOM     13  C   UNL d   1      -1.334  -1.457  -3.272  0.00  0.00    -0.038 A 
ATOM     14  C   UNL d   1      -2.095  -1.724  -4.433  0.00  0.00     0.032 A 
ATOM     15  C   UNL d   1      -0.228  -2.430  -2.969  0.00  0.00     0.050 C 
ATOM     16  C   UNL d   1      -3.181  -0.927  -4.785  0.00  0.00     0.034 A 
ATOM     17  C   UNL d   1      -3.539   0.149  -3.989  0.00  0.00     0.026 A 
ATOM     18 CL   UNL d   1      -4.091  -1.290  -6.198  0.00  0.00    -0.084 Cl
ATOM     19  C   UNL d   1      -2.775   0.444  -2.858  0.00  0.00     0.027 A 
ENDBRANCH   1  12
TORSDOF 3
