REMARK  3 active torsions:
REMARK  status: ('A' for Active; 'I' for Inactive)
REMARK    1  A    between atoms: C_2  and  C_1 
REMARK    2  A    between atoms: O_4  and  C_2 
REMARK    3  A    between atoms: C_5  and  O_4 
ROOT
ATOM      1  C   UNL d   1      -2.515  -2.196  -0.135  0.00  0.00     0.300 C 
ATOM      2  O   UNL d   1      -3.599  -1.650  -0.251  0.00  0.00    -0.259 OA
ENDROOT
BRANCH   1   3
ATOM      3  C   UNL d   1      -1.226  -1.465  -0.234  0.00  0.00     0.061 A 
ATOM      4  C   UNL d   1      -0.086  -1.767   0.528  0.00  0.00     0.051 A 
ATOM      5  C   UNL d   1       1.090  -1.024   0.355  0.00  0.00     0.048 A 
ATOM      6 CL   UNL d   1      -0.052  -2.982   1.758  0.00  0.00    -0.083 Cl
ATOM      7  C   UNL d   1       1.124   0.030  -0.554  0.00  0.00     0.035 A 
ATOM      8  C   UNL d   1      -0.011   0.364  -1.288  0.00  0.00     0.025 A 
ATOM      9 CL   UNL d   1       2.572   0.936  -0.756  0.00  0.00    -0.084 Cl
ATOM     10  C   UNL d   1      -1.183  -0.380  -1.128  0.00  0.00     0.021 A 
ENDBRANCH   1   3
BRANCH   1  11
ATOM     11  O   UNL d   1      -2.271  -3.555  -0.023  0.00  0.00    -0.275 OA
BRANCH  11  12
ATOM     12  C   UNL d   1      -3.263  -4.527   0.258  0.00  0.00     0.082 A 
ATOM     13  C   UNL d   1      -2.899  -5.843  -0.032  0.00  0.00     0.061 A 
ATOM     14  C   UNL d   1      -3.767  -6.883   0.297  0.00  0.00     0.038 A 
ATOM     15 CL   UNL d   1      -3.319  -8.508  -0.047  0.00  0.00    -0.084 Cl
ATOM     16  C   UNL d   1      -4.986  -6.619   0.916  0.00  0.00     0.048 A 
ATOM     17  C   UNL d   1      -5.333  -5.299   1.203  0.00  0.00     0.038 A 
ATOM     18  C   UNL d   1      -4.476  -4.244   0.881  0.00  0.00     0.061 A 
ATOM     19 CL   UNL d   1      -6.829  -4.972   1.990  0.00  0.00    -0.084 Cl
ENDBRANCH  11  12
ENDBRANCH   1  11
TORSDOF 3
