REMARK  4 active torsions:
REMARK  status: ('A' for Active; 'I' for Inactive)
REMARK    1  A    between atoms: C_3  and  S_1 
REMARK    2  A    between atoms: O_4  and  S_1 
REMARK    3  A    between atoms: S_2  and  C_3 
REMARK    4  A    between atoms: C_11  and  O_4 
ROOT
ATOM      1  O   UNL d   1       0.339   1.456   0.467  0.00  0.00    -0.232 OA
ENDROOT
BRANCH   1   2
ATOM      2  S   UNL d   1       1.014   0.040   0.014  0.00  0.00     0.283 S 
ATOM      3  O   UNL d   1       0.320  -0.420  -1.167  0.00  0.00    -0.197 OA
ATOM      4  O   UNL d   1       2.455   0.179   0.063  0.00  0.00    -0.197 OA
BRANCH   2   5
ATOM      5  C   UNL d   1       0.504  -0.858   1.430  0.00  0.00     0.310 C 
BRANCH   5   6
ATOM      6  S   UNL d   1       1.078  -2.515   1.440  0.00  0.00     0.156 S 
ATOM      7  O   UNL d   1       0.589  -3.098   2.679  0.00  0.00    -0.227 OA
ATOM      8  O   UNL d   1       0.755  -3.148   0.177  0.00  0.00    -0.227 OA
ATOM      9  C   UNL d   1       2.849  -2.439   1.593  0.00  0.00     0.162 C 
ENDBRANCH   5   6
ENDBRANCH   2   5
ENDBRANCH   1   2
BRANCH   1  10
ATOM     10  C   UNL d   1       0.826   2.668   0.050  0.00  0.00     0.091 A 
ATOM     11  C   UNL d   1       1.540   2.889  -1.129  0.00  0.00     0.063 A 
ATOM     12  C   UNL d   1       2.009   4.176  -1.430  0.00  0.00     0.058 A 
ATOM     13 CL   UNL d   1       2.907   4.384  -2.893  0.00  0.00    -0.082 Cl
ATOM     14  C   UNL d   1       1.750   5.241  -0.559  0.00  0.00     0.056 A 
ATOM     15  C   UNL d   1       1.007   5.020   0.602  0.00  0.00     0.028 A 
ATOM     16 CL   UNL d   1       2.317   6.846  -0.852  0.00  0.00    -0.083 Cl
ATOM     17  C   UNL d   1       0.542   3.739   0.900  0.00  0.00     0.040 A 
ENDBRANCH   1  10
TORSDOF 4
