REMARK  8 active torsions:
REMARK  status: ('A' for Active; 'I' for Inactive)
REMARK    1  A    between atoms: C_20  and  C_1 
REMARK    2  A    between atoms: C_4  and  O_9 
REMARK       I    between atoms: C_6  and  N_12 
REMARK       I    between atoms: N_8  and  C_6 
REMARK    3  A    between atoms: C_17  and  N_8 
REMARK    4  A    between atoms: O_9  and  C_19 
REMARK    5  A    between atoms: N_12  and  C_28 
REMARK    6  A    between atoms: S_22  and  C_20 
REMARK    7  A    between atoms: C_29  and  S_22 
REMARK    8  A    between atoms: C_28  and  C_29 
ROOT
ATOM      1  C   UNL d   1       7.979  -5.526   0.374  0.00  0.00     0.320 C 
ATOM      2  N   UNL d   1       8.574  -6.763   0.509  0.00  0.00    -0.309 N 
ATOM      3  O   UNL d   1       8.535  -4.437   0.410  0.00  0.00    -0.247 OA
ATOM      4  N   UNL d   1       6.617  -5.624   0.181  0.00  0.00    -0.342 N 
ATOM      5  H   UNL d   1       7.964  -7.566   0.534  0.00  0.00     0.170 HD
ATOM      6  H   UNL d   1       6.255  -6.490  -0.178  0.00  0.00     0.164 HD
ENDROOT
BRANCH   4   7
ATOM      7  C   UNL d   1       5.880  -4.402  -0.122  0.00  0.00     0.134 C 
BRANCH   7   8
ATOM      8  C   UNL d   1       4.362  -4.568  -0.115  0.00  0.00     0.094 C 
BRANCH   8   9
ATOM      9  S   UNL d   1       3.697  -5.405   1.365  0.00  0.00    -0.163 SA
BRANCH   9  10
ATOM     10  C   UNL d   1       4.295  -4.267   2.659  0.00  0.00     0.114 C 
BRANCH  10  11
ATOM     11  C   UNL d   1       3.989  -4.833   4.013  0.00  0.00    -0.031 A 
ATOM     12  C   UNL d   1       4.869  -5.718   4.753  0.00  0.00    -0.010 A 
ATOM     13  C   UNL d   1       4.308  -6.093   5.977  0.00  0.00     0.015 A 
ATOM     14  C   UNL d   1       6.149  -6.237   4.425  0.00  0.00     0.037 A 
ATOM     15  C   UNL d   1       4.978  -6.960   6.867  0.00  0.00     0.021 A 
ATOM     16  S   UNL d   1       2.765  -5.372   6.214  0.00  0.00    -0.101 SA
ATOM     17  C   UNL d   1       6.235  -7.455   6.513  0.00  0.00     0.025 A 
ATOM     18  C   UNL d   1       6.812  -7.095   5.305  0.00  0.00     0.035 A 
ATOM     19 CL   UNL d   1       8.362  -7.712   4.879  0.00  0.00    -0.084 Cl
ATOM     20  C   UNL d   1       2.826  -4.575   4.712  0.00  0.00     0.059 A 
ENDBRANCH  10  11
ENDBRANCH   9  10
ENDBRANCH   8   9
ENDBRANCH   7   8
ENDBRANCH   4   7
BRANCH   2  21
ATOM     21  C   UNL d   1       9.964  -7.018   0.596  0.00  0.00     0.036 A 
ATOM     22  C   UNL d   1      10.925  -6.006   0.608  0.00  0.00     0.032 A 
ATOM     23  C   UNL d   1      12.284  -6.315   0.610  0.00  0.00     0.039 A 
ATOM     24  C   UNL d   1      12.726  -7.635   0.615  0.00  0.00     0.078 A 
ATOM     25  C   UNL d   1      11.779  -8.659   0.618  0.00  0.00     0.039 A 
ATOM     26  C   UNL d   1      10.405  -8.347   0.623  0.00  0.00     0.032 A 
BRANCH  24  27
ATOM     27  O   UNL d   1      14.081  -7.743   0.603  0.00  0.00    -0.255 OA
BRANCH  27  28
ATOM     28  C   UNL d   1      14.714  -8.977   0.875  0.00  0.00     0.530 C 
ATOM     29  F   UNL d   1      14.024  -9.747   1.744  0.00  0.00    -0.144 F 
ATOM     30  F   UNL d   1      14.914  -9.662  -0.270  0.00  0.00    -0.144 F 
ATOM     31  F   UNL d   1      15.921  -8.716   1.427  0.00  0.00    -0.144 F 
ENDBRANCH  27  28
ENDBRANCH  24  27
ENDBRANCH   2  21
TORSDOF 8
