REMARK  7 active torsions:
REMARK  status: ('A' for Active; 'I' for Inactive)
REMARK    1  A    between atoms: N_8  and  C_1 
REMARK    2  A    between atoms: C_2  and  C_3 
REMARK    3  A    between atoms: N_9  and  S_6 
REMARK       I    between atoms: C_7  and  N_9 
REMARK       I    between atoms: N_14  and  C_7 
REMARK    4  A    between atoms: C_24  and  N_14 
REMARK    5  A    between atoms: C_30  and  C_25 
REMARK    6  A    between atoms: C_31  and  C_30 
REMARK    7  A    between atoms: C_32  and  C_31 
ROOT
ATOM      1  S   UNL d   1       2.702   4.240   0.081  0.00  0.00    -0.120 SA
ATOM      2  N   UNL d   1      -0.130   2.557  -0.145  0.00  0.00    -0.364 N 
ATOM      3  C   UNL d   1       1.315   4.077   1.263  0.00  0.00     0.105 C 
ATOM      4  C   UNL d   1       2.282   2.718  -0.854  0.00  0.00     0.105 C 
ATOM      5  C   UNL d   1      -0.073   3.777   0.676  0.00  0.00     0.135 C 
ATOM      6  C   UNL d   1       0.820   2.563  -1.276  0.00  0.00     0.135 C 
ENDROOT
BRANCH   1   7
ATOM      7  N   UNL d   1       2.104   5.306  -0.817  0.00  0.00    -0.292 N 
ATOM      8  C   UNL d   1       2.697   5.660  -1.973  0.00  0.00     0.330 C 
ATOM      9  N   UNL d   1       4.082   5.712  -1.934  0.00  0.00    -0.308 N 
ATOM     10  O   UNL d   1       2.045   5.964  -2.972  0.00  0.00    -0.246 OA
ATOM     11  H   UNL d   1       4.452   5.368  -1.059  0.00  0.00     0.170 HD
ATOM     12  HN  UNL d   1       1.236   5.764  -0.539  1.00  0.00     0.178 HD
BRANCH   9  13
ATOM     13  C   UNL d   1       4.987   6.040  -2.959  0.00  0.00     0.036 A 
ATOM     14  C   UNL d   1       4.611   6.622  -4.169  0.00  0.00     0.030 A 
ATOM     15  C   UNL d   1       5.552   6.841  -5.182  0.00  0.00     0.009 A 
ATOM     16  C   UNL d   1       6.891   6.473  -5.005  0.00  0.00    -0.058 A 
ATOM     17  C   UNL d   1       7.284   5.957  -3.764  0.00  0.00     0.009 A 
ATOM     18  C   UNL d   1       6.339   5.747  -2.751  0.00  0.00     0.030 A 
BRANCH  16  19
ATOM     19  C   UNL d   1       7.863   6.573  -6.154  0.00  0.00     0.038 C 
BRANCH  19  20
ATOM     20  C   UNL d   1       8.435   5.218  -6.599  0.00  0.00     0.004 C 
BRANCH  20  21
ATOM     21  C   UNL d   1       7.357   4.205  -7.002  0.00  0.00    -0.004 C 
ATOM     22  C   UNL d   1       7.968   2.889  -7.461  0.00  0.00     0.005 C 
ENDBRANCH  20  21
ENDBRANCH  19  20
ENDBRANCH  16  19
ENDBRANCH   9  13
ENDBRANCH   1   7
BRANCH   2  23
ATOM     23  C   UNL d   1      -0.524   1.340   0.385  0.00  0.00     0.125 A 
ATOM     24  N   UNL d   1       0.293   0.270   0.194  0.00  0.00    -0.350 N 
ATOM     25  C   UNL d   1      -0.099  -0.962   0.606  0.00  0.00     0.106 A 
ATOM     26  HN  UNL d   1       1.199   0.393  -0.257  1.00  0.00     0.166 HD
ATOM     27  C   UNL d   1      -1.308  -1.225   1.218  0.00  0.00     0.065 A 
ATOM     28  C   UNL d   1      -2.154  -0.142   1.429  0.00  0.00     0.045 A 
ATOM     29  C   UNL d   1      -1.776   1.143   1.006  0.00  0.00     0.078 A 
ATOM     30 CL   UNL d   1      -2.992   2.368   1.156  0.00  0.00    -0.080 Cl
BRANCH  27  31
ATOM     31  C   UNL d   1      -1.678  -2.627   1.584  0.00  0.00     0.418 C 
ATOM     32  F   UNL d   1      -2.905  -2.730   2.171  0.00  0.00    -0.166 F 
ATOM     33  F   UNL d   1      -1.718  -3.458   0.506  0.00  0.00    -0.166 F 
ATOM     34  F   UNL d   1      -0.803  -3.195   2.458  0.00  0.00    -0.166 F 
ENDBRANCH  27  31
ENDBRANCH   2  23
TORSDOF 7
