REMARK  4 active torsions:
REMARK  status: ('A' for Active; 'I' for Inactive)
REMARK    1  A    between atoms: C_2  and  C_1 
REMARK    2  A    between atoms: O_5  and  C_1 
REMARK    3  A    between atoms: O_9  and  C_2 
REMARK    4  A    between atoms: C_8  and  O_5 
ROOT
ATOM      1  N   UNL d   1       2.029   7.678   0.230  0.00  0.00    -0.191 NA
ATOM      2  C   UNL d   1       1.829   6.551   0.050  0.00  0.00     0.099 C 
ATOM      3  C   UNL d   1       1.575   5.157  -0.167  0.00  0.00     0.044 A 
ATOM      4  C   UNL d   1       1.040   2.422  -0.523  0.00  0.00     0.070 A 
ATOM      5  C   UNL d   1       0.485   4.751  -0.940  0.00  0.00     0.025 A 
ATOM      6  C   UNL d   1       2.411   4.193   0.400  0.00  0.00     0.025 A 
ATOM      7  C   UNL d   1       2.146   2.830   0.219  0.00  0.00     0.038 A 
ATOM      8  C   UNL d   1       0.228   3.389  -1.124  0.00  0.00     0.038 A 
ENDROOT
BRANCH   4   9
ATOM      9  O   UNL d   1       0.628   1.135  -0.727  0.00  0.00    -0.330 OA
BRANCH   9  10
ATOM     10  C   UNL d   1       0.983   0.091   0.190  0.00  0.00     0.145 C 
ATOM     11  C   UNL d   1      -0.070  -1.012  -0.042  0.00  0.00     0.058 C 
ATOM     12  C   UNL d   1       2.349  -0.511  -0.167  0.00  0.00     0.058 C 
BRANCH  10  13
ATOM     13  C   UNL d   1       0.880   0.462   1.688  0.00  0.00     0.175 C 
ATOM     14  O   UNL d   1       1.714   0.183   2.536  0.00  0.00    -0.648 OA
BRANCH  13  15
ATOM     15  O   UNL d   1      -0.250   1.152   1.991  0.00  0.00    -0.774 OA
ATOM     16  H   UNL d   1      -0.776   1.370   1.194  0.00  0.00     0.167 HD
ENDBRANCH  13  15
ENDBRANCH  10  13
ENDBRANCH   9  10
ENDBRANCH   4   9
TORSDOF 4
