REMARK  5 active torsions:
REMARK  status: ('A' for Active; 'I' for Inactive)
REMARK    1  A    between atoms: S_2  and  C_1 
REMARK    2  A    between atoms: C_5  and  C_1 
REMARK    3  A    between atoms: C_3  and  S_2 
REMARK    4  A    between atoms: N_12  and  C_4 
REMARK    5  A    between atoms: O_15  and  C_5 
ROOT
ATOM      1  S   UNL d   1       0.330  -1.313   1.179  0.00  0.00    -0.081 SA
ENDROOT
BRANCH   1   2
ATOM      2  C   UNL d   1       0.989  -0.068   0.171  0.00  0.00     0.096 C 
ATOM      3  C   UNL d   1       0.244   0.849  -0.484  0.00  0.00     0.110 C 
BRANCH   3   4
ATOM      4  N   UNL d   1      -1.125   1.109  -0.606  0.00  0.00    -0.397 N 
ATOM      5  C   UNL d   1      -2.188   0.120  -0.433  0.00  0.00     0.148 C 
ATOM      6  C   UNL d   1      -1.604   2.387  -1.146  0.00  0.00     0.148 C 
ENDBRANCH   3   4
BRANCH   2   7
ATOM      7  C   UNL d   1       2.474  -0.005  -0.079  0.00  0.00     0.301 C 
ATOM      8  O   UNL d   1       3.014   0.846  -0.773  0.00  0.00    -0.259 OA
BRANCH   7   9
ATOM      9  O   UNL d   1       3.137  -1.019   0.534  0.00  0.00    -0.322 OA
ATOM     10  C   UNL d   1       4.546  -1.054   0.288  0.00  0.00     0.213 C 
ENDBRANCH   7   9
ENDBRANCH   2   7
ENDBRANCH   1   2
BRANCH   1  11
ATOM     11  C   UNL d   1       1.010  -0.922   2.790  0.00  0.00     0.028 A 
ATOM     12  C   UNL d   1       1.717  -1.875   3.544  0.00  0.00     0.052 A 
ATOM     13  C   UNL d   1       2.131  -1.587   4.847  0.00  0.00     0.049 A 
ATOM     14 CL   UNL d   1       2.103  -3.450   2.934  0.00  0.00    -0.083 Cl
ATOM     15  C   UNL d   1       1.842  -0.350   5.424  0.00  0.00     0.041 A 
ATOM     16  C   UNL d   1       1.138   0.623   4.701  0.00  0.00    -0.039 A 
ATOM     17 CL   UNL d   1       2.368  -0.097   7.050  0.00  0.00    -0.084 Cl
ATOM     18  C   UNL d   1       0.733   0.323   3.383  0.00  0.00     0.029 A 
ATOM     19  C   UNL d   1       0.789   1.977   5.257  0.00  0.00     0.050 C 
ENDBRANCH   1  11
TORSDOF 5
