REMARK  10 active torsions:
REMARK  status: ('A' for Active; 'I' for Inactive)
REMARK    1  A    between atoms: C_6  and  C_1 
REMARK    2  A    between atoms: N_7  and  C_2 
REMARK    3  A    between atoms: C_8  and  C_4 
REMARK    4  A    between atoms: O_21  and  C_6 
REMARK       I    between atoms: C_9  and  N_7 
REMARK    5  A    between atoms: C_23  and  C_9 
REMARK    6  A    between atoms: C_10  and  C_11 
REMARK    7  A    between atoms: C_12  and  C_24 
REMARK    8  A    between atoms: O_22  and  C_12 
REMARK    9  A    between atoms: S_20  and  C_23 
REMARK   10  A    between atoms: C_24  and  S_20 
ROOT
ATOM      1  C   UNL d   1       0.142   1.393  -0.035  0.00  0.00     0.107 A 
ATOM      2  C   UNL d   1       1.436   0.899  -0.105  0.00  0.00     0.059 A 
ATOM      3  S   UNL d   1      -0.998   0.102   0.070  0.00  0.00    -0.081 SA
ATOM      4  C   UNL d   1       0.195  -1.113  -0.091  0.00  0.00     0.018 A 
ATOM      5  C   UNL d   1       1.448  -0.535  -0.184  0.00  0.00     0.051 A 
ENDROOT
BRANCH   2   6
ATOM      6  N   UNL d   1       2.632   1.622  -0.135  0.00  0.00    -0.325 N 
ATOM      7  C   UNL d   1       2.929   2.600   0.801  0.00  0.00     0.231 C 
ATOM      8  O   UNL d   1       2.209   2.920   1.749  0.00  0.00    -0.272 OA
ATOM      9  H   UNL d   1       3.426   1.126  -0.523  0.00  0.00     0.169 HD
BRANCH   7  10
ATOM     10  C   UNL d   1       4.319   3.207   0.640  0.00  0.00     0.177 C 
BRANCH  10  11
ATOM     11  S   UNL d   1       4.242   5.005   0.352  0.00  0.00    -0.149 SA
BRANCH  11  12
ATOM     12  C   UNL d   1       3.420   5.606   1.868  0.00  0.00     0.184 C 
BRANCH  12  13
ATOM     13  C   UNL d   1       4.191   5.264   3.125  0.00  0.00     0.149 C 
ATOM     14  O   UNL d   1       5.100   5.940   3.580  0.00  0.00    -0.649 OA
BRANCH  13  15
ATOM     15  O   UNL d   1       3.802   4.099   3.699  0.00  0.00    -0.776 OA
ATOM     16  H   UNL d   1       3.047   3.656   3.245  0.00  0.00     0.167 HD
ENDBRANCH  13  15
ENDBRANCH  12  13
ENDBRANCH  11  12
ENDBRANCH  10  11
ENDBRANCH   7  10
ENDBRANCH   2   6
BRANCH   1  17
ATOM     17  C   UNL d   1      -0.417   2.730  -0.108  0.00  0.00     0.302 C 
ATOM     18  O   UNL d   1      -1.507   3.083   0.333  0.00  0.00    -0.259 OA
BRANCH  17  19
ATOM     19  O   UNL d   1       0.378   3.549  -0.871  0.00  0.00    -0.322 OA
ATOM     20  C   UNL d   1      -0.221   4.812  -1.174  0.00  0.00     0.213 C 
ENDBRANCH  17  19
ENDBRANCH   1  17
BRANCH   4  21
ATOM     21  C   UNL d   1      -0.170  -2.544  -0.067  0.00  0.00    -0.019 A 
ATOM     22  C   UNL d   1      -1.362  -3.025  -0.623  0.00  0.00     0.013 A 
ATOM     23  C   UNL d   1      -1.698  -4.388  -0.561  0.00  0.00     0.009 A 
ATOM     24  C   UNL d   1      -0.857  -5.329   0.059  0.00  0.00    -0.051 A 
ATOM     25  C   UNL d   1       0.350  -4.843   0.584  0.00  0.00     0.009 A 
ATOM     26  C   UNL d   1       0.685  -3.480   0.525  0.00  0.00     0.013 A 
BRANCH  24  27
ATOM     27  C   UNL d   1      -1.282  -6.806   0.178  0.00  0.00    -0.024 C 
ATOM     28  C   UNL d   1      -0.244  -7.684   0.915  0.00  0.00     0.019 C 
ATOM     29  C   UNL d   1      -2.605  -6.903   0.970  0.00  0.00     0.019 C 
ATOM     30  C   UNL d   1      -1.496  -7.431  -1.217  0.00  0.00     0.019 C 
ENDBRANCH  24  27
ENDBRANCH   4  21
TORSDOF 10
