REMARK  3 active torsions:
REMARK  status: ('A' for Active; 'I' for Inactive)
REMARK    1  A    between atoms: C_2  and  C_1 
REMARK    2  A    between atoms: N_3  and  C_5 
REMARK    3  A    between atoms: N_15  and  C_8 
ROOT
ATOM      1  C   UNL d   1       0.580   1.328   0.303  0.00  0.00     0.065 A 
ATOM      2  C   UNL d   1      -0.215   3.889   0.980  0.00  0.00     0.128 A 
ATOM      3  N   UNL d   1      -0.916   2.831   1.465  0.00  0.00    -0.350 N 
ATOM      4  HN  UNL d   1      -1.723   2.970   2.073  1.00  0.00     0.166 HD
ATOM      5  C   UNL d   1       1.300   2.424  -0.181  0.00  0.00     0.045 A 
ATOM      6  C   UNL d   1       0.905   3.720   0.161  0.00  0.00     0.079 A 
ATOM      7  C   UNL d   1      -0.510   1.590   1.118  0.00  0.00     0.106 A 
ATOM      8 CL   UNL d   1       1.817   5.050  -0.451  0.00  0.00    -0.080 Cl
ENDROOT
BRANCH   2   9
ATOM      9  N   UNL d   1      -0.645   5.166   1.384  0.00  0.00    -0.337 N 
ATOM     10  C   UNL d   1      -1.900   5.321   1.643  0.00  0.00     0.179 C 
ATOM     11  HN  UNL d   1       0.011   5.942   1.469  1.00  0.00     0.168 HD
BRANCH  10  12
ATOM     12  N   UNL d   1      -2.518   6.478   2.063  0.00  0.00    -0.386 N 
ATOM     13  C   UNL d   1      -3.938   6.517   2.364  0.00  0.00     0.149 C 
ATOM     14  C   UNL d   1      -1.774   7.698   2.323  0.00  0.00     0.149 C 
ENDBRANCH  10  12
ENDBRANCH   2   9
BRANCH   1  15
ATOM     15  C   UNL d   1       0.935  -0.090  -0.015  0.00  0.00     0.418 C 
ATOM     16  F   UNL d   1       2.007  -0.208  -0.845  0.00  0.00    -0.166 F 
ATOM     17  F   UNL d   1      -0.084  -0.755  -0.624  0.00  0.00    -0.166 F 
ATOM     18  F   UNL d   1       1.240  -0.811   1.097  0.00  0.00    -0.166 F 
ENDBRANCH   1  15
TORSDOF 3
