REMARK  5 active torsions:
REMARK  status: ('A' for Active; 'I' for Inactive)
REMARK    1  A    between atoms: C_2  and  S_1 
REMARK    2  A    between atoms: N_3  and  S_1 
REMARK    3  A    between atoms: C_12  and  N_3 
REMARK    4  A    between atoms: C_4  and  C_9 
REMARK    5  A    between atoms: O_16  and  C_4 
ROOT
ATOM      1  N   UNL d   1       0.583   0.458  -1.454  0.00  0.00    -0.281 N 
ATOM      2  H   UNL d   1       0.371   0.561  -0.463  0.00  0.00     0.179 HD
ENDROOT
BRANCH   1   3
ATOM      3  S   UNL d   1       0.553  -1.088  -2.083  0.00  0.00     0.263 S 
ATOM      4  O   UNL d   1       0.252  -1.968  -0.973  0.00  0.00    -0.200 OA
ATOM      5  O   UNL d   1      -0.233  -1.108  -3.294  0.00  0.00    -0.200 OA
BRANCH   3   6
ATOM      6  C   UNL d   1       2.252  -1.357  -2.522  0.00  0.00     0.083 A 
ATOM      7  C   UNL d   1       3.128  -1.935  -1.599  0.00  0.00     0.049 A 
ATOM      8  C   UNL d   1       4.464  -2.110  -1.953  0.00  0.00     0.037 A 
ATOM      9 CL   UNL d   1       5.561  -2.800  -0.823  0.00  0.00    -0.084 Cl
ATOM     10  C   UNL d   1       4.925  -1.717  -3.209  0.00  0.00     0.047 A 
ATOM     11  C   UNL d   1       4.034  -1.161  -4.126  0.00  0.00     0.037 A 
ATOM     12  C   UNL d   1       2.692  -0.992  -3.798  0.00  0.00     0.049 A 
ATOM     13 CL   UNL d   1       4.600  -0.657  -5.669  0.00  0.00    -0.084 Cl
ENDBRANCH   3   6
ENDBRANCH   1   3
BRANCH   1  14
ATOM     14  C   UNL d   1       0.871   1.594  -2.247  0.00  0.00     0.043 A 
ATOM     15  C   UNL d   1       2.155   2.137  -2.212  0.00  0.00     0.047 A 
ATOM     16  C   UNL d   1       2.429   3.328  -2.901  0.00  0.00     0.041 A 
ATOM     17  C   UNL d   1       1.407   3.958  -3.623  0.00  0.00     0.018 A 
ATOM     18  C   UNL d   1       0.124   3.408  -3.652  0.00  0.00     0.003 A 
ATOM     19  C   UNL d   1      -0.147   2.225  -2.959  0.00  0.00     0.030 A 
BRANCH  16  20
ATOM     20  C   UNL d   1       3.766   3.981  -2.855  0.00  0.00     0.293 C 
ATOM     21  O   UNL d   1       4.035   5.013  -3.448  0.00  0.00    -0.259 OA
BRANCH  20  22
ATOM     22  O   UNL d   1       4.603   3.289  -2.042  0.00  0.00    -0.323 OA
ATOM     23  C   UNL d   1       5.885   3.896  -1.875  0.00  0.00     0.213 C 
ENDBRANCH  20  22
ENDBRANCH  16  20
ENDBRANCH   1  14
TORSDOF 5
