REMARK  5 active torsions:
REMARK  status: ('A' for Active; 'I' for Inactive)
REMARK    1  A    between atoms: N_2  and  C_1 
REMARK    2  A    between atoms: S_7  and  C_3 
REMARK    3  A    between atoms: C_6  and  C_5 
REMARK    4  A    between atoms: O_14  and  C_6 
REMARK    5  A    between atoms: C_13  and  S_7 
ROOT
ATOM      1  C   UNL d   1       1.389  -0.119  -0.096  0.00  0.00     0.121 A 
ATOM      2  C   UNL d   1       0.624  -1.290  -0.018  0.00  0.00     0.038 A 
ATOM      3  C   UNL d   1       0.814   1.158  -0.018  0.00  0.00     0.055 A 
ATOM      4  C   UNL d   1      -0.571   1.278   0.137  0.00  0.00     0.040 A 
ATOM      5  C   UNL d   1      -0.769  -1.143   0.107  0.00  0.00     0.022 A 
ATOM      6  C   UNL d   1      -1.363   0.126   0.177  0.00  0.00     0.020 A 
ENDROOT
BRANCH   2   7
ATOM      7  S   UNL d   1       1.271  -2.950  -0.171  0.00  0.00    -0.088 SA
BRANCH   7   8
ATOM      8  C   UNL d   1       1.449  -3.406   1.546  0.00  0.00     0.005 A 
ATOM      9  C   UNL d   1       0.363  -3.896   2.278  0.00  0.00     0.019 A 
ATOM     10  C   UNL d   1       0.517  -4.242   3.625  0.00  0.00     0.008 A 
ATOM     11  C   UNL d   1       1.760  -4.111   4.255  0.00  0.00    -0.062 A 
ATOM     12  C   UNL d   1       2.849  -3.642   3.514  0.00  0.00     0.008 A 
ATOM     13  C   UNL d   1       1.911  -4.452   5.708  0.00  0.00     0.048 C 
ATOM     14  C   UNL d   1       2.696  -3.304   2.167  0.00  0.00     0.019 A 
ENDBRANCH   7   8
ENDBRANCH   2   7
BRANCH   1  15
ATOM     15  N   UNL d   1       2.818  -0.171  -0.318  0.00  0.00    -0.114 N 
ATOM     16  O   UNL d   1       3.525  -0.564   0.619  0.00  0.00    -0.532 OA
ATOM     17  O   UNL d   1       3.229   0.246  -1.407  0.00  0.00    -0.532 OA
ENDBRANCH   1  15
BRANCH   4  18
ATOM     18  C   UNL d   1      -1.154   2.644   0.180  0.00  0.00     0.176 C 
ATOM     19  O   UNL d   1      -0.641   3.589  -0.393  0.00  0.00    -0.646 OA
BRANCH  18  20
ATOM     20  O   UNL d   1      -2.267   2.743   0.932  0.00  0.00    -0.773 OA
ATOM     21  H   UNL d   1      -2.479   1.972   1.488  0.00  0.00     0.167 HD
ENDBRANCH  18  20
ENDBRANCH   4  18
TORSDOF 5
