REMARK  4 active torsions:
REMARK  status: ('A' for Active; 'I' for Inactive)
REMARK    1  A    between atoms: N_11  and  C_17 
REMARK    2  A    between atoms: C_18  and  N_13 
REMARK    3  A    between atoms: C_21  and  C_19 
REMARK    4  A    between atoms: C_20  and  C_21 
ROOT
ATOM      1  C   UNL d   1      -7.311   2.706   0.385  0.00  0.00     0.077 C 
ENDROOT
BRANCH   1   2
ATOM      2  C   UNL d   1      -8.056   1.811   1.346  0.00  0.00    -0.054 A 
ATOM      3  C   UNL d   1      -8.121   2.097   2.716  0.00  0.00     0.010 A 
ATOM      4  C   UNL d   1      -8.884   1.292   3.576  0.00  0.00     0.030 A 
ATOM      5  C   UNL d   1      -9.595   0.189   3.095  0.00  0.00     0.032 A 
ATOM      6  C   UNL d   1      -9.540  -0.074   1.722  0.00  0.00     0.030 A 
ATOM      7  C   UNL d   1      -8.754   0.700   0.864  0.00  0.00     0.010 A 
BRANCH   5   8
ATOM      8  N   UNL d   1     -10.456  -0.492   3.967  0.00  0.00    -0.351 N 
ATOM      9  C   UNL d   1     -10.589  -1.780   3.966  0.00  0.00     0.114 C 
ATOM     10  C   UNL d   1      -9.868  -2.881   3.156  0.00  0.00     0.273 C 
ATOM     11  C   UNL d   1     -11.623  -2.486   4.728  0.00  0.00     0.023 A 
ATOM     12  N   UNL d   1     -10.622  -4.021   3.345  0.00  0.00    -0.321 N 
ATOM     13  O   UNL d   1      -8.848  -2.789   2.510  0.00  0.00    -0.266 OA
ATOM     14  C   UNL d   1     -11.633  -3.801   4.271  0.00  0.00     0.047 A 
ATOM     15  H   UNL d   1     -10.390  -4.903   2.916  0.00  0.00     0.169 HD
ATOM     16  C   UNL d   1     -12.554  -4.718   4.729  0.00  0.00     0.030 A 
ATOM     17  C   UNL d   1     -13.470  -4.282   5.692  0.00  0.00     0.002 A 
ATOM     18  C   UNL d   1     -13.444  -2.955   6.171  0.00  0.00     0.001 A 
ATOM     19  C   UNL d   1     -12.515  -2.033   5.679  0.00  0.00     0.016 A 
ATOM     20  HN  UNL d   1     -11.003   0.053   4.633  1.00  0.00     0.166 HD
ENDBRANCH   5   8
ENDBRANCH   1   2
BRANCH   1  21
ATOM     21  C   UNL d   1      -5.814   2.525   0.355  0.00  0.00    -0.054 A 
ATOM     22  C   UNL d   1      -5.219   1.463  -0.339  0.00  0.00     0.010 A 
ATOM     23  C   UNL d   1      -3.825   1.323  -0.364  0.00  0.00     0.030 A 
ATOM     24  C   UNL d   1      -2.997   2.233   0.299  0.00  0.00     0.032 A 
ATOM     25  C   UNL d   1      -3.595   3.326   0.930  0.00  0.00     0.030 A 
ATOM     26  C   UNL d   1      -4.985   3.453   0.994  0.00  0.00     0.010 A 
BRANCH  24  27
ATOM     27  N   UNL d   1      -1.605   2.077   0.196  0.00  0.00    -0.351 N 
ATOM     28  C   UNL d   1      -0.820   2.205   1.220  0.00  0.00     0.114 C 
ATOM     29  C   UNL d   1      -1.120   2.504   2.709  0.00  0.00     0.273 C 
ATOM     30  C   UNL d   1       0.643   2.179   1.128  0.00  0.00     0.023 A 
ATOM     31  N   UNL d   1       0.104   2.804   3.271  0.00  0.00    -0.321 N 
ATOM     32  O   UNL d   1      -2.183   2.465   3.286  0.00  0.00    -0.266 OA
ATOM     33  C   UNL d   1       1.133   2.594   2.363  0.00  0.00     0.047 A 
ATOM     34  H   UNL d   1       0.209   3.049   4.244  0.00  0.00     0.169 HD
ATOM     35  C   UNL d   1       2.484   2.739   2.594  0.00  0.00     0.030 A 
ATOM     36  C   UNL d   1       3.352   2.426   1.542  0.00  0.00     0.002 A 
ATOM     37  C   UNL d   1       2.855   1.982   0.299  0.00  0.00     0.001 A 
ATOM     38  C   UNL d   1       1.479   1.863   0.076  0.00  0.00     0.016 A 
ATOM     39  HN  UNL d   1      -1.199   1.856  -0.713  1.00  0.00     0.166 HD
ENDBRANCH  24  27
ENDBRANCH   1  21
TORSDOF 4
