REMARK  7 active torsions:
REMARK  status: ('A' for Active; 'I' for Inactive)
REMARK    1  A    between atoms: N_2  and  C_1 
REMARK    2  A    between atoms: S_4  and  C_1 
REMARK    3  A    between atoms: N_7  and  N_2 
REMARK    4  A    between atoms: C_3  and  C_8 
REMARK    5  A    between atoms: C_6  and  C_3 
REMARK    6  A    between atoms: C_8  and  S_4 
REMARK    7  A    between atoms: C_13  and  N_7 
ROOT
ATOM      1  C   UNL d   1       1.044  -0.149  -0.064  0.00  0.00     0.149 C 
ATOM      2  S   UNL d   1       0.484  -1.724  -0.140  0.00  0.00    -0.052 SA
ENDROOT
BRANCH   1   3
ATOM      3  N   UNL d   1       2.356   0.048   0.340  0.00  0.00    -0.302 N 
ATOM      4  H   UNL d   1       2.819  -0.758   0.753  0.00  0.00     0.182 HD
BRANCH   3   5
ATOM      5  N   UNL d   1       2.784   1.280   0.855  0.00  0.00    -0.204 NA
ATOM      6  H   UNL d   1       2.107   2.036   0.713  0.00  0.00     0.153 HD
BRANCH   5   7
ATOM      7  C   UNL d   1       4.093   1.689   0.505  0.00  0.00     0.027 A 
ATOM      8  C   UNL d   1       5.012   0.890  -0.189  0.00  0.00     0.025 A 
ATOM      9  C   UNL d   1       6.318   1.336  -0.427  0.00  0.00     0.002 A 
ATOM     10  C   UNL d   1       6.734   2.578   0.052  0.00  0.00     0.000 A 
ATOM     11  C   UNL d   1       5.843   3.374   0.764  0.00  0.00     0.002 A 
ATOM     12  C   UNL d   1       4.538   2.930   0.988  0.00  0.00     0.025 A 
ENDBRANCH   5   7
ENDBRANCH   3   5
ENDBRANCH   1   3
BRANCH   1  13
ATOM     13  S   UNL d   1       0.187   1.316  -0.533  0.00  0.00    -0.092 SA
BRANCH  13  14
ATOM     14  C   UNL d   1      -1.524   0.782  -0.822  0.00  0.00     0.165 C 
BRANCH  14  15
ATOM     15  C   UNL d   1      -2.223   0.335   0.449  0.00  0.00     0.169 C 
ATOM     16  O   UNL d   1      -1.916   0.734   1.572  0.00  0.00    -0.291 OA
BRANCH  15  17
ATOM     17  C   UNL d   1      -3.355  -0.627   0.327  0.00  0.00     0.011 A 
ATOM     18  C   UNL d   1      -3.596  -1.502   1.394  0.00  0.00     0.017 A 
ATOM     19  C   UNL d   1      -4.654  -2.413   1.336  0.00  0.00     0.025 A 
ATOM     20  C   UNL d   1      -5.478  -2.442   0.213  0.00  0.00     0.034 A 
ATOM     21  C   UNL d   1      -5.248  -1.573  -0.854  0.00  0.00     0.025 A 
ATOM     22 CL   UNL d   1      -6.795  -3.547   0.148  0.00  0.00    -0.084 Cl
ATOM     23  C   UNL d   1      -4.185  -0.664  -0.802  0.00  0.00     0.017 A 
ENDBRANCH  15  17
ENDBRANCH  14  15
ENDBRANCH  13  14
ENDBRANCH   1  13
TORSDOF 7
