REMARK  0 active torsions:
REMARK  status: ('A' for Active; 'I' for Inactive)
ROOT
ATOM      1  N   UNL d   1      -2.250   0.924   0.024  0.00  0.00    -0.326 N 
ATOM      2  C   UNL d   1      -2.890  -0.310   0.028  0.00  0.00     0.226 A 
ATOM      3  C   UNL d   1      -0.873   0.778   0.020  0.00  0.00     0.041 A 
ATOM      4  C   UNL d   1      -0.546  -0.578   0.019  0.00  0.00    -0.021 A 
ATOM      5  C   UNL d   1      -1.804  -1.393   0.035  0.00  0.00     0.144 A 
ATOM      6  C   UNL d   1       0.775  -0.985   0.007  0.00  0.00     0.033 A 
ATOM      7  O   UNL d   1      -4.096  -0.487   0.028  0.00  0.00    -0.273 OA
ATOM      8  C   UNL d   1       0.081   1.773   0.017  0.00  0.00     0.032 A 
ATOM      9  C   UNL d   1       1.760   0.007   0.003  0.00  0.00     0.034 A 
ATOM     10  C   UNL d   1       1.421   1.373   0.011  0.00  0.00     0.026 A 
ATOM     11 CL   UNL d   1       3.421  -0.449  -0.010  0.00  0.00    -0.084 Cl
ATOM     12  H   UNL d   1      -2.753   1.799   0.020  0.00  0.00     0.169 HD
ENDROOT
TORSDOF 0
