REMARK  3 active torsions:
REMARK  status: ('A' for Active; 'I' for Inactive)
REMARK    1  A    between atoms: C_9  and  C_3 
REMARK    2  A    between atoms: C_8  and  C_7 
REMARK    3  A    between atoms: C_15  and  C_9 
ROOT
ATOM      1  N   UNL d   1       1.306  -1.153  -0.066  0.00  0.00    -0.297 N 
ATOM      2  HN  UNL d   1       1.857  -2.011  -0.063  1.00  0.00     0.187 HD
ATOM      3  C   UNL d   1      -0.231   1.237  -0.060  0.00  0.00     0.019 A 
ATOM      4  N   UNL d   1      -0.057  -1.176  -0.153  0.00  0.00    -0.266 N 
ATOM      5  C   UNL d   1      -0.883  -0.082  -0.214  0.00  0.00     0.266 A 
ATOM      6  C   UNL d   1       1.105   1.284   0.064  0.00  0.00     0.045 A 
ATOM      7  C   UNL d   1       1.866   0.016   0.011  0.00  0.00     0.059 A 
ATOM      8  O   UNL d   1      -2.098  -0.189  -0.366  0.00  0.00    -0.266 OA
ATOM      9  H   UNL d   1      -0.487  -2.091  -0.240  0.00  0.00     0.190 HD
ENDROOT
BRANCH   3  10
ATOM     10  C   UNL d   1      -1.096   2.465  -0.009  0.00  0.00     0.101 C 
BRANCH  10  11
ATOM     11  C   UNL d   1      -0.769   3.460  -1.102  0.00  0.00     0.013 A 
ATOM     12  N   UNL d   1       0.200   4.376  -0.834  0.00  0.00    -0.369 N 
ATOM     13  C   UNL d   1       0.530   5.238  -1.820  0.00  0.00     0.088 A 
ATOM     14  HN  UNL d   1       0.659   4.411   0.077  1.00  0.00     0.165 HD
ATOM     15  C   UNL d   1      -0.046   5.226  -3.078  0.00  0.00     0.017 A 
ATOM     16  C   UNL d   1      -1.031   4.280  -3.339  0.00  0.00     0.003 A 
ATOM     17  C   UNL d   1      -1.400   3.383  -2.341  0.00  0.00     0.025 A 
ENDBRANCH  10  11
ENDBRANCH   3  10
BRANCH   7  18
ATOM     18  C   UNL d   1       3.354   0.119   0.086  0.00  0.00    -0.008 A 
ATOM     19  C   UNL d   1       4.077  -0.936   0.664  0.00  0.00     0.017 A 
ATOM     20  C   UNL d   1       5.468  -0.861   0.769  0.00  0.00     0.043 A 
ATOM     21  C   UNL d   1       6.133   0.262   0.290  0.00  0.00     0.116 A 
ATOM     22  C   UNL d   1       5.436   1.307  -0.305  0.00  0.00     0.043 A 
ATOM     23  F   UNL d   1       7.466   0.337   0.397  0.00  0.00    -0.206 F 
ATOM     24  C   UNL d   1       4.045   1.234  -0.417  0.00  0.00     0.017 A 
ENDBRANCH   7  18
TORSDOF 3
