REMARK  3 active torsions:
REMARK  status: ('A' for Active; 'I' for Inactive)
REMARK    1  A    between atoms: C_7  and  C_1 
REMARK    2  A    between atoms: C_2  and  N_8 
REMARK    3  A    between atoms: N_8  and  C_7 
ROOT
ATOM      1  C   UNL d   1       2.414  -0.553   0.164  0.00  0.00     0.140 C 
ATOM      2  C   UNL d   1       1.278   0.279  -0.026  0.00  0.00     0.112 C 
ATOM      3  C   UNL d   1       3.686   0.048   0.364  0.00  0.00     0.112 C 
ATOM      4  N   UNL d   1       0.338   0.942  -0.170  0.00  0.00    -0.191 NA
ATOM      5  N   UNL d   1       4.737   0.521   0.507  0.00  0.00    -0.191 NA
ENDROOT
BRANCH   1   6
ATOM      6  C   UNL d   1       2.307  -1.894   0.169  0.00  0.00     0.140 C 
BRANCH   6   7
ATOM      7  N   UNL d   1       1.221  -2.699  -0.075  0.00  0.00    -0.200 N 
ATOM      8  H   UNL d   1       0.397  -2.333  -0.536  0.00  0.00     0.183 HD
BRANCH   7   9
ATOM      9  C   UNL d   1       1.208  -4.091  -0.022  0.00  0.00     0.681 A 
ATOM     10  N   UNL d   1       2.136  -4.741   0.701  0.00  0.00    -0.202 N 
ATOM     11  C   UNL d   1       2.067  -6.084   0.725  0.00  0.00     0.107 A 
ATOM     12  HN  UNL d   1       2.862  -4.237   1.211  1.00  0.00     0.183 HD
ATOM     13  C   UNL d   1       1.135  -6.804   0.023  0.00  0.00     0.035 A 
ATOM     14  C   UNL d   1       0.240  -6.054  -0.698  0.00  0.00     0.107 A 
ATOM     15  N   UNL d   1       0.241  -4.707  -0.718  0.00  0.00    -0.202 N 
ATOM     16  HN  UNL d   1      -0.461  -4.180  -1.238  1.00  0.00     0.183 HD
ENDBRANCH   7   9
ENDBRANCH   6   7
ENDBRANCH   1   6
TORSDOF 3
