REMARK  5 active torsions:
REMARK  status: ('A' for Active; 'I' for Inactive)
REMARK    1  A    between atoms: C_2  and  S_1 
REMARK    2  A    between atoms: C_7  and  S_1 
REMARK    3  A    between atoms: C_3  and  C_4 
REMARK    4  A    between atoms: C_16  and  C_7 
REMARK    5  A    between atoms: N_10  and  C_16 
ROOT
ATOM      1  C   UNL d   1       0.734  -2.618   1.456  0.00  0.00     0.137 C 
ENDROOT
BRANCH   1   2
ATOM      2  N   UNL d   1       0.188  -3.270   2.655  0.00  0.00    -0.387 N 
ATOM      3  C   UNL d   1       0.922  -3.436   3.802  0.00  0.00     0.088 C 
ATOM      4  C   UNL d   1       0.453  -3.473   5.049  0.00  0.00     0.051 C 
ATOM      5  C   UNL d   1      -0.939  -3.056   5.420  0.00  0.00     0.113 C 
ATOM      6  N   UNL d   1      -2.007  -3.042   4.714  0.00  0.00    -0.384 N 
ATOM      7  C   UNL d   1      -2.212  -3.369   3.308  0.00  0.00     0.139 C 
ATOM      8  HN  UNL d   1      -2.849  -2.755   5.214  1.00  0.00     0.159 HD
ATOM      9  C   UNL d   1      -1.075  -4.010   2.523  0.00  0.00     0.141 C 
BRANCH   5  10
ATOM     10  C   UNL d   1      -1.056  -2.513   6.864  0.00  0.00     0.432 C 
ATOM     11  F   UNL d   1       0.112  -2.590   7.567  0.00  0.00    -0.165 F 
ATOM     12  F   UNL d   1      -1.412  -1.197   6.883  0.00  0.00    -0.165 F 
ATOM     13  F   UNL d   1      -1.984  -3.179   7.603  0.00  0.00    -0.165 F 
ENDBRANCH   5  10
ENDBRANCH   1   2
BRANCH   1  14
ATOM     14  C   UNL d   1       0.341  -1.147   1.455  0.00  0.00     0.165 C 
BRANCH  14  15
ATOM     15  S   UNL d   1       0.975  -0.361   0.000  0.00  0.00     0.178 S 
ATOM     16  O   UNL d   1       2.427  -0.374   0.122  0.00  0.00    -0.223 OA
ATOM     17  O   UNL d   1       0.345  -0.937  -1.172  0.00  0.00    -0.223 OA
BRANCH  15  18
ATOM     18  C   UNL d   1       0.475   1.348   0.074  0.00  0.00     0.081 A 
ATOM     19  C   UNL d   1      -0.867   1.734   0.077  0.00  0.00     0.057 A 
ATOM     20  C   UNL d   1      -1.196   3.097   0.119  0.00  0.00     0.049 A 
ATOM     21 CL   UNL d   1      -2.197   0.637   0.002  0.00  0.00    -0.083 Cl
ATOM     22  C   UNL d   1      -0.191   4.062   0.123  0.00  0.00     0.035 A 
ATOM     23  C   UNL d   1       1.147   3.684   0.087  0.00  0.00     0.025 A 
ATOM     24 CL   UNL d   1      -0.608   5.729   0.159  0.00  0.00    -0.084 Cl
ATOM     25  C   UNL d   1       1.483   2.328   0.066  0.00  0.00     0.027 A 
ENDBRANCH  15  18
ENDBRANCH  14  15
ENDBRANCH   1  14
TORSDOF 5
