REMARK  4 active torsions:
REMARK  status: ('A' for Active; 'I' for Inactive)
REMARK    1  A    between atoms: O_4  and  C_1 
REMARK    2  A    between atoms: S_2  and  O_4 
REMARK    3  A    between atoms: C_8  and  S_2 
REMARK    4  A    between atoms: C_14  and  N_3 
ROOT
ATOM      1  C   UNL d   1      -0.531  -1.082  -0.233  0.00  0.00     0.184 A 
ATOM      2  N   UNL d   1       0.810  -0.729  -0.064  0.00  0.00    -0.233 N 
ATOM      3  C   UNL d   1      -1.225   0.110  -0.315  0.00  0.00     0.085 A 
ATOM      4  N   UNL d   1       0.936   0.619   0.112  0.00  0.00    -0.296 N 
ATOM      5  HN  UNL d   1       1.785   1.135   0.344  1.00  0.00     0.187 HD
ATOM      6  C   UNL d   1      -0.283   1.121  -0.082  0.00  0.00     0.026 A 
ATOM      7  C   UNL d   1      -0.513   2.583  -0.032  0.00  0.00     0.070 C 
ENDROOT
BRANCH   1   8
ATOM      8  O   UNL d   1      -0.956  -2.348  -0.287  0.00  0.00    -0.209 OA
BRANCH   8   9
ATOM      9  S   UNL d   1      -2.438  -2.779   0.267  0.00  0.00     0.304 S 
ATOM     10  O   UNL d   1      -2.367  -2.918   1.710  0.00  0.00    -0.193 OA
ATOM     11  O   UNL d   1      -3.462  -1.959  -0.352  0.00  0.00    -0.193 OA
BRANCH   9  12
ATOM     12  C   UNL d   1      -2.663  -4.417  -0.401  0.00  0.00     0.088 A 
ATOM     13  C   UNL d   1      -3.139  -4.548  -1.712  0.00  0.00     0.052 A 
ATOM     14  C   UNL d   1      -3.398  -5.821  -2.218  0.00  0.00     0.074 A 
ATOM     15 CL   UNL d   1      -3.991  -5.984  -3.825  0.00  0.00    -0.081 Cl
ATOM     16  C   UNL d   1      -3.185  -6.944  -1.419  0.00  0.00     0.138 A 
ATOM     17  C   UNL d   1      -2.716  -6.812  -0.113  0.00  0.00     0.045 A 
ATOM     18  F   UNL d   1      -3.436  -8.175  -1.890  0.00  0.00    -0.204 F 
ATOM     19  C   UNL d   1      -2.456  -5.542   0.406  0.00  0.00     0.029 A 
ENDBRANCH   9  12
ENDBRANCH   8   9
ENDBRANCH   1   8
BRANCH   2  20
ATOM     20  C   UNL d   1       1.990  -1.537  -0.072  0.00  0.00     0.059 A 
ATOM     21  C   UNL d   1       1.973  -2.889  -0.440  0.00  0.00     0.031 A 
ATOM     22  C   UNL d   1       3.166  -3.619  -0.491  0.00  0.00     0.002 A 
ATOM     23  C   UNL d   1       4.381  -3.015  -0.172  0.00  0.00     0.000 A 
ATOM     24  C   UNL d   1       4.409  -1.677   0.206  0.00  0.00     0.002 A 
ATOM     25  C   UNL d   1       3.223  -0.941   0.255  0.00  0.00     0.031 A 
ENDBRANCH   2  20
TORSDOF 4
