REMARK  6 active torsions:
REMARK  status: ('A' for Active; 'I' for Inactive)
REMARK    1  A    between atoms: O_10  and  C_1 
REMARK       I    between atoms: C_3  and  N_9 
REMARK    2  A    between atoms: O_13  and  C_3 
REMARK    3  A    between atoms: N_7  and  O_13 
REMARK    4  A    between atoms: N_9  and  C_20 
REMARK    5  A    between atoms: C_22  and  O_10 
REMARK    6  A    between atoms: C_21  and  C_19 
ROOT
ATOM      1  O   UNL d   1       3.449  -7.211   6.390  0.00  0.00    -0.181 OA
ENDROOT
BRANCH   1   2
ATOM      2  N   UNL d   1       4.713  -7.838   6.385  0.00  0.00    -0.267 N 
ATOM      3  C   UNL d   1       5.646  -6.944   6.364  0.00  0.00     0.126 C 
ATOM      4  HN  UNL d   1       4.867  -8.847   6.395  1.00  0.00     0.194 HD
BRANCH   3   5
ATOM      5  C   UNL d   1       7.056  -7.367   6.357  0.00  0.00    -0.018 A 
ATOM      6  C   UNL d   1       7.361  -8.732   6.377  0.00  0.00     0.022 A 
ATOM      7  C   UNL d   1       8.688  -9.160   6.389  0.00  0.00    -0.024 A 
ATOM      8  C   UNL d   1       8.986 -10.628   6.407  0.00  0.00     0.044 C 
ATOM      9  C   UNL d   1       9.708  -8.208   6.353  0.00  0.00     0.076 A 
ATOM     10  C   UNL d   1      10.418 -10.861   6.853  0.00  0.00     0.042 C 
ATOM     11  C   UNL d   1      11.383  -9.903   6.137  0.00  0.00     0.061 C 
ATOM     12  O   UNL d   1      11.038  -8.521   6.354  0.00  0.00    -0.340 OA
ATOM     13  C   UNL d   1      12.783 -10.081   6.739  0.00  0.00     0.046 C 
ATOM     14  C   UNL d   1      11.459 -10.164   4.624  0.00  0.00     0.046 C 
ATOM     15  C   UNL d   1       9.402  -6.842   6.338  0.00  0.00     0.038 A 
ATOM     16  C   UNL d   1       8.070  -6.414   6.337  0.00  0.00     0.015 A 
ENDBRANCH   3   5
ENDBRANCH   1   2
BRANCH   1  17
ATOM     17  C   UNL d   1       2.426  -8.152   6.370  0.00  0.00     0.387 C 
ATOM     18  N   UNL d   1       2.888  -9.448   6.326  0.00  0.00    -0.301 N 
ATOM     19  H   UNL d   1       3.903  -9.475   6.335  0.00  0.00     0.171 HD
ATOM     20  O   UNL d   1       1.255  -7.784   6.385  0.00  0.00    -0.236 OA
BRANCH  18  21
ATOM     21  C   UNL d   1       2.164 -10.644   6.274  0.00  0.00     0.037 A 
ATOM     22  C   UNL d   1       0.773 -10.689   6.239  0.00  0.00     0.032 A 
ATOM     23  C   UNL d   1       0.092 -11.909   6.186  0.00  0.00     0.039 A 
ATOM     24  C   UNL d   1       0.797 -13.108   6.222  0.00  0.00     0.078 A 
ATOM     25  C   UNL d   1       2.194 -13.070   6.217  0.00  0.00     0.039 A 
ATOM     26  C   UNL d   1       2.875 -11.847   6.247  0.00  0.00     0.032 A 
BRANCH  24  27
ATOM     27  O   UNL d   1       0.254 -14.355   6.243  0.00  0.00    -0.255 OA
BRANCH  27  28
ATOM     28  C   UNL d   1      -1.068 -14.526   6.739  0.00  0.00     0.530 C 
ATOM     29  F   UNL d   1      -1.491 -13.520   7.533  0.00  0.00    -0.144 F 
ATOM     30  F   UNL d   1      -1.101 -15.661   7.474  0.00  0.00    -0.144 F 
ATOM     31  F   UNL d   1      -1.929 -14.668   5.708  0.00  0.00    -0.144 F 
ENDBRANCH  27  28
ENDBRANCH  24  27
ENDBRANCH  18  21
ENDBRANCH   1  17
TORSDOF 6
