REMARK  2 active torsions:
REMARK  status: ('A' for Active; 'I' for Inactive)
REMARK    1  A    between atoms: C_5  and  C_3 
REMARK    2  A    between atoms: C_12  and  C_4 
ROOT
ATOM      1  N   UNL d   1       1.395  -0.570  -0.147  0.00  0.00    -0.348 N 
ATOM      2  HN  UNL d   1       2.276  -1.068  -0.278  1.00  0.00     0.166 HD
ATOM      3  C   UNL d   1       1.272   0.803  -0.018  0.00  0.00     0.068 A 
ATOM      4  C   UNL d   1       0.204  -1.141  -0.073  0.00  0.00     0.084 A 
ATOM      5  S   UNL d   1      -1.109  -0.039   0.150  0.00  0.00    -0.081 SA
ATOM      6  C   UNL d   1      -0.011   1.270   0.152  0.00  0.00     0.083 A 
ENDROOT
BRANCH   3   7
ATOM      7  C   UNL d   1       2.465   1.675  -0.055  0.00  0.00     0.076 A 
ATOM      8  N   UNL d   1       3.736   1.232  -0.274  0.00  0.00    -0.299 N 
ATOM      9  N   UNL d   1       4.659   2.215  -0.249  0.00  0.00    -0.311 N 
ATOM     10  H   UNL d   1       4.032   0.277  -0.450  0.00  0.00     0.187 HD
ATOM     11  C   UNL d   1       3.937   3.312  -0.006  0.00  0.00     0.109 A 
ATOM     12  HN  UNL d   1       5.667   2.138  -0.383  1.00  0.00     0.186 HD
ATOM     13  C   UNL d   1       2.561   3.037   0.118  0.00  0.00     0.052 A 
ENDBRANCH   3   7
BRANCH   4  14
ATOM     14  C   UNL d   1      -0.035  -2.596  -0.093  0.00  0.00    -0.002 A 
ATOM     15  C   UNL d   1       0.958  -3.463   0.390  0.00  0.00     0.014 A 
ATOM     16  C   UNL d   1       0.748  -4.845   0.434  0.00  0.00     0.001 A 
ATOM     17  C   UNL d   1      -0.456  -5.382  -0.016  0.00  0.00     0.000 A 
ATOM     18  C   UNL d   1      -1.444  -4.542  -0.521  0.00  0.00     0.001 A 
ATOM     19  C   UNL d   1      -1.234  -3.160  -0.563  0.00  0.00     0.014 A 
ENDBRANCH   4  14
TORSDOF 2
