REMARK  7 active torsions:
REMARK  status: ('A' for Active; 'I' for Inactive)
REMARK    1  A    between atoms: C_2  and  C_1 
REMARK    2  A    between atoms: O_3  and  C_1 
REMARK    3  A    between atoms: C_4  and  O_3 
REMARK    4  A    between atoms: O_17  and  C_5 
REMARK    5  A    between atoms: C_12  and  C_18 
REMARK    6  A    between atoms: C_19  and  C_13 
REMARK    7  A    between atoms: C_18  and  C_19 
ROOT
ATOM      1  C   UNL d   1      -0.926   0.357  -1.165  0.00  0.00     0.112 A 
ATOM      2  C   UNL d   1      -1.564   1.009  -0.104  0.00  0.00     0.102 A 
ATOM      3  C   UNL d   1      -2.958   1.173  -0.146  0.00  0.00     0.046 A 
ATOM      4  C   UNL d   1      -1.668  -0.063  -2.276  0.00  0.00     0.041 A 
ATOM      5  C   UNL d   1      -3.716   0.730  -1.242  0.00  0.00    -0.055 A 
ATOM      6  C   UNL d   1      -3.049   0.137  -2.320  0.00  0.00     0.010 A 
ENDROOT
BRANCH   1   7
ATOM      7  O   UNL d   1       0.415  -0.070  -1.013  0.00  0.00    -0.272 OA
BRANCH   7   8
ATOM      8  C   UNL d   1       1.247  -0.131  -2.119  0.00  0.00     0.303 C 
ATOM      9  O   UNL d   1       1.098   0.463  -3.173  0.00  0.00    -0.259 OA
BRANCH   8  10
ATOM     10  C   UNL d   1       2.358  -1.070  -1.854  0.00  0.00     0.100 A 
ATOM     11  C   UNL d   1       3.652  -0.843  -2.340  0.00  0.00     0.053 A 
ATOM     12 CL   UNL d   1       4.131   0.631  -3.102  0.00  0.00    -0.083 Cl
ATOM     13  C   UNL d   1       4.643  -1.827  -2.192  0.00  0.00     0.025 A 
ATOM     14  C   UNL d   1       4.357  -3.032  -1.550  0.00  0.00     0.005 A 
ATOM     15  C   UNL d   1       3.079  -3.254  -1.047  0.00  0.00     0.043 A 
ATOM     16  C   UNL d   1       2.092  -2.282  -1.208  0.00  0.00     0.134 A 
ATOM     17  F   UNL d   1       0.863  -2.570  -0.755  0.00  0.00    -0.205 F 
ENDBRANCH   8  10
ENDBRANCH   7   8
ENDBRANCH   1   7
BRANCH   2  18
ATOM     18  O   UNL d   1      -0.985   1.458   1.053  0.00  0.00    -0.353 OA
ATOM     19  C   UNL d   1       0.349   1.940   0.939  0.00  0.00     0.210 C 
ENDBRANCH   2  18
BRANCH   5  20
ATOM     20  C   UNL d   1      -5.225   0.782  -1.227  0.00  0.00     0.046 C 
BRANCH  20  21
ATOM     21  C   UNL d   1      -5.808   2.191  -1.163  0.00  0.00     0.082 C 
BRANCH  21  22
ATOM     22  C   UNL d   1      -7.328   2.159  -1.183  0.00  0.00     0.123 C 
ATOM     23  O   UNL d   1      -7.971   1.115  -1.272  0.00  0.00    -0.298 OA
ATOM     24  C   UNL d   1      -8.027   3.490  -1.090  0.00  0.00     0.091 C 
ENDBRANCH  21  22
ENDBRANCH  20  21
ENDBRANCH   5  20
TORSDOF 7
