REMARK  4 active torsions:
REMARK  status: ('A' for Active; 'I' for Inactive)
REMARK    1  A    between atoms: C_3  and  C_1 
REMARK       I    between atoms: N_8  and  C_3 
REMARK    2  A    between atoms: C_7  and  N_10 
REMARK    3  A    between atoms: S_13  and  C_7 
REMARK    4  A    between atoms: N_10  and  N_8 
ROOT
ATOM      1  C   UNL d   1      -2.743   1.307   0.043  0.00  0.00     0.288 C 
ATOM      2  N   UNL d   1      -3.895   0.555   0.138  0.00  0.00    -0.263 N 
ATOM      3  O   UNL d   1      -2.759   2.531  -0.039  0.00  0.00    -0.264 OA
ATOM      4  H   UNL d   1      -3.887  -0.458   0.139  0.00  0.00     0.190 HD
ENDROOT
BRANCH   1   5
ATOM      5  C   UNL d   1      -1.525   0.537   0.028  0.00  0.00     0.119 A 
ATOM      6  N   UNL d   1      -0.291   1.130   0.006  0.00  0.00    -0.295 N 
ATOM      7  N   UNL d   1       0.734   0.261  -0.008  0.00  0.00    -0.305 N 
ATOM      8  H   UNL d   1      -0.091   2.126  -0.001  0.00  0.00     0.187 HD
ATOM      9  C   UNL d   1       0.143  -0.938   0.000  0.00  0.00     0.024 A 
ATOM     10  HN  UNL d   1       1.732   0.469  -0.022  1.00  0.00     0.186 HD
ATOM     11  C   UNL d   1      -1.265  -0.820   0.020  0.00  0.00     0.062 A 
ATOM     12  C   UNL d   1       0.955  -2.179  -0.007  0.00  0.00     0.070 C 
ENDBRANCH   1   5
BRANCH   2  13
ATOM     13  N   UNL d   1      -5.147   1.177   0.012  0.00  0.00    -0.282 N 
ATOM     14  H   UNL d   1      -5.148   2.144  -0.311  0.00  0.00     0.188 HD
BRANCH  13  15
ATOM     15  C   UNL d   1      -6.311   0.435  -0.037  0.00  0.00     0.152 C 
ATOM     16  S   UNL d   1      -6.413  -1.167   0.438  0.00  0.00    -0.051 SA
BRANCH  15  17
ATOM     17  S   UNL d   1      -7.587   1.444  -0.691  0.00  0.00    -0.104 SA
ATOM     18  C   UNL d   1      -9.005   0.335  -0.812  0.00  0.00     0.098 C 
ENDBRANCH  15  17
ENDBRANCH  13  15
ENDBRANCH   2  13
TORSDOF 4
