REMARK  6 active torsions:
REMARK  status: ('A' for Active; 'I' for Inactive)
REMARK       I    between atoms: N_4  and  C_1 
REMARK       I    between atoms: N_6  and  C_1 
REMARK    1  A    between atoms: C_7  and  N_2 
REMARK    2  A    between atoms: N_3  and  C_21 
REMARK    3  A    between atoms: C_8  and  N_4 
REMARK    4  A    between atoms: C_18  and  N_6 
REMARK    5  A    between atoms: C_15  and  C_7 
REMARK    6  A    between atoms: C_21  and  C_18 
ROOT
ATOM      1  C   UNL d   1       4.145  -0.863  -1.290  0.00  0.00     0.154 C 
ENDROOT
BRANCH   1   2
ATOM      2  N   UNL d   1       3.341  -1.750  -0.443  0.00  0.00    -0.341 N 
ATOM      3  C   UNL d   1       2.058  -1.402  -0.081  0.00  0.00     0.320 C 
ATOM      4  N   UNL d   1       1.354  -2.436   0.507  0.00  0.00    -0.309 N 
ATOM      5  O   UNL d   1       1.623  -0.281  -0.335  0.00  0.00    -0.247 OA
ATOM      6  H   UNL d   1       1.795  -3.341   0.512  0.00  0.00     0.170 HD
ATOM      7  H   UNL d   1       3.775  -2.567  -0.044  0.00  0.00     0.164 HD
BRANCH   4   8
ATOM      8  C   UNL d   1      -0.015  -2.395   0.900  0.00  0.00     0.036 A 
ATOM      9  C   UNL d   1      -0.776  -1.217   0.901  0.00  0.00     0.032 A 
ATOM     10  C   UNL d   1      -2.135  -1.234   1.224  0.00  0.00     0.044 A 
ATOM     11  C   UNL d   1      -2.743  -2.431   1.565  0.00  0.00     0.116 A 
ATOM     12  C   UNL d   1      -2.007  -3.607   1.616  0.00  0.00     0.044 A 
ATOM     13  F   UNL d   1      -4.053  -2.451   1.843  0.00  0.00    -0.206 F 
ATOM     14  C   UNL d   1      -0.645  -3.589   1.289  0.00  0.00     0.032 A 
ENDBRANCH   4   8
ENDBRANCH   1   2
BRANCH   1  15
ATOM     15  C   UNL d   1       4.632   0.438  -0.597  0.00  0.00     0.292 C 
BRANCH  15  16
ATOM     16  N   UNL d   1       5.507   1.299  -1.431  0.00  0.00     0.093 N 
ATOM     17  C   UNL d   1       4.828   1.877  -2.616  0.00  0.00     0.302 C 
ATOM     18  C   UNL d   1       3.879   3.081  -2.353  0.00  0.00     0.303 C 
ATOM     19  N   UNL d   1       4.453   4.175  -1.527  0.00  0.00     0.096 N 
ATOM     20  C   UNL d   1       5.075   3.567  -0.333  0.00  0.00     0.303 C 
ATOM     21  C   UNL d   1       6.071   2.419  -0.636  0.00  0.00     0.302 C 
BRANCH  19  22
ATOM     22  C   UNL d   1       5.378   4.985  -2.342  0.00  0.00     0.311 C 
BRANCH  22  23
ATOM     23  C   UNL d   1       6.029   6.162  -1.642  0.00  0.00    -0.030 A 
ATOM     24  C   UNL d   1       7.426   6.224  -1.520  0.00  0.00     0.009 A 
ATOM     25  C   UNL d   1       8.044   7.328  -0.927  0.00  0.00     0.001 A 
ATOM     26  C   UNL d   1       7.274   8.388  -0.459  0.00  0.00     0.000 A 
ATOM     27  C   UNL d   1       5.885   8.347  -0.584  0.00  0.00     0.001 A 
ATOM     28  C   UNL d   1       5.265   7.238  -1.167  0.00  0.00     0.009 A 
ENDBRANCH  22  23
ENDBRANCH  19  22
ENDBRANCH  15  16
ENDBRANCH   1  15
TORSDOF 6
