REMARK  8 active torsions:
REMARK  status: ('A' for Active; 'I' for Inactive)
REMARK    1  A    between atoms: C_6  and  N_1 
REMARK    2  A    between atoms: C_11  and  C_2 
REMARK    3  A    between atoms: C_8  and  C_3 
REMARK    4  A    between atoms: O_23  and  C_8 
REMARK    5  A    between atoms: C_10  and  N_18 
REMARK    6  A    between atoms: N_16  and  C_10 
REMARK    7  A    between atoms: N_18  and  N_12 
REMARK    8  A    between atoms: C_24  and  N_16 
ROOT
ATOM      1  N   UNL d   1       0.338  -0.713   0.027  0.00  0.00    -0.251 N 
ATOM      2  C   UNL d   1       0.683   0.638  -0.079  0.00  0.00     0.091 A 
ATOM      3  C   UNL d   1      -0.524   1.344  -0.029  0.00  0.00     0.086 A 
ATOM      4  N   UNL d   1      -0.993  -0.848   0.276  0.00  0.00    -0.303 N 
ATOM      5  HN  UNL d   1      -1.494  -1.710   0.490  1.00  0.00     0.186 HD
ATOM      6  C   UNL d   1      -1.503   0.368   0.184  0.00  0.00     0.127 A 
ENDROOT
BRANCH   2   7
ATOM      7  C   UNL d   1       1.985   1.251  -0.129  0.00  0.00     0.139 C 
ATOM      8  N   UNL d   1       3.012   0.782   0.504  0.00  0.00    -0.307 N 
ATOM      9  HN  UNL d   1       3.020  -0.139   0.941  1.00  0.00     0.186 HD
BRANCH   8  10
ATOM     10  N   UNL d   1       4.094   1.636   0.537  0.00  0.00    -0.276 N 
ATOM     11  H   UNL d   1       4.034   2.538   0.081  0.00  0.00     0.189 HD
BRANCH  10  12
ATOM     12  C   UNL d   1       5.228   1.350   1.245  0.00  0.00     0.191 C 
ATOM     13  S   UNL d   1       5.771  -0.201   1.583  0.00  0.00    -0.039 SA
BRANCH  12  14
ATOM     14  N   UNL d   1       5.998   2.389   1.693  0.00  0.00    -0.332 N 
ATOM     15  H   UNL d   1       6.886   2.051   2.055  0.00  0.00     0.168 HD
BRANCH  14  16
ATOM     16  C   UNL d   1       5.689   3.718   2.077  0.00  0.00     0.034 A 
ATOM     17  C   UNL d   1       6.709   4.422   2.741  0.00  0.00     0.029 A 
ATOM     18  C   UNL d   1       6.485   5.691   3.284  0.00  0.00     0.002 A 
ATOM     19  C   UNL d   1       5.240   6.293   3.146  0.00  0.00     0.000 A 
ATOM     20  C   UNL d   1       4.228   5.624   2.464  0.00  0.00     0.002 A 
ATOM     21  C   UNL d   1       4.445   4.339   1.945  0.00  0.00     0.029 A 
ENDBRANCH  14  16
ENDBRANCH  12  14
ENDBRANCH  10  12
ENDBRANCH   8  10
ENDBRANCH   2   7
BRANCH   1  22
ATOM     22  C   UNL d   1       1.059  -1.904  -0.282  0.00  0.00     0.095 A 
ATOM     23  C   UNL d   1       0.548  -3.148   0.141  0.00  0.00     0.147 A 
ATOM     24  C   UNL d   1       1.085  -4.349  -0.313  0.00  0.00     0.087 A 
ATOM     25  F   UNL d   1      -0.467  -3.237   1.014  0.00  0.00    -0.203 F 
ATOM     26  C   UNL d   1       2.153  -4.315  -1.190  0.00  0.00     0.119 A 
ATOM     27  C   UNL d   1       2.712  -3.102  -1.588  0.00  0.00     0.045 A 
ATOM     28  F   UNL d   1       2.647  -5.462  -1.672  0.00  0.00    -0.206 F 
ATOM     29  C   UNL d   1       2.175  -1.892  -1.131  0.00  0.00     0.038 A 
ENDBRANCH   1  22
BRANCH   3  30
ATOM     30  C   UNL d   1      -0.731   2.779  -0.096  0.00  0.00     0.296 C 
ATOM     31  O   UNL d   1       0.173   3.592  -0.215  0.00  0.00    -0.259 OA
BRANCH  30  32
ATOM     32  O   UNL d   1      -2.054   3.099  -0.004  0.00  0.00    -0.322 OA
ATOM     33  C   UNL d   1      -2.335   4.498  -0.019  0.00  0.00     0.213 C 
ENDBRANCH  30  32
ENDBRANCH   3  30
TORSDOF 8
