REMARK  8 active torsions:
REMARK  status: ('A' for Active; 'I' for Inactive)
REMARK    1  A    between atoms: C_7  and  C_1 
REMARK    2  A    between atoms: C_8  and  C_2 
REMARK    3  A    between atoms: N_12  and  C_3 
REMARK    4  A    between atoms: N_11  and  C_4 
REMARK    5  A    between atoms: O_14  and  C_7 
REMARK    6  A    between atoms: O_13  and  C_8 
REMARK    7  A    between atoms: C_16  and  O_13 
REMARK    8  A    between atoms: C_15  and  O_14 
ROOT
ATOM      1  C   UNL d   1       0.476  -1.361  -0.063  0.00  0.00     0.039 C 
ATOM      2  C   UNL d   1      -0.303   1.390  -0.030  0.00  0.00     0.039 C 
ATOM      3  C   UNL d   1       1.022   1.138   0.003  0.00  0.00    -0.000 C 
ATOM      4  C   UNL d   1      -0.850  -1.111  -0.036  0.00  0.00    -0.000 C 
ATOM      5  C   UNL d   1       1.528  -0.295   0.075  0.00  0.00     0.098 C 
ATOM      6  C   UNL d   1      -1.355   0.316   0.078  0.00  0.00     0.098 C 
ENDROOT
BRANCH   1   7
ATOM      7  C   UNL d   1       0.957  -2.761  -0.212  0.00  0.00     0.291 C 
ATOM      8  O   UNL d   1       0.282  -3.683  -0.651  0.00  0.00    -0.260 OA
BRANCH   7   9
ATOM      9  O   UNL d   1       2.218  -2.867   0.276  0.00  0.00    -0.318 OA
BRANCH   9  10
ATOM     10  C   UNL d   1       2.636  -4.202   0.587  0.00  0.00     0.174 C 
ATOM     11  C   UNL d   1       2.217  -4.499   2.015  0.00  0.00     0.034 C 
ENDBRANCH   9  10
ENDBRANCH   7   9
ENDBRANCH   1   7
BRANCH   4  12
ATOM     12  N   UNL d   1      -1.841  -2.079  -0.088  0.00  0.00    -0.305 NA
ATOM     13  H   UNL d   1      -1.506  -2.986  -0.437  0.00  0.00     0.124 HD
ATOM     14  H   UNL d   1      -2.705  -1.790  -0.534  0.00  0.00     0.124 HD
ENDBRANCH   4  12
BRANCH   3  15
ATOM     15  N   UNL d   1       2.021   2.102  -0.033  0.00  0.00    -0.305 NA
ATOM     16  H   UNL d   1       1.696   3.003  -0.392  0.00  0.00     0.124 HD
ATOM     17  H   UNL d   1       2.887   1.803  -0.475  0.00  0.00     0.124 HD
ENDBRANCH   3  15
BRANCH   2  18
ATOM     18  C   UNL d   1      -0.916   2.732  -0.240  0.00  0.00     0.291 C 
ATOM     19  O   UNL d   1      -2.094   2.975  -0.022  0.00  0.00    -0.260 OA
BRANCH  18  20
ATOM     20  O   UNL d   1      -0.047   3.557  -0.887  0.00  0.00    -0.318 OA
BRANCH  20  21
ATOM     21  C   UNL d   1      -0.649   4.623  -1.633  0.00  0.00     0.174 C 
ATOM     22  C   UNL d   1      -0.949   4.101  -3.026  0.00  0.00     0.034 C 
ENDBRANCH  20  21
ENDBRANCH  18  20
ENDBRANCH   2  18
TORSDOF 8
