REMARK  5 active torsions:
REMARK  status: ('A' for Active; 'I' for Inactive)
REMARK    1  A    between atoms: C_7  and  C_1 
REMARK    2  A    between atoms: C_9  and  C_6 
REMARK    3  A    between atoms: C_8  and  C_12 
REMARK    4  A    between atoms: C_13  and  C_8 
REMARK    5  A    between atoms: C_19  and  C_13 
ROOT
ATOM      1  C   UNL d   1       6.681   4.285   0.487  0.00  0.00     0.096 C 
ATOM      2  C   UNL d   1       7.866   4.651   1.185  0.00  0.00     0.103 C 
ATOM      3  N   UNL d   1       8.838   4.973   1.732  0.00  0.00    -0.191 NA
ENDROOT
BRANCH   1   4
ATOM      4  C   UNL d   1       5.437   4.438   0.980  0.00  0.00     0.045 C 
ATOM      5  C   UNL d   1       5.134   5.135   2.193  0.00  0.00     0.007 A 
ATOM      6  S   UNL d   1       3.812   4.615   3.179  0.00  0.00    -0.088 SA
ATOM      7  C   UNL d   1       5.712   6.271   2.738  0.00  0.00     0.020 A 
ATOM      8  C   UNL d   1       3.997   5.917   4.267  0.00  0.00     0.033 A 
ATOM      9  C   UNL d   1       5.068   6.712   3.926  0.00  0.00     0.023 A 
BRANCH   8  10
ATOM     10  C   UNL d   1       3.104   6.218   5.434  0.00  0.00     0.067 A 
ATOM     11  C   UNL d   1       2.061   5.428   5.954  0.00  0.00     0.068 A 
ATOM     12  C   UNL d   1       1.514   6.163   6.996  0.00  0.00     0.136 A 
ATOM     13  N   UNL d   1       2.210   7.341   7.010  0.00  0.00    -0.292 N 
ATOM     14  N   UNL d   1       3.218   7.364   6.115  0.00  0.00    -0.297 N 
ATOM     15  C   UNL d   1       1.998   8.559   7.758  0.00  0.00     0.178 C 
ATOM     16  HN  UNL d   1       3.916   8.096   5.985  1.00  0.00     0.187 HD
BRANCH  12  17
ATOM     17  C   UNL d   1       0.402   5.805   7.899  0.00  0.00     0.434 C 
ATOM     18  F   UNL d   1       0.158   6.708   8.875  0.00  0.00    -0.165 F 
ATOM     19  F   UNL d   1      -0.758   5.655   7.211  0.00  0.00    -0.165 F 
ATOM     20  F   UNL d   1       0.640   4.622   8.523  0.00  0.00    -0.165 F 
ENDBRANCH  12  17
ENDBRANCH   8  10
ENDBRANCH   1   4
BRANCH   1  21
ATOM     21  C   UNL d   1       6.810   3.662  -0.870  0.00  0.00     0.202 C 
ATOM     22  O   UNL d   1       5.995   2.845  -1.287  0.00  0.00    -0.286 OA
BRANCH  21  23
ATOM     23  C   UNL d   1       7.972   4.048  -1.722  0.00  0.00     0.015 A 
ATOM     24  C   UNL d   1       8.598   3.062  -2.492  0.00  0.00     0.015 A 
ATOM     25  C   UNL d   1       9.716   3.383  -3.266  0.00  0.00     0.001 A 
ATOM     26  C   UNL d   1      10.203   4.690  -3.285  0.00  0.00     0.000 A 
ATOM     27  C   UNL d   1       9.559   5.684  -2.550  0.00  0.00     0.001 A 
ATOM     28  C   UNL d   1       8.437   5.370  -1.781  0.00  0.00     0.015 A 
ENDBRANCH  21  23
ENDBRANCH   1  21
TORSDOF 5
