REMARK  6 active torsions:
REMARK  status: ('A' for Active; 'I' for Inactive)
REMARK    1  A    between atoms: O_25  and  C_1 
REMARK    2  A    between atoms: C_2  and  O_26 
REMARK    3  A    between atoms: C_19  and  N_13 
REMARK    4  A    between atoms: N_14  and  C_20 
REMARK    5  A    between atoms: C_33  and  O_25 
REMARK    6  A    between atoms: O_26  and  C_34 
ROOT
ATOM      1  N   UNL d   1       3.371   5.773   4.151  0.00  0.00    -0.378 N 
ATOM      2  N   UNL d   1       4.840   4.419   2.099  0.00  0.00    -0.378 N 
ATOM      3  C   UNL d   1       4.300   5.773   1.845  0.00  0.00     0.143 C 
ATOM      4  C   UNL d   1       3.880   4.409   4.392  0.00  0.00     0.143 C 
ATOM      5  C   UNL d   1       3.069   6.068   2.740  0.00  0.00     0.143 C 
ATOM      6  C   UNL d   1       5.122   4.133   3.519  0.00  0.00     0.143 C 
ENDROOT
BRANCH   1   7
ATOM      7  C   UNL d   1       3.208   6.699   5.157  0.00  0.00     0.032 A 
ATOM      8  C   UNL d   1       4.075   6.740   6.260  0.00  0.00     0.066 A 
ATOM      9  C   UNL d   1       3.909   7.664   7.299  0.00  0.00     0.080 A 
ATOM     10  C   UNL d   1       2.883   8.602   7.236  0.00  0.00     0.037 A 
ATOM     11  C   UNL d   1       2.014   8.593   6.151  0.00  0.00     0.005 A 
ATOM     12  C   UNL d   1       2.179   7.652   5.128  0.00  0.00     0.029 A 
BRANCH   9  13
ATOM     13  O   UNL d   1       4.779   7.766   8.359  0.00  0.00    -0.288 OA
BRANCH  13  14
ATOM     14  C   UNL d   1       5.353   6.689   8.901  0.00  0.00     0.193 A 
ATOM     15  N   UNL d   1       4.851   5.477   8.843  0.00  0.00    -0.328 N 
ATOM     16  C   UNL d   1       5.676   4.577   9.504  0.00  0.00     0.074 A 
ATOM     17  HN  UNL d   1       3.976   5.231   8.378  1.00  0.00     0.168 HD
ATOM     18  C   UNL d   1       5.501   3.185   9.665  0.00  0.00     0.063 A 
ATOM     19  C   UNL d   1       6.822   5.146  10.070  0.00  0.00     0.039 A 
ATOM     20  C   UNL d   1       6.421   2.400  10.355  0.00  0.00     0.050 A 
ATOM     21 CL   UNL d   1       4.097   2.509   8.959  0.00  0.00    -0.082 Cl
ATOM     22  C   UNL d   1       7.548   3.003  10.895  0.00  0.00     0.037 A 
ATOM     23  C   UNL d   1       7.774   4.377  10.764  0.00  0.00     0.045 A 
ATOM     24 CL   UNL d   1       8.696   2.042  11.746  0.00  0.00    -0.084 Cl
ATOM     25  S   UNL d   1       6.819   6.843   9.769  0.00  0.00    -0.044 SA
ENDBRANCH  13  14
ENDBRANCH   9  13
ENDBRANCH   1   7
BRANCH   2  26
ATOM     26  C   UNL d   1       4.972   3.488   1.089  0.00  0.00     0.032 A 
ATOM     27  C   UNL d   1       5.258   3.883  -0.227  0.00  0.00     0.066 A 
ATOM     28  C   UNL d   1       5.356   2.963  -1.278  0.00  0.00     0.080 A 
ATOM     29  C   UNL d   1       5.227   1.603  -1.023  0.00  0.00     0.037 A 
ATOM     30  C   UNL d   1       4.962   1.176   0.275  0.00  0.00     0.005 A 
ATOM     31  C   UNL d   1       4.832   2.111   1.311  0.00  0.00     0.029 A 
BRANCH  28  32
ATOM     32  O   UNL d   1       5.670   3.332  -2.566  0.00  0.00    -0.288 OA
BRANCH  32  33
ATOM     33  C   UNL d   1       5.207   4.469  -3.096  0.00  0.00     0.193 A 
ATOM     34  N   UNL d   1       4.098   5.060  -2.715  0.00  0.00    -0.328 N 
ATOM     35  C   UNL d   1       3.897   6.226  -3.441  0.00  0.00     0.074 A 
ATOM     36  HN  UNL d   1       3.473   4.712  -1.989  1.00  0.00     0.168 HD
ATOM     37  C   UNL d   1       2.839   7.156  -3.329  0.00  0.00     0.063 A 
ATOM     38  C   UNL d   1       4.886   6.496  -4.394  0.00  0.00     0.039 A 
ATOM     39  C   UNL d   1       2.772   8.299  -4.122  0.00  0.00     0.050 A 
ATOM     40 CL   UNL d   1       1.646   6.810  -2.153  0.00  0.00    -0.082 Cl
ATOM     41  C   UNL d   1       3.779   8.533  -5.048  0.00  0.00     0.037 A 
ATOM     42  C   UNL d   1       4.849   7.646  -5.204  0.00  0.00     0.045 A 
ATOM     43 CL   UNL d   1       3.714   9.948  -6.027  0.00  0.00    -0.084 Cl
ATOM     44  S   UNL d   1       6.054   5.230  -4.372  0.00  0.00    -0.044 SA
ENDBRANCH  32  33
ENDBRANCH  28  32
ENDBRANCH   2  26
TORSDOF 6
