REMARK  4 active torsions:
REMARK  status: ('A' for Active; 'I' for Inactive)
REMARK    1  A    between atoms: C_7  and  C_2 
REMARK    2  A    between atoms: C_11  and  C_3 
REMARK    3  A    between atoms: C_4  and  C_13 
REMARK       I    between atoms: N_10  and  C_7 
REMARK    4  A    between atoms: C_13  and  N_10 
ROOT
ATOM      1  C   UNL d   1      -0.251   2.514  -0.017  0.00  0.00     0.258 C 
ATOM      2  N   UNL d   1      -1.503   3.079   0.145  0.00  0.00    -0.352 N 
ATOM      3  O   UNL d   1      -0.116   1.302  -0.149  0.00  0.00    -0.267 OA
ATOM      4  H   UNL d   1      -1.589   4.079   0.016  0.00  0.00     0.163 HD
ENDROOT
BRANCH   1   5
ATOM      5  C   UNL d   1       0.872   3.444  -0.072  0.00  0.00     0.073 A 
ATOM      6  S   UNL d   1       0.791   5.014   0.597  0.00  0.00    -0.083 SA
ATOM      7  C   UNL d   1       2.423   5.380   0.187  0.00  0.00     0.032 A 
ATOM      8  C   UNL d   1       2.997   4.320  -0.491  0.00  0.00     0.023 A 
ATOM      9  C   UNL d   1       2.119   3.202  -0.616  0.00  0.00     0.026 A 
BRANCH   7  10
ATOM     10  C   UNL d   1       3.011   6.689   0.514  0.00  0.00     0.049 A 
ATOM     11  N   UNL d   1       3.946   7.125  -0.367  0.00  0.00    -0.365 N 
ATOM     12  C   UNL d   1       4.483   8.347  -0.149  0.00  0.00     0.088 A 
ATOM     13  HN  UNL d   1       4.232   6.554  -1.163  1.00  0.00     0.165 HD
ATOM     14  C   UNL d   1       4.142   9.163   0.917  0.00  0.00     0.017 A 
ATOM     15  C   UNL d   1       3.208   8.690   1.828  0.00  0.00     0.004 A 
ATOM     16  C   UNL d   1       2.639   7.434   1.631  0.00  0.00     0.031 A 
ENDBRANCH   7  10
ENDBRANCH   1   5
BRANCH   2  17
ATOM     17  C   UNL d   1      -2.697   2.275   0.018  0.00  0.00     0.164 C 
BRANCH  17  18
ATOM     18  C   UNL d   1      -3.994   3.052   0.078  0.00  0.00    -0.004 A 
ATOM     19  C   UNL d   1      -4.170   4.321  -0.504  0.00  0.00     0.088 A 
ATOM     20  C   UNL d   1      -5.407   4.985  -0.439  0.00  0.00     0.003 A 
ATOM     21  O   UNL d   1      -3.088   4.902  -1.116  0.00  0.00    -0.325 OA
ATOM     22  C   UNL d   1      -5.558   6.349  -1.041  0.00  0.00     0.212 C 
ATOM     23  C   UNL d   1      -6.501   4.351   0.158  0.00  0.00     0.054 A 
ATOM     24  O   UNL d   1      -4.286   6.955  -1.235  0.00  0.00    -0.362 OA
ATOM     25  C   UNL d   1      -3.422   6.046  -1.902  0.00  0.00     0.345 C 
ATOM     26  C   UNL d   1      -6.345   3.082   0.697  0.00  0.00     0.117 A 
ATOM     27  C   UNL d   1      -5.115   2.432   0.660  0.00  0.00     0.054 A 
ATOM     28  F   UNL d   1      -7.399   2.471   1.255  0.00  0.00    -0.206 F 
ENDBRANCH  17  18
ENDBRANCH   2  17
TORSDOF 4
