REMARK  6 active torsions:
REMARK  status: ('A' for Active; 'I' for Inactive)
REMARK       I    between atoms: N_2  and  C_1 
REMARK    1  A    between atoms: C_3  and  C_1 
REMARK       I    between atoms: C_4  and  N_2 
REMARK       I    between atoms: N_6  and  C_4 
REMARK    2  A    between atoms: C_5  and  N_6 
REMARK    3  A    between atoms: O_13  and  C_8 
REMARK    4  A    between atoms: O_14  and  C_9 
REMARK    5  A    between atoms: O_15  and  C_10 
REMARK    6  A    between atoms: O_16  and  C_11 
ROOT
ATOM      1  C   UNL d   1       0.603   0.177  -0.156  0.00  0.00     0.265 C 
ATOM      2  N   UNL d   1       0.209  -0.943  -0.886  0.00  0.00    -0.275 N 
ATOM      3  C   UNL d   1       0.883  -2.101  -1.215  0.00  0.00     0.327 C 
ATOM      4  N   UNL d   1       2.158  -2.228  -0.712  0.00  0.00    -0.304 N 
ATOM      5  O   UNL d   1       1.644   0.230   0.487  0.00  0.00    -0.267 OA
ATOM      6  O   UNL d   1       0.309  -2.930  -1.919  0.00  0.00    -0.247 OA
ATOM      7  H   UNL d   1      -0.723  -0.937  -1.272  0.00  0.00     0.173 HD
ATOM      8  H   UNL d   1       2.290  -1.728   0.160  0.00  0.00     0.171 HD
ENDROOT
BRANCH   1   9
ATOM      9  C   UNL d   1      -0.383   1.313  -0.181  0.00  0.00     0.099 A 
ATOM     10  C   UNL d   1      -1.755   1.073   0.057  0.00  0.00     0.086 A 
ATOM     11  C   UNL d   1      -2.676   2.123  -0.043  0.00  0.00     0.038 A 
ATOM     12  C   UNL d   1      -2.248   3.410  -0.349  0.00  0.00     0.005 A 
ATOM     13  C   UNL d   1      -0.894   3.662  -0.545  0.00  0.00     0.038 A 
ATOM     14  C   UNL d   1       0.054   2.629  -0.447  0.00  0.00     0.086 A 
BRANCH  10  15
ATOM     15  O   UNL d   1      -2.137  -0.213   0.357  0.00  0.00    -0.355 OA
ATOM     16  C   UNL d   1      -3.347  -0.350   1.099  0.00  0.00     0.210 C 
ENDBRANCH  10  15
BRANCH  14  17
ATOM     17  O   UNL d   1       1.392   2.842  -0.658  0.00  0.00    -0.355 OA
ATOM     18  C   UNL d   1       1.853   4.181  -0.476  0.00  0.00     0.210 C 
ENDBRANCH  14  17
ENDBRANCH   1   9
BRANCH   4  19
ATOM     19  C   UNL d   1       2.867  -3.440  -0.908  0.00  0.00     0.103 A 
ATOM     20  C   UNL d   1       3.534  -3.641  -2.143  0.00  0.00     0.097 A 
ATOM     21  C   UNL d   1       4.164  -4.860  -2.428  0.00  0.00     0.039 A 
ATOM     22  C   UNL d   1       4.172  -5.884  -1.491  0.00  0.00     0.006 A 
ATOM     23  C   UNL d   1       3.551  -5.682  -0.262  0.00  0.00     0.039 A 
ATOM     24  C   UNL d   1       2.905  -4.470   0.055  0.00  0.00     0.097 A 
BRANCH  20  25
ATOM     25  O   UNL d   1       3.622  -2.734  -3.173  0.00  0.00    -0.354 OA
ATOM     26  C   UNL d   1       3.955  -1.403  -2.791  0.00  0.00     0.210 C 
ENDBRANCH  20  25
BRANCH  24  27
ATOM     27  O   UNL d   1       2.358  -4.542   1.308  0.00  0.00    -0.354 OA
ATOM     28  C   UNL d   1       1.599  -3.477   1.840  0.00  0.00     0.210 C 
ENDBRANCH  24  27
ENDBRANCH   4  19
TORSDOF 6
