REMARK  3 active torsions:
REMARK  status: ('A' for Active; 'I' for Inactive)
REMARK    1  A    between atoms: C_2  and  S_1 
REMARK    2  A    between atoms: O_8  and  S_1 
REMARK    3  A    between atoms: C_11  and  O_8 
ROOT
ATOM      1  S   UNL d   1       0.792   0.026   0.125  0.00  0.00     0.307 S 
ATOM      2  O   UNL d   1       0.113  -1.008  -0.626  0.00  0.00    -0.193 OA
ATOM      3  O   UNL d   1       2.233   0.095   0.241  0.00  0.00    -0.193 OA
ENDROOT
BRANCH   1   4
ATOM      4  C   UNL d   1       0.253  -0.137   1.736  0.00  0.00     0.142 A 
ATOM      5  C   UNL d   1       0.575   0.681   2.793  0.00  0.00     0.098 A 
ATOM      6  O   UNL d   1      -0.048   0.220   3.909  0.00  0.00    -0.241 OA
ATOM      7  C   UNL d   1       1.411   1.882   2.978  0.00  0.00     0.081 C 
ATOM      8  N   UNL d   1      -0.783  -0.907   3.598  0.00  0.00    -0.264 N 
ATOM      9  C   UNL d   1      -0.594  -1.124   2.288  0.00  0.00     0.055 A 
ATOM     10  HN  UNL d   1      -1.354  -1.461   4.235  1.00  0.00     0.194 HD
ATOM     11  C   UNL d   1      -1.252  -2.288   1.647  0.00  0.00     0.072 C 
ENDBRANCH   1   4
BRANCH   1  12
ATOM     12  O   UNL d   1       0.176   1.484  -0.253  0.00  0.00    -0.229 OA
BRANCH  12  13
ATOM     13  C   UNL d   1       0.494   2.141  -1.415  0.00  0.00     0.089 A 
ATOM     14  C   UNL d   1       1.239   1.611  -2.469  0.00  0.00     0.038 A 
ATOM     15  C   UNL d   1       1.507   2.394  -3.597  0.00  0.00     0.003 A 
ATOM     16  C   UNL d   1       1.028   3.700  -3.679  0.00  0.00     0.000 A 
ATOM     17  C   UNL d   1       0.272   4.227  -2.634  0.00  0.00     0.003 A 
ATOM     18  C   UNL d   1       0.005   3.448  -1.507  0.00  0.00     0.038 A 
ENDBRANCH  12  13
ENDBRANCH   1  12
TORSDOF 3
