REMARK  6 active torsions:
REMARK  status: ('A' for Active; 'I' for Inactive)
REMARK    1  A    between atoms: C_10  and  C_1 
REMARK       I    between atoms: C_6  and  N_2 
REMARK    2  A    between atoms: C_8  and  C_3 
REMARK       I    between atoms: N_9  and  C_6 
REMARK    3  A    between atoms: O_14  and  C_8 
REMARK    4  A    between atoms: C_13  and  N_9 
REMARK    5  A    between atoms: O_15  and  C_10 
REMARK    6  A    between atoms: O_16  and  C_10 
ROOT
ATOM      1  C   UNL d   1       0.902  -0.837  -0.164  0.00  0.00     0.111 A 
ATOM      2  N   UNL d   1       0.828   0.536  -0.448  0.00  0.00    -0.204 N 
ATOM      3  C   UNL d   1      -0.414  -1.265   0.037  0.00  0.00     0.086 A 
ATOM      4  N   UNL d   1      -0.471   0.956  -0.490  0.00  0.00    -0.300 N 
ATOM      5  HN  UNL d   1      -0.813   1.894  -0.697  1.00  0.00     0.186 HD
ATOM      6  C   UNL d   1       1.830   1.532  -0.615  0.00  0.00     0.346 C 
ATOM      7  C   UNL d   1      -1.194  -0.119  -0.203  0.00  0.00     0.127 A 
ATOM      8  N   UNL d   1       2.937   1.174  -1.348  0.00  0.00    -0.307 N 
ATOM      9  O   UNL d   1       1.733   2.612  -0.044  0.00  0.00    -0.245 OA
ATOM     10  H   UNL d   1       3.744   1.759  -1.155  0.00  0.00     0.170 HD
ENDROOT
BRANCH   1  11
ATOM     11  C   UNL d   1       2.190  -1.564   0.008  0.00  0.00     0.312 C 
BRANCH  11  12
ATOM     12  O   UNL d   1       2.486  -1.467   1.399  0.00  0.00    -0.360 OA
ATOM     13  C   UNL d   1       3.781  -1.972   1.698  0.00  0.00     0.205 C 
ENDBRANCH  11  12
BRANCH  11  14
ATOM     14  O   UNL d   1       2.053  -2.929  -0.376  0.00  0.00    -0.360 OA
ATOM     15  C   UNL d   1       1.817  -3.151  -1.754  0.00  0.00     0.205 C 
ENDBRANCH  11  14
ENDBRANCH   1  11
BRANCH   3  16
ATOM     16  C   UNL d   1      -0.910  -2.581   0.424  0.00  0.00     0.296 C 
ATOM     17  O   UNL d   1      -0.221  -3.492   0.866  0.00  0.00    -0.259 OA
BRANCH  16  18
ATOM     18  O   UNL d   1      -2.252  -2.691   0.206  0.00  0.00    -0.322 OA
ATOM     19  C   UNL d   1      -2.777  -3.999   0.441  0.00  0.00     0.213 C 
ENDBRANCH  16  18
ENDBRANCH   3  16
BRANCH   8  20
ATOM     20  C   UNL d   1       3.009   0.408  -2.525  0.00  0.00     0.036 A 
ATOM     21  C   UNL d   1       1.915   0.184  -3.364  0.00  0.00     0.029 A 
ATOM     22  C   UNL d   1       2.048  -0.669  -4.463  0.00  0.00     0.002 A 
ATOM     23  C   UNL d   1       3.261  -1.314  -4.709  0.00  0.00     0.000 A 
ATOM     24  C   UNL d   1       4.362  -1.063  -3.891  0.00  0.00     0.002 A 
ATOM     25  C   UNL d   1       4.246  -0.173  -2.824  0.00  0.00     0.029 A 
ENDBRANCH   8  20
TORSDOF 6
