REMARK  6 active torsions:
REMARK  status: ('A' for Active; 'I' for Inactive)
REMARK    1  A    between atoms: O_11  and  C_1 
REMARK    2  A    between atoms: O_13  and  C_2 
REMARK    3  A    between atoms: O_9  and  N_3 
REMARK    4  A    between atoms: C_7  and  C_12 
REMARK    5  A    between atoms: C_14  and  C_8 
REMARK    6  A    between atoms: C_12  and  C_14 
ROOT
ATOM      1  C   UNL d   1     -10.237  -5.662  -0.080  0.00  0.00     0.101 A 
ATOM      2  C   UNL d   1     -10.802  -4.384  -0.101  0.00  0.00     0.099 A 
ATOM      3  C   UNL d   1      -8.830  -5.763  -0.061  0.00  0.00     0.046 A 
ATOM      4  C   UNL d   1      -9.975  -3.254  -0.106  0.00  0.00     0.040 A 
ATOM      5  C   UNL d   1      -7.992  -4.634  -0.077  0.00  0.00    -0.055 A 
ATOM      6  C   UNL d   1      -8.586  -3.372  -0.095  0.00  0.00     0.010 A 
ENDROOT
BRANCH   5   7
ATOM      7  C   UNL d   1      -6.485  -4.771  -0.042  0.00  0.00     0.044 C 
BRANCH   7   8
ATOM      8  C   UNL d   1      -5.927  -5.521  -1.250  0.00  0.00     0.058 C 
BRANCH   8   9
ATOM      9  C   UNL d   1      -4.408  -5.664  -1.265  0.00  0.00     0.006 C 
ATOM     10  N   UNL d   1      -3.704  -5.158  -0.297  0.00  0.00    -0.278 N 
ATOM     11  HN  UNL d   1      -4.103  -4.655   0.496  1.00  0.00     0.193 HD
ATOM     12  C   UNL d   1      -3.835  -6.414  -2.451  0.00  0.00     0.065 C 
BRANCH  10  13
ATOM     13  O   UNL d   1      -2.335  -5.385  -0.471  0.00  0.00    -0.290 OA
ATOM     14  H   UNL d   1      -1.947  -4.962   0.318  0.00  0.00     0.244 HD
ENDBRANCH  10  13
ENDBRANCH   8   9
ENDBRANCH   7   8
ENDBRANCH   5   7
BRANCH   1  15
ATOM     15  O   UNL d   1     -10.821  -6.895  -0.065  0.00  0.00    -0.353 OA
ATOM     16  C   UNL d   1     -12.226  -7.045  -0.074  0.00  0.00     0.210 C 
ENDBRANCH   1  15
BRANCH   2  17
ATOM     17  O   UNL d   1     -12.128  -4.063  -0.110  0.00  0.00    -0.358 OA
ATOM     18  H   UNL d   1     -12.673  -4.845  -0.235  0.00  0.00     0.217 HD
ENDBRANCH   2  17
TORSDOF 6
