REMARK  4 active torsions:
REMARK  status: ('A' for Active; 'I' for Inactive)
REMARK    1  A    between atoms: S_2  and  N_1 
REMARK    2  A    between atoms: C_10  and  S_2 
REMARK    3  A    between atoms: S_8  and  C_6 
REMARK    4  A    between atoms: C_9  and  S_8 
ROOT
ATOM      1  N   UNL d   1      -0.113  -1.178   0.059  0.00  0.00    -0.180 N 
ATOM      2  C   UNL d   1       1.219  -0.790   0.134  0.00  0.00     0.061 C 
ATOM      3  N   UNL d   1      -0.969  -0.119   0.175  0.00  0.00    -0.287 N 
ATOM      4  HN  UNL d   1      -1.983  -0.143   0.290  1.00  0.00     0.188 HD
ATOM      5  C   UNL d   1       1.186   0.591   0.086  0.00  0.00     0.057 C 
ATOM      6  C   UNL d   1      -0.178   0.957   0.105  0.00  0.00     0.042 C 
ATOM      7  C   UNL d   1       2.388  -1.706   0.181  0.00  0.00     0.072 C 
ATOM      8  C   UNL d   1      -0.779   2.314   0.053  0.00  0.00     0.071 C 
ENDROOT
BRANCH   1   9
ATOM      9  S   UNL d   1      -0.658  -2.830  -0.074  0.00  0.00     0.282 S 
ATOM     10  O   UNL d   1      -2.041  -2.778  -0.505  0.00  0.00    -0.198 OA
ATOM     11  O   UNL d   1       0.357  -3.517  -0.859  0.00  0.00    -0.198 OA
BRANCH   9  12
ATOM     12  C   UNL d   1      -0.638  -3.479   1.573  0.00  0.00     0.081 A 
ATOM     13  C   UNL d   1      -1.004  -2.687   2.664  0.00  0.00     0.026 A 
ATOM     14  C   UNL d   1      -0.974  -3.235   3.949  0.00  0.00     0.008 A 
ATOM     15  C   UNL d   1      -0.589  -4.569   4.150  0.00  0.00    -0.062 A 
ATOM     16  C   UNL d   1      -0.252  -5.358   3.044  0.00  0.00     0.008 A 
ATOM     17  C   UNL d   1      -0.546  -5.137   5.539  0.00  0.00     0.048 C 
ATOM     18  C   UNL d   1      -0.276  -4.817   1.758  0.00  0.00     0.026 A 
ENDBRANCH   9  12
ENDBRANCH   1   9
BRANCH   5  19
ATOM     19  S   UNL d   1       2.554   1.666  -0.048  0.00  0.00    -0.050 SA
BRANCH  19  20
ATOM     20  C   UNL d   1       2.768   2.296   1.600  0.00  0.00     0.149 A 
ATOM     21  N   UNL d   1       2.089   1.734   2.617  0.00  0.00    -0.346 N 
ATOM     22  C   UNL d   1       2.298   2.258   3.839  0.00  0.00     0.091 A 
ATOM     23  HN  UNL d   1       1.450   0.954   2.470  1.00  0.00     0.167 HD
ATOM     24  C   UNL d   1       3.152   3.308   4.081  0.00  0.00     0.034 A 
ATOM     25  C   UNL d   1       3.803   3.805   2.979  0.00  0.00     0.091 A 
ATOM     26  N   UNL d   1       3.631   3.321   1.736  0.00  0.00    -0.346 N 
ATOM     27  HN  UNL d   1       4.129   3.711   0.936  1.00  0.00     0.167 HD
ENDBRANCH  19  20
ENDBRANCH   5  19
TORSDOF 4
