REMARK  6 active torsions:
REMARK  status: ('A' for Active; 'I' for Inactive)
REMARK    1  A    between atoms: C_3  and  C_1 
REMARK    2  A    between atoms: C_4  and  C_1 
REMARK    3  A    between atoms: C_11  and  C_2 
REMARK    4  A    between atoms: O_18  and  C_3 
REMARK    5  A    between atoms: N_5  and  C_4 
REMARK    6  A    between atoms: C_19  and  O_18 
ROOT
ATOM      1  C   UNL d   1       1.034  -0.086   0.037  0.00  0.00     0.102 C 
ATOM      2  C   UNL d   1       0.335   0.896  -0.563  0.00  0.00     0.039 C 
ENDROOT
BRANCH   1   3
ATOM      3  C   UNL d   1       0.314  -1.130   0.797  0.00  0.00     0.302 C 
ATOM      4  O   UNL d   1      -0.900  -1.169   0.930  0.00  0.00    -0.259 OA
BRANCH   3   5
ATOM      5  O   UNL d   1       1.208  -1.954   1.393  0.00  0.00    -0.317 OA
BRANCH   5   6
ATOM      6  C   UNL d   1       0.707  -2.741   2.481  0.00  0.00     0.174 C 
ATOM      7  C   UNL d   1       0.826  -1.915   3.750  0.00  0.00     0.034 C 
ENDBRANCH   5   6
ENDBRANCH   3   5
ENDBRANCH   1   3
BRANCH   1   8
ATOM      8  C   UNL d   1       2.554  -0.086   0.037  0.00  0.00    -0.031 C 
BRANCH   8   9
ATOM      9  N   UNL d   1       3.815  -0.086   0.037  0.00  0.00    -0.365 N 
ATOM     10  HN2 UNL d   1       2.795  -0.086   0.037  1.00  0.00     0.165 HD
ATOM     11  HN1 UNL d   1       4.835  -0.086   0.037  1.00  0.00     0.165 HD
ENDBRANCH   8   9
ENDBRANCH   1   8
BRANCH   2  12
ATOM     12  C   UNL d   1       0.960   2.041  -1.240  0.00  0.00    -0.032 A 
ATOM     13  C   UNL d   1       1.263   3.198  -0.510  0.00  0.00     0.051 A 
ATOM     14  C   UNL d   1       1.887   4.234  -1.173  0.00  0.00     0.105 A 
ATOM     15  O   UNL d   1       2.260   5.420  -0.621  0.00  0.00    -0.323 OA
ATOM     16  C   UNL d   1       2.207   4.154  -2.507  0.00  0.00     0.105 A 
ATOM     17  C   UNL d   1       2.866   6.070  -1.757  0.00  0.00     0.352 A 
ATOM     18  O   UNL d   1       2.820   5.279  -2.963  0.00  0.00    -0.323 OA
ATOM     19  C   UNL d   1       1.918   3.032  -3.255  0.00  0.00     0.040 A 
ATOM     20  C   UNL d   1       1.287   1.962  -2.610  0.00  0.00     0.014 A 
ENDBRANCH   2  12
TORSDOF 6
