REMARK  3 active torsions:
REMARK  status: ('A' for Active; 'I' for Inactive)
REMARK    1  A    between atoms: N_11  and  C_2 
REMARK    2  A    between atoms: C_13  and  C_3 
REMARK    3  A    between atoms: C_14  and  N_11 
ROOT
ATOM      1  C   UNL d   1       0.179   0.987  -0.006  0.00  0.00     0.053 A 
ATOM      2  C   UNL d   1       1.578   1.262   0.003  0.00  0.00     0.116 A 
ATOM      3  C   UNL d   1      -1.050   1.788   0.018  0.00  0.00    -0.003 A 
ATOM      4  C   UNL d   1      -2.180   0.984   0.003  0.00  0.00     0.065 A 
ATOM      5  C   UNL d   1      -0.149  -0.369  -0.068  0.00  0.00     0.089 A 
ATOM      6  S   UNL d   1      -1.821  -0.677  -0.022  0.00  0.00    -0.082 SA
ATOM      7  N   UNL d   1       2.432   0.223  -0.144  0.00  0.00    -0.338 N 
ATOM      8  HN  UNL d   1       3.435   0.394  -0.214  1.00  0.00     0.168 HD
ATOM      9  N   UNL d   1       0.690  -1.407  -0.149  0.00  0.00    -0.346 N 
ATOM     10  HN  UNL d   1       0.386  -2.381  -0.173  1.00  0.00     0.167 HD
ATOM     11  C   UNL d   1       1.964  -1.030  -0.197  0.00  0.00     0.182 A 
ENDROOT
BRANCH   2  12
ATOM     12  N   UNL d   1       2.149   2.524   0.217  0.00  0.00    -0.371 N 
ATOM     13  H   UNL d   1       1.468   3.241   0.424  0.00  0.00     0.161 HD
BRANCH  12  14
ATOM     14  C   UNL d   1       3.243   2.922  -0.684  0.00  0.00     0.083 C 
ATOM     15  C   UNL d   1       4.610   2.430  -0.188  0.00  0.00     0.025 C 
ATOM     16  C   UNL d   1       5.039   3.098   1.116  0.00  0.00     0.002 C 
ATOM     17  C   UNL d   1       5.032   4.620   1.012  0.00  0.00     0.000 C 
ATOM     18  C   UNL d   1       3.711   5.159   0.475  0.00  0.00     0.002 C 
ATOM     19  C   UNL d   1       3.294   4.458  -0.817  0.00  0.00     0.025 C 
ENDBRANCH  12  14
ENDBRANCH   2  12
BRANCH   3  20
ATOM     20  C   UNL d   1      -1.216   3.242   0.004  0.00  0.00    -0.024 A 
ATOM     21  C   UNL d   1      -0.413   4.046  -0.814  0.00  0.00     0.012 A 
ATOM     22  C   UNL d   1      -0.492   5.437  -0.749  0.00  0.00     0.001 A 
ATOM     23  C   UNL d   1      -1.435   6.046   0.073  0.00  0.00     0.000 A 
ATOM     24  C   UNL d   1      -2.308   5.259   0.819  0.00  0.00     0.001 A 
ATOM     25  C   UNL d   1      -2.190   3.869   0.795  0.00  0.00     0.012 A 
ENDBRANCH   3  20
TORSDOF 3
