REMARK  4 active torsions:
REMARK  status: ('A' for Active; 'I' for Inactive)
REMARK    1  A    between atoms: C_8  and  C_1 
REMARK    2  A    between atoms: C_7  and  N_3 
REMARK    3  A    between atoms: C_9  and  C_8 
REMARK    4  A    between atoms: N_17  and  C_12 
ROOT
ATOM      1  C   UNL d   1      -0.214  -1.008  -0.017  0.00  0.00     0.120 C 
ATOM      2  N   UNL d   1       0.967   0.804  -0.324  0.00  0.00    -0.014 NA
ATOM      3  N   UNL d   1      -0.311   1.187  -0.083  0.00  0.00    -0.242 N 
ATOM      4  N   UNL d   1       1.046  -0.510  -0.216  0.00  0.00    -0.278 N 
ATOM      5  HN  UNL d   1       1.902  -1.062  -0.273  1.00  0.00     0.184 HD
ATOM      6  C   UNL d   1      -1.113   0.059   0.020  0.00  0.00     0.060 C 
ATOM      7  C   UNL d   1      -2.600   0.045   0.025  0.00  0.00     0.072 C 
ENDROOT
BRANCH   3   8
ATOM      8  C   UNL d   1      -0.624   2.572   0.001  0.00  0.00     0.056 A 
ATOM      9  C   UNL d   1       0.182   3.490  -0.696  0.00  0.00     0.056 A 
ATOM     10  C   UNL d   1      -0.116   4.857  -0.673  0.00  0.00     0.058 A 
ATOM     11 CL   UNL d   1       0.881   5.912  -1.611  0.00  0.00    -0.082 Cl
ATOM     12  C   UNL d   1      -1.199   5.323   0.079  0.00  0.00     0.055 A 
ATOM     13  C   UNL d   1      -1.975   4.417   0.809  0.00  0.00     0.028 A 
ATOM     14 CL   UNL d   1      -1.629   6.994   0.150  0.00  0.00    -0.083 Cl
ATOM     15  C   UNL d   1      -1.691   3.045   0.773  0.00  0.00     0.033 A 
ENDBRANCH   3   8
BRANCH   1  16
ATOM     16  C   UNL d   1      -0.513  -2.438   0.076  0.00  0.00     0.202 C 
ATOM     17  O   UNL d   1      -1.650  -2.872   0.232  0.00  0.00    -0.286 OA
BRANCH  16  18
ATOM     18  C   UNL d   1       0.680  -3.336  -0.030  0.00  0.00     0.074 C 
ATOM     19  C   UNL d   1       0.537  -4.667   0.043  0.00  0.00     0.088 C 
BRANCH  19  20
ATOM     20  N   UNL d   1       1.476  -5.693  -0.028  0.00  0.00    -0.398 N 
ATOM     21  C   UNL d   1       2.915  -5.511  -0.211  0.00  0.00     0.148 C 
ATOM     22  C   UNL d   1       1.077  -7.100   0.091  0.00  0.00     0.148 C 
ENDBRANCH  19  20
ENDBRANCH  16  18
ENDBRANCH   1  16
TORSDOF 4
