REMARK  6 active torsions:
REMARK  status: ('A' for Active; 'I' for Inactive)
REMARK    1  A    between atoms: C_4  and  S_1 
REMARK    2  A    between atoms: C_16  and  S_1 
REMARK       I    between atoms: C_2  and  N_5 
REMARK       I    between atoms: N_7  and  C_2 
REMARK    3  A    between atoms: N_5  and  C_3 
REMARK    4  A    between atoms: C_8  and  N_7 
REMARK    5  A    between atoms: O_17  and  C_11 
REMARK    6  A    between atoms: O_18  and  C_14 
ROOT
ATOM      1  C   UNL d   1      -1.109   2.452   5.354  0.00  0.00     0.325 C 
ATOM      2  N   UNL d   1      -0.896   2.509   3.992  0.00  0.00    -0.306 N 
ATOM      3  N   UNL d   1      -1.452   3.708   5.821  0.00  0.00    -0.306 N 
ATOM      4  O   UNL d   1      -1.068   1.436   6.036  0.00  0.00    -0.247 OA
ATOM      5  H   UNL d   1      -0.664   3.414   3.604  0.00  0.00     0.171 HD
ATOM      6  H   UNL d   1      -1.869   4.324   5.137  0.00  0.00     0.171 HD
ENDROOT
BRANCH   2   7
ATOM      7  C   UNL d   1      -0.804   1.452   3.070  0.00  0.00     0.071 A 
ATOM      8  C   UNL d   1      -1.057   0.115   3.375  0.00  0.00     0.055 A 
ATOM      9  C   UNL d   1      -1.001  -0.839   2.351  0.00  0.00     0.061 A 
ATOM     10  C   UNL d   1      -0.690  -0.472   1.036  0.00  0.00     0.026 A 
ATOM     11  C   UNL d   1      -0.418   0.862   0.735  0.00  0.00     0.040 A 
ATOM     12  C   UNL d   1      -0.474   1.810   1.752  0.00  0.00     0.092 A 
BRANCH   9  13
ATOM     13  S   UNL d   1      -1.283  -2.557   2.721  0.00  0.00     0.175 S 
ATOM     14  O   UNL d   1      -0.196  -2.970   3.588  0.00  0.00    -0.223 OA
ATOM     15  O   UNL d   1      -1.519  -3.225   1.453  0.00  0.00    -0.223 OA
BRANCH  13  16
ATOM     16  C   UNL d   1      -2.809  -2.616   3.640  0.00  0.00     0.141 C 
ATOM     17  C   UNL d   1      -3.170  -4.045   4.007  0.00  0.00     0.021 C 
ENDBRANCH  13  16
ENDBRANCH   9  13
BRANCH  12  18
ATOM     18  O   UNL d   1      -0.207   3.130   1.488  0.00  0.00    -0.358 OA
ATOM     19  H   UNL d   1       0.162   3.194   0.590  0.00  0.00     0.217 HD
ENDBRANCH  12  18
ENDBRANCH   2   7
BRANCH   3  20
ATOM     20  C   UNL d   1      -1.719   4.045   7.161  0.00  0.00     0.069 A 
ATOM     21  C   UNL d   1      -2.666   5.049   7.419  0.00  0.00     0.095 A 
ATOM     22  C   UNL d   1      -2.885   5.505   8.719  0.00  0.00     0.039 A 
ATOM     23  C   UNL d   1      -2.178   4.935   9.777  0.00  0.00     0.003 A 
ATOM     24  C   UNL d   1      -1.257   3.915   9.532  0.00  0.00     0.002 A 
ATOM     25  C   UNL d   1      -1.030   3.466   8.227  0.00  0.00     0.032 A 
BRANCH  21  26
ATOM     26  O   UNL d   1      -3.398   5.630   6.412  0.00  0.00    -0.354 OA
ATOM     27  C   UNL d   1      -4.364   4.720   5.872  0.00  0.00     0.210 C 
ENDBRANCH  21  26
ENDBRANCH   3  20
TORSDOF 6
