REMARK  3 active torsions:
REMARK  status: ('A' for Active; 'I' for Inactive)
REMARK    1  A    between atoms: C_2  and  C_1 
REMARK       I    between atoms: N_4  and  C_2 
REMARK    2  A    between atoms: C_12  and  N_4 
REMARK    3  A    between atoms: C_5  and  C_10 
ROOT
ATOM      1  C   UNL d   1      -3.631  -3.840  -0.697  0.00  0.00     0.257 C 
ATOM      2  N   UNL d   1      -2.513  -3.660   0.096  0.00  0.00    -0.323 N 
ATOM      3  O   UNL d   1      -3.917  -4.871  -1.296  0.00  0.00    -0.267 OA
ATOM      4  H   UNL d   1      -2.464  -2.816   0.652  0.00  0.00     0.169 HD
ENDROOT
BRANCH   2   5
ATOM      5  C   UNL d   1      -1.392  -4.518   0.189  0.00  0.00     0.035 A 
ATOM      6  C   UNL d   1      -1.184  -5.613  -0.650  0.00  0.00     0.030 A 
ATOM      7  C   UNL d   1       0.013  -6.339  -0.597  0.00  0.00     0.011 A 
ATOM      8  C   UNL d   1       1.032  -5.995   0.304  0.00  0.00    -0.035 A 
ATOM      9  C   UNL d   1       0.790  -4.933   1.190  0.00  0.00     0.011 A 
ATOM     10  C   UNL d   1      -0.404  -4.201   1.128  0.00  0.00     0.030 A 
BRANCH   8  11
ATOM     11  C   UNL d   1       2.364  -6.714   0.233  0.00  0.00     0.141 C 
ATOM     12  S   UNL d   1       2.866  -7.487   1.801  0.00  0.00    -0.148 SA
ATOM     13  C   UNL d   1       4.635  -7.136   1.635  0.00  0.00     0.085 C 
ATOM     14  C   UNL d   1       4.757  -5.726   1.094  0.00  0.00     0.085 C 
ATOM     15  S   UNL d   1       3.692  -5.602  -0.365  0.00  0.00    -0.148 SA
ENDBRANCH   8  11
ENDBRANCH   2   5
BRANCH   1  16
ATOM     16  C   UNL d   1      -4.543  -2.663  -0.887  0.00  0.00     0.054 A 
ATOM     17  C   UNL d   1      -4.706  -1.586  -0.004  0.00  0.00     0.051 A 
ATOM     18  C   UNL d   1      -5.555  -0.518  -0.341  0.00  0.00     0.048 A 
ATOM     19 CL   UNL d   1      -3.937  -1.487   1.540  0.00  0.00    -0.083 Cl
ATOM     20  C   UNL d   1      -6.249  -0.523  -1.550  0.00  0.00     0.035 A 
ATOM     21  C   UNL d   1      -6.122  -1.594  -2.423  0.00  0.00     0.025 A 
ATOM     22 CL   UNL d   1      -7.263   0.802  -1.963  0.00  0.00    -0.084 Cl
ATOM     23  C   UNL d   1      -5.279  -2.657  -2.092  0.00  0.00     0.020 A 
ENDBRANCH   1  16
TORSDOF 3
