REMARK  1 active torsions:
REMARK  status: ('A' for Active; 'I' for Inactive)
REMARK    1  A    between atoms: C_2  and  C_1 
ROOT
ATOM      1  C   UNL d   1       3.507   0.018  -0.043  0.00  0.00     0.110 C 
ATOM      2  C   UNL d   1       4.007   0.780   1.179  0.00  0.00     0.024 C 
ATOM      3  C   UNL d   1       4.111   0.544  -1.353  0.00  0.00     0.058 C 
ATOM      4  C   UNL d   1       4.693   1.935   1.060  0.00  0.00     0.020 C 
ATOM      5  N   UNL d   1       5.051   2.395  -0.195  0.00  0.00    -0.362 N 
ATOM      6  C   UNL d   1       4.798   1.712  -1.375  0.00  0.00     0.023 C 
ATOM      7  C   UNL d   1       3.857  -0.199  -2.545  0.00  0.00     0.098 C 
ATOM      8  C   UNL d   1       3.686   0.228   2.525  0.00  0.00     0.158 C 
ATOM      9  N   UNL d   1       3.662  -0.803  -3.518  0.00  0.00    -0.192 NA
ATOM     10  O   UNL d   1       3.100  -0.846   2.642  0.00  0.00    -0.293 OA
ATOM     11  C   UNL d   1       5.039   2.804   2.245  0.00  0.00     0.058 C 
ATOM     12  C   UNL d   1       5.266   2.348  -2.659  0.00  0.00     0.069 C 
ATOM     13  C   UNL d   1       4.200   0.972   3.735  0.00  0.00     0.084 C 
ATOM     14  C   UNL d   1       4.197   2.467   3.475  0.00  0.00     0.014 C 
ATOM     15  H   UNL d   1       5.549   3.281  -0.255  0.00  0.00     0.165 HD
ENDROOT
BRANCH   1  16
ATOM     16  C   UNL d   1       1.976   0.013  -0.120  0.00  0.00     0.004 A 
ATOM     17  S   UNL d   1       1.161   1.522  -0.235  0.00  0.00    -0.092 SA
ATOM     18  C   UNL d   1      -0.376   0.787  -0.346  0.00  0.00     0.016 A 
ATOM     19  C   UNL d   1      -1.608   1.446  -0.510  0.00  0.00     0.019 A 
ATOM     20  C   UNL d   1      -0.284  -0.602  -0.254  0.00  0.00    -0.012 A 
ATOM     21  C   UNL d   1      -2.774   0.686  -0.579  0.00  0.00     0.001 A 
ATOM     22  C   UNL d   1      -2.719  -0.696  -0.473  0.00  0.00     0.001 A 
ATOM     23  C   UNL d   1      -1.491  -1.343  -0.310  0.00  0.00     0.013 A 
ATOM     24  C   UNL d   1       1.089  -1.053  -0.128  0.00  0.00    -0.036 A 
ATOM     25  C   UNL d   1       1.451  -2.503  -0.042  0.00  0.00     0.050 C 
ENDBRANCH   1  16
TORSDOF 1
