REMARK  5 active torsions:
REMARK  status: ('A' for Active; 'I' for Inactive)
REMARK    1  A    between atoms: C_2  and  N_1 
REMARK    2  A    between atoms: O_11  and  C_8 
REMARK    3  A    between atoms: C_14  and  O_11 
REMARK    4  A    between atoms: O_12  and  C_13 
REMARK    5  A    between atoms: C_13  and  C_14 
ROOT
ATOM      1  C   UNL d   1       0.278   0.826   0.787  0.00  0.00     0.118 A 
ATOM      2  N   UNL d   1      -1.619   1.012   2.263  0.00  0.00    -0.344 N 
ATOM      3  HN  UNL d   1      -2.428   0.595   2.722  1.00  0.00     0.167 HD
ATOM      4  C   UNL d   1      -0.832   0.294   1.424  0.00  0.00     0.126 A 
ATOM      5  C   UNL d   1      -1.284   2.307   2.463  0.00  0.00     0.141 A 
ATOM      6  C   UNL d   1       0.607   2.166   1.004  0.00  0.00     0.041 A 
ATOM      7  C   UNL d   1      -0.199   2.922   1.854  0.00  0.00     0.058 A 
ENDROOT
BRANCH   5   8
ATOM      8  O   UNL d   1      -2.064   3.099   3.277  0.00  0.00    -0.334 OA
BRANCH   8   9
ATOM      9  C   UNL d   1      -2.928   2.343   4.129  0.00  0.00     0.203 C 
BRANCH   9  10
ATOM     10  C   UNL d   1      -3.774   3.314   4.946  0.00  0.00     0.191 C 
BRANCH  10  11
ATOM     11  O   UNL d   1      -4.577   2.607   5.883  0.00  0.00    -0.399 OA
ATOM     12  H   UNL d   1      -5.106   3.268   6.361  0.00  0.00     0.209 HD
ENDBRANCH  10  11
ENDBRANCH   9  10
ENDBRANCH   8   9
ENDBRANCH   5   8
BRANCH   1  13
ATOM     13  N   UNL d   1       1.080  -0.010  -0.093  0.00  0.00    -0.114 N 
ATOM     14  O   UNL d   1       0.710  -1.179  -0.276  0.00  0.00    -0.532 OA
ATOM     15  O   UNL d   1       2.087   0.496  -0.608  0.00  0.00    -0.532 OA
ENDBRANCH   1  13
TORSDOF 5
