REMARK  4 active torsions:
REMARK  status: ('A' for Active; 'I' for Inactive)
REMARK    1  A    between atoms: C_4  and  S_1 
REMARK    2  A    between atoms: C_11  and  S_1 
REMARK    3  A    between atoms: N_9  and  C_5 
REMARK    4  A    between atoms: N_14  and  C_6 
ROOT
ATOM      1  N   UNL d   1      -1.157   3.224   1.251  0.00  0.00    -0.180 N 
ATOM      2  HN  UNL d   1      -1.969   3.412   1.838  1.00  0.00     0.185 HD
ATOM      3  C   UNL d   1       0.311   1.672   0.210  0.00  0.00     0.114 A 
ATOM      4  C   UNL d   1      -0.442   4.236   0.732  0.00  0.00     0.681 A 
ATOM      5  C   UNL d   1      -0.785   1.957   0.986  0.00  0.00     0.117 A 
ATOM      6  N   UNL d   1       0.637   4.025  -0.036  0.00  0.00    -0.200 N 
ATOM      7  HN  UNL d   1       1.158   4.805  -0.437  1.00  0.00     0.183 HD
ATOM      8  C   UNL d   1       1.010   2.750  -0.263  0.00  0.00     0.133 A 
ENDROOT
BRANCH   3   9
ATOM      9  S   UNL d   1       0.925   0.050  -0.041  0.00  0.00     0.187 S 
ATOM     10  O   UNL d   1       0.560  -0.726   1.136  0.00  0.00    -0.222 OA
ATOM     11  O   UNL d   1       2.329   0.191  -0.381  0.00  0.00    -0.222 OA
BRANCH   9  12
ATOM     12  C   UNL d   1       0.062  -0.640  -1.488  0.00  0.00     0.058 C 
ATOM     13  C   UNL d   1       0.356   0.215  -2.726  0.00  0.00     0.031 C 
ATOM     14  C   UNL d   1       0.584  -2.068  -1.738  0.00  0.00     0.031 C 
ATOM     15  C   UNL d   1      -1.451  -0.705  -1.254  0.00  0.00     0.031 C 
ENDBRANCH   9  12
ENDBRANCH   3   9
BRANCH   5  16
ATOM     16  N   UNL d   1      -1.672   0.991   1.449  0.00  0.00    -0.287 NA
ATOM     17  H   UNL d   1      -2.348   1.434   2.066  0.00  0.00     0.125 HD
ATOM     18  H   UNL d   1      -1.208   0.187   1.874  0.00  0.00     0.125 HD
ENDBRANCH   5  16
BRANCH   4  19
ATOM     19  N   UNL d   1      -0.838   5.523   0.974  0.00  0.00    -0.214 N 
ATOM     20  C   UNL d   1      -0.214   6.650   0.287  0.00  0.00     0.167 C 
ATOM     21  C   UNL d   1       0.379   7.621   1.316  0.00  0.00     0.188 C 
ATOM     22  O   UNL d   1      -0.609   8.031   2.276  0.00  0.00    -0.388 OA
ATOM     23  C   UNL d   1      -1.108   6.889   2.994  0.00  0.00     0.188 C 
ATOM     24  C   UNL d   1      -1.760   5.857   2.056  0.00  0.00     0.167 C 
ENDBRANCH   4  19
TORSDOF 4
