REMARK  5 active torsions:
REMARK  status: ('A' for Active; 'I' for Inactive)
REMARK    1  A    between atoms: C_3  and  C_1 
REMARK    2  A    between atoms: C_10  and  C_3 
REMARK    3  A    between atoms: C_4  and  C_11 
REMARK    4  A    between atoms: O_12  and  C_4 
REMARK    5  A    between atoms: C_11  and  C_10 
ROOT
ATOM      1  C   UNL d   1      -0.195   2.727   0.112  0.00  0.00     0.166 C 
ATOM      2  O   UNL d   1      -1.322   3.024  -0.304  0.00  0.00    -0.292 OA
ENDROOT
BRANCH   1   3
ATOM      3  C   UNL d   1       0.097   1.419   0.684  0.00  0.00     0.050 A 
ATOM      4  S   UNL d   1       1.696   0.864   0.944  0.00  0.00    -0.098 SA
ATOM      5  C   UNL d   1       1.152  -0.605   1.628  0.00  0.00     0.050 A 
ATOM      6  C   UNL d   1      -0.222  -0.690   1.640  0.00  0.00     0.009 A 
ATOM      7  C   UNL d   1      -0.829   0.471   1.079  0.00  0.00     0.023 A 
ENDBRANCH   1   3
BRANCH   1   8
ATOM      8  C   UNL d   1       0.906   3.778   0.068  0.00  0.00     0.095 C 
BRANCH   8   9
ATOM      9  C   UNL d   1       0.330   5.177  -0.111  0.00  0.00     0.117 C 
BRANCH   9  10
ATOM     10  C   UNL d   1      -0.467   5.592   1.100  0.00  0.00     0.139 C 
ATOM     11  O   UNL d   1       0.012   6.202   2.045  0.00  0.00    -0.650 OA
BRANCH  10  12
ATOM     12  O   UNL d   1      -1.755   5.188   1.074  0.00  0.00    -0.776 OA
ATOM     13  H   UNL d   1      -1.963   4.578   0.326  0.00  0.00     0.167 HD
ENDBRANCH  10  12
ENDBRANCH   9  10
ENDBRANCH   8   9
ENDBRANCH   1   8
TORSDOF 5
