REMARK  8 active torsions:
REMARK  status: ('A' for Active; 'I' for Inactive)
REMARK    1  A    between atoms: C_7  and  C_1 
REMARK    2  A    between atoms: C_2  and  O_11 
REMARK       I    between atoms: C_3  and  N_8 
REMARK    3  A    between atoms: O_9  and  C_3 
REMARK    4  A    between atoms: N_4  and  O_9 
REMARK    5  A    between atoms: C_10  and  C_6 
REMARK    6  A    between atoms: N_23  and  C_6 
REMARK    7  A    between atoms: N_8  and  C_14 
REMARK    8  A    between atoms: O_11  and  C_24 
ROOT
ATOM      1  N   UNL d   1       2.858  -1.853  -0.411  0.00  0.00    -0.244 N 
ATOM      2  HN  UNL d   1       3.578  -2.542  -0.627  1.00  0.00     0.196 HD
ATOM      3  C   UNL d   1       3.065  -0.656   0.071  0.00  0.00     0.109 C 
ENDROOT
BRANCH   1   4
ATOM      4  O   UNL d   1       1.458  -2.030  -0.583  0.00  0.00    -0.179 OA
BRANCH   4   5
ATOM      5  C   UNL d   1       1.062  -3.352  -0.643  0.00  0.00     0.387 C 
ATOM      6  N   UNL d   1       2.098  -4.242  -0.801  0.00  0.00    -0.301 N 
ATOM      7  H   UNL d   1       2.990  -3.773  -0.910  0.00  0.00     0.171 HD
ATOM      8  O   UNL d   1      -0.132  -3.623  -0.598  0.00  0.00    -0.236 OA
BRANCH   6   9
ATOM      9  C   UNL d   1       2.022  -5.644  -0.859  0.00  0.00     0.037 A 
ATOM     10  C   UNL d   1       0.869  -6.364  -0.526  0.00  0.00     0.045 A 
ATOM     11  C   UNL d   1       0.849  -7.769  -0.572  0.00  0.00     0.050 A 
ATOM     12  C   UNL d   1       2.001  -8.451  -0.986  0.00  0.00     0.016 A 
ATOM     13  C   UNL d   1       3.153  -7.742  -1.325  0.00  0.00     0.003 A 
ATOM     14  C   UNL d   1       3.166  -6.347  -1.250  0.00  0.00     0.029 A 
BRANCH  11  15
ATOM     15  C   UNL d   1      -0.383  -8.541  -0.166  0.00  0.00     0.417 C 
ATOM     16  F   UNL d   1      -1.424  -7.758   0.232  0.00  0.00    -0.166 F 
ATOM     17  F   UNL d   1      -0.140  -9.389   0.873  0.00  0.00    -0.166 F 
ATOM     18  F   UNL d   1      -0.867  -9.320  -1.174  0.00  0.00    -0.166 F 
ENDBRANCH  11  15
ENDBRANCH   6   9
ENDBRANCH   4   5
ENDBRANCH   1   4
BRANCH   3  19
ATOM     19  C   UNL d   1       4.462  -0.214   0.372  0.00  0.00     0.004 A 
ATOM     20  C   UNL d   1       5.548  -0.702  -0.360  0.00  0.00     0.017 A 
ATOM     21  C   UNL d   1       6.848  -0.254  -0.078  0.00  0.00     0.038 A 
ATOM     22  C   UNL d   1       7.068   0.683   0.935  0.00  0.00     0.078 A 
ATOM     23  C   UNL d   1       5.978   1.153   1.674  0.00  0.00     0.038 A 
ATOM     24  C   UNL d   1       4.684   0.710   1.398  0.00  0.00     0.017 A 
BRANCH  22  25
ATOM     25  O   UNL d   1       8.262   1.230   1.304  0.00  0.00    -0.255 OA
BRANCH  25  26
ATOM     26  C   UNL d   1       9.435   0.808   0.632  0.00  0.00     0.530 C 
ATOM     27  F   UNL d   1       9.333   0.994  -0.702  0.00  0.00    -0.144 F 
ATOM     28  F   UNL d   1      10.476   1.545   1.078  0.00  0.00    -0.144 F 
ATOM     29  F   UNL d   1       9.694  -0.490   0.888  0.00  0.00    -0.144 F 
ENDBRANCH  25  26
ENDBRANCH  22  25
ENDBRANCH   3  19
BRANCH   3  30
ATOM     30  N   UNL d   1       2.045   0.234   0.328  0.00  0.00    -0.286 NA
ATOM     31  H   UNL d   1       1.160  -0.051  -0.082  0.00  0.00     0.125 HD
ATOM     32  H   UNL d   1       2.249   1.212   0.155  0.00  0.00     0.125 HD
ENDBRANCH   3  30
TORSDOF 8
