REMARK  5 active torsions:
REMARK  status: ('A' for Active; 'I' for Inactive)
REMARK    1  A    between atoms: C_11  and  C_3 
REMARK    2  A    between atoms: S_20  and  C_14 
REMARK    3  A    between atoms: C_16  and  C_23 
REMARK       I    between atoms: N_19  and  C_16 
REMARK    4  A    between atoms: C_24  and  N_19 
REMARK    5  A    between atoms: C_23  and  S_20 
ROOT
ATOM      1  C   UNL d   1       3.404  -1.385  -0.102  0.00  0.00     0.049 A 
ATOM      2  N   UNL d   1       3.988  -1.557   1.097  0.00  0.00    -0.336 N 
ATOM      3  HN  UNL d   1       3.576  -1.187   1.954  1.00  0.00     0.168 HD
ATOM      4  C   UNL d   1       5.140  -2.240   1.105  0.00  0.00     0.145 A 
ATOM      5  N   UNL d   1       5.761  -2.728   0.022  0.00  0.00    -0.347 N 
ATOM      6  HN  UNL d   1       6.652  -3.220   0.087  1.00  0.00     0.167 HD
ATOM      7  C   UNL d   1       3.944  -1.872  -1.276  0.00  0.00     0.047 A 
ATOM      8  C   UNL d   1       5.142  -2.531  -1.155  0.00  0.00     0.092 A 
ENDROOT
BRANCH   1   9
ATOM      9  C   UNL d   1       2.102  -0.725  -0.083  0.00  0.00     0.030 A 
ATOM     10  C   UNL d   1       0.930  -1.349   0.181  0.00  0.00     0.046 A 
ATOM     11  N   UNL d   1      -0.253  -0.593   0.166  0.00  0.00    -0.243 N 
ATOM     12  C   UNL d   1       0.788  -2.807   0.505  0.00  0.00     0.071 C 
ATOM     13  C   UNL d   1      -0.236   0.778  -0.117  0.00  0.00     0.129 A 
ATOM     14  N   UNL d   1      -1.521  -1.032   0.388  0.00  0.00    -0.297 N 
ATOM     15  N   UNL d   1       0.922   1.456  -0.377  0.00  0.00    -0.350 N 
ATOM     16  C   UNL d   1      -1.541   1.196  -0.057  0.00  0.00     0.076 A 
ATOM     17  C   UNL d   1       2.006   0.743  -0.349  0.00  0.00     0.105 A 
ATOM     18  HN  UNL d   1       0.933   2.456  -0.579  1.00  0.00     0.166 HD
ATOM     19  C   UNL d   1      -2.293   0.050   0.257  0.00  0.00     0.026 A 
ATOM     20  C   UNL d   1      -3.761  -0.050   0.437  0.00  0.00     0.070 C 
ATOM     21  HN  UNL d   1      -1.818  -1.982   0.608  1.00  0.00     0.187 HD
ENDBRANCH   1   9
BRANCH   4  22
ATOM     22  S   UNL d   1       5.734  -2.807   2.674  0.00  0.00    -0.085 SA
BRANCH  22  23
ATOM     23  C   UNL d   1       4.260  -3.771   3.122  0.00  0.00     0.185 C 
BRANCH  23  24
ATOM     24  C   UNL d   1       3.871  -4.829   2.093  0.00  0.00     0.231 C 
ATOM     25  N   UNL d   1       4.928  -5.484   1.483  0.00  0.00    -0.327 N 
ATOM     26  H   UNL d   1       5.859  -5.234   1.801  0.00  0.00     0.169 HD
ATOM     27  O   UNL d   1       2.685  -5.114   1.936  0.00  0.00    -0.272 OA
BRANCH  25  28
ATOM     28  C   UNL d   1       4.835  -6.521   0.533  0.00  0.00     0.034 A 
ATOM     29  C   UNL d   1       3.666  -6.816  -0.174  0.00  0.00     0.031 A 
ATOM     30  C   UNL d   1       3.614  -7.916  -1.036  0.00  0.00     0.026 A 
ATOM     31  C   UNL d   1       4.734  -8.725  -1.195  0.00  0.00     0.034 A 
ATOM     32  C   UNL d   1       5.921  -8.413  -0.536  0.00  0.00     0.026 A 
ATOM     33 CL   UNL d   1       4.648 -10.120  -2.196  0.00  0.00    -0.084 Cl
ATOM     34  C   UNL d   1       5.977  -7.301   0.310  0.00  0.00     0.031 A 
ENDBRANCH  25  28
ENDBRANCH  23  24
ENDBRANCH  22  23
ENDBRANCH   4  22
TORSDOF 5
