REMARK  8 active torsions:
REMARK  status: ('A' for Active; 'I' for Inactive)
REMARK    1  A    between atoms: C_2  and  S_1 
REMARK    2  A    between atoms: C_3  and  S_1 
REMARK    3  A    between atoms: C_8  and  C_4 
REMARK    4  A    between atoms: C_11  and  C_18 
REMARK    5  A    between atoms: O_19  and  C_11 
REMARK    6  A    between atoms: O_14  and  C_13 
REMARK    7  A    between atoms: C_18  and  O_14 
REMARK    8  A    between atoms: C_22  and  O_19 
ROOT
ATOM      1  C   UNL d   1      -0.191   0.422  -2.941  0.00  0.00     0.145 C 
ATOM      2  C   UNL d   1      -0.076  -0.476  -1.943  0.00  0.00     0.049 C 
ATOM      3  C   UNL d   1       0.925   1.220  -3.299  0.00  0.00     0.112 C 
ATOM      4  N   UNL d   1       1.885   1.808  -3.573  0.00  0.00    -0.191 NA
ENDROOT
BRANCH   1   5
ATOM      5  S   UNL d   1      -1.592   0.591  -3.930  0.00  0.00     0.223 S 
ATOM      6  O   UNL d   1      -2.056  -0.704  -4.394  0.00  0.00    -0.216 OA
ATOM      7  O   UNL d   1      -1.427   1.676  -4.882  0.00  0.00    -0.216 OA
BRANCH   5   8
ATOM      8  C   UNL d   1      -2.904   1.168  -2.865  0.00  0.00     0.105 A 
ATOM      9  S   UNL d   1      -2.646   2.657  -2.059  0.00  0.00    -0.090 SA
ATOM     10  C   UNL d   1      -4.213   2.626  -1.366  0.00  0.00     0.051 A 
ATOM     11  C   UNL d   1      -4.915   1.497  -1.726  0.00  0.00     0.009 A 
ATOM     12  C   UNL d   1      -4.157   0.654  -2.589  0.00  0.00     0.032 A 
ENDBRANCH   5   8
ENDBRANCH   1   5
BRANCH   2  13
ATOM     13  C   UNL d   1      -0.989  -1.546  -1.511  0.00  0.00    -0.001 A 
ATOM     14  C   UNL d   1      -1.762  -1.466  -0.338  0.00  0.00     0.079 A 
ATOM     15  C   UNL d   1      -2.432  -2.605   0.127  0.00  0.00     0.037 A 
ATOM     16  C   UNL d   1      -2.382  -3.800  -0.592  0.00  0.00     0.003 A 
ATOM     17  C   UNL d   1      -1.659  -3.869  -1.778  0.00  0.00     0.001 A 
ATOM     18  C   UNL d   1      -0.960  -2.751  -2.231  0.00  0.00     0.014 A 
BRANCH  14  19
ATOM     19  O   UNL d   1      -1.764  -0.282   0.355  0.00  0.00    -0.341 OA
BRANCH  19  20
ATOM     20  C   UNL d   1      -3.012   0.077   0.944  0.00  0.00     0.286 C 
BRANCH  20  21
ATOM     21  C   UNL d   1      -3.079   0.025   2.467  0.00  0.00     0.283 C 
ATOM     22  O   UNL d   1      -2.168  -0.284   3.219  0.00  0.00    -0.263 OA
BRANCH  21  23
ATOM     23  O   UNL d   1      -4.328   0.422   2.858  0.00  0.00    -0.320 OA
BRANCH  23  24
ATOM     24  C   UNL d   1      -4.551   0.554   4.270  0.00  0.00     0.174 C 
ATOM     25  C   UNL d   1      -4.186   1.959   4.713  0.00  0.00     0.034 C 
ENDBRANCH  23  24
ENDBRANCH  21  23
ENDBRANCH  20  21
ENDBRANCH  19  20
ENDBRANCH  14  19
ENDBRANCH   2  13
TORSDOF 8
