REMARK  4 active torsions:
REMARK  status: ('A' for Active; 'I' for Inactive)
REMARK    1  A    between atoms: C_3  and  C_1 
REMARK       I    between atoms: N_4  and  C_1 
REMARK    2  A    between atoms: C_2  and  N_5 
REMARK    3  A    between atoms: C_9  and  C_2 
REMARK    4  A    between atoms: N_5  and  N_4 
ROOT
ATOM      1  C   UNL d   1      -1.871   1.579   1.967  0.00  0.00     0.119 C 
ATOM      2  N   UNL d   1      -1.265   2.261   2.895  0.00  0.00    -0.387 N 
ATOM      3  HN  UNL d   1      -1.698   2.934   3.527  1.00  0.00     0.157 HD
ATOM      4  H   UNL d   1      -0.279   2.002   2.876  0.00  0.00     0.157 HD
ENDROOT
BRANCH   1   5
ATOM      5  N   UNL d   1      -1.216   0.680   1.139  0.00  0.00    -0.186 NA
ATOM      6  H   UNL d   1      -1.793   0.408   0.328  0.00  0.00     0.154 HD
BRANCH   5   7
ATOM      7  N   UNL d   1       0.106   1.016   0.778  0.00  0.00    -0.280 N 
ATOM      8  C   UNL d   1       0.505   0.751  -0.523  0.00  0.00     0.289 C 
ATOM      9  O   UNL d   1      -0.290   0.397  -1.394  0.00  0.00    -0.264 OA
ATOM     10  H   UNL d   1       0.812   1.023   1.506  0.00  0.00     0.184 HD
BRANCH   8  11
ATOM     11  C   UNL d   1       1.928   0.910  -0.743  0.00  0.00     0.143 A 
ATOM     12  O   UNL d   1       2.717   1.407   0.264  0.00  0.00    -0.317 OA
ATOM     13  C   UNL d   1       3.983   1.486  -0.221  0.00  0.00     0.143 A 
ATOM     14  C   UNL d   1       4.035   1.026  -1.514  0.00  0.00     0.027 A 
ATOM     15  C   UNL d   1       2.712   0.651  -1.852  0.00  0.00     0.045 A 
ENDBRANCH   8  11
ENDBRANCH   5   7
ENDBRANCH   1   5
BRANCH   1  16
ATOM     16  C   UNL d   1      -3.356   1.743   1.780  0.00  0.00     0.071 A 
ATOM     17  N   UNL d   1      -3.892   1.035   0.748  0.00  0.00    -0.363 N 
ATOM     18  C   UNL d   1      -5.223   1.175   0.561  0.00  0.00     0.088 A 
ATOM     19  HN  UNL d   1      -3.323   0.435   0.150  1.00  0.00     0.165 HD
ATOM     20  C   UNL d   1      -6.038   1.977   1.348  0.00  0.00     0.017 A 
ATOM     21  C   UNL d   1      -5.459   2.687   2.396  0.00  0.00     0.004 A 
ATOM     22  C   UNL d   1      -4.090   2.572   2.618  0.00  0.00     0.033 A 
ENDBRANCH   1  16
TORSDOF 4
