REMARK  7 active torsions:
REMARK  status: ('A' for Active; 'I' for Inactive)
REMARK    1  A    between atoms: N_2  and  C_1 
REMARK    2  A    between atoms: N_6  and  N_2 
REMARK       I    between atoms: C_5  and  N_6 
REMARK    3  A    between atoms: C_13  and  C_5 
REMARK    4  A    between atoms: C_7  and  C_14 
REMARK    5  A    between atoms: O_19  and  C_7 
REMARK    6  A    between atoms: C_10  and  C_13 
REMARK    7  A    between atoms: C_14  and  C_10 
ROOT
ATOM      1  C   UNL d   1      -1.050  -4.324   0.021  0.00  0.00     0.236 C 
ATOM      2  N   UNL d   1      -1.237  -2.954   0.113  0.00  0.00    -0.270 N 
ATOM      3  O   UNL d   1       0.066  -4.837   0.014  0.00  0.00    -0.272 OA
ATOM      4  H   UNL d   1      -2.115  -2.549  -0.202  0.00  0.00     0.190 HD
ENDROOT
BRANCH   2   5
ATOM      5  N   UNL d   1      -0.100  -2.174  -0.059  0.00  0.00    -0.295 N 
ATOM      6  H   UNL d   1       0.760  -2.614   0.290  0.00  0.00     0.187 HD
BRANCH   5   7
ATOM      7  C   UNL d   1      -0.152  -0.766   0.102  0.00  0.00     0.094 A 
ATOM      8  C   UNL d   1      -1.313   0.011   0.274  0.00  0.00     0.079 A 
ATOM      9 CL   UNL d   1      -2.899  -0.628   0.544  0.00  0.00    -0.080 Cl
ATOM     10  C   UNL d   1      -1.210   1.402   0.252  0.00  0.00     0.114 A 
ATOM     11  N   UNL d   1      -0.060   2.086   0.053  0.00  0.00    -0.372 N 
ATOM     12  C   UNL d   1       1.049   1.338  -0.116  0.00  0.00     0.114 A 
ATOM     13  HN  UNL d   1      -0.033   3.106   0.031  1.00  0.00     0.164 HD
ATOM     14  C   UNL d   1       1.055  -0.052  -0.092  0.00  0.00     0.079 A 
ATOM     15 CL   UNL d   1       2.564  -0.867  -0.329  0.00  0.00    -0.080 Cl
ENDBRANCH   5   7
ENDBRANCH   2   5
BRANCH   1  16
ATOM     16  C   UNL d   1      -2.361  -5.099  -0.037  0.00  0.00     0.113 C 
BRANCH  16  17
ATOM     17  C   UNL d   1      -2.233  -6.641  -0.175  0.00  0.00    -0.030 C 
ATOM     18  C   UNL d   1      -3.648  -7.265  -0.170  0.00  0.00     0.016 C 
ATOM     19  C   UNL d   1      -1.610  -6.992  -1.547  0.00  0.00     0.016 C 
BRANCH  17  20
ATOM     20  C   UNL d   1      -1.374  -7.292   0.943  0.00  0.00     0.119 C 
BRANCH  20  21
ATOM     21  C   UNL d   1      -1.829  -7.050   2.364  0.00  0.00     0.140 C 
ATOM     22  O   UNL d   1      -2.820  -6.422   2.714  0.00  0.00    -0.650 OA
BRANCH  21  23
ATOM     23  O   UNL d   1      -1.000  -7.628   3.270  0.00  0.00    -0.776 OA
ATOM     24  H   UNL d   1      -0.233  -8.073   2.865  0.00  0.00     0.167 HD
ENDBRANCH  21  23
ENDBRANCH  20  21
ENDBRANCH  17  20
ENDBRANCH  16  17
ENDBRANCH   1  16
TORSDOF 7
