REMARK  3 active torsions:
REMARK  status: ('A' for Active; 'I' for Inactive)
REMARK       I    between atoms: C_2  and  N_5 
REMARK    1  A    between atoms: C_7  and  C_2 
REMARK    2  A    between atoms: N_5  and  C_13 
REMARK    3  A    between atoms: C_13  and  C_8 
ROOT
ATOM      1  C   UNL d   1       3.692  -1.486  -2.541  0.00  0.00     0.251 C 
ATOM      2  N   UNL d   1       3.572  -0.128  -2.356  0.00  0.00    -0.354 N 
ATOM      3  O   UNL d   1       2.813  -2.286  -2.241  0.00  0.00    -0.268 OA
ATOM      4  H   UNL d   1       4.401   0.452  -2.359  0.00  0.00     0.162 HD
ENDROOT
BRANCH   2   5
ATOM      5  C   UNL d   1       2.347   0.475  -1.850  0.00  0.00     0.157 C 
BRANCH   5   6
ATOM      6  C   UNL d   1       2.330   0.594  -0.314  0.00  0.00     0.171 C 
ATOM      7  O   UNL d   1       3.429   1.413   0.134  0.00  0.00    -0.339 OA
ATOM      8  C   UNL d   1       3.163   2.754   0.033  0.00  0.00     0.102 A 
ATOM      9  C   UNL d   1       1.883   3.269  -0.193  0.00  0.00     0.102 A 
ATOM     10  C   UNL d   1       4.256   3.613   0.134  0.00  0.00     0.039 A 
ATOM     11  C   UNL d   1       1.705   4.640  -0.368  0.00  0.00     0.039 A 
ATOM     12  O   UNL d   1       0.766   2.481  -0.295  0.00  0.00    -0.346 OA
ATOM     13  C   UNL d   1       2.803   5.499  -0.290  0.00  0.00     0.003 A 
ATOM     14  C   UNL d   1       4.075   4.987  -0.032  0.00  0.00     0.003 A 
ATOM     15  C   UNL d   1       1.010   1.161   0.207  0.00  0.00     0.209 C 
ENDBRANCH   5   6
ENDBRANCH   2   5
BRANCH   1  16
ATOM     16  C   UNL d   1       4.973  -1.960  -3.135  0.00  0.00     0.032 A 
ATOM     17  C   UNL d   1       5.405  -3.261  -2.848  0.00  0.00     0.018 A 
ATOM     18  C   UNL d   1       6.574  -3.761  -3.430  0.00  0.00     0.025 A 
ATOM     19  C   UNL d   1       7.304  -2.961  -4.307  0.00  0.00     0.034 A 
ATOM     20  C   UNL d   1       6.880  -1.667  -4.608  0.00  0.00     0.025 A 
ATOM     21 CL   UNL d   1       8.730  -3.582  -5.046  0.00  0.00    -0.084 Cl
ATOM     22  C   UNL d   1       5.712  -1.165  -4.021  0.00  0.00     0.018 A 
ENDBRANCH   1  16
TORSDOF 3
