REMARK  6 active torsions:
REMARK  status: ('A' for Active; 'I' for Inactive)
REMARK       I    between atoms: N_5  and  C_1 
REMARK       I    between atoms: N_6  and  C_1 
REMARK    1  A    between atoms: C_2  and  O_9 
REMARK    2  A    between atoms: C_14  and  N_5 
REMARK    3  A    between atoms: C_15  and  N_6 
REMARK    4  A    between atoms: S_8  and  C_7 
REMARK    5  A    between atoms: C_16  and  S_8 
REMARK    6  A    between atoms: O_9  and  C_18 
ROOT
ATOM      1  C   UNL d   1       1.044   0.054  -0.104  0.00  0.00     0.325 C 
ATOM      2  N   UNL d   1       0.495   0.610   1.040  0.00  0.00    -0.307 N 
ATOM      3  N   UNL d   1       0.205  -0.882  -0.680  0.00  0.00    -0.309 N 
ATOM      4  O   UNL d   1       2.155   0.348  -0.533  0.00  0.00    -0.247 OA
ATOM      5  H   UNL d   1      -0.347   0.186   1.403  0.00  0.00     0.170 HD
ATOM      6  H   UNL d   1      -0.743  -0.926  -0.339  0.00  0.00     0.170 HD
ENDROOT
BRANCH   2   7
ATOM      7  C   UNL d   1       1.125   1.577   1.862  0.00  0.00     0.051 A 
ATOM      8  C   UNL d   1       2.298   2.254   1.536  0.00  0.00     0.118 A 
ATOM      9  N   UNL d   1       2.919   3.154   2.341  0.00  0.00    -0.358 N 
ATOM     10  C   UNL d   1       2.354   3.405   3.538  0.00  0.00     0.074 A 
ATOM     11  HN  UNL d   1       3.778   3.621   2.051  1.00  0.00     0.166 HD
ATOM     12  C   UNL d   1       1.171   2.805   3.946  0.00  0.00     0.039 A 
ATOM     13  C   UNL d   1       0.551   1.881   3.095  0.00  0.00     0.034 A 
BRANCH  10  14
ATOM     14  S   UNL d   1       3.176   4.594   4.574  0.00  0.00    -0.073 SA
BRANCH  14  15
ATOM     15  C   UNL d   1       4.326   3.564   5.469  0.00  0.00     0.007 A 
ATOM     16  C   UNL d   1       5.242   2.726   4.821  0.00  0.00     0.020 A 
ATOM     17  C   UNL d   1       6.151   1.962   5.564  0.00  0.00     0.025 A 
ATOM     18  C   UNL d   1       6.150   2.042   6.954  0.00  0.00     0.034 A 
ATOM     19  C   UNL d   1       5.251   2.880   7.609  0.00  0.00     0.025 A 
ATOM     20 CL   UNL d   1       7.268   1.108   7.869  0.00  0.00    -0.084 Cl
ATOM     21  C   UNL d   1       4.344   3.642   6.868  0.00  0.00     0.020 A 
ENDBRANCH  14  15
ENDBRANCH  10  14
ENDBRANCH   2   7
BRANCH   3  22
ATOM     22  C   UNL d   1       0.525  -1.747  -1.756  0.00  0.00     0.036 A 
ATOM     23  C   UNL d   1       1.788  -1.820  -2.353  0.00  0.00     0.032 A 
ATOM     24  C   UNL d   1       2.058  -2.738  -3.377  0.00  0.00     0.039 A 
ATOM     25  C   UNL d   1       1.073  -3.623  -3.800  0.00  0.00     0.078 A 
ATOM     26  C   UNL d   1      -0.204  -3.523  -3.244  0.00  0.00     0.039 A 
ATOM     27  C   UNL d   1      -0.478  -2.598  -2.228  0.00  0.00     0.032 A 
BRANCH  25  28
ATOM     28  O   UNL d   1       1.218  -4.617  -4.720  0.00  0.00    -0.255 OA
BRANCH  28  29
ATOM     29  C   UNL d   1       2.531  -5.030  -5.069  0.00  0.00     0.530 C 
ATOM     30  F   UNL d   1       3.376  -5.031  -4.016  0.00  0.00    -0.144 F 
ATOM     31  F   UNL d   1       2.467  -6.296  -5.542  0.00  0.00    -0.144 F 
ATOM     32  F   UNL d   1       3.027  -4.239  -6.043  0.00  0.00    -0.144 F 
ENDBRANCH  28  29
ENDBRANCH  25  28
ENDBRANCH   3  22
TORSDOF 6
