REMARK  4 active torsions:
REMARK  status: ('A' for Active; 'I' for Inactive)
REMARK    1  A    between atoms: C_4  and  C_1 
REMARK    2  A    between atoms: C_2  and  C_5 
REMARK    3  A    between atoms: S_3  and  C_4 
REMARK    4  A    between atoms: C_6  and  S_3 
ROOT
ATOM      1  C   UNL d   1      -3.529   2.033   4.095  0.00  0.00     0.063 A 
ATOM      2  C   UNL d   1      -2.292   2.547   1.696  0.00  0.00     0.100 A 
ATOM      3  N   UNL d   1      -3.634   2.363   1.698  0.00  0.00    -0.358 N 
ATOM      4  HN  UNL d   1      -4.177   2.398   0.835  1.00  0.00     0.166 HD
ATOM      5  C   UNL d   1      -4.221   2.129   2.896  0.00  0.00     0.105 A 
ATOM      6  C   UNL d   1      -2.141   2.193   4.053  0.00  0.00     0.020 A 
ATOM      7  C   UNL d   1      -1.516   2.483   2.844  0.00  0.00     0.040 A 
ENDROOT
BRANCH   2   8
ATOM      8  S   UNL d   1      -1.671   2.982   0.061  0.00  0.00     0.071 S 
ATOM      9  O   UNL d   1      -1.247   4.419   0.179  0.00  0.00    -0.251 OA
BRANCH   8  10
ATOM     10  C   UNL d   1      -0.171   1.953   0.053  0.00  0.00     0.158 C 
BRANCH  10  11
ATOM     11  C   UNL d   1       0.735   2.183  -1.136  0.00  0.00    -0.003 A 
ATOM     12  C   UNL d   1       1.754   3.158  -1.101  0.00  0.00     0.042 A 
ATOM     13 CL   UNL d   1       2.003   4.192   0.266  0.00  0.00    -0.084 Cl
ATOM     14  C   UNL d   1       2.654   3.309  -2.164  0.00  0.00     0.024 A 
ATOM     15  C   UNL d   1       2.558   2.490  -3.285  0.00  0.00     0.003 A 
ATOM     16  C   UNL d   1       1.542   1.543  -3.355  0.00  0.00     0.024 A 
ATOM     17  C   UNL d   1       0.630   1.400  -2.300  0.00  0.00     0.042 A 
ATOM     18 CL   UNL d   1      -0.602   0.202  -2.490  0.00  0.00    -0.084 Cl
ENDBRANCH  10  11
ENDBRANCH   8  10
ENDBRANCH   2   8
BRANCH   1  19
ATOM     19  C   UNL d   1      -4.242   1.771   5.388  0.00  0.00     0.418 C 
ATOM     20  F   UNL d   1      -5.600   1.802   5.279  0.00  0.00    -0.166 F 
ATOM     21  F   UNL d   1      -3.936   0.551   5.908  0.00  0.00    -0.166 F 
ATOM     22  F   UNL d   1      -3.922   2.676   6.348  0.00  0.00    -0.166 F 
ENDBRANCH   1  19
TORSDOF 4
