REMARK  6 active torsions:
REMARK  status: ('A' for Active; 'I' for Inactive)
REMARK    1  A    between atoms: C_2  and  C_1 
REMARK    2  A    between atoms: O_8  and  C_2 
REMARK    3  A    between atoms: S_13  and  C_5 
REMARK    4  A    between atoms: S_14  and  C_6 
REMARK    5  A    between atoms: C_10  and  O_8 
REMARK    6  A    between atoms: N_9  and  C_11 
ROOT
ATOM      1  O   UNL d   1      -4.386  -0.772   0.258  0.00  0.00    -0.273 OA
ENDROOT
BRANCH   1   2
ATOM      2  C   UNL d   1      -4.069  -1.391   1.458  0.00  0.00     0.303 C 
ATOM      3  O   UNL d   1      -2.954  -1.295   1.960  0.00  0.00    -0.259 OA
BRANCH   2   4
ATOM      4  C   UNL d   1      -5.192  -2.084   2.094  0.00  0.00     0.098 A 
ATOM      5  C   UNL d   1      -5.175  -2.511   3.423  0.00  0.00     0.076 A 
ATOM      6  S   UNL d   1      -6.694  -3.188   3.822  0.00  0.00    -0.006 SA
ATOM      7  N   UNL d   1      -7.377  -2.973   2.347  0.00  0.00    -0.319 N 
ATOM      8  C   UNL d   1      -6.490  -2.417   1.531  0.00  0.00     0.093 A 
ATOM      9  HN  UNL d   1      -8.332  -3.226   2.096  1.00  0.00     0.175 HD
BRANCH   5  10
ATOM     10  S   UNL d   1      -3.907  -2.473   4.640  0.00  0.00    -0.125 SA
ATOM     11  C   UNL d   1      -3.964  -0.739   5.147  0.00  0.00     0.096 C 
ENDBRANCH   5  10
BRANCH   8  12
ATOM     12  S   UNL d   1      -6.985  -2.159  -0.147  0.00  0.00    -0.115 SA
ATOM     13  C   UNL d   1      -8.662  -2.844  -0.164  0.00  0.00     0.097 C 
ENDBRANCH   8  12
ENDBRANCH   2   4
ENDBRANCH   1   2
BRANCH   1  14
ATOM     14  C   UNL d   1      -3.976   0.581   0.210  0.00  0.00     0.106 A 
ATOM     15  C   UNL d   1      -3.196   1.075  -0.859  0.00  0.00     0.064 A 
ATOM     16  C   UNL d   1      -3.026   2.472  -0.887  0.00  0.00     0.032 A 
ATOM     17  C   UNL d   1      -3.606   3.324   0.062  0.00  0.00     0.002 A 
ATOM     18  C   UNL d   1      -4.375   2.804   1.093  0.00  0.00     0.003 A 
ATOM     19  C   UNL d   1      -4.568   1.432   1.166  0.00  0.00     0.040 A 
BRANCH  15  20
ATOM     20  N   UNL d   1      -2.698   0.264  -1.879  0.00  0.00    -0.375 N 
ATOM     21  C   UNL d   1      -1.892  -0.925  -1.529  0.00  0.00     0.149 C 
ATOM     22  C   UNL d   1      -2.019  -1.946  -2.675  0.00  0.00     0.187 C 
ATOM     23  O   UNL d   1      -1.571  -1.392  -3.926  0.00  0.00    -0.388 OA
ATOM     24  C   UNL d   1      -2.336  -0.222  -4.256  0.00  0.00     0.187 C 
ATOM     25  C   UNL d   1      -2.241   0.851  -3.157  0.00  0.00     0.149 C 
ENDBRANCH  15  20
ENDBRANCH   1  14
TORSDOF 6
