REMARK  9 active torsions:
REMARK  status: ('A' for Active; 'I' for Inactive)
REMARK    1  A    between atoms: C_7  and  C_1 
REMARK    2  A    between atoms: N_8  and  C_2 
REMARK    3  A    between atoms: S_3  and  O_9 
REMARK    4  A    between atoms: C_10  and  S_3 
REMARK    5  A    between atoms: C_11  and  N_5 
REMARK    6  A    between atoms: O_20  and  C_7 
REMARK    7  A    between atoms: C_18  and  N_8 
REMARK    8  A    between atoms: O_9  and  C_19 
REMARK    9  A    between atoms: C_32  and  O_20 
ROOT
ATOM      1  C   UNL d   1      -0.049   3.448   1.190  0.00  0.00     0.013 A 
ATOM      2  C   UNL d   1      -0.902   5.205   3.233  0.00  0.00     0.089 A 
ATOM      3  C   UNL d   1      -0.279   2.987   2.497  0.00  0.00     0.026 A 
ATOM      4  C   UNL d   1      -0.114   4.824   0.964  0.00  0.00     0.026 A 
ATOM      5  C   UNL d   1      -0.704   3.857   3.511  0.00  0.00     0.040 A 
ATOM      6  C   UNL d   1      -0.547   5.693   1.972  0.00  0.00     0.040 A 
ENDROOT
BRANCH   1   7
ATOM      7  N   UNL d   1       0.341   2.585   0.137  0.00  0.00    -0.254 NA
ATOM      8  H   UNL d   1       1.363   2.555   0.076  0.00  0.00     0.134 HD
BRANCH   7   9
ATOM      9  C   UNL d   1      -0.178   1.311   0.015  0.00  0.00     0.095 A 
ATOM     10  C   UNL d   1      -1.412   0.816  -0.084  0.00  0.00     0.062 A 
ATOM     11  C   UNL d   1      -1.483  -0.663  -0.088  0.00  0.00     0.174 A 
ATOM     12  N   UNL d   1      -0.087  -1.020  -0.098  0.00  0.00    -0.334 N 
ATOM     13  C   UNL d   1       0.711   0.114  -0.044  0.00  0.00     0.266 A 
ATOM     14  O   UNL d   1       1.929   0.191  -0.038  0.00  0.00    -0.266 OA
BRANCH  10  15
ATOM     15  C   UNL d   1      -2.627   1.629  -0.156  0.00  0.00     0.292 C 
ATOM     16  O   UNL d   1      -2.679   2.814  -0.422  0.00  0.00    -0.259 OA
BRANCH  15  17
ATOM     17  O   UNL d   1      -3.670   0.859   0.249  0.00  0.00    -0.318 OA
BRANCH  17  18
ATOM     18  C   UNL d   1      -4.683   1.617   0.901  0.00  0.00     0.174 C 
ATOM     19  C   UNL d   1      -4.213   1.837   2.319  0.00  0.00     0.034 C 
ENDBRANCH  17  18
ENDBRANCH  15  17
ENDBRANCH  10  15
BRANCH  12  20
ATOM     20  C   UNL d   1       0.401  -2.414  -0.210  0.00  0.00     0.025 C 
ATOM     21  C   UNL d   1      -0.755  -3.440  -0.244  0.00  0.00     0.037 C 
ATOM     22  C   UNL d   1       1.206  -2.571  -1.511  0.00  0.00     0.037 C 
ATOM     23  C   UNL d   1       1.290  -2.763   0.996  0.00  0.00     0.037 C 
ENDBRANCH  12  20
ENDBRANCH   7   9
ENDBRANCH   1   7
BRANCH   2  24
ATOM     24  O   UNL d   1      -1.391   6.144   4.100  0.00  0.00    -0.229 OA
BRANCH  24  25
ATOM     25  S   UNL d   1      -2.348   5.832   5.381  0.00  0.00     0.303 S 
ATOM     26  O   UNL d   1      -1.720   4.825   6.227  0.00  0.00    -0.193 OA
ATOM     27  O   UNL d   1      -2.746   7.099   5.952  0.00  0.00    -0.193 OA
BRANCH  25  28
ATOM     28  C   UNL d   1      -3.863   5.121   4.745  0.00  0.00     0.086 A 
ATOM     29  C   UNL d   1      -4.337   3.913   5.270  0.00  0.00     0.027 A 
ATOM     30  C   UNL d   1      -5.596   3.440   4.886  0.00  0.00     0.025 A 
ATOM     31  C   UNL d   1      -6.350   4.150   3.945  0.00  0.00     0.034 A 
ATOM     32  C   UNL d   1      -5.866   5.341   3.404  0.00  0.00     0.025 A 
ATOM     33 CL   UNL d   1      -7.825   3.481   3.358  0.00  0.00    -0.084 Cl
ATOM     34  C   UNL d   1      -4.627   5.841   3.817  0.00  0.00     0.027 A 
ENDBRANCH  25  28
ENDBRANCH  24  25
ENDBRANCH   2  24
TORSDOF 9
