REMARK  6 active torsions:
REMARK  status: ('A' for Active; 'I' for Inactive)
REMARK    1  A    between atoms: O_6  and  N_1 
REMARK    2  A    between atoms: C_3  and  C_7 
REMARK    3  A    between atoms: C_10  and  C_4 
REMARK    4  A    between atoms: C_18  and  C_4 
REMARK    5  A    between atoms: C_5  and  O_6 
REMARK    6  A    between atoms: C_8  and  C_5 
ROOT
ATOM      1  O   UNL d   1       0.341  -0.996  -0.791  0.00  0.00    -0.195 OA
ENDROOT
BRANCH   1   2
ATOM      2  C   UNL d   1       0.988  -1.226  -1.973  0.00  0.00     0.315 C 
ATOM      3  O   UNL d   1       1.829  -0.511  -2.504  0.00  0.00    -0.257 OA
BRANCH   2   4
ATOM      4  C   UNL d   1       0.545  -2.507  -2.595  0.00  0.00     0.041 A 
ATOM      5  C   UNL d   1       1.103  -2.849  -3.836  0.00  0.00     0.018 A 
ATOM      6  C   UNL d   1       0.787  -4.061  -4.455  0.00  0.00     0.017 A 
ATOM      7  C   UNL d   1      -0.098  -4.960  -3.844  0.00  0.00     0.048 A 
ATOM      8  C   UNL d   1      -0.670  -4.610  -2.609  0.00  0.00     0.017 A 
ATOM      9  C   UNL d   1      -0.353  -3.393  -1.987  0.00  0.00     0.018 A 
BRANCH   7  10
ATOM     10  C   UNL d   1      -0.421  -6.289  -4.488  0.00  0.00     0.417 C 
ATOM     11  F   UNL d   1       0.202  -6.484  -5.682  0.00  0.00    -0.166 F 
ATOM     12  F   UNL d   1      -0.066  -7.344  -3.704  0.00  0.00    -0.166 F 
ATOM     13  F   UNL d   1      -1.754  -6.438  -4.734  0.00  0.00    -0.166 F 
ENDBRANCH   7  10
ENDBRANCH   2   4
ENDBRANCH   1   2
BRANCH   1  14
ATOM     14  N   UNL d   1       1.033  -0.008  -0.068  0.00  0.00    -0.260 N 
ATOM     15  C   UNL d   1       0.271   0.803   0.607  0.00  0.00     0.046 C 
ATOM     16  HN  UNL d   1       2.050   0.067  -0.073  1.00  0.00     0.194 HD
BRANCH  15  17
ATOM     17  C   UNL d   1       0.963   1.861   1.425  0.00  0.00    -0.011 A 
ATOM     18  C   UNL d   1       0.376   3.106   1.683  0.00  0.00     0.013 A 
ATOM     19  C   UNL d   1       1.036   4.045   2.482  0.00  0.00     0.001 A 
ATOM     20  C   UNL d   1       2.293   3.757   3.009  0.00  0.00     0.000 A 
ATOM     21  C   UNL d   1       2.900   2.535   2.728  0.00  0.00     0.001 A 
ATOM     22  C   UNL d   1       2.240   1.592   1.937  0.00  0.00     0.013 A 
ENDBRANCH  15  17
BRANCH  15  23
ATOM     23  C   UNL d   1      -1.266   0.764   0.638  0.00  0.00     0.030 C 
ATOM     24  C   UNL d   1      -1.861   1.114  -0.723  0.00  0.00     0.016 C 
ATOM     25  C   UNL d   1      -1.805  -0.551   1.194  0.00  0.00     0.016 C 
ENDBRANCH  15  23
ENDBRANCH   1  14
TORSDOF 6
