REMARK  2 active torsions:
REMARK  status: ('A' for Active; 'I' for Inactive)
REMARK    1  A    between atoms: C_16  and  N_10 
REMARK    2  A    between atoms: C_17  and  C_16 
ROOT
ATOM      1  C   UNL d   1       0.789   0.397  -0.017  0.00  0.00     0.075 A 
ATOM      2  C   UNL d   1      -0.641   0.344  -0.025  0.00  0.00     0.002 A 
ATOM      3  C   UNL d   1       1.371  -0.857  -0.072  0.00  0.00     0.091 A 
ATOM      4  C   UNL d   1      -1.074  -0.966  -0.062  0.00  0.00    -0.005 A 
ATOM      5  S   UNL d   1       0.194  -2.094  -0.121  0.00  0.00    -0.075 SA
ATOM      6  N   UNL d   1       2.702  -1.135  -0.078  0.00  0.00    -0.346 N 
ATOM      7  HN  UNL d   1       3.070  -2.086  -0.116  1.00  0.00     0.167 HD
ATOM      8  C   UNL d   1       1.676   1.540   0.048  0.00  0.00     0.260 A 
ATOM      9  N   UNL d   1       3.012   1.208   0.020  0.00  0.00    -0.319 N 
ATOM     10  N   UNL d   1      -2.967   1.093  -0.336  0.00  0.00     0.097 N 
ATOM     11  C   UNL d   1       3.460  -0.088  -0.032  0.00  0.00     0.184 A 
ATOM     12  C   UNL d   1      -1.591   1.510   0.042  0.00  0.00     0.313 C 
ATOM     13  C   UNL d   1      -2.514  -1.356  -0.077  0.00  0.00     0.077 C 
ATOM     14  O   UNL d   1       1.299   2.705   0.140  0.00  0.00    -0.267 OA
ATOM     15  C   UNL d   1      -3.372  -0.148   0.358  0.00  0.00     0.278 C 
ATOM     16  H   UNL d   1       3.659   1.980   0.066  0.00  0.00     0.169 HD
ENDROOT
BRANCH  10  17
ATOM     17  C   UNL d   1      -3.935   2.173  -0.057  0.00  0.00     0.311 C 
BRANCH  17  18
ATOM     18  C   UNL d   1      -3.642   3.439  -0.835  0.00  0.00    -0.030 A 
ATOM     19  C   UNL d   1      -3.622   3.418  -2.237  0.00  0.00     0.009 A 
ATOM     20  C   UNL d   1      -3.224   4.546  -2.955  0.00  0.00     0.001 A 
ATOM     21  C   UNL d   1      -2.859   5.709  -2.279  0.00  0.00     0.000 A 
ATOM     22  C   UNL d   1      -2.917   5.754  -0.887  0.00  0.00     0.001 A 
ATOM     23  C   UNL d   1      -3.312   4.627  -0.167  0.00  0.00     0.009 A 
ENDBRANCH  17  18
ENDBRANCH  10  17
TORSDOF 2
