REMARK  2 active torsions:
REMARK  status: ('A' for Active; 'I' for Inactive)
REMARK    1  A    between atoms: O_5  and  C_1 
REMARK    2  A    between atoms: C_8  and  O_5 
ROOT
ATOM      1  C   UNL d   1      -1.028  -1.519  -0.238  0.00  0.00     0.152 C 
ATOM      2  C   UNL d   1      -1.533  -0.282  -0.137  0.00  0.00     0.122 C 
ATOM      3  C   UNL d   1       0.442  -1.696  -0.445  0.00  0.00     0.218 C 
ATOM      4  C   UNL d   1      -0.684   0.937  -0.125  0.00  0.00     0.207 C 
ATOM      5  C   UNL d   1       1.318  -0.528  -0.237  0.00  0.00     0.031 A 
ATOM      6  C   UNL d   1       0.776   0.746  -0.109  0.00  0.00     0.030 A 
ATOM      7  O   UNL d   1       0.934  -2.770  -0.770  0.00  0.00    -0.284 OA
ATOM      8  O   UNL d   1      -1.150   2.071  -0.095  0.00  0.00    -0.286 OA
ATOM      9 CL   UNL d   1      -3.241  -0.021   0.017  0.00  0.00    -0.077 Cl
ATOM     10  C   UNL d   1       1.622   1.853   0.045  0.00  0.00     0.016 A 
ATOM     11  C   UNL d   1       2.707  -0.707  -0.181  0.00  0.00     0.016 A 
ATOM     12  C   UNL d   1       3.006   1.675   0.090  0.00  0.00     0.001 A 
ATOM     13  C   UNL d   1       3.547   0.394  -0.013  0.00  0.00     0.001 A 
ENDROOT
BRANCH   1  14
ATOM     14  O   UNL d   1      -1.887  -2.621  -0.255  0.00  0.00    -0.303 OA
BRANCH  14  15
ATOM     15  C   UNL d   1      -1.524  -3.814   0.328  0.00  0.00     0.099 A 
ATOM     16  C   UNL d   1      -0.744  -3.883   1.488  0.00  0.00     0.064 A 
ATOM     17  C   UNL d   1      -0.393  -5.126   2.025  0.00  0.00     0.058 A 
ATOM     18 CL   UNL d   1       0.634  -5.133   3.414  0.00  0.00    -0.082 Cl
ATOM     19  C   UNL d   1      -0.867  -6.304   1.436  0.00  0.00     0.057 A 
ATOM     20  C   UNL d   1      -1.693  -6.237   0.311  0.00  0.00     0.052 A 
ATOM     21 CL   UNL d   1      -0.481  -7.868   2.058  0.00  0.00    -0.082 Cl
ATOM     22  C   UNL d   1      -2.019  -4.996  -0.240  0.00  0.00     0.069 A 
ATOM     23 CL   UNL d   1      -3.045  -4.962  -1.629  0.00  0.00    -0.081 Cl
ENDBRANCH  14  15
ENDBRANCH   1  14
TORSDOF 2
