REMARK  2 active torsions:
REMARK  status: ('A' for Active; 'I' for Inactive)
REMARK    1  A    between atoms: S_16  and  C_3 
REMARK    2  A    between atoms: C_8  and  C_6 
ROOT
ATOM      1  O   UNL d   1       1.153  -6.811   1.992  0.00  0.00    -0.340 OA
ATOM      2  C   UNL d   1       0.835  -5.556   1.553  0.00  0.00     0.076 A 
ATOM      3  C   UNL d   1      -0.093  -4.723   2.172  0.00  0.00    -0.024 A 
ATOM      4  C   UNL d   1       0.289  -2.992   0.454  0.00  0.00    -0.009 A 
ATOM      5  C   UNL d   1      -0.339  -3.450   1.633  0.00  0.00     0.023 A 
ATOM      6  C   UNL d   1       0.568  -7.257   3.230  0.00  0.00     0.061 C 
ATOM      7  C   UNL d   1       1.479  -5.131   0.395  0.00  0.00     0.038 A 
ATOM      8  C   UNL d   1       1.208  -3.869  -0.150  0.00  0.00     0.016 A 
ATOM      9  C   UNL d   1      -0.822  -5.167   3.404  0.00  0.00     0.044 C 
ATOM     10  C   UNL d   1      -0.842  -6.686   3.450  0.00  0.00     0.042 C 
ATOM     11  C   UNL d   1       1.519  -6.910   4.386  0.00  0.00     0.046 C 
ATOM     12  C   UNL d   1       0.477  -8.787   3.118  0.00  0.00     0.046 C 
ENDROOT
BRANCH   4  13
ATOM     13  C   UNL d   1      -0.033  -1.652  -0.092  0.00  0.00     0.045 A 
ATOM     14  N   UNL d   1      -0.605  -0.792   0.783  0.00  0.00    -0.336 N 
ATOM     15  C   UNL d   1      -0.934   0.425   0.332  0.00  0.00     0.141 A 
ATOM     16  HN  UNL d   1      -0.780  -1.062   1.751  1.00  0.00     0.168 HD
ATOM     17  N   UNL d   1      -0.745   0.868  -0.916  0.00  0.00    -0.347 N 
ATOM     18  C   UNL d   1      -0.178  -0.005  -1.764  0.00  0.00     0.092 A 
ATOM     19  HN  UNL d   1      -1.014   1.808  -1.205  1.00  0.00     0.167 HD
ATOM     20  C   UNL d   1       0.197  -1.282  -1.404  0.00  0.00     0.047 A 
BRANCH  15  21
ATOM     21  S   UNL d   1      -1.699   1.516   1.495  0.00  0.00    -0.107 SA
ATOM     22  H   UNL d   1      -1.651   0.619   2.486  0.00  0.00     0.110 HD
ENDBRANCH  15  21
ENDBRANCH   4  13
TORSDOF 2
