REMARK  6 active torsions:
REMARK  status: ('A' for Active; 'I' for Inactive)
REMARK    1  A    between atoms: S_2  and  C_1 
REMARK    2  A    between atoms: C_7  and  S_2 
REMARK    3  A    between atoms: C_8  and  C_3 
REMARK    4  A    between atoms: N_13  and  C_4 
REMARK    5  A    between atoms: C_9  and  C_7 
REMARK    6  A    between atoms: O_18  and  C_8 
ROOT
ATOM      1  C   UNL d   1      -0.676  -1.245   0.045  0.00  0.00     0.093 A 
ATOM      2  C   UNL d   1      -0.293   1.068   0.038  0.00  0.00     0.107 A 
ATOM      3  C   UNL d   1      -1.251   0.064   0.052  0.00  0.00     0.071 A 
ATOM      4  S   UNL d   1       1.293   0.400   0.033  0.00  0.00    -0.092 SA
ATOM      5  C   UNL d   1       0.702  -1.200   0.021  0.00  0.00     0.076 A 
ENDROOT
BRANCH   1   6
ATOM      6  S   UNL d   1      -1.545  -2.749   0.021  0.00  0.00     0.184 S 
ATOM      7  O   UNL d   1      -2.956  -2.415   0.098  0.00  0.00    -0.222 OA
ATOM      8  O   UNL d   1      -1.006  -3.429  -1.144  0.00  0.00    -0.222 OA
BRANCH   6   9
ATOM      9  C   UNL d   1      -1.045  -3.648   1.470  0.00  0.00     0.210 C 
BRANCH   9  10
ATOM     10  C   UNL d   1      -1.402  -2.902   2.693  0.00  0.00     0.066 A 
ATOM     11  O   UNL d   1      -0.415  -2.141   3.246  0.00  0.00    -0.326 OA
ATOM     12  C   UNL d   1      -0.938  -1.561   4.357  0.00  0.00     0.142 A 
ATOM     13  C   UNL d   1      -2.243  -1.953   4.535  0.00  0.00     0.027 A 
ATOM     14  C   UNL d   1      -2.544  -2.825   3.462  0.00  0.00     0.035 A 
ENDBRANCH   9  10
ENDBRANCH   6   9
ENDBRANCH   1   6
BRANCH   3  15
ATOM     15  N   UNL d   1      -2.579   0.298   0.066  0.00  0.00    -0.397 N 
ATOM     16  H   UNL d   1      -2.975   1.233  -0.014  0.00  0.00     0.156 HD
ATOM     17  H   UNL d   1      -3.265  -0.462   0.007  0.00  0.00     0.156 HD
ENDBRANCH   3  15
BRANCH   2  18
ATOM     18  C   UNL d   1      -0.422   2.518   0.026  0.00  0.00     0.302 C 
ATOM     19  O   UNL d   1       0.498   3.331   0.033  0.00  0.00    -0.259 OA
BRANCH  18  20
ATOM     20  O   UNL d   1      -1.742   2.881   0.002  0.00  0.00    -0.322 OA
ATOM     21  C   UNL d   1      -1.972   4.290  -0.004  0.00  0.00     0.213 C 
ENDBRANCH  18  20
ENDBRANCH   2  18
TORSDOF 6
