REMARK  3 active torsions:
REMARK  status: ('A' for Active; 'I' for Inactive)
REMARK    1  A    between atoms: C_10  and  C_5 
REMARK    2  A    between atoms: C_9  and  C_10 
REMARK    3  A    between atoms: N_14  and  C_11 
ROOT
ATOM      1  C   UNL d   1       0.307   0.754  -0.048  0.00  0.00     0.059 A 
ATOM      2  C   UNL d   1       0.058  -0.564  -0.001  0.00  0.00     0.003 A 
ATOM      3  C   UNL d   1      -1.328  -0.885   0.076  0.00  0.00    -0.028 A 
ATOM      4  S   UNL d   1      -1.054   1.704  -0.076  0.00  0.00    -0.077 SA
ATOM      5  C   UNL d   1      -2.083   0.306  -0.007  0.00  0.00     0.063 A 
ATOM      6  S   UNL d   1       1.926   1.147  -0.073  0.00  0.00    -0.074 SA
ATOM      7  C   UNL d   1       2.327  -0.516  -0.048  0.00  0.00     0.059 A 
ATOM      8  C   UNL d   1       1.228  -1.375  -0.042  0.00  0.00    -0.025 A 
ATOM      9 BR   UNL d   1       4.127  -1.070  -0.039  0.00  0.00    -0.042 Br
ATOM     10  C   UNL d   1      -1.924  -2.249   0.220  0.00  0.00     0.050 C 
ATOM     11  C   UNL d   1       1.330  -2.864  -0.082  0.00  0.00     0.051 C 
ENDROOT
BRANCH   5  12
ATOM     12  C   UNL d   1      -3.549   0.446  -0.068  0.00  0.00     0.190 C 
ATOM     13  O   UNL d   1      -4.286  -0.523  -0.257  0.00  0.00    -0.287 OA
BRANCH  12  14
ATOM     14  C   UNL d   1      -4.180   1.798   0.106  0.00  0.00     0.073 C 
ATOM     15  C   UNL d   1      -5.500   1.975  -0.048  0.00  0.00     0.088 C 
BRANCH  15  16
ATOM     16  N   UNL d   1      -6.262   3.132   0.078  0.00  0.00    -0.398 N 
ATOM     17  C   UNL d   1      -5.733   4.445   0.444  0.00  0.00     0.148 C 
ATOM     18  C   UNL d   1      -7.692   3.139  -0.242  0.00  0.00     0.148 C 
ENDBRANCH  15  16
ENDBRANCH  12  14
ENDBRANCH   5  12
TORSDOF 3
