REMARK  5 active torsions:
REMARK  status: ('A' for Active; 'I' for Inactive)
REMARK    1  A    between atoms: C_7  and  C_1 
REMARK    2  A    between atoms: C_6  and  C_2 
REMARK    3  A    between atoms: C_9  and  C_5 
REMARK       I    between atoms: N_8  and  C_7 
REMARK    4  A    between atoms: N_10  and  N_8 
REMARK    5  A    between atoms: C_18  and  N_10 
ROOT
ATOM      1  C   UNL d   1       1.205   0.601   0.049  0.00  0.00     0.074 A 
ATOM      2  C   UNL d   1      -0.086   1.109  -0.030  0.00  0.00     0.175 A 
ATOM      3  O   UNL d   1      -0.988   0.077  -0.020  0.00  0.00    -0.304 OA
ATOM      4  C   UNL d   1       1.053  -0.818   0.153  0.00  0.00     0.058 A 
ATOM      5  C   UNL d   1      -0.298  -1.091   0.093  0.00  0.00     0.087 A 
ENDROOT
BRANCH   1   6
ATOM      6  C   UNL d   1       2.432   1.377   0.005  0.00  0.00     0.269 C 
ATOM      7  N   UNL d   1       3.501   0.809   0.686  0.00  0.00    -0.283 N 
ATOM      8  H   UNL d   1       3.322   0.149   1.436  0.00  0.00     0.184 HD
ATOM      9  O   UNL d   1       2.516   2.444  -0.596  0.00  0.00    -0.266 OA
BRANCH   7  10
ATOM     10  N   UNL d   1       4.617   1.648   0.911  0.00  0.00    -0.203 NA
ATOM     11  H   UNL d   1       4.626   2.417   0.224  0.00  0.00     0.153 HD
BRANCH  10  12
ATOM     12  C   UNL d   1       5.879   1.000   0.886  0.00  0.00     0.027 A 
ATOM     13  C   UNL d   1       6.103  -0.272   0.345  0.00  0.00     0.025 A 
ATOM     14  C   UNL d   1       7.391  -0.819   0.315  0.00  0.00     0.002 A 
ATOM     15  C   UNL d   1       8.473  -0.099   0.820  0.00  0.00     0.000 A 
ATOM     16  C   UNL d   1       8.270   1.172   1.349  0.00  0.00     0.002 A 
ATOM     17  C   UNL d   1       6.984   1.717   1.372  0.00  0.00     0.025 A 
ENDBRANCH  10  12
ENDBRANCH   7  10
ENDBRANCH   1   6
BRANCH   2  18
ATOM     18  C   UNL d   1      -0.676   2.473  -0.088  0.00  0.00     0.440 C 
ATOM     19  F   UNL d   1       0.219   3.471   0.108  0.00  0.00    -0.164 F 
ATOM     20  F   UNL d   1      -1.290   2.712  -1.276  0.00  0.00    -0.164 F 
ATOM     21  F   UNL d   1      -1.626   2.634   0.875  0.00  0.00    -0.164 F 
ENDBRANCH   2  18
BRANCH   5  22
ATOM     22  C   UNL d   1      -1.097  -2.308   0.164  0.00  0.00    -0.002 A 
ATOM     23  C   UNL d   1      -0.587  -3.450   0.798  0.00  0.00     0.016 A 
ATOM     24  C   UNL d   1      -1.364  -4.608   0.924  0.00  0.00     0.024 A 
ATOM     25  C   UNL d   1      -2.654  -4.633   0.401  0.00  0.00     0.034 A 
ATOM     26  C   UNL d   1      -3.170  -3.523  -0.257  0.00  0.00     0.024 A 
ATOM     27 CL   UNL d   1      -3.619  -6.047   0.588  0.00  0.00    -0.084 Cl
ATOM     28  C   UNL d   1      -2.394  -2.364  -0.375  0.00  0.00     0.016 A 
ENDBRANCH   5  22
TORSDOF 5
