REMARK  5 active torsions:
REMARK  status: ('A' for Active; 'I' for Inactive)
REMARK       I    between atoms: N_2  and  C_1 
REMARK    1  A    between atoms: C_6  and  C_1 
REMARK    2  A    between atoms: C_12  and  N_2 
REMARK    3  A    between atoms: N_3  and  O_8 
REMARK    4  A    between atoms: C_7  and  C_5 
REMARK    5  A    between atoms: O_8  and  C_6 
ROOT
ATOM      1  C   UNL d   1      -0.429   3.157  -1.935  0.00  0.00     0.304 C 
ENDROOT
BRANCH   1   2
ATOM      2  C   UNL d   1       0.072   4.397  -2.667  0.00  0.00     0.248 C 
ATOM      3  N   UNL d   1      -0.907   5.320  -2.997  0.00  0.00    -0.325 N 
ATOM      4  H   UNL d   1      -1.830   5.150  -2.607  0.00  0.00     0.169 HD
ATOM      5  O   UNL d   1       1.276   4.516  -2.897  0.00  0.00    -0.271 OA
BRANCH   3   6
ATOM      6  C   UNL d   1      -0.721   6.502  -3.748  0.00  0.00     0.034 A 
ATOM      7  C   UNL d   1       0.447   6.763  -4.474  0.00  0.00     0.031 A 
ATOM      8  C   UNL d   1       0.590   7.944  -5.206  0.00  0.00     0.026 A 
ATOM      9  C   UNL d   1      -0.437   8.879  -5.218  0.00  0.00     0.034 A 
ATOM     10  C   UNL d   1      -1.612   8.634  -4.511  0.00  0.00     0.026 A 
ATOM     11 CL   UNL d   1      -0.257  10.333  -6.117  0.00  0.00    -0.084 Cl
ATOM     12  C   UNL d   1      -1.758   7.442  -3.785  0.00  0.00     0.031 A 
ENDBRANCH   3   6
ENDBRANCH   1   2
BRANCH   1  13
ATOM     13  O   UNL d   1      -1.837   3.108  -1.769  0.00  0.00    -0.271 OA
BRANCH  13  14
ATOM     14  N   UNL d   1      -2.151   1.912  -1.108  0.00  0.00    -0.270 N 
ATOM     15  C   UNL d   1      -3.426   1.775  -0.891  0.00  0.00     0.038 C 
ATOM     16  C   UNL d   1      -4.462   2.801  -1.307  0.00  0.00     0.071 C 
ATOM     17  HN  UNL d   1      -1.454   1.222  -0.827  1.00  0.00     0.194 HD
BRANCH  15  18
ATOM     18  C   UNL d   1      -3.907   0.539  -0.181  0.00  0.00    -0.012 A 
ATOM     19  C   UNL d   1      -2.977  -0.430   0.232  0.00  0.00     0.015 A 
ATOM     20  C   UNL d   1      -3.400  -1.582   0.906  0.00  0.00     0.024 A 
ATOM     21  C   UNL d   1      -4.754  -1.770   1.170  0.00  0.00     0.034 A 
ATOM     22  C   UNL d   1      -5.688  -0.821   0.763  0.00  0.00     0.024 A 
ATOM     23 CL   UNL d   1      -5.280  -3.180   2.003  0.00  0.00    -0.084 Cl
ATOM     24  C   UNL d   1      -5.266   0.331   0.088  0.00  0.00     0.015 A 
ENDBRANCH  15  18
ENDBRANCH  13  14
ENDBRANCH   1  13
TORSDOF 5
