REMARK  2 active torsions:
REMARK  status: ('A' for Active; 'I' for Inactive)
REMARK    1  A    between atoms: S_3  and  C_2 
REMARK    2  A    between atoms: C_11  and  C_4 
ROOT
ATOM      1  C   UNL d   1      -0.782   0.002   0.065  0.00  0.00     0.084 A 
ATOM      2  C   UNL d   1       0.097   1.070   0.029  0.00  0.00     0.120 A 
ATOM      3  C   UNL d   1      -0.113  -1.278  -0.005  0.00  0.00     0.003 A 
ATOM      4  S   UNL d   1       1.723   0.540   0.002  0.00  0.00    -0.088 SA
ATOM      5  C   UNL d   1       1.260  -1.103  -0.029  0.00  0.00     0.065 A 
ATOM      6  C   UNL d   1      -2.203   0.181   0.152  0.00  0.00     0.102 C 
ATOM      7  N   UNL d   1      -3.358   0.271   0.227  0.00  0.00    -0.191 NA
ENDROOT
BRANCH   2   8
ATOM      8  S   UNL d   1      -0.141   2.833  -0.021  0.00  0.00     0.179 S 
ATOM      9  O   UNL d   1       0.602   3.293  -1.175  0.00  0.00    -0.222 OA
ATOM     10  O   UNL d   1      -1.570   3.031   0.090  0.00  0.00    -0.222 OA
ATOM     11  C   UNL d   1       0.619   3.450   1.454  0.00  0.00     0.167 C 
ENDBRANCH   2   8
BRANCH   3  12
ATOM     12  C   UNL d   1      -0.708  -2.622  -0.063  0.00  0.00    -0.024 A 
ATOM     13  C   UNL d   1      -1.892  -2.848  -0.781  0.00  0.00     0.012 A 
ATOM     14  C   UNL d   1      -2.488  -4.112  -0.808  0.00  0.00     0.001 A 
ATOM     15  C   UNL d   1      -1.891  -5.178  -0.143  0.00  0.00     0.000 A 
ATOM     16  C   UNL d   1      -0.698  -4.981   0.547  0.00  0.00     0.001 A 
ATOM     17  C   UNL d   1      -0.113  -3.711   0.594  0.00  0.00     0.012 A 
ENDBRANCH   3  12
TORSDOF 2
