REMARK  3 active torsions:
REMARK  status: ('A' for Active; 'I' for Inactive)
REMARK    1  A    between atoms: O_10  and  C_2 
REMARK    2  A    between atoms: C_7  and  C_6 
REMARK    3  A    between atoms: C_11  and  O_10 
ROOT
ATOM      1  C   UNL d   1       0.014   0.773   0.037  0.00  0.00     0.046 A 
ATOM      2  C   UNL d   1       1.301   1.382   0.094  0.00  0.00     0.092 A 
ATOM      3  N   UNL d   1       1.140  -1.377   0.089  0.00  0.00    -0.351 N 
ATOM      4  HN  UNL d   1       1.083  -2.394   0.049  1.00  0.00     0.166 HD
ATOM      5  C   UNL d   1       0.021  -0.639   0.041  0.00  0.00     0.049 A 
ATOM      6  C   UNL d   1       2.350  -0.767   0.191  0.00  0.00     0.119 A 
ATOM      7  C   UNL d   1      -1.260   1.423  -0.021  0.00  0.00     0.051 A 
ATOM      8  C   UNL d   1       2.457   0.611   0.241  0.00  0.00     0.072 A 
ATOM      9  C   UNL d   1      -2.452   0.691  -0.065  0.00  0.00     0.048 A 
ATOM     10  C   UNL d   1      -1.172  -1.342  -0.010  0.00  0.00     0.054 A 
ATOM     11  C   UNL d   1      -2.398  -0.690  -0.060  0.00  0.00     0.037 A 
ATOM     12 CL   UNL d   1      -1.451   3.145  -0.026  0.00  0.00    -0.083 Cl
ATOM     13 CL   UNL d   1      -3.853  -1.605  -0.112  0.00  0.00    -0.084 Cl
ENDROOT
BRANCH   2  14
ATOM     14  O   UNL d   1       1.388   2.759   0.066  0.00  0.00    -0.308 OA
BRANCH  14  15
ATOM     15  C   UNL d   1       2.394   3.381  -0.647  0.00  0.00     0.098 A 
ATOM     16  C   UNL d   1       2.817   4.643  -0.198  0.00  0.00     0.070 A 
ATOM     17  C   UNL d   1       3.846   5.319  -0.853  0.00  0.00     0.069 A 
ATOM     18 CL   UNL d   1       2.090   5.397   1.176  0.00  0.00    -0.081 Cl
ATOM     19  C   UNL d   1       4.447   4.734  -1.960  0.00  0.00     0.118 A 
ATOM     20  C   UNL d   1       4.014   3.506  -2.446  0.00  0.00     0.045 A 
ATOM     21  F   UNL d   1       5.453   5.367  -2.575  0.00  0.00    -0.206 F 
ATOM     22  C   UNL d   1       2.968   2.840  -1.807  0.00  0.00     0.042 A 
ENDBRANCH  14  15
ENDBRANCH   2  14
BRANCH   6  23
ATOM     23  C   UNL d   1       3.625  -1.599   0.192  0.00  0.00     0.432 C 
ATOM     24  F   UNL d   1       3.423  -2.943   0.112  0.00  0.00    -0.165 F 
ATOM     25  F   UNL d   1       4.438  -1.283  -0.861  0.00  0.00    -0.165 F 
ATOM     26  F   UNL d   1       4.383  -1.396   1.308  0.00  0.00    -0.165 F 
ENDBRANCH   6  23
TORSDOF 3
