REMARK  4 active torsions:
REMARK  status: ('A' for Active; 'I' for Inactive)
REMARK    1  A    between atoms: C_8  and  C_1 
REMARK    2  A    between atoms: C_11  and  C_7 
REMARK    3  A    between atoms: N_10  and  C_9 
REMARK       I    between atoms: C_12  and  N_10 
REMARK    4  A    between atoms: C_13  and  C_14 
ROOT
ATOM      1  C   UNL d   1      -0.081  -1.003   0.744  0.00  0.00     0.177 A 
ATOM      2  O   UNL d   1      -0.876   0.109   0.847  0.00  0.00    -0.273 OA
ATOM      3  N   UNL d   1       1.113  -0.731   0.262  0.00  0.00    -0.277 N 
ATOM      4  HN  UNL d   1       1.886  -1.385   0.136  1.00  0.00     0.189 HD
ATOM      5  N   UNL d   1       1.112   0.618  -0.041  0.00  0.00    -0.277 N 
ATOM      6  HN  UNL d   1       1.871   1.149  -0.468  1.00  0.00     0.189 HD
ATOM      7  C   UNL d   1      -0.062   1.083   0.331  0.00  0.00     0.174 A 
ENDROOT
BRANCH   1   8
ATOM      8  C   UNL d   1      -0.666  -2.274   1.171  0.00  0.00     0.043 A 
ATOM      9  C   UNL d   1       0.122  -3.402   1.471  0.00  0.00     0.049 A 
ATOM     10  C   UNL d   1      -0.502  -4.600   1.848  0.00  0.00     0.030 A 
ATOM     11  C   UNL d   1      -1.893  -4.703   1.890  0.00  0.00     0.002 A 
ATOM     12  C   UNL d   1      -2.678  -3.611   1.550  0.00  0.00     0.001 A 
ATOM     13  C   UNL d   1      -2.066  -2.409   1.194  0.00  0.00     0.018 A 
BRANCH   9  14
ATOM     14  N   UNL d   1       1.540  -3.322   1.450  0.00  0.00    -0.327 N 
ATOM     15  C   UNL d   1       2.348  -4.351   0.999  0.00  0.00     0.218 C 
ATOM     16  O   UNL d   1       1.957  -5.409   0.512  0.00  0.00    -0.274 OA
ATOM     17  C   UNL d   1       3.818  -4.075   1.171  0.00  0.00     0.117 C 
ATOM     18  H   UNL d   1       1.949  -2.392   1.419  0.00  0.00     0.169 HD
ENDBRANCH   9  14
ENDBRANCH   1   8
BRANCH   7  19
ATOM     19  C   UNL d   1      -0.608   2.427   0.262  0.00  0.00     0.017 A 
ATOM     20  C   UNL d   1      -1.500   2.909   1.226  0.00  0.00     0.016 A 
ATOM     21  C   UNL d   1      -1.957   4.233   1.180  0.00  0.00     0.009 A 
ATOM     22  C   UNL d   1      -1.552   5.117   0.162  0.00  0.00    -0.051 A 
ATOM     23  C   UNL d   1      -0.689   4.604  -0.821  0.00  0.00     0.009 A 
ATOM     24  C   UNL d   1      -0.218   3.286  -0.767  0.00  0.00     0.016 A 
BRANCH  22  25
ATOM     25  C   UNL d   1      -2.031   6.581   0.159  0.00  0.00    -0.024 C 
ATOM     26  C   UNL d   1      -1.482   7.404  -1.029  0.00  0.00     0.019 C 
ATOM     27  C   UNL d   1      -3.571   6.637   0.084  0.00  0.00     0.019 C 
ATOM     28  C   UNL d   1      -1.568   7.288   1.452  0.00  0.00     0.019 C 
ENDBRANCH  22  25
ENDBRANCH   7  19
TORSDOF 4
