REMARK  4 active torsions:
REMARK  status: ('A' for Active; 'I' for Inactive)
REMARK    1  A    between atoms: C_3  and  C_1 
REMARK       I    between atoms: N_5  and  C_1 
REMARK    2  A    between atoms: S_4  and  C_2 
REMARK    3  A    between atoms: C_6  and  S_4 
REMARK    4  A    between atoms: C_7  and  N_5 
ROOT
ATOM      1  C   UNL d   1      -0.630  -1.535   0.326  0.00  0.00     0.090 A 
ATOM      2  C   UNL d   1       0.169  -0.576   0.943  0.00  0.00     0.066 A 
ATOM      3  N   UNL d   1      -1.221  -2.538   1.033  0.00  0.00    -0.359 N 
ATOM      4  HN  UNL d   1      -1.809  -3.231   0.571  1.00  0.00     0.166 HD
ATOM      5  C   UNL d   1       0.407  -0.668   2.319  0.00  0.00     0.021 A 
ATOM      6  C   UNL d   1      -1.002  -2.584   2.365  0.00  0.00     0.089 A 
ATOM      7  C   UNL d   1      -0.188  -1.694   3.044  0.00  0.00     0.018 A 
ENDROOT
BRANCH   2   8
ATOM      8  C   UNL d   1       0.643   0.632   0.255  0.00  0.00     0.259 C 
ATOM      9  N   UNL d   1       2.013   0.777   0.180  0.00  0.00    -0.320 N 
ATOM     10  H   UNL d   1       2.593  -0.055   0.241  0.00  0.00     0.169 HD
ATOM     11  O   UNL d   1      -0.199   1.432  -0.141  0.00  0.00    -0.267 OA
BRANCH   9  12
ATOM     12  C   UNL d   1       2.674   1.979  -0.157  0.00  0.00     0.074 A 
ATOM     13  C   UNL d   1       4.001   1.914  -0.607  0.00  0.00     0.146 A 
ATOM     14  C   UNL d   1       4.707   3.059  -0.956  0.00  0.00     0.086 A 
ATOM     15  F   UNL d   1       4.601   0.718  -0.727  0.00  0.00    -0.204 F 
ATOM     16  C   UNL d   1       4.090   4.296  -0.817  0.00  0.00     0.119 A 
ATOM     17  C   UNL d   1       2.789   4.396  -0.339  0.00  0.00     0.044 A 
ATOM     18  F   UNL d   1       4.760   5.409  -1.138  0.00  0.00    -0.206 F 
ATOM     19  C   UNL d   1       2.078   3.237  -0.015  0.00  0.00     0.036 A 
ENDBRANCH   9  12
ENDBRANCH   2   8
BRANCH   1  20
ATOM     20  S   UNL d   1      -0.869  -1.601  -1.443  0.00  0.00    -0.064 SA
BRANCH  20  21
ATOM     21  C   UNL d   1       0.083  -3.044  -1.808  0.00  0.00     0.047 A 
ATOM     22  S   UNL d   1       1.606  -3.400  -1.102  0.00  0.00    -0.095 SA
ATOM     23  C   UNL d   1       1.757  -4.853  -1.988  0.00  0.00     0.051 A 
ATOM     24  C   UNL d   1       0.696  -5.048  -2.842  0.00  0.00     0.009 A 
ATOM     25  C   UNL d   1      -0.267  -3.999  -2.743  0.00  0.00     0.027 A 
ENDBRANCH  20  21
ENDBRANCH   1  20
TORSDOF 4
