REMARK  3 active torsions:
REMARK  status: ('A' for Active; 'I' for Inactive)
REMARK    1  A    between atoms: N_3  and  C_1 
REMARK    2  A    between atoms: N_2  and  C_4 
REMARK    3  A    between atoms: C_13  and  C_6 
ROOT
ATOM      1  C   UNL d   1       0.360  -0.566  -1.167  0.00  0.00     0.130 A 
ATOM      2  C   UNL d   1       0.580  -1.340  -0.007  0.00  0.00     0.063 A 
ATOM      3  C   UNL d   1      -0.089   0.766  -1.125  0.00  0.00     0.053 A 
ATOM      4  C   UNL d   1      -0.353   1.371   0.102  0.00  0.00     0.012 A 
ATOM      5  C   UNL d   1       0.270  -0.696   1.208  0.00  0.00     0.033 A 
ATOM      6  C   UNL d   1      -0.184   0.632   1.272  0.00  0.00     0.017 A 
ENDROOT
BRANCH   2   7
ATOM      7  N   UNL d   1       1.132  -2.611  -0.001  0.00  0.00    -0.374 N 
ATOM      8  C   UNL d   1       1.938  -3.084   1.143  0.00  0.00     0.154 C 
ATOM      9  C   UNL d   1       3.031  -4.041   0.622  0.00  0.00     0.136 C 
ATOM     10  C   UNL d   1       3.866  -4.590   1.770  0.00  0.00     0.041 C 
ATOM     11  O   UNL d   1       2.440  -5.150  -0.085  0.00  0.00    -0.378 OA
ATOM     12  C   UNL d   1       1.691  -4.674  -1.226  0.00  0.00     0.136 C 
ATOM     13  C   UNL d   1       0.550  -3.727  -0.776  0.00  0.00     0.154 C 
ATOM     14  C   UNL d   1       1.149  -5.886  -1.966  0.00  0.00     0.041 C 
ENDBRANCH   2   7
BRANCH   1  15
ATOM     15  N   UNL d   1       0.655  -1.079  -2.492  0.00  0.00    -0.113 N 
ATOM     16  O   UNL d   1       1.823  -1.410  -2.744  0.00  0.00    -0.532 OA
ATOM     17  O   UNL d   1      -0.289  -1.126  -3.293  0.00  0.00    -0.532 OA
ENDBRANCH   1  15
BRANCH   4  18
ATOM     18  C   UNL d   1      -0.754   2.803   0.108  0.00  0.00     0.155 C 
ATOM     19  O   UNL d   1      -0.406   3.521  -0.828  0.00  0.00    -0.293 OA
ATOM     20  C   UNL d   1      -1.575   3.349   1.245  0.00  0.00     0.096 C 
ENDBRANCH   4  18
TORSDOF 3
