REMARK  5 active torsions:
REMARK  status: ('A' for Active; 'I' for Inactive)
REMARK    1  A    between atoms: O_2  and  S_1 
REMARK    2  A    between atoms: C_7  and  S_1 
REMARK    3  A    between atoms: C_3  and  O_2 
REMARK    4  A    between atoms: C_5  and  O_11 
REMARK    5  A    between atoms: O_11  and  C_17 
ROOT
ATOM      1  C   UNL d   1      -0.847   4.411   6.193  0.00  0.00     0.100 A 
ATOM      2  C   UNL d   1      -1.200   3.910   4.929  0.00  0.00     0.098 A 
ATOM      3  C   UNL d   1       0.414   5.074   6.377  0.00  0.00     0.104 C 
ATOM      4  N   UNL d   1       1.430   5.614   6.526  0.00  0.00    -0.191 NA
ATOM      5  C   UNL d   1      -1.744   4.259   7.259  0.00  0.00     0.057 A 
ATOM      6 CL   UNL d   1      -1.393   4.839   8.850  0.00  0.00    -0.083 Cl
ATOM      7  C   UNL d   1      -2.457   3.324   4.729  0.00  0.00     0.039 A 
ATOM      8  C   UNL d   1      -3.334   3.165   5.798  0.00  0.00     0.005 A 
ATOM      9  C   UNL d   1      -2.977   3.627   7.063  0.00  0.00     0.025 A 
ENDROOT
BRANCH   2  10
ATOM     10  O   UNL d   1      -0.323   4.099   3.883  0.00  0.00    -0.309 OA
BRANCH  10  11
ATOM     11  C   UNL d   1      -0.123   3.088   2.967  0.00  0.00     0.076 A 
ATOM     12  C   UNL d   1       0.234   3.504   1.682  0.00  0.00     0.039 A 
ATOM     13  C   UNL d   1       0.560   2.564   0.700  0.00  0.00     0.028 A 
ATOM     14  C   UNL d   1       0.528   1.200   1.009  0.00  0.00     0.087 A 
ATOM     15  C   UNL d   1       0.159   0.776   2.291  0.00  0.00     0.028 A 
ATOM     16  C   UNL d   1      -0.153   1.723   3.273  0.00  0.00     0.039 A 
BRANCH  14  17
ATOM     17  S   UNL d   1       1.269   0.028  -0.130  0.00  0.00     0.303 S 
ATOM     18  O   UNL d   1       2.166   0.816  -0.953  0.00  0.00    -0.193 OA
ATOM     19  O   UNL d   1       1.745  -1.068   0.694  0.00  0.00    -0.193 OA
BRANCH  17  20
ATOM     20  O   UNL d   1       0.046  -0.504  -1.052  0.00  0.00    -0.226 OA
BRANCH  20  21
ATOM     21  C   UNL d   1       0.132  -1.502  -2.003  0.00  0.00     0.133 A 
ATOM     22  C   UNL d   1       1.269  -2.155  -2.514  0.00  0.00     0.070 A 
ATOM     23 CL   UNL d   1       2.909  -1.877  -2.054  0.00  0.00    -0.081 Cl
ATOM     24  C   UNL d   1       1.137  -3.138  -3.514  0.00  0.00     0.027 A 
ATOM     25  C   UNL d   1      -0.106  -3.491  -4.024  0.00  0.00     0.003 A 
ATOM     26  C   UNL d   1      -1.239  -2.862  -3.532  0.00  0.00     0.027 A 
ATOM     27  C   UNL d   1      -1.121  -1.883  -2.537  0.00  0.00     0.070 A 
ATOM     28 CL   UNL d   1      -2.593  -1.151  -1.982  0.00  0.00    -0.081 Cl
ENDBRANCH  20  21
ENDBRANCH  17  20
ENDBRANCH  14  17
ENDBRANCH  10  11
ENDBRANCH   2  10
TORSDOF 5
