REMARK  6 active torsions:
REMARK  status: ('A' for Active; 'I' for Inactive)
REMARK    1  A    between atoms: C_11  and  C_1 
REMARK    2  A    between atoms: S_2  and  C_4 
REMARK    3  A    between atoms: C_16  and  S_2 
REMARK    4  A    between atoms: N_7  and  C_3 
REMARK    5  A    between atoms: N_8  and  N_7 
REMARK    6  A    between atoms: O_22  and  C_11 
ROOT
ATOM      1  C   UNL d   1      -2.825  -3.728  -0.095  0.00  0.00     0.229 C 
ATOM      2  N   UNL d   1      -2.200  -2.584  -0.132  0.00  0.00    -0.281 N 
ATOM      3  HN  UNL d   1      -1.180  -2.570  -0.148  1.00  0.00     0.188 HD
ATOM      4  C   UNL d   1      -4.261  -3.778  -0.090  0.00  0.00     0.132 C 
ATOM      5  N   UNL d   1      -5.422  -3.768  -0.077  0.00  0.00    -0.189 NA
ENDROOT
BRANCH   1   6
ATOM      6  S   UNL d   1      -1.980  -5.258  -0.091  0.00  0.00     0.233 S 
ATOM      7  O   UNL d   1      -2.326  -5.917   1.156  0.00  0.00    -0.215 OA
ATOM      8  O   UNL d   1      -2.272  -5.875  -1.373  0.00  0.00    -0.215 OA
BRANCH   6   9
ATOM      9  C   UNL d   1      -0.236  -4.929  -0.025  0.00  0.00     0.066 A 
ATOM     10  C   UNL d   1       0.295  -4.245   1.075  0.00  0.00     0.025 A 
ATOM     11  C   UNL d   1       1.674  -4.032   1.154  0.00  0.00     0.025 A 
ATOM     12  C   UNL d   1       2.512  -4.513   0.147  0.00  0.00     0.034 A 
ATOM     13  C   UNL d   1       1.984  -5.204  -0.944  0.00  0.00     0.025 A 
ATOM     14 CL   UNL d   1       4.212  -4.268   0.263  0.00  0.00    -0.084 Cl
ATOM     15  C   UNL d   1       0.605  -5.415  -1.034  0.00  0.00     0.025 A 
ENDBRANCH   6   9
ENDBRANCH   1   6
BRANCH   2  16
ATOM     16  N   UNL d   1      -2.886  -1.403  -0.150  0.00  0.00    -0.296 N 
ATOM     17  H   UNL d   1      -3.831  -1.342   0.268  0.00  0.00     0.187 HD
BRANCH  16  18
ATOM     18  C   UNL d   1      -2.327  -0.247  -0.628  0.00  0.00     0.092 A 
ATOM     19  C   UNL d   1      -2.993   0.972  -0.598  0.00  0.00     0.109 A 
ATOM     20  S   UNL d   1      -2.043   2.221  -1.295  0.00  0.00    -0.092 SA
ATOM     21  C   UNL d   1      -0.762   1.155  -1.642  0.00  0.00     0.075 A 
ATOM     22  C   UNL d   1      -1.034  -0.134  -1.241  0.00  0.00     0.080 A 
ATOM     23  C   UNL d   1      -0.088  -1.183  -1.474  0.00  0.00     0.102 C 
ATOM     24  N   UNL d   1       0.699  -2.005  -1.704  0.00  0.00    -0.191 NA
BRANCH  19  25
ATOM     25  C   UNL d   1      -4.322   1.228  -0.068  0.00  0.00     0.302 C 
ATOM     26  O   UNL d   1      -5.019   0.371   0.467  0.00  0.00    -0.259 OA
BRANCH  25  27
ATOM     27  O   UNL d   1      -4.700   2.526  -0.241  0.00  0.00    -0.322 OA
ATOM     28  C   UNL d   1      -6.005   2.837   0.248  0.00  0.00     0.213 C 
ENDBRANCH  25  27
ENDBRANCH  19  25
ENDBRANCH  16  18
ENDBRANCH   2  16
TORSDOF 6
