REMARK  7 active torsions:
REMARK  status: ('A' for Active; 'I' for Inactive)
REMARK    1  A    between atoms: N_2  and  C_1 
REMARK    2  A    between atoms: C_3  and  C_1 
REMARK    3  A    between atoms: C_5  and  C_1 
REMARK    4  A    between atoms: O_7  and  C_1 
REMARK       I    between atoms: C_4  and  N_2 
REMARK    5  A    between atoms: C_8  and  C_4 
REMARK    6  A    between atoms: O_15  and  C_5 
REMARK    7  A    between atoms: C_20  and  O_15 
ROOT
ATOM      1  C   UNL d   1       1.065   0.074  -0.121  0.00  0.00     0.325 C 
ENDROOT
BRANCH   1   2
ATOM      2  N   UNL d   1       0.577   0.361  -1.478  0.00  0.00    -0.309 N 
ATOM      3  C   UNL d   1       0.795  -0.525  -2.498  0.00  0.00     0.254 C 
ATOM      4  O   UNL d   1       1.463  -1.542  -2.330  0.00  0.00    -0.268 OA
ATOM      5  H   UNL d   1      -0.156   1.061  -1.555  0.00  0.00     0.166 HD
BRANCH   3   6
ATOM      6  C   UNL d   1       0.201  -0.205  -3.816  0.00  0.00     0.034 A 
ATOM      7  C   UNL d   1      -0.019   1.110  -4.228  0.00  0.00     0.034 A 
ATOM      8  C   UNL d   1      -0.544   1.309  -5.492  0.00  0.00     0.088 A 
ATOM      9  N   UNL d   1      -0.855   0.306  -6.340  0.00  0.00    -0.375 N 
ATOM     10  C   UNL d   1      -0.618  -0.955  -5.918  0.00  0.00     0.088 A 
ATOM     11  HN  UNL d   1      -1.253   0.493  -7.261  1.00  0.00     0.164 HD
ATOM     12  C   UNL d   1      -0.093  -1.260  -4.677  0.00  0.00     0.034 A 
ENDBRANCH   3   6
ENDBRANCH   1   2
BRANCH   1  13
ATOM     13  C   UNL d   1       0.449  -1.174   0.579  0.00  0.00     0.448 C 
ATOM     14  F   UNL d   1      -0.537  -1.739  -0.163  0.00  0.00    -0.166 F 
ATOM     15  F   UNL d   1       1.384  -2.135   0.788  0.00  0.00    -0.166 F 
ATOM     16  F   UNL d   1      -0.097  -0.896   1.788  0.00  0.00    -0.166 F 
ENDBRANCH   1  13
BRANCH   1  17
ATOM     17  C   UNL d   1       0.653   1.287   0.725  0.00  0.00     0.325 C 
ATOM     18  O   UNL d   1      -0.331   1.982   0.475  0.00  0.00    -0.259 OA
BRANCH  17  19
ATOM     19  O   UNL d   1       1.566   1.551   1.702  0.00  0.00    -0.318 OA
BRANCH  19  20
ATOM     20  C   UNL d   1       1.534   2.878   2.241  0.00  0.00     0.174 C 
ATOM     21  C   UNL d   1       2.272   3.810   1.295  0.00  0.00     0.034 C 
ENDBRANCH  19  20
ENDBRANCH  17  19
ENDBRANCH   1  17
BRANCH   1  22
ATOM     22  O   UNL d   1       2.490   0.014  -0.252  0.00  0.00    -0.356 OA
ATOM     23  H   UNL d   1       2.648  -0.760  -0.830  0.00  0.00     0.213 HD
ENDBRANCH   1  22
TORSDOF 7
