REMARK  7 active torsions:
REMARK  status: ('A' for Active; 'I' for Inactive)
REMARK    1  A    between atoms: C_2  and  C_1 
REMARK    2  A    between atoms: C_8  and  C_4 
REMARK    3  A    between atoms: S_19  and  C_11 
REMARK    4  A    between atoms: C_25  and  S_19 
REMARK    5  A    between atoms: C_21  and  C_25 
REMARK       I    between atoms: N_22  and  C_21 
REMARK    6  A    between atoms: C_29  and  N_22 
REMARK    7  A    between atoms: C_30  and  C_23 
ROOT
ATOM      1  C   UNL d   1      -1.316   0.572   0.084  0.00  0.00     0.143 C 
ATOM      2  N   UNL d   1      -0.883  -0.343   1.017  0.00  0.00    -0.315 N 
ATOM      3  N   UNL d   1      -0.471   0.568  -0.930  0.00  0.00    -0.282 N 
ATOM      4  HN  UNL d   1      -0.490   1.204  -1.727  1.00  0.00     0.188 HD
ATOM      5  C   UNL d   1       0.146  -1.009   0.413  0.00  0.00     0.163 C 
ATOM      6  N   UNL d   1       0.438  -0.439  -0.730  0.00  0.00    -0.278 N 
ATOM      7  HN  UNL d   1       1.200  -0.697  -1.356  1.00  0.00     0.189 HD
ATOM      8  C   UNL d   1      -1.337  -0.541   2.369  0.00  0.00     0.160 C 
ENDROOT
BRANCH   5   9
ATOM      9  S   UNL d   1       0.788  -2.507   0.980  0.00  0.00    -0.083 SA
BRANCH   9  10
ATOM     10  C   UNL d   1       2.270  -2.691  -0.046  0.00  0.00     0.185 C 
BRANCH  10  11
ATOM     11  C   UNL d   1       2.075  -3.189  -1.474  0.00  0.00     0.231 C 
ATOM     12  N   UNL d   1       0.843  -2.979  -2.053  0.00  0.00    -0.327 N 
ATOM     13  H   UNL d   1       0.202  -2.385  -1.540  0.00  0.00     0.169 HD
ATOM     14  O   UNL d   1       3.038  -3.714  -2.038  0.00  0.00    -0.272 OA
BRANCH  12  15
ATOM     15  C   UNL d   1       0.395  -3.386  -3.326  0.00  0.00     0.034 A 
ATOM     16  C   UNL d   1       1.157  -4.150  -4.205  0.00  0.00     0.030 A 
ATOM     17  C   UNL d   1       0.633  -4.546  -5.440  0.00  0.00     0.010 A 
ATOM     18  C   UNL d   1      -0.668  -4.195  -5.820  0.00  0.00    -0.055 A 
ATOM     19  C   UNL d   1      -1.428  -3.412  -4.941  0.00  0.00     0.010 A 
ATOM     20  C   UNL d   1      -0.897  -3.009  -3.709  0.00  0.00     0.030 A 
BRANCH  18  21
ATOM     21  C   UNL d   1      -1.260  -4.674  -7.132  0.00  0.00     0.010 C 
ATOM     22  C   UNL d   1      -0.467  -4.163  -8.337  0.00  0.00     0.015 C 
ATOM     23  C   UNL d   1      -1.360  -6.203  -7.155  0.00  0.00     0.015 C 
ENDBRANCH  18  21
ENDBRANCH  12  15
ENDBRANCH  10  11
ENDBRANCH   9  10
ENDBRANCH   5   9
BRANCH   1  24
ATOM     24  C   UNL d   1      -2.493   1.382   0.121  0.00  0.00     0.074 A 
ATOM     25  S   UNL d   1      -3.989   0.778   0.703  0.00  0.00    -0.064 SA
ATOM     26  C   UNL d   1      -4.721   2.304   0.428  0.00  0.00     0.104 A 
ATOM     27  N   UNL d   1      -3.953   3.192  -0.169  0.00  0.00    -0.351 N 
ATOM     28  C   UNL d   1      -2.680   2.667  -0.373  0.00  0.00     0.027 A 
ATOM     29  HN  UNL d   1      -4.248   4.130  -0.443  1.00  0.00     0.166 HD
ATOM     30  C   UNL d   1      -1.666   3.519  -1.056  0.00  0.00     0.070 C 
BRANCH  26  31
ATOM     31  C   UNL d   1      -6.126   2.594   0.856  0.00  0.00     0.091 A 
ATOM     32  N   UNL d   1      -6.878   1.716   1.534  0.00  0.00    -0.258 N 
ATOM     33  O   UNL d   1      -8.079   2.354   1.774  0.00  0.00    -0.242 OA
ATOM     34  HN  UNL d   1      -6.617   0.770   1.815  1.00  0.00     0.195 HD
ATOM     35  C   UNL d   1      -8.045   3.599   1.230  0.00  0.00     0.074 A 
ATOM     36  C   UNL d   1      -6.825   3.803   0.635  0.00  0.00     0.068 A 
ATOM     37  C   UNL d   1      -9.261   4.411   1.402  0.00  0.00     0.079 C 
ENDBRANCH  26  31
ENDBRANCH   1  24
TORSDOF 7
