REMARK  4 active torsions:
REMARK  status: ('A' for Active; 'I' for Inactive)
REMARK    1  A    between atoms: N_6  and  C_1 
REMARK    2  A    between atoms: C_10  and  C_5 
REMARK       I    between atoms: C_8  and  N_6 
REMARK    3  A    between atoms: C_9  and  C_8 
REMARK    4  A    between atoms: C_11  and  C_12 
ROOT
ATOM      1  C   UNL d   1       0.014  -1.084   0.623  0.00  0.00     0.124 A 
ATOM      2  C   UNL d   1      -0.406   0.147   1.062  0.00  0.00     0.081 A 
ATOM      3  N   UNL d   1      -0.086   0.307  -1.177  0.00  0.00    -0.298 N 
ATOM      4  HN  UNL d   1      -0.014   0.654  -2.133  1.00  0.00     0.187 HD
ATOM      5  C   UNL d   1      -0.504   0.976  -0.090  0.00  0.00     0.062 A 
ATOM      6  N   UNL d   1       0.216  -0.921  -0.722  0.00  0.00    -0.285 N 
ATOM      7  H   UNL d   1       0.542  -1.601  -1.398  0.00  0.00     0.188 HD
ENDROOT
BRANCH   1   8
ATOM      8  N   UNL d   1       0.170  -2.262   1.352  0.00  0.00    -0.308 N 
ATOM      9  C   UNL d   1      -0.023  -2.320   2.779  0.00  0.00     0.257 C 
ATOM     10  O   UNL d   1      -0.148  -1.306   3.447  0.00  0.00    -0.267 OA
ATOM     11  H   UNL d   1       0.436  -3.100   0.853  0.00  0.00     0.170 HD
BRANCH   9  12
ATOM     12  C   UNL d   1      -0.041  -3.655   3.425  0.00  0.00     0.032 A 
ATOM     13  C   UNL d   1       0.300  -3.728   4.786  0.00  0.00     0.018 A 
ATOM     14  C   UNL d   1       0.229  -4.943   5.468  0.00  0.00     0.025 A 
ATOM     15  C   UNL d   1      -0.191  -6.087   4.795  0.00  0.00     0.034 A 
ATOM     16  C   UNL d   1      -0.534  -6.025   3.442  0.00  0.00     0.025 A 
ATOM     17 CL   UNL d   1      -0.311  -7.578   5.641  0.00  0.00    -0.084 Cl
ATOM     18  C   UNL d   1      -0.462  -4.809   2.752  0.00  0.00     0.018 A 
ENDBRANCH   9  12
ENDBRANCH   1   8
BRANCH   5  19
ATOM     19  C   UNL d   1      -1.003   2.352  -0.134  0.00  0.00    -0.008 A 
ATOM     20  C   UNL d   1      -0.668   3.225  -1.171  0.00  0.00     0.014 A 
ATOM     21  C   UNL d   1      -1.147   4.545  -1.175  0.00  0.00     0.009 A 
ATOM     22  C   UNL d   1      -1.982   5.034  -0.149  0.00  0.00    -0.051 A 
ATOM     23  C   UNL d   1      -2.323   4.140   0.873  0.00  0.00     0.009 A 
ATOM     24  C   UNL d   1      -1.845   2.825   0.881  0.00  0.00     0.014 A 
BRANCH  22  25
ATOM     25  C   UNL d   1      -2.479   6.490  -0.163  0.00  0.00    -0.024 C 
ATOM     26  C   UNL d   1      -3.394   6.847   1.034  0.00  0.00     0.019 C 
ATOM     27  C   UNL d   1      -1.270   7.447  -0.110  0.00  0.00     0.019 C 
ATOM     28  C   UNL d   1      -3.289   6.759  -1.447  0.00  0.00     0.019 C 
ENDBRANCH  22  25
ENDBRANCH   5  19
TORSDOF 4
