REMARK  4 active torsions:
REMARK  status: ('A' for Active; 'I' for Inactive)
REMARK    1  A    between atoms: C_4  and  C_1 
REMARK    2  A    between atoms: O_11  and  C_2 
REMARK    3  A    between atoms: O_12  and  C_3 
REMARK    4  A    between atoms: O_13  and  C_4 
ROOT
ATOM      1  C   UNL d   1      -0.166  -2.289   0.063  0.00  0.00     0.107 A 
ATOM      2  C   UNL d   1      -1.318  -1.467  -0.025  0.00  0.00     0.109 A 
ATOM      3  C   UNL d   1       1.126  -1.739   0.123  0.00  0.00     0.109 A 
ATOM      4  C   UNL d   1      -1.129  -0.075  -0.089  0.00  0.00     0.070 A 
ATOM      5  C   UNL d   1       1.282  -0.355   0.063  0.00  0.00     0.070 A 
ATOM      6  C   UNL d   1       0.166   0.467  -0.059  0.00  0.00     0.053 A 
ATOM      7 CL   UNL d   1      -2.387   1.107  -0.186  0.00  0.00    -0.081 Cl
ATOM      8 CL   UNL d   1       2.841   0.380   0.140  0.00  0.00    -0.081 Cl
ENDROOT
BRANCH   1   9
ATOM      9  C   UNL d   1      -0.325  -3.767   0.056  0.00  0.00     0.181 C 
ATOM     10  O   UNL d   1      -0.944  -4.370  -0.801  0.00  0.00    -0.646 OA
BRANCH   9  11
ATOM     11  O   UNL d   1       0.310  -4.376   1.081  0.00  0.00    -0.772 OA
ATOM     12  H   UNL d   1       0.883  -3.782   1.605  0.00  0.00     0.167 HD
ENDBRANCH   9  11
ENDBRANCH   1   9
BRANCH   2  13
ATOM     13  O   UNL d   1      -2.488  -2.171   0.016  0.00  0.00    -0.353 OA
ATOM     14  C   UNL d   1      -3.761  -1.556  -0.038  0.00  0.00     0.210 C 
ENDBRANCH   2  13
BRANCH   3  15
ATOM     15  O   UNL d   1       2.218  -2.525   0.390  0.00  0.00    -0.353 OA
ATOM     16  C   UNL d   1       2.727  -3.172  -0.782  0.00  0.00     0.210 C 
ENDBRANCH   3  15
TORSDOF 4
