REMARK  5 active torsions:
REMARK  status: ('A' for Active; 'I' for Inactive)
REMARK    1  A    between atoms: C_14  and  C_3 
REMARK       I    between atoms: C_5  and  N_11 
REMARK    2  A    between atoms: C_8  and  C_5 
REMARK    3  A    between atoms: C_7  and  C_8 
REMARK    4  A    between atoms: N_11  and  C_13 
REMARK    5  A    between atoms: C_13  and  C_14 
ROOT
ATOM      1  C   UNL d   1      -1.888  -5.933  -1.201  0.00  0.00     0.221 C 
ATOM      2  O   UNL d   1      -1.903  -5.383  -2.307  0.00  0.00    -0.273 OA
ATOM      3  N   UNL d   1      -1.738  -5.197  -0.058  0.00  0.00    -0.360 N 
ATOM      4  H   UNL d   1      -1.727  -5.664   0.841  0.00  0.00     0.162 HD
ENDROOT
BRANCH   3   5
ATOM      5  C   UNL d   1      -1.445  -3.772  -0.080  0.00  0.00     0.127 C 
BRANCH   5   6
ATOM      6  C   UNL d   1      -2.632  -2.865  -0.427  0.00  0.00     0.060 C 
BRANCH   6   7
ATOM      7  C   UNL d   1      -3.616  -2.639   0.686  0.00  0.00    -0.029 A 
ATOM      8  C   UNL d   1      -3.425  -1.865   1.818  0.00  0.00     0.096 A 
ATOM      9  N   UNL d   1      -4.603  -1.811   2.516  0.00  0.00    -0.365 N 
ATOM     10  C   UNL d   1      -5.586  -2.511   1.847  0.00  0.00     0.042 A 
ATOM     11  H   UNL d   1      -4.758  -1.294   3.362  0.00  0.00     0.165 HD
ATOM     12  C   UNL d   1      -4.990  -3.066   0.718  0.00  0.00    -0.002 A 
ATOM     13  C   UNL d   1      -6.940  -2.673   2.151  0.00  0.00     0.030 A 
ATOM     14  C   UNL d   1      -5.787  -3.861  -0.139  0.00  0.00     0.014 A 
ATOM     15  C   UNL d   1      -7.145  -4.041   0.158  0.00  0.00     0.001 A 
ATOM     16  C   UNL d   1      -7.712  -3.448   1.282  0.00  0.00     0.002 A 
ENDBRANCH   6   7
ENDBRANCH   5   6
ENDBRANCH   3   5
BRANCH   1  17
ATOM     17  C   UNL d   1      -2.173  -7.426  -1.101  0.00  0.00     0.144 C 
BRANCH  17  18
ATOM     18  C   UNL d   1      -1.451  -8.352  -0.140  0.00  0.00    -0.011 A 
ATOM     19  C   UNL d   1      -1.281  -8.113   1.226  0.00  0.00     0.123 A 
ATOM     20  F   UNL d   1      -1.687  -6.961   1.776  0.00  0.00    -0.206 F 
ATOM     21  C   UNL d   1      -0.727  -9.071   2.080  0.00  0.00     0.043 A 
ATOM     22  C   UNL d   1      -0.359 -10.316   1.592  0.00  0.00     0.003 A 
ATOM     23  C   UNL d   1      -0.545 -10.603   0.243  0.00  0.00     0.001 A 
ATOM     24  C   UNL d   1      -1.083  -9.629  -0.610  0.00  0.00     0.011 A 
ENDBRANCH  17  18
ENDBRANCH   1  17
TORSDOF 5
