REMARK  2 active torsions:
REMARK  status: ('A' for Active; 'I' for Inactive)
REMARK    1  A    between atoms: C_2  and  N_1 
REMARK    2  A    between atoms: N_3  and  C_4 
REMARK       I    between atoms: C_7  and  N_3 
ROOT
ATOM      1  C   UNL d   1       0.207   1.056  -0.799  0.00  0.00     0.103 A 
ATOM      2  C   UNL d   1      -1.055   2.914  -2.501  0.00  0.00     0.040 A 
ATOM      3  C   UNL d   1       0.610   1.165  -2.135  0.00  0.00     0.045 A 
ATOM      4  C   UNL d   1      -0.017   2.089  -2.997  0.00  0.00    -0.033 A 
ATOM      5  C   UNL d   1      -0.819   1.861  -0.308  0.00  0.00     0.038 A 
ATOM      6  C   UNL d   1      -1.440   2.780  -1.159  0.00  0.00     0.032 A 
ATOM      7  C   UNL d   1       0.464   2.158  -4.424  0.00  0.00     0.050 C 
ENDROOT
BRANCH   2   8
ATOM      8  N   UNL d   1      -1.672   3.848  -3.371  0.00  0.00    -0.327 N 
ATOM      9  C   UNL d   1      -2.691   4.736  -3.069  0.00  0.00     0.218 C 
ATOM     10  O   UNL d   1      -3.251   4.875  -1.986  0.00  0.00    -0.274 OA
ATOM     11  C   UNL d   1      -3.104   5.595  -4.239  0.00  0.00     0.117 C 
ATOM     12  H   UNL d   1      -1.324   3.872  -4.319  0.00  0.00     0.169 HD
ENDBRANCH   2   8
BRANCH   1  13
ATOM     13  N   UNL d   1       0.867   0.093   0.091  0.00  0.00    -0.116 N 
ATOM     14  O   UNL d   1       1.777  -0.600  -0.385  0.00  0.00    -0.532 OA
ATOM     15  O   UNL d   1       0.476   0.029   1.266  0.00  0.00    -0.532 OA
ENDBRANCH   1  13
TORSDOF 2
