REMARK  3 active torsions:
REMARK  status: ('A' for Active; 'I' for Inactive)
REMARK    1  A    between atoms: C_2  and  N_1 
REMARK    2  A    between atoms: C_3  and  C_2 
REMARK    3  A    between atoms: C_4  and  C_2 
ROOT
ATOM      1  C   UNL d   1      -1.608   0.037   1.663  0.00  0.00     0.289 C 
ENDROOT
BRANCH   1   2
ATOM      2  N   UNL d   1      -1.393   0.027   0.185  0.00  0.00     0.105 N 
ATOM      3  C   UNL d   1      -0.769  -1.222  -0.316  0.00  0.00     0.303 C 
ATOM      4  C   UNL d   1       0.704  -1.429   0.097  0.00  0.00     0.299 C 
ATOM      5  N   UNL d   1       1.565  -0.301  -0.274  0.00  0.00     0.086 N 
ATOM      6  C   UNL d   1       0.984   0.976   0.155  0.00  0.00     0.299 C 
ATOM      7  H   UNL d   1       2.489  -0.421   0.138  0.00  0.00     0.315 HD
ATOM      8  C   UNL d   1      -0.500   1.137  -0.254  0.00  0.00     0.303 C 
ENDBRANCH   1   2
BRANCH   1   9
ATOM      9  C   UNL d   1      -2.238   1.361   2.128  0.00  0.00    -0.021 A 
ATOM     10  C   UNL d   1      -3.481   1.788   1.626  0.00  0.00     0.012 A 
ATOM     11  C   UNL d   1      -4.022   3.014   2.013  0.00  0.00     0.043 A 
ATOM     12  C   UNL d   1      -3.319   3.824   2.895  0.00  0.00     0.116 A 
ATOM     13  C   UNL d   1      -2.092   3.424   3.410  0.00  0.00     0.043 A 
ATOM     14  F   UNL d   1      -3.826   5.013   3.248  0.00  0.00    -0.206 F 
ATOM     15  C   UNL d   1      -1.551   2.193   3.033  0.00  0.00     0.012 A 
ENDBRANCH   1   9
BRANCH   1  16
ATOM     16  C   UNL d   1      -2.436  -1.137   2.216  0.00  0.00    -0.021 A 
ATOM     17  C   UNL d   1      -2.177  -1.603   3.522  0.00  0.00     0.012 A 
ATOM     18  C   UNL d   1      -2.934  -2.639   4.075  0.00  0.00     0.043 A 
ATOM     19  C   UNL d   1      -3.952  -3.219   3.331  0.00  0.00     0.116 A 
ATOM     20  C   UNL d   1      -4.233  -2.775   2.046  0.00  0.00     0.043 A 
ATOM     21  F   UNL d   1      -4.674  -4.215   3.862  0.00  0.00    -0.206 F 
ATOM     22  C   UNL d   1      -3.488  -1.729   1.494  0.00  0.00     0.012 A 
ENDBRANCH   1  16
TORSDOF 3
