REMARK  7 active torsions:
REMARK  status: ('A' for Active; 'I' for Inactive)
REMARK    1  A    between atoms: C_10  and  N_1 
REMARK    2  A    between atoms: O_8  and  C_2 
REMARK    3  A    between atoms: S_12  and  C_3 
REMARK    4  A    between atoms: C_9  and  O_8 
REMARK       I    between atoms: N_14  and  C_9 
REMARK    5  A    between atoms: C_21  and  S_12 
REMARK    6  A    between atoms: C_22  and  N_14 
REMARK    7  A    between atoms: C_23  and  N_14 
ROOT
ATOM      1  N   UNL d   1      -0.580  -1.138   0.114  0.00  0.00    -0.255 N 
ATOM      2  C   UNL d   1       0.728  -0.699   0.325  0.00  0.00     0.256 A 
ATOM      3  C   UNL d   1      -1.305   0.043  -0.018  0.00  0.00     0.169 A 
ATOM      4  N   UNL d   1       0.788   0.609   0.205  0.00  0.00    -0.262 N 
ATOM      5  HN  UNL d   1       1.635   1.176   0.242  1.00  0.00     0.190 HD
ATOM      6  N   UNL d   1      -0.486   1.074   0.022  0.00  0.00    -0.276 N 
ATOM      7  HN  UNL d   1      -0.756   2.054  -0.069  1.00  0.00     0.189 HD
ENDROOT
BRANCH   1   8
ATOM      8  C   UNL d   1      -0.935  -2.513  -0.071  0.00  0.00     0.046 A 
ATOM      9  C   UNL d   1      -0.223  -3.515   0.622  0.00  0.00     0.055 A 
ATOM     10  C   UNL d   1      -0.344  -4.867   0.272  0.00  0.00     0.058 A 
ATOM     11 CL   UNL d   1       0.625  -6.008   1.135  0.00  0.00    -0.082 Cl
ATOM     12  C   UNL d   1      -1.202  -5.238  -0.762  0.00  0.00     0.055 A 
ATOM     13  C   UNL d   1      -1.966  -4.259  -1.405  0.00  0.00     0.028 A 
ATOM     14 CL   UNL d   1      -1.333  -6.868  -1.316  0.00  0.00    -0.083 Cl
ATOM     15  C   UNL d   1      -1.846  -2.901  -1.059  0.00  0.00     0.032 A 
ENDBRANCH   1   8
BRANCH   2  16
ATOM     16  O   UNL d   1       1.728  -1.520   0.362  0.00  0.00    -0.226 OA
BRANCH  16  17
ATOM     17  C   UNL d   1       3.035  -1.700   0.543  0.00  0.00     0.370 C 
ATOM     18  N   UNL d   1       3.775  -0.859   1.373  0.00  0.00    -0.328 N 
ATOM     19  O   UNL d   1       3.561  -2.663  -0.012  0.00  0.00    -0.238 OA
BRANCH  18  20
ATOM     20  C   UNL d   1       5.230  -1.061   1.356  0.00  0.00     0.123 C 
ATOM     21  C   UNL d   1       5.734  -2.204   2.227  0.00  0.00     0.026 C 
ENDBRANCH  18  20
BRANCH  18  22
ATOM     22  C   UNL d   1       3.263   0.208   2.234  0.00  0.00     0.123 C 
ATOM     23  C   UNL d   1       3.043  -0.189   3.686  0.00  0.00     0.026 C 
ENDBRANCH  18  22
ENDBRANCH  16  17
ENDBRANCH   2  16
BRANCH   3  24
ATOM     24  S   UNL d   1      -3.038   0.142  -0.002  0.00  0.00    -0.088 SA
BRANCH  24  25
ATOM     25  C   UNL d   1      -3.486   1.926  -0.091  0.00  0.00     0.047 C 
ATOM     26  C   UNL d   1      -2.935   2.811   1.026  0.00  0.00     0.021 C 
ATOM     27  C   UNL d   1      -3.225   2.547  -1.461  0.00  0.00     0.021 C 
ENDBRANCH  24  25
ENDBRANCH   3  24
TORSDOF 7
