REMARK  3 active torsions:
REMARK  status: ('A' for Active; 'I' for Inactive)
REMARK    1  A    between atoms: C_4  and  C_1 
REMARK       I    between atoms: N_8  and  C_4 
REMARK    2  A    between atoms: C_6  and  C_10 
REMARK    3  A    between atoms: C_17  and  N_8 
ROOT
ATOM      1  C   UNL d   1      -2.473  -1.428  -0.021  0.00  0.00     0.274 C 
ATOM      2  N   UNL d   1      -3.708  -0.819   0.131  0.00  0.00    -0.322 N 
ATOM      3  O   UNL d   1      -1.413  -0.845  -0.230  0.00  0.00    -0.266 OA
ATOM      4  H   UNL d   1      -4.462  -1.425   0.439  0.00  0.00     0.169 HD
ENDROOT
BRANCH   2   5
ATOM      5  C   UNL d   1      -3.997   0.542  -0.117  0.00  0.00     0.035 A 
ATOM      6  C   UNL d   1      -3.104   1.404  -0.754  0.00  0.00     0.030 A 
ATOM      7  C   UNL d   1      -3.453   2.728  -1.039  0.00  0.00     0.018 A 
ATOM      8  C   UNL d   1      -4.711   3.224  -0.684  0.00  0.00     0.048 A 
ATOM      9  C   UNL d   1      -5.603   2.369  -0.019  0.00  0.00     0.018 A 
ATOM     10  C   UNL d   1      -5.254   1.037   0.255  0.00  0.00     0.030 A 
BRANCH   8  11
ATOM     11  C   UNL d   1      -5.105   4.638  -1.032  0.00  0.00     0.417 C 
ATOM     12  F   UNL d   1      -4.143   5.320  -1.717  0.00  0.00    -0.166 F 
ATOM     13  F   UNL d   1      -6.220   4.688  -1.814  0.00  0.00    -0.166 F 
ATOM     14  F   UNL d   1      -5.384   5.392   0.066  0.00  0.00    -0.166 F 
ENDBRANCH   8  11
ENDBRANCH   2   5
BRANCH   1  15
ATOM     15  C   UNL d   1      -2.482  -2.887   0.099  0.00  0.00     0.125 A 
ATOM     16  N   UNL d   1      -3.595  -3.614   0.301  0.00  0.00    -0.256 N 
ATOM     17  O   UNL d   1      -3.177  -4.941   0.314  0.00  0.00    -0.242 OA
ATOM     18  HN  UNL d   1      -4.547  -3.266   0.421  1.00  0.00     0.195 HD
ATOM     19  C   UNL d   1      -1.830  -4.997   0.128  0.00  0.00     0.075 A 
ATOM     20  C   UNL d   1      -1.343  -3.725  -0.006  0.00  0.00     0.071 A 
ATOM     21  C   UNL d   1      -1.199  -6.328   0.111  0.00  0.00     0.079 C 
ENDBRANCH   1  15
TORSDOF 3
