REMARK  4 active torsions:
REMARK  status: ('A' for Active; 'I' for Inactive)
REMARK    1  A    between atoms: C_3  and  C_9 
REMARK    2  A    between atoms: O_11  and  C_3 
REMARK    3  A    between atoms: O_8  and  C_6 
REMARK    4  A    between atoms: C_9  and  O_8 
ROOT
ATOM      1  C   UNL d   1       0.271  -0.315   0.005  0.00  0.00     0.042 A 
ATOM      2  C   UNL d   1      -0.548  -1.449  -0.002  0.00  0.00     0.061 A 
ATOM      3  C   UNL d   1      -0.293   0.969   0.020  0.00  0.00    -0.040 A 
ATOM      4  C   UNL d   1      -1.938  -1.325   0.023  0.00  0.00     0.071 A 
ATOM      5  C   UNL d   1      -1.693   1.079   0.026  0.00  0.00     0.011 A 
ATOM      6 CL   UNL d   1       1.978  -0.574  -0.008  0.00  0.00    -0.084 Cl
ATOM      7  C   UNL d   1      -2.511  -0.056   0.028  0.00  0.00     0.037 A 
ATOM      8  C   UNL d   1       0.511   2.239   0.014  0.00  0.00     0.050 C 
ENDROOT
BRANCH   4   9
ATOM      9  O   UNL d   1      -2.629  -2.505  -0.009  0.00  0.00    -0.341 OA
BRANCH   9  10
ATOM     10  C   UNL d   1      -3.927  -2.482   0.595  0.00  0.00     0.285 C 
BRANCH  10  11
ATOM     11  C   UNL d   1      -4.503  -3.888   0.555  0.00  0.00     0.164 C 
ATOM     12  O   UNL d   1      -5.585  -4.196   1.034  0.00  0.00    -0.648 OA
BRANCH  11  13
ATOM     13  O   UNL d   1      -3.705  -4.780  -0.082  0.00  0.00    -0.775 OA
ATOM     14  H   UNL d   1      -2.889  -4.329  -0.391  0.00  0.00     0.167 HD
ENDBRANCH  11  13
ENDBRANCH  10  11
ENDBRANCH   9  10
ENDBRANCH   4   9
TORSDOF 4
