REMARK  6 active torsions:
REMARK  status: ('A' for Active; 'I' for Inactive)
REMARK       I    between atoms: C_2  and  N_1 
REMARK    1  A    between atoms: C_6  and  C_2 
REMARK    2  A    between atoms: S_5  and  C_6 
REMARK    3  A    between atoms: C_13  and  S_5 
REMARK    4  A    between atoms: C_9  and  O_10 
REMARK    5  A    between atoms: O_10  and  C_14 
REMARK    6  A    between atoms: C_14  and  C_13 
ROOT
ATOM      1  S   UNL d   1      -4.907   0.929  -2.325  0.00  0.00    -0.158 SA
ENDROOT
BRANCH   1   2
ATOM      2  C   UNL d   1      -3.368   1.300  -1.419  0.00  0.00     0.176 C 
BRANCH   2   3
ATOM      3  C   UNL d   1      -2.696   0.017  -0.952  0.00  0.00     0.229 C 
ATOM      4  N   UNL d   1      -3.041  -0.514   0.277  0.00  0.00    -0.347 N 
ATOM      5  C   UNL d   1      -4.041   0.008   1.213  0.00  0.00     0.152 C 
ATOM      6  C   UNL d   1      -2.353  -1.708   0.776  0.00  0.00     0.152 C 
ATOM      7  C   UNL d   1      -3.393   0.238   2.585  0.00  0.00     0.187 C 
ATOM      8  O   UNL d   1      -2.772  -0.962   3.073  0.00  0.00    -0.388 OA
ATOM      9  C   UNL d   1      -1.760  -1.428   2.162  0.00  0.00     0.187 C 
ATOM     10  O   UNL d   1      -1.828  -0.506  -1.663  0.00  0.00    -0.273 OA
ENDBRANCH   2   3
ENDBRANCH   1   2
BRANCH   1  11
ATOM     11  C   UNL d   1      -5.403   2.616  -2.846  0.00  0.00     0.101 C 
BRANCH  11  12
ATOM     12  C   UNL d   1      -4.350   3.310  -3.704  0.00  0.00     0.186 C 
BRANCH  12  13
ATOM     13  O   UNL d   1      -4.808   4.604  -4.107  0.00  0.00    -0.350 OA
BRANCH  13  14
ATOM     14  C   UNL d   1      -3.933   5.316  -4.891  0.00  0.00     0.068 A 
ATOM     15  C   UNL d   1      -2.653   4.893  -5.270  0.00  0.00     0.037 A 
ATOM     16  C   UNL d   1      -1.857   5.694  -6.093  0.00  0.00     0.003 A 
ATOM     17  C   UNL d   1      -2.334   6.921  -6.545  0.00  0.00     0.000 A 
ATOM     18  C   UNL d   1      -3.600   7.354  -6.165  0.00  0.00     0.003 A 
ATOM     19  C   UNL d   1      -4.396   6.556  -5.337  0.00  0.00     0.037 A 
ENDBRANCH  13  14
ENDBRANCH  12  13
ENDBRANCH  11  12
ENDBRANCH   1  11
TORSDOF 6
