REMARK  0 active torsions:
REMARK  status: ('A' for Active; 'I' for Inactive)
ROOT
ATOM      1  N   UNL d   1       1.077  -0.130   0.021  0.00  0.00    -0.190 NA
ATOM      2  C   UNL d   1       2.239  -0.106   0.010  0.00  0.00     0.118 C 
ATOM      3  C   UNL d   1       3.677  -0.025  -0.010  0.00  0.00     0.124 A 
ATOM      4  N   UNL d   1       4.300  -1.235  -0.015  0.00  0.00    -0.357 N 
ATOM      5  HN  UNL d   1       3.772  -2.107   0.006  1.00  0.00     0.166 HD
ATOM      6  C   UNL d   1       4.346   1.217  -0.039  0.00  0.00     0.012 A 
ATOM      7  C   UNL d   1       5.758   1.169  -0.080  0.00  0.00    -0.022 A 
ATOM      8  C   UNL d   1       5.646  -1.227  -0.050  0.00  0.00     0.090 A 
ATOM      9  C   UNL d   1       3.715   2.486  -0.037  0.00  0.00     0.015 A 
ATOM     10  C   UNL d   1       6.406  -0.071  -0.081  0.00  0.00     0.029 A 
ATOM     11  C   UNL d   1       6.494   2.364  -0.130  0.00  0.00     0.012 A 
ATOM     12  C   UNL d   1       4.462   3.664  -0.093  0.00  0.00     0.001 A 
ATOM     13  C   UNL d   1       5.850   3.602  -0.143  0.00  0.00     0.001 A 
ENDROOT
TORSDOF 0
