REMARK  4 active torsions:
REMARK  status: ('A' for Active; 'I' for Inactive)
REMARK    1  A    between atoms: C_7  and  C_1 
REMARK    2  A    between atoms: C_6  and  C_3 
REMARK    3  A    between atoms: S_11  and  C_5 
REMARK    4  A    between atoms: O_13  and  C_7 
ROOT
ATOM      1  C   UNL d   1       1.310  -1.239  -0.094  0.00  0.00     0.092 A 
ATOM      2  C   UNL d   1      -0.705  -0.061   0.097  0.00  0.00     0.081 A 
ATOM      3  C   UNL d   1      -0.078  -1.367  -0.026  0.00  0.00     0.021 A 
ATOM      4  S   UNL d   1       1.800   0.407  -0.049  0.00  0.00    -0.074 SA
ATOM      5  C   UNL d   1       0.201   0.979   0.044  0.00  0.00     0.063 A 
ATOM      6  C   UNL d   1      -2.115   0.165   0.266  0.00  0.00     0.102 C 
ATOM      7  N   UNL d   1      -3.253   0.351   0.369  0.00  0.00    -0.191 NA
ENDROOT
BRANCH   3   8
ATOM      8  C   UNL d   1      -0.778  -2.669  -0.034  0.00  0.00    -0.021 A 
ATOM      9  C   UNL d   1      -1.967  -2.829  -0.765  0.00  0.00     0.036 A 
ATOM     10  C   UNL d   1      -2.665  -4.040  -0.737  0.00  0.00     0.034 A 
ATOM     11 CL   UNL d   1      -4.153  -4.186  -1.590  0.00  0.00    -0.084 Cl
ATOM     12  C   UNL d   1      -2.174  -5.125  -0.019  0.00  0.00     0.024 A 
ATOM     13  C   UNL d   1      -0.988  -4.990   0.695  0.00  0.00     0.003 A 
ATOM     14  C   UNL d   1      -0.309  -3.766   0.708  0.00  0.00     0.012 A 
ENDBRANCH   3   8
BRANCH   5  15
ATOM     15  S   UNL d   1      -0.104   2.713   0.135  0.00  0.00    -0.126 SA
ATOM     16  C   UNL d   1      -0.950   3.008  -1.438  0.00  0.00     0.096 C 
ENDBRANCH   5  15
BRANCH   1  17
ATOM     17  C   UNL d   1       2.347  -2.250  -0.237  0.00  0.00     0.184 C 
ATOM     18  O   UNL d   1       2.244  -3.314  -0.827  0.00  0.00    -0.646 OA
BRANCH  17  19
ATOM     19  O   UNL d   1       3.491  -1.917   0.421  0.00  0.00    -0.772 OA
ATOM     20  H   UNL d   1       3.436  -1.043   0.852  0.00  0.00     0.167 HD
ENDBRANCH  17  19
ENDBRANCH   1  17
TORSDOF 4
