REMARK  4 active torsions:
REMARK  status: ('A' for Active; 'I' for Inactive)
REMARK    1  A    between atoms: C_2  and  C_1 
REMARK       I    between atoms: N_5  and  C_2 
REMARK    2  A    between atoms: C_3  and  O_14 
REMARK    3  A    between atoms: C_16  and  N_5 
REMARK    4  A    between atoms: O_14  and  C_18 
ROOT
ATOM      1  C   UNL d   1       3.412  -5.879   0.600  0.00  0.00     0.117 A 
ATOM      2  N   UNL d   1       4.094  -9.096   1.933  0.00  0.00    -0.191 NA
ATOM      3  N   UNL d   1       2.203  -3.195  -1.457  0.00  0.00    -0.191 NA
ATOM      4  C   UNL d   1       4.398  -6.596   1.302  0.00  0.00     0.080 A 
ATOM      5  C   UNL d   1       3.701  -4.571   0.156  0.00  0.00     0.080 A 
ATOM      6  C   UNL d   1       4.206  -7.975   1.653  0.00  0.00     0.102 C 
ATOM      7  C   UNL d   1       2.847  -3.828  -0.728  0.00  0.00     0.102 C 
ATOM      8  C   UNL d   1       5.612  -5.981   1.644  0.00  0.00     0.026 A 
ATOM      9  C   UNL d   1       4.908  -3.962   0.536  0.00  0.00     0.026 A 
ATOM     10  C   UNL d   1       5.855  -4.658   1.285  0.00  0.00     0.003 A 
ENDROOT
BRANCH   1  11
ATOM     11  O   UNL d   1       2.243  -6.566   0.329  0.00  0.00    -0.308 OA
BRANCH  11  12
ATOM     12  C   UNL d   1       1.038  -5.906   0.426  0.00  0.00     0.076 C 
ATOM     13  C   UNL d   1       0.081  -6.240  -0.530  0.00  0.00     0.039 C 
ATOM     14  C   UNL d   1      -1.104  -5.503  -0.616  0.00  0.00     0.032 C 
ATOM     15  C   UNL d   1      -1.336  -4.428   0.250  0.00  0.00     0.035 C 
ATOM     16  C   UNL d   1      -0.423  -4.184   1.280  0.00  0.00     0.032 C 
ATOM     17  C   UNL d   1       0.750  -4.937   1.386  0.00  0.00     0.039 C 
BRANCH  15  18
ATOM     18  N   UNL d   1      -2.475  -3.635   0.001  0.00  0.00    -0.323 N 
ATOM     19  C   UNL d   1      -2.770  -2.406   0.560  0.00  0.00     0.257 C 
ATOM     20  O   UNL d   1      -2.113  -1.830   1.422  0.00  0.00    -0.267 OA
ATOM     21  H   UNL d   1      -3.058  -3.941  -0.769  0.00  0.00     0.169 HD
BRANCH  19  22
ATOM     22  C   UNL d   1      -4.027  -1.738   0.099  0.00  0.00     0.054 A 
ATOM     23  C   UNL d   1      -4.607  -1.862  -1.175  0.00  0.00     0.051 A 
ATOM     24  C   UNL d   1      -5.809  -1.201  -1.470  0.00  0.00     0.048 A 
ATOM     25 CL   UNL d   1      -3.901  -2.772  -2.463  0.00  0.00    -0.083 Cl
ATOM     26  C   UNL d   1      -6.426  -0.406  -0.507  0.00  0.00     0.035 A 
ATOM     27  C   UNL d   1      -5.852  -0.248   0.748  0.00  0.00     0.025 A 
ATOM     28 CL   UNL d   1      -7.907   0.389  -0.874  0.00  0.00    -0.084 Cl
ATOM     29  C   UNL d   1      -4.657  -0.907   1.046  0.00  0.00     0.020 A 
ENDBRANCH  19  22
ENDBRANCH  15  18
ENDBRANCH  11  12
ENDBRANCH   1  11
TORSDOF 4
