REMARK  4 active torsions:
REMARK  status: ('A' for Active; 'I' for Inactive)
REMARK    1  A    between atoms: C_8  and  C_1 
REMARK    2  A    between atoms: C_7  and  C_3 
REMARK    3  A    between atoms: O_20  and  C_8 
REMARK    4  A    between atoms: N_14  and  C_12 
ROOT
ATOM      1  C   UNL d   1       2.087  -1.302  -0.097  0.00  0.00     0.052 A 
ATOM      2  C   UNL d   1      -0.329  -0.458  -0.117  0.00  0.00     0.023 A 
ATOM      3  C   UNL d   1       0.592  -1.675  -0.173  0.00  0.00     0.100 A 
ATOM      4  C   UNL d   1       2.476  -0.008  -0.006  0.00  0.00     0.018 A 
ATOM      5  C   UNL d   1       0.158   0.794  -0.042  0.00  0.00     0.020 A 
ATOM      6  N   UNL d   1       1.520   1.001  -0.010  0.00  0.00    -0.362 N 
ATOM      7  C   UNL d   1      -1.806  -0.656  -0.136  0.00  0.00     0.158 C 
ATOM      8  O   UNL d   1      -2.302  -1.728  -0.474  0.00  0.00    -0.293 OA
ATOM      9  C   UNL d   1      -0.706   2.035   0.016  0.00  0.00     0.058 C 
ATOM     10  C   UNL d   1       3.893   0.506   0.104  0.00  0.00     0.069 C 
ATOM     11  C   UNL d   1      -2.664   0.505   0.312  0.00  0.00     0.084 C 
ATOM     12  C   UNL d   1      -2.164   1.776  -0.346  0.00  0.00     0.014 C 
ATOM     13  H   UNL d   1       1.851   1.955   0.108  0.00  0.00     0.165 HD
ENDROOT
BRANCH   3  14
ATOM     14  C   UNL d   1       0.211  -2.759   0.845  0.00  0.00    -0.023 A 
ATOM     15  C   UNL d   1       0.193  -2.587   2.235  0.00  0.00     0.043 A 
ATOM     16  C   UNL d   1      -0.121  -3.661   3.086  0.00  0.00     0.053 A 
ATOM     17 CL   UNL d   1       0.550  -1.076   2.992  0.00  0.00    -0.084 Cl
ATOM     18  C   UNL d   1      -0.410  -4.950   2.610  0.00  0.00     0.031 A 
ATOM     19  C   UNL d   1      -0.408  -5.099   1.219  0.00  0.00     0.030 A 
ATOM     20  C   UNL d   1      -0.119  -4.034   0.355  0.00  0.00     0.012 A 
BRANCH  18  21
ATOM     21  N   UNL d   1      -0.661  -6.014   3.458  0.00  0.00    -0.390 N 
ATOM     22  C   UNL d   1      -1.508  -7.136   3.066  0.00  0.00     0.149 C 
ATOM     23  C   UNL d   1      -0.191  -6.037   4.839  0.00  0.00     0.149 C 
ENDBRANCH  18  21
ENDBRANCH   3  14
BRANCH   1  24
ATOM     24  C   UNL d   1       3.074  -2.421  -0.086  0.00  0.00     0.291 C 
ATOM     25  O   UNL d   1       4.128  -2.417   0.530  0.00  0.00    -0.260 OA
BRANCH  24  26
ATOM     26  O   UNL d   1       2.619  -3.450  -0.847  0.00  0.00    -0.323 OA
ATOM     27  C   UNL d   1       3.381  -4.657  -0.763  0.00  0.00     0.213 C 
ENDBRANCH  24  26
ENDBRANCH   1  24
TORSDOF 4
