REMARK  8 active torsions:
REMARK  status: ('A' for Active; 'I' for Inactive)
REMARK    1  A    between atoms: C_6  and  C_1 
REMARK    2  A    between atoms: C_2  and  C_7 
REMARK       I    between atoms: N_4  and  C_2 
REMARK    3  A    between atoms: C_3  and  C_5 
REMARK       I    between atoms: N_10  and  C_3 
REMARK    4  A    between atoms: C_5  and  N_4 
REMARK    5  A    between atoms: C_19  and  C_5 
REMARK    6  A    between atoms: N_18  and  N_10 
REMARK    7  A    between atoms: C_21  and  C_19 
REMARK    8  A    between atoms: S_20  and  C_21 
ROOT
ATOM      1  C   UNL d   1      -0.756   6.340   0.256  0.00  0.00     0.252 C 
ATOM      2  N   UNL d   1       0.048   6.302  -0.865  0.00  0.00    -0.344 N 
ATOM      3  O   UNL d   1      -0.307   6.177   1.390  0.00  0.00    -0.268 OA
ATOM      4  H   UNL d   1      -0.331   6.528  -1.775  0.00  0.00     0.163 HD
ENDROOT
BRANCH   2   5
ATOM      5  C   UNL d   1       1.513   6.278  -0.761  0.00  0.00     0.179 C 
BRANCH   5   6
ATOM      6  C   UNL d   1       2.153   5.549  -1.963  0.00  0.00     0.254 C 
ATOM      7  O   UNL d   1       3.216   5.888  -2.482  0.00  0.00    -0.270 OA
ATOM      8  N   UNL d   1       1.470   4.396  -2.347  0.00  0.00    -0.292 N 
ATOM      9  H   UNL d   1       0.797   4.008  -1.685  0.00  0.00     0.183 HD
BRANCH   8  10
ATOM     10  N   UNL d   1       2.070   3.536  -3.293  0.00  0.00    -0.247 NA
ATOM     11  H   UNL d   1       2.849   4.056  -3.726  0.00  0.00     0.143 HD
ATOM     12  H   UNL d   1       1.410   3.364  -4.053  0.00  0.00     0.143 HD
ENDBRANCH   8  10
ENDBRANCH   5   6
BRANCH   5  13
ATOM     13  C   UNL d   1       2.110   7.683  -0.563  0.00  0.00     0.045 C 
BRANCH  13  14
ATOM     14  C   UNL d   1       1.920   8.614  -1.765  0.00  0.00     0.076 C 
BRANCH  14  15
ATOM     15  S   UNL d   1       2.651  10.264  -1.491  0.00  0.00    -0.173 SA
ATOM     16  C   UNL d   1       4.406   9.814  -1.393  0.00  0.00     0.089 C 
ENDBRANCH  14  15
ENDBRANCH  13  14
ENDBRANCH   5  13
ENDBRANCH   2   5
BRANCH   1  17
ATOM     17  C   UNL d   1      -2.218   6.636   0.066  0.00  0.00     0.032 A 
ATOM     18  C   UNL d   1      -2.813   6.793  -1.195  0.00  0.00     0.018 A 
ATOM     19  C   UNL d   1      -4.151   7.187  -1.305  0.00  0.00     0.017 A 
ATOM     20  C   UNL d   1      -4.931   7.423  -0.164  0.00  0.00     0.048 A 
ATOM     21  C   UNL d   1      -4.358   7.206   1.096  0.00  0.00     0.017 A 
ATOM     22  C   UNL d   1      -3.016   6.819   1.207  0.00  0.00     0.018 A 
BRANCH  20  23
ATOM     23  C   UNL d   1      -6.342   7.941  -0.316  0.00  0.00     0.417 C 
ATOM     24  F   UNL d   1      -7.011   8.073   0.862  0.00  0.00    -0.166 F 
ATOM     25  F   UNL d   1      -7.113   7.138  -1.100  0.00  0.00    -0.166 F 
ATOM     26  F   UNL d   1      -6.374   9.172  -0.902  0.00  0.00    -0.166 F 
ENDBRANCH  20  23
ENDBRANCH   1  17
TORSDOF 8
