REMARK  4 active torsions:
REMARK  status: ('A' for Active; 'I' for Inactive)
REMARK       I    between atoms: N_2  and  C_1 
REMARK    1  A    between atoms: O_6  and  C_1 
REMARK    2  A    between atoms: C_4  and  N_2 
REMARK    3  A    between atoms: C_5  and  N_2 
REMARK    4  A    between atoms: C_11  and  O_6 
ROOT
ATOM      1  C   UNL d   1       1.056   0.077   0.113  0.00  0.00     0.372 C 
ATOM      2  N   UNL d   1       0.354   0.253   1.320  0.00  0.00    -0.259 N 
ATOM      3  O   UNL d   1       0.533   0.082  -1.000  0.00  0.00    -0.238 OA
ENDROOT
BRANCH   2   4
ATOM      4  C   UNL d   1      -1.077   0.197   1.279  0.00  0.00     0.044 A 
ATOM      5  C   UNL d   1      -1.724  -0.897   0.691  0.00  0.00     0.030 A 
ATOM      6  C   UNL d   1      -3.117  -1.001   0.738  0.00  0.00     0.002 A 
ATOM      7  C   UNL d   1      -3.873   0.004   1.339  0.00  0.00     0.000 A 
ATOM      8  C   UNL d   1      -3.242   1.118   1.890  0.00  0.00     0.002 A 
ATOM      9  C   UNL d   1      -1.849   1.213   1.865  0.00  0.00     0.030 A 
ENDBRANCH   2   4
BRANCH   2  10
ATOM     10  C   UNL d   1       0.954   0.420   2.622  0.00  0.00     0.044 A 
ATOM     11  C   UNL d   1       2.219   1.000   2.797  0.00  0.00     0.030 A 
ATOM     12  C   UNL d   1       2.795   1.122   4.069  0.00  0.00     0.002 A 
ATOM     13  C   UNL d   1       2.108   0.681   5.199  0.00  0.00     0.000 A 
ATOM     14  C   UNL d   1       0.850   0.116   5.057  0.00  0.00     0.002 A 
ATOM     15  C   UNL d   1       0.284  -0.017   3.786  0.00  0.00     0.030 A 
ENDBRANCH   2  10
BRANCH   1  16
ATOM     16  O   UNL d   1       2.399  -0.138   0.271  0.00  0.00    -0.304 OA
BRANCH  16  17
ATOM     17  C   UNL d   1       3.169  -0.325  -0.926  0.00  0.00     0.176 C 
ATOM     18  C   UNL d   1       3.651   1.012  -1.457  0.00  0.00     0.034 C 
ENDBRANCH  16  17
ENDBRANCH   1  16
TORSDOF 4
