REMARK  4 active torsions:
REMARK  status: ('A' for Active; 'I' for Inactive)
REMARK    1  A    between atoms: C_8  and  C_2 
REMARK    2  A    between atoms: C_3  and  C_7 
REMARK    3  A    between atoms: C_4  and  C_6 
REMARK    4  A    between atoms: C_14  and  C_5 
ROOT
ATOM      1  C   UNL d   1      -0.428   4.691  -1.077  0.00  0.00     0.049 A 
ATOM      2  C   UNL d   1      -1.529   4.423   1.083  0.00  0.00     0.049 A 
ATOM      3  C   UNL d   1      -0.527   2.479  -0.023  0.00  0.00    -0.001 A 
ATOM      4  C   UNL d   1      -1.125   5.234   0.012  0.00  0.00     0.032 A 
ATOM      5  C   UNL d   1      -0.146   3.314  -1.086  0.00  0.00     0.030 A 
ATOM      6  C   UNL d   1      -1.239   3.047   1.044  0.00  0.00     0.030 A 
ENDROOT
BRANCH   3   7
ATOM      7  C   UNL d   1      -0.120   1.076   0.020  0.00  0.00     0.086 A 
ATOM      8  O   UNL d   1       0.750   0.672  -0.954  0.00  0.00    -0.306 OA
ATOM      9  C   UNL d   1       1.098  -0.624  -0.701  0.00  0.00     0.121 A 
ATOM     10  C   UNL d   1       0.432  -1.062   0.427  0.00  0.00     0.044 A 
ATOM     11  C   UNL d   1      -0.357   0.023   0.882  0.00  0.00     0.041 A 
BRANCH   9  12
ATOM     12  C   UNL d   1       2.048  -1.302  -1.555  0.00  0.00     0.179 C 
ATOM     13  O   UNL d   1       2.411  -2.461  -1.351  0.00  0.00    -0.291 OA
ATOM     14  C   UNL d   1       2.612  -0.548  -2.739  0.00  0.00     0.099 C 
ENDBRANCH   9  12
ENDBRANCH   3   7
BRANCH   1  15
ATOM     15  C   UNL d   1       0.071   5.565  -2.204  0.00  0.00     0.417 C 
ATOM     16  F   UNL d   1      -0.217   6.884  -2.034  0.00  0.00    -0.166 F 
ATOM     17  F   UNL d   1       1.423   5.495  -2.349  0.00  0.00    -0.166 F 
ATOM     18  F   UNL d   1      -0.456   5.217  -3.409  0.00  0.00    -0.166 F 
ENDBRANCH   1  15
BRANCH   2  19
ATOM     19  C   UNL d   1      -2.215   5.009   2.295  0.00  0.00     0.417 C 
ATOM     20  F   UNL d   1      -2.327   6.365   2.253  0.00  0.00    -0.166 F 
ATOM     21  F   UNL d   1      -3.478   4.531   2.463  0.00  0.00    -0.166 F 
ATOM     22  F   UNL d   1      -1.549   4.726   3.448  0.00  0.00    -0.166 F 
ENDBRANCH   2  19
TORSDOF 4
