REMARK  6 active torsions:
REMARK  status: ('A' for Active; 'I' for Inactive)
REMARK    1  A    between atoms: C_3  and  C_1 
REMARK    2  A    between atoms: N_5  and  C_2 
REMARK    3  A    between atoms: O_16  and  C_3 
REMARK    4  A    between atoms: C_4  and  O_7 
REMARK    5  A    between atoms: C_10  and  N_5 
REMARK    6  A    between atoms: O_7  and  C_15 
ROOT
ATOM      1  C   UNL d   1       3.516  -0.949  -0.292  0.00  0.00     0.012 A 
ATOM      2  C   UNL d   1       6.176  -0.031  -0.552  0.00  0.00     0.078 A 
ATOM      3  C   UNL d   1       3.953   0.196   0.386  0.00  0.00     0.026 A 
ATOM      4  C   UNL d   1       4.440  -1.646  -1.074  0.00  0.00     0.026 A 
ATOM      5  C   UNL d   1       5.266   0.668   0.239  0.00  0.00     0.039 A 
ATOM      6  C   UNL d   1       5.746  -1.178  -1.222  0.00  0.00     0.039 A 
ENDROOT
BRANCH   1   7
ATOM      7  N   UNL d   1       2.198  -1.466  -0.141  0.00  0.00    -0.262 NA
ATOM      8  H   UNL d   1       2.034  -2.131  -0.905  0.00  0.00     0.133 HD
BRANCH   7   9
ATOM      9  C   UNL d   1       1.094  -0.630  -0.018  0.00  0.00     0.012 C 
ATOM     10  C   UNL d   1       0.684   0.364  -0.835  0.00  0.00     0.044 C 
ATOM     11  C   UNL d   1      -0.509   1.149  -0.408  0.00  0.00     0.120 C 
ATOM     12  S   UNL d   1      -1.230   0.229   0.979  0.00  0.00    -0.159 SA
ATOM     13  C   UNL d   1       0.200  -0.871   1.173  0.00  0.00     0.126 C 
BRANCH  10  14
ATOM     14  C   UNL d   1       1.291   0.784  -2.112  0.00  0.00     0.291 C 
ATOM     15  O   UNL d   1       1.185   1.927  -2.539  0.00  0.00    -0.260 OA
BRANCH  14  16
ATOM     16  O   UNL d   1       1.848  -0.265  -2.760  0.00  0.00    -0.323 OA
ATOM     17  C   UNL d   1       2.465   0.021  -4.017  0.00  0.00     0.213 C 
ENDBRANCH  14  16
ENDBRANCH  10  14
ENDBRANCH   7   9
ENDBRANCH   1   7
BRANCH   2  18
ATOM     18  O   UNL d   1       7.484   0.279  -0.769  0.00  0.00    -0.255 OA
BRANCH  18  19
ATOM     19  C   UNL d   1       8.170   1.121   0.140  0.00  0.00     0.530 C 
ATOM     20  F   UNL d   1       7.654   1.104   1.388  0.00  0.00    -0.144 F 
ATOM     21  F   UNL d   1       9.451   0.693   0.225  0.00  0.00    -0.144 F 
ATOM     22  F   UNL d   1       8.179   2.388  -0.322  0.00  0.00    -0.144 F 
ENDBRANCH  18  19
ENDBRANCH   2  18
TORSDOF 6
