REMARK  4 active torsions:
REMARK  status: ('A' for Active; 'I' for Inactive)
REMARK    1  A    between atoms: C_2  and  C_1 
REMARK       I    between atoms: N_12  and  C_1 
REMARK    2  A    between atoms: C_4  and  C_3 
REMARK    3  A    between atoms: C_16  and  C_15 
REMARK    4  A    between atoms: C_17  and  C_16 
ROOT
ATOM      1  C   UNL d   1       0.523  -0.938   1.042  0.00  0.00     0.031 A 
ATOM      2  C   UNL d   1      -1.288  -1.880   3.018  0.00  0.00    -0.026 A 
ATOM      3  C   UNL d   1      -0.413  -1.924   0.728  0.00  0.00     0.018 A 
ATOM      4  C   UNL d   1       0.537  -0.393   2.327  0.00  0.00     0.018 A 
ATOM      5  C   UNL d   1      -1.306  -2.384   1.704  0.00  0.00     0.013 A 
ATOM      6  C   UNL d   1      -0.350  -0.869   3.301  0.00  0.00     0.013 A 
ENDROOT
BRANCH   2   7
ATOM      7  C   UNL d   1      -2.210  -2.394   4.063  0.00  0.00    -0.026 A 
ATOM      8  C   UNL d   1      -2.669  -1.577   5.111  0.00  0.00     0.013 A 
ATOM      9  C   UNL d   1      -3.514  -2.070   6.114  0.00  0.00     0.008 A 
ATOM     10  C   UNL d   1      -3.944  -3.398   6.093  0.00  0.00    -0.058 A 
ATOM     11  C   UNL d   1      -3.519  -4.219   5.045  0.00  0.00     0.008 A 
ATOM     12  C   UNL d   1      -2.657  -3.728   4.058  0.00  0.00     0.013 A 
BRANCH  10  13
ATOM     13  C   UNL d   1      -4.856  -3.925   7.174  0.00  0.00     0.038 C 
BRANCH  13  14
ATOM     14  C   UNL d   1      -4.298  -5.127   7.942  0.00  0.00     0.000 C 
ATOM     15  C   UNL d   1      -3.021  -4.809   8.709  0.00  0.00     0.005 C 
ENDBRANCH  13  14
ENDBRANCH  10  13
ENDBRANCH   2   7
BRANCH   1  16
ATOM     16  C   UNL d   1       1.475  -0.497  -0.008  0.00  0.00     0.249 C 
ATOM     17  O   UNL d   1       1.223  -0.613  -1.200  0.00  0.00    -0.268 OA
ATOM     18  N   UNL d   1       2.677   0.004   0.414  0.00  0.00    -0.366 N 
ATOM     19  H   UNL d   1       3.014  -0.133   1.355  0.00  0.00     0.159 HD
ATOM     20  H   UNL d   1       3.362   0.184  -0.310  0.00  0.00     0.159 HD
ENDBRANCH   1  16
TORSDOF 4
