REMARK  5 active torsions:
REMARK  status: ('A' for Active; 'I' for Inactive)
REMARK    1  A    between atoms: C_7  and  C_1 
REMARK    2  A    between atoms: O_11  and  C_8 
REMARK    3  A    between atoms: C_9  and  C_14 
REMARK    4  A    between atoms: C_19  and  C_10 
REMARK    5  A    between atoms: C_22  and  O_11 
ROOT
ATOM      1  C   UNL d   1      -0.361   1.103  -0.475  0.00  0.00     0.167 A 
ATOM      2  N   UNL d   1       0.675   0.975  -1.244  0.00  0.00    -0.331 N 
ATOM      3  HN  UNL d   1       1.213   1.704  -1.714  1.00  0.00     0.168 HD
ATOM      4  O   UNL d   1      -0.891  -0.021   0.056  0.00  0.00    -0.255 OA
ATOM      5  C   UNL d   1       0.869  -0.378  -1.269  0.00  0.00     0.111 A 
ATOM      6  C   UNL d   1      -0.148  -1.061  -0.422  0.00  0.00     0.316 A 
ATOM      7  C   UNL d   1       1.770  -1.057  -1.989  0.00  0.00     0.047 C 
ATOM      8  O   UNL d   1      -0.314  -2.245  -0.226  0.00  0.00    -0.257 OA
ENDROOT
BRANCH   1   9
ATOM      9  C   UNL d   1      -1.107   2.345  -0.264  0.00  0.00     0.067 A 
ATOM     10  C   UNL d   1      -1.923   2.618   0.826  0.00  0.00     0.162 A 
ATOM     11  N   UNL d   1      -2.721   3.720   0.877  0.00  0.00    -0.346 N 
ATOM     12  C   UNL d   1      -2.638   4.615  -0.128  0.00  0.00     0.090 A 
ATOM     13  HN  UNL d   1      -3.366   3.865   1.654  1.00  0.00     0.167 HD
ATOM     14  C   UNL d   1      -1.795   4.466  -1.209  0.00  0.00     0.018 A 
ATOM     15  C   UNL d   1      -1.029   3.308  -1.282  0.00  0.00     0.021 A 
BRANCH  10  16
ATOM     16  O   UNL d   1      -1.893   1.785   1.943  0.00  0.00    -0.293 OA
BRANCH  16  17
ATOM     17  C   UNL d   1      -2.180   2.383   3.158  0.00  0.00     0.077 A 
ATOM     18  C   UNL d   1      -3.042   1.720   4.032  0.00  0.00     0.038 A 
ATOM     19  C   UNL d   1      -3.442   2.342   5.222  0.00  0.00     0.009 A 
ATOM     20  C   UNL d   1      -2.978   3.624   5.549  0.00  0.00    -0.062 A 
ATOM     21  C   UNL d   1      -2.049   4.243   4.708  0.00  0.00     0.009 A 
ATOM     22  C   UNL d   1      -3.509   4.344   6.754  0.00  0.00     0.048 C 
ATOM     23  C   UNL d   1      -1.632   3.615   3.534  0.00  0.00     0.038 A 
ENDBRANCH  16  17
ENDBRANCH  10  16
ENDBRANCH   1   9
BRANCH   7  24
ATOM     24  C   UNL d   1       2.753  -0.426  -2.873  0.00  0.00    -0.034 A 
ATOM     25  C   UNL d   1       4.046  -0.167  -2.410  0.00  0.00     0.012 A 
ATOM     26  C   UNL d   1       5.001   0.403  -3.260  0.00  0.00     0.017 A 
ATOM     27  C   UNL d   1       4.676   0.723  -4.586  0.00  0.00     0.048 A 
ATOM     28  C   UNL d   1       3.372   0.472  -5.041  0.00  0.00     0.017 A 
ATOM     29  C   UNL d   1       2.418  -0.097  -4.191  0.00  0.00     0.012 A 
BRANCH  27  30
ATOM     30  C   UNL d   1       5.700   1.321  -5.521  0.00  0.00     0.417 C 
ATOM     31  F   UNL d   1       6.924   1.502  -4.950  0.00  0.00    -0.166 F 
ATOM     32  F   UNL d   1       5.915   0.547  -6.621  0.00  0.00    -0.166 F 
ATOM     33  F   UNL d   1       5.326   2.543  -5.993  0.00  0.00    -0.166 F 
ENDBRANCH  27  30
ENDBRANCH   7  24
TORSDOF 5
