REMARK  7 active torsions:
REMARK  status: ('A' for Active; 'I' for Inactive)
REMARK    1  A    between atoms: C_9  and  C_7 
REMARK    2  A    between atoms: C_14  and  C_9 
REMARK    3  A    between atoms: C_15  and  C_14 
REMARK    4  A    between atoms: C_18  and  C_15 
REMARK    5  A    between atoms: C_16  and  C_17 
REMARK    6  A    between atoms: C_17  and  C_19 
REMARK    7  A    between atoms: C_19  and  C_18 
ROOT
ATOM      1  C   UNL d   1       1.222   0.752  -0.601  0.00  0.00    -0.042 A 
ATOM      2  C   UNL d   1       0.715  -0.426  -0.013  0.00  0.00    -0.019 A 
ATOM      3  C   UNL d   1      -0.721  -0.453  -0.188  0.00  0.00    -0.019 A 
ATOM      4  C   UNL d   1      -1.113   0.708  -0.888  0.00  0.00    -0.043 A 
ATOM      5  C   UNL d   1       0.097   1.558  -1.218  0.00  0.00     0.078 A 
ATOM      6  C   UNL d   1       2.573   1.054  -0.564  0.00  0.00     0.023 A 
ATOM      7  C   UNL d   1       3.435   0.148   0.069  0.00  0.00     0.010 A 
ATOM      8  C   UNL d   1       1.562  -1.322   0.616  0.00  0.00     0.014 A 
ATOM      9  C   UNL d   1       2.930  -1.030   0.658  0.00  0.00     0.016 A 
ATOM     10  C   UNL d   1      -1.663  -1.383   0.220  0.00  0.00     0.013 A 
ATOM     11  C   UNL d   1      -2.443   0.958  -1.182  0.00  0.00     0.008 A 
ATOM     12  C   UNL d   1      -3.007  -1.137  -0.074  0.00  0.00     0.001 A 
ATOM     13  C   UNL d   1      -3.394   0.023  -0.767  0.00  0.00     0.001 A 
ENDROOT
BRANCH   7  14
ATOM     14  C   UNL d   1       4.889   0.464   0.092  0.00  0.00     0.159 C 
ATOM     15  O   UNL d   1       5.250   1.640   0.076  0.00  0.00    -0.292 OA
BRANCH  14  16
ATOM     16  C   UNL d   1       5.899  -0.671   0.091  0.00  0.00     0.084 C 
BRANCH  16  17
ATOM     17  C   UNL d   1       5.790  -1.564  -1.144  0.00  0.00     0.008 C 
BRANCH  17  18
ATOM     18  C   UNL d   1       6.026  -0.787  -2.441  0.00  0.00     0.000 C 
BRANCH  18  19
ATOM     19  C   UNL d   1       5.865  -1.685  -3.665  0.00  0.00     0.000 C 
BRANCH  19  20
ATOM     20  C   UNL d   1       6.088  -0.891  -4.951  0.00  0.00    -0.000 C 
BRANCH  20  21
ATOM     21  C   UNL d   1       5.932  -1.775  -6.185  0.00  0.00    -0.005 C 
ATOM     22  C   UNL d   1       6.161  -0.982  -7.461  0.00  0.00     0.005 C 
ENDBRANCH  20  21
ENDBRANCH  19  20
ENDBRANCH  18  19
ENDBRANCH  17  18
ENDBRANCH  16  17
ENDBRANCH  14  16
ENDBRANCH   7  14
TORSDOF 7
