REMARK  3 active torsions:
REMARK  status: ('A' for Active; 'I' for Inactive)
REMARK    1  A    between atoms: C_2  and  C_1 
REMARK    2  A    between atoms: S_16  and  C_11 
REMARK    3  A    between atoms: N_17  and  C_12 
ROOT
ATOM      1  C   UNL d   1       2.056  -2.456  -0.058  0.00  0.00     0.137 A 
ATOM      2  N   UNL d   1       1.895  -3.300  -1.068  0.00  0.00    -0.321 N 
ATOM      3  HN  UNL d   1       1.173  -3.177  -1.778  1.00  0.00     0.169 HD
ATOM      4  N   UNL d   1       2.972  -2.569   0.904  0.00  0.00    -0.317 N 
ATOM      5  HN  UNL d   1       3.049  -1.903   1.673  1.00  0.00     0.170 HD
ATOM      6  N   UNL d   1       3.695  -4.524  -0.175  0.00  0.00    -0.313 N 
ATOM      7  HN  UNL d   1       4.320  -5.330  -0.215  1.00  0.00     0.170 HD
ATOM      8  C   UNL d   1       2.744  -4.313  -1.081  0.00  0.00     0.147 A 
ATOM      9  C   UNL d   1       3.771  -3.614   0.781  0.00  0.00     0.158 A 
ENDROOT
BRANCH   1  10
ATOM     10  C   UNL d   1       1.152  -1.309  -0.009  0.00  0.00     0.084 A 
ATOM     11  N   UNL d   1       0.151  -1.104  -0.957  0.00  0.00    -0.351 N 
ATOM     12  C   UNL d   1      -0.506   0.002  -0.691  0.00  0.00     0.047 A 
ATOM     13  HN  UNL d   1      -0.044  -1.724  -1.743  1.00  0.00     0.166 HD
ATOM     14  C   UNL d   1      -1.639   0.524  -1.501  0.00  0.00     0.076 C 
ATOM     15  S   UNL d   1       0.025   0.863   0.699  0.00  0.00    -0.087 SA
ATOM     16  C   UNL d   1       1.220  -0.334   0.970  0.00  0.00     0.084 A 
ENDBRANCH   1  10
BRANCH   8  17
ATOM     17  S   UNL d   1       2.615  -5.492  -2.409  0.00  0.00    -0.098 SA
ATOM     18  C   UNL d   1       1.247  -4.756  -3.347  0.00  0.00     0.099 C 
ENDBRANCH   8  17
BRANCH   9  19
ATOM     19  N   UNL d   1       4.740  -3.772   1.750  0.00  0.00    -0.274 NA
ATOM     20  H   UNL d   1       5.025  -4.738   1.827  0.00  0.00     0.127 HD
ATOM     21  H   UNL d   1       4.485  -3.291   2.601  0.00  0.00     0.127 HD
ENDBRANCH   9  19
TORSDOF 3
