REMARK  6 active torsions:
REMARK  status: ('A' for Active; 'I' for Inactive)
REMARK    1  A    between atoms: N_3  and  C_1 
REMARK    2  A    between atoms: C_8  and  C_2 
REMARK       I    between atoms: C_4  and  N_3 
REMARK    3  A    between atoms: C_6  and  C_4 
REMARK    4  A    between atoms: O_13  and  C_8 
REMARK    5  A    between atoms: C_16  and  C_9 
REMARK    6  A    between atoms: C_18  and  O_13 
ROOT
ATOM      1  C   UNL d   1       0.270   1.388   0.145  0.00  0.00     0.093 C 
ATOM      2  C   UNL d   1       1.589   0.984   0.211  0.00  0.00     0.074 C 
ATOM      3  S   UNL d   1      -0.836   0.094   0.211  0.00  0.00    -0.076 SA
ATOM      4  C   UNL d   1       1.650  -0.458   0.102  0.00  0.00     0.035 C 
ATOM      5  C   UNL d   1       0.410  -1.064   0.075  0.00  0.00    -0.015 C 
ENDROOT
BRANCH   1   6
ATOM      6  N   UNL d   1      -0.388   2.592   0.063  0.00  0.00    -0.316 N 
ATOM      7  C   UNL d   1       0.092   3.683  -0.633  0.00  0.00     0.259 C 
ATOM      8  O   UNL d   1       1.113   3.697  -1.317  0.00  0.00    -0.267 OA
ATOM      9  H   UNL d   1      -1.374   2.570   0.299  0.00  0.00     0.169 HD
BRANCH   7  10
ATOM     10  C   UNL d   1      -0.781   4.890  -0.610  0.00  0.00     0.070 A 
ATOM     11  C   UNL d   1      -1.763   5.085   0.366  0.00  0.00     0.132 A 
ATOM     12  F   UNL d   1      -1.978   4.172   1.325  0.00  0.00    -0.205 F 
ATOM     13  C   UNL d   1      -2.560   6.229   0.368  0.00  0.00     0.043 A 
ATOM     14  C   UNL d   1      -2.385   7.196  -0.619  0.00  0.00     0.003 A 
ATOM     15  C   UNL d   1      -1.412   7.017  -1.602  0.00  0.00     0.001 A 
ATOM     16  C   UNL d   1      -0.608   5.873  -1.595  0.00  0.00     0.020 A 
ENDBRANCH   7  10
ENDBRANCH   1   6
BRANCH   2  17
ATOM     17  C   UNL d   1       2.774   1.816   0.433  0.00  0.00     0.296 C 
ATOM     18  O   UNL d   1       3.914   1.391   0.278  0.00  0.00    -0.259 OA
BRANCH  17  19
ATOM     19  O   UNL d   1       2.486   3.034   0.974  0.00  0.00    -0.318 OA
BRANCH  19  20
ATOM     20  C   UNL d   1       3.592   3.857   1.365  0.00  0.00     0.174 C 
ATOM     21  C   UNL d   1       4.401   4.372   0.186  0.00  0.00     0.034 C 
ENDBRANCH  19  20
ENDBRANCH  17  19
ENDBRANCH   2  17
BRANCH   5  22
ATOM     22  C   UNL d   1       0.076  -2.522  -0.016  0.00  0.00     0.042 C 
ATOM     23  C   UNL d   1      -0.113  -2.966  -1.459  0.00  0.00     0.010 C 
ENDBRANCH   5  22
TORSDOF 6
