REMARK  3 active torsions:
REMARK  status: ('A' for Active; 'I' for Inactive)
REMARK    1  A    between atoms: N_20  and  C_3 
REMARK    2  A    between atoms: C_13  and  C_9 
REMARK    3  A    between atoms: C_14  and  C_10 
ROOT
ATOM      1  N   UNL d   1       0.836   0.929   0.100  0.00  0.00    -0.259 N 
ATOM      2  C   UNL d   1      -0.038  -0.142   0.096  0.00  0.00     0.103 A 
ATOM      3  C   UNL d   1       0.349   2.240   0.106  0.00  0.00     0.106 C 
ATOM      4  C   UNL d   1      -1.373  -0.017   0.016  0.00  0.00     0.071 C 
ATOM      5  C   UNL d   1      -0.984   2.469   0.003  0.00  0.00     0.075 C 
ATOM      6  C   UNL d   1       2.194   0.597   0.129  0.00  0.00     0.271 A 
ATOM      7  S   UNL d   1       0.799  -1.666   0.197  0.00  0.00    -0.065 SA
ATOM      8  C   UNL d   1       2.337  -0.886   0.149  0.00  0.00     0.076 A 
ATOM      9  C   UNL d   1      -2.000   1.349  -0.154  0.00  0.00     0.119 C 
ATOM     10  C   UNL d   1       3.550  -1.454   0.097  0.00  0.00     0.043 C 
ATOM     11  C   UNL d   1      -2.249  -1.140   0.083  0.00  0.00     0.099 C 
ATOM     12  C   UNL d   1      -1.507   3.802   0.037  0.00  0.00     0.099 C 
ATOM     13  N   UNL d   1      -2.989  -2.029   0.159  0.00  0.00    -0.192 NA
ATOM     14  N   UNL d   1      -1.939   4.878   0.050  0.00  0.00    -0.192 NA
ATOM     15  O   UNL d   1       3.145   1.370   0.103  0.00  0.00    -0.266 OA
ENDROOT
BRANCH   9  16
ATOM     16  C   UNL d   1      -2.817   1.475  -1.437  0.00  0.00    -0.003 A 
ATOM     17  S   UNL d   1      -2.051   1.410  -2.975  0.00  0.00    -0.105 SA
ATOM     18  C   UNL d   1      -3.525   1.688  -3.791  0.00  0.00     0.050 A 
ATOM     19  C   UNL d   1      -4.586   1.794  -2.922  0.00  0.00     0.008 A 
ATOM     20  C   UNL d   1      -4.181   1.661  -1.562  0.00  0.00     0.016 A 
ENDBRANCH   9  16
BRANCH   3  21
ATOM     21  N   UNL d   1       1.242   3.290   0.242  0.00  0.00    -0.287 NA
ATOM     22  H   UNL d   1       2.210   3.021   0.038  0.00  0.00     0.125 HD
ATOM     23  H   UNL d   1       0.985   4.170  -0.200  0.00  0.00     0.125 HD
ENDBRANCH   3  21
BRANCH  10  24
ATOM     24  C   UNL d   1       3.754  -2.858   0.019  0.00  0.00     0.006 A 
ATOM     25  S   UNL d   1       3.868  -3.617  -1.521  0.00  0.00    -0.102 SA
ATOM     26  C   UNL d   1       4.100  -5.160  -0.826  0.00  0.00     0.050 A 
ATOM     27  C   UNL d   1       4.122  -5.108   0.549  0.00  0.00     0.008 A 
ATOM     28  C   UNL d   1       3.932  -3.780   1.035  0.00  0.00     0.019 A 
ENDBRANCH  10  24
TORSDOF 3
