REMARK  1 active torsions:
REMARK  status: ('A' for Active; 'I' for Inactive)
REMARK    1  A    between atoms: O_13  and  C_10 
ROOT
ATOM      1  C   UNL d   1       0.012   1.305  -0.036  0.00  0.00     0.198 A 
ATOM      2  C   UNL d   1      -1.243   0.538  -0.027  0.00  0.00     0.051 A 
ATOM      3  C   UNL d   1       1.258   0.527  -0.009  0.00  0.00     0.049 A 
ATOM      4  O   UNL d   1      -0.004  -1.564  -0.065  0.00  0.00    -0.309 OA
ATOM      5  C   UNL d   1      -1.177  -0.852  -0.027  0.00  0.00     0.090 A 
ATOM      6  C   UNL d   1       1.177  -0.864  -0.034  0.00  0.00     0.090 A 
ATOM      7  C   UNL d   1      -2.475   1.202   0.001  0.00  0.00     0.055 A 
ATOM      8  O   UNL d   1       0.017   2.529  -0.053  0.00  0.00    -0.286 OA
ATOM      9  C   UNL d   1      -2.357  -1.593   0.014  0.00  0.00     0.041 A 
ATOM     10  C   UNL d   1      -3.655   0.463   0.043  0.00  0.00     0.069 A 
ATOM     11  C   UNL d   1      -3.590  -0.935   0.053  0.00  0.00     0.039 A 
ATOM     12  C   UNL d   1       2.498   1.169   0.045  0.00  0.00     0.018 A 
ATOM     13  C   UNL d   1       2.349  -1.621  -0.020  0.00  0.00     0.038 A 
ATOM     14  C   UNL d   1       3.667   0.407   0.070  0.00  0.00     0.001 A 
ATOM     15  C   UNL d   1       3.592  -0.986   0.034  0.00  0.00     0.003 A 
ENDROOT
BRANCH  10  16
ATOM     16  O   UNL d   1      -4.920   0.981   0.080  0.00  0.00    -0.356 OA
ATOM     17  C   UNL d   1      -5.024   2.401   0.071  0.00  0.00     0.210 C 
ENDBRANCH  10  16
TORSDOF 1
