REMARK  9 active torsions:
REMARK  status: ('A' for Active; 'I' for Inactive)
REMARK    1  A    between atoms: N_5  and  C_1 
REMARK    2  A    between atoms: C_3  and  C_2 
REMARK       I    between atoms: N_6  and  C_3 
REMARK    3  A    between atoms: O_24  and  C_4 
REMARK       I    between atoms: C_9  and  N_6 
REMARK    4  A    between atoms: C_14  and  C_7 
REMARK       I    between atoms: N_15  and  C_9 
REMARK    5  A    between atoms: O_26  and  C_10 
REMARK    6  A    between atoms: O_27  and  C_11 
REMARK    7  A    between atoms: C_13  and  N_15 
REMARK    8  A    between atoms: O_28  and  C_14 
REMARK    9  A    between atoms: O_29  and  C_16 
ROOT
ATOM      1  C   UNL d   1       3.373  -2.725  -1.415  0.00  0.00     0.265 C 
ATOM      2  N   UNL d   1       4.697  -2.837  -0.964  0.00  0.00    -0.275 N 
ATOM      3  C   UNL d   1       5.607  -1.881  -0.587  0.00  0.00     0.327 C 
ATOM      4  N   UNL d   1       5.156  -0.883   0.222  0.00  0.00    -0.306 N 
ATOM      5  O   UNL d   1       2.550  -1.935  -1.004  0.00  0.00    -0.267 OA
ATOM      6  O   UNL d   1       6.742  -2.042  -1.025  0.00  0.00    -0.247 OA
ATOM      7  H   UNL d   1       5.250  -3.519  -1.467  0.00  0.00     0.173 HD
ATOM      8  H   UNL d   1       4.157  -0.712   0.156  0.00  0.00     0.171 HD
ENDROOT
BRANCH   1   9
ATOM      9  C   UNL d   1       3.081  -3.808  -2.428  0.00  0.00     0.102 C 
ATOM     10  C   UNL d   1       3.950  -3.849  -3.546  0.00  0.00     0.119 C 
ATOM     11  C   UNL d   1       4.136  -5.089  -4.158  0.00  0.00     0.138 C 
ATOM     12  C   UNL d   1       3.421  -6.229  -3.753  0.00  0.00     0.061 C 
ATOM     13  C   UNL d   1       2.461  -6.123  -2.749  0.00  0.00     0.048 C 
ATOM     14  C   UNL d   1       2.251  -4.896  -2.103  0.00  0.00     0.104 C 
ATOM     15 BR   UNL d   1       1.583  -7.721  -2.215  0.00  0.00    -0.048 Br
BRANCH  10  16
ATOM     16  O   UNL d   1       4.486  -2.628  -3.824  0.00  0.00    -0.352 OA
ATOM     17  C   UNL d   1       5.378  -2.377  -4.893  0.00  0.00     0.210 C 
ENDBRANCH  10  16
BRANCH  11  18
ATOM     18  N   UNL d   1       5.197  -5.337  -5.110  0.00  0.00    -0.113 N 
ATOM     19  O   UNL d   1       6.355  -5.195  -4.701  0.00  0.00    -0.532 OA
ATOM     20  O   UNL d   1       4.861  -5.718  -6.234  0.00  0.00    -0.532 OA
ENDBRANCH  11  18
BRANCH  14  21
ATOM     21  O   UNL d   1       1.297  -4.756  -1.133  0.00  0.00    -0.353 OA
ATOM     22  C   UNL d   1      -0.022  -4.772  -1.706  0.00  0.00     0.210 C 
ENDBRANCH  14  21
ENDBRANCH   1   9
BRANCH   4  23
ATOM     23  C   UNL d   1       5.870  -0.205   1.254  0.00  0.00     0.071 C 
ATOM     24  C   UNL d   1       7.136  -0.557   1.761  0.00  0.00     0.114 C 
ATOM     25  C   UNL d   1       7.535  -0.118   3.042  0.00  0.00     0.108 C 
ATOM     26  C   UNL d   1       6.822   0.888   3.700  0.00  0.00     0.087 C 
ATOM     27  C   UNL d   1       5.654   1.377   3.113  0.00  0.00     0.040 C 
ATOM     28  C   UNL d   1       5.162   0.800   1.931  0.00  0.00     0.035 C 
BRANCH  24  29
ATOM     29  O   UNL d   1       8.011  -1.349   1.065  0.00  0.00    -0.352 OA
ATOM     30  C   UNL d   1       8.831  -0.509   0.232  0.00  0.00     0.210 C 
ENDBRANCH  24  29
BRANCH  25  31
ATOM     31  C   UNL d   1       8.532  -0.905   3.800  0.00  0.00     0.298 C 
ATOM     32  O   UNL d   1       8.239  -1.532   4.807  0.00  0.00    -0.259 OA
BRANCH  31  33
ATOM     33  O   UNL d   1       9.748  -0.883   3.200  0.00  0.00    -0.322 OA
ATOM     34  C   UNL d   1      10.662  -1.842   3.741  0.00  0.00     0.213 C 
ENDBRANCH  31  33
ENDBRANCH  25  31
BRANCH  26  35
ATOM     35  O   UNL d   1       7.238   1.283   4.943  0.00  0.00    -0.355 OA
ATOM     36  C   UNL d   1       7.295   2.692   5.143  0.00  0.00     0.210 C 
ENDBRANCH  26  35
ENDBRANCH   4  23
TORSDOF 9
