REMARK  3 active torsions:
REMARK  status: ('A' for Active; 'I' for Inactive)
REMARK    1  A    between atoms: C_6  and  C_1 
REMARK    2  A    between atoms: C_8  and  C_2 
REMARK    3  A    between atoms: C_15  and  N_3 
REMARK       I    between atoms: N_12  and  C_8 
ROOT
ATOM      1  C   UNL d   1      -0.193  -1.216   0.043  0.00  0.00     0.103 C 
ATOM      2  C   UNL d   1       1.029  -0.540  -0.059  0.00  0.00     0.086 C 
ATOM      3  N   UNL d   1      -1.193  -0.242  -0.004  0.00  0.00    -0.253 N 
ATOM      4  N   UNL d   1      -0.645   1.004  -0.099  0.00  0.00    -0.297 N 
ATOM      5  HN  UNL d   1      -1.133   1.897  -0.043  1.00  0.00     0.187 HD
ATOM      6  C   UNL d   1       0.659   0.809  -0.280  0.00  0.00     0.040 C 
ATOM      7  C   UNL d   1       1.503   1.980  -0.633  0.00  0.00     0.071 C 
ENDROOT
BRANCH   2   8
ATOM      8  C   UNL d   1       2.370  -1.111  -0.003  0.00  0.00     0.258 C 
ATOM      9  N   UNL d   1       3.278  -0.640   0.946  0.00  0.00    -0.344 N 
ATOM     10  C   UNL d   1       3.122   0.476   1.887  0.00  0.00     0.152 C 
ATOM     11  C   UNL d   1       4.565  -1.326   1.109  0.00  0.00     0.152 C 
ATOM     12  C   UNL d   1       4.311   1.438   1.728  0.00  0.00     0.187 C 
ATOM     13  O   UNL d   1       5.552   0.752   1.965  0.00  0.00    -0.388 OA
ATOM     14  C   UNL d   1       5.729  -0.332   1.037  0.00  0.00     0.187 C 
ATOM     15  O   UNL d   1       2.690  -2.003  -0.787  0.00  0.00    -0.267 OA
ENDBRANCH   2   8
BRANCH   1  16
ATOM     16  C   UNL d   1      -0.390  -2.688   0.247  0.00  0.00     0.087 A 
ATOM     17  N   UNL d   1      -1.372  -3.170   1.020  0.00  0.00    -0.259 N 
ATOM     18  O   UNL d   1      -1.331  -4.545   0.889  0.00  0.00    -0.242 OA
ATOM     19  HN  UNL d   1      -2.022  -2.629   1.591  1.00  0.00     0.195 HD
ATOM     20  C   UNL d   1      -0.314  -4.888   0.058  0.00  0.00     0.074 A 
ATOM     21  C   UNL d   1       0.337  -3.747  -0.345  0.00  0.00     0.068 A 
ATOM     22  C   UNL d   1      -0.162  -6.321  -0.252  0.00  0.00     0.079 C 
ENDBRANCH   1  16
BRANCH   3  23
ATOM     23  C   UNL d   1      -2.620  -0.329  -0.086  0.00  0.00     0.057 A 
ATOM     24  C   UNL d   1      -3.381   0.812   0.241  0.00  0.00     0.031 A 
ATOM     25  C   UNL d   1      -4.775   0.790   0.176  0.00  0.00     0.002 A 
ATOM     26  C   UNL d   1      -5.432  -0.366  -0.230  0.00  0.00     0.000 A 
ATOM     27  C   UNL d   1      -4.694  -1.491  -0.589  0.00  0.00     0.002 A 
ATOM     28  C   UNL d   1      -3.294  -1.470  -0.531  0.00  0.00     0.031 A 
ENDBRANCH   3  23
TORSDOF 3
