REMARK  3 active torsions:
REMARK  status: ('A' for Active; 'I' for Inactive)
REMARK    1  A    between atoms: C_3  and  C_1 
REMARK    2  A    between atoms: C_9  and  C_2 
REMARK    3  A    between atoms: C_18  and  N_15 
ROOT
ATOM      1  C   UNL d   1       0.033  -1.275  -0.032  0.00  0.00     0.052 A 
ATOM      2  C   UNL d   1      -1.308  -0.777   0.041  0.00  0.00     0.081 A 
ATOM      3  N   UNL d   1      -1.277   0.562   0.178  0.00  0.00    -0.259 N 
ATOM      4  HN  UNL d   1      -2.081   1.179   0.291  1.00  0.00     0.195 HD
ATOM      5  O   UNL d   1       0.045   0.940   0.139  0.00  0.00    -0.241 OA
ATOM      6  C   UNL d   1       0.833  -0.158   0.023  0.00  0.00     0.087 A 
ATOM      7  C   UNL d   1       2.286   0.090  -0.021  0.00  0.00     0.080 C 
ENDROOT
BRANCH   1   8
ATOM      8  C   UNL d   1       0.447  -2.670  -0.114  0.00  0.00     0.056 A 
ATOM      9  N   UNL d   1      -0.297  -3.525  -0.892  0.00  0.00    -0.335 N 
ATOM     10  C   UNL d   1       0.118  -4.765  -0.762  0.00  0.00     0.149 A 
ATOM     11  HN  UNL d   1      -1.069  -3.234  -1.492  1.00  0.00     0.168 HD
ATOM     12  N   UNL d   1      -0.448  -5.845  -1.341  0.00  0.00    -0.335 N 
ATOM     13  S   UNL d   1       1.466  -4.952   0.299  0.00  0.00    -0.064 SA
ATOM     14  H   UNL d   1      -0.295  -6.763  -0.939  0.00  0.00     0.168 HD
ATOM     15  C   UNL d   1       1.502  -3.256   0.551  0.00  0.00     0.083 A 
BRANCH  12  16
ATOM     16  C   UNL d   1      -1.235  -5.850  -2.512  0.00  0.00     0.056 A 
ATOM     17  C   UNL d   1      -2.210  -6.844  -2.720  0.00  0.00     0.060 A 
ATOM     18 CL   UNL d   1      -2.456  -8.098  -1.551  0.00  0.00    -0.082 Cl
ATOM     19  C   UNL d   1      -3.012  -6.843  -3.867  0.00  0.00     0.026 A 
ATOM     20  C   UNL d   1      -2.853  -5.845  -4.827  0.00  0.00     0.002 A 
ATOM     21  C   UNL d   1      -1.910  -4.843  -4.633  0.00  0.00     0.002 A 
ATOM     22  C   UNL d   1      -1.119  -4.839  -3.481  0.00  0.00     0.031 A 
ENDBRANCH  12  16
ENDBRANCH   1   8
BRANCH   2  23
ATOM     23  C   UNL d   1      -2.591  -1.495   0.087  0.00  0.00     0.015 A 
ATOM     24  C   UNL d   1      -3.742  -1.063  -0.604  0.00  0.00     0.048 A 
ATOM     25  C   UNL d   1      -4.956  -1.755  -0.477  0.00  0.00     0.048 A 
ATOM     26 CL   UNL d   1      -3.756   0.301  -1.671  0.00  0.00    -0.083 Cl
ATOM     27  C   UNL d   1      -5.029  -2.897   0.314  0.00  0.00     0.035 A 
ATOM     28  C   UNL d   1      -3.905  -3.352   0.992  0.00  0.00     0.025 A 
ATOM     29 CL   UNL d   1      -6.517  -3.748   0.458  0.00  0.00    -0.084 Cl
ATOM     30  C   UNL d   1      -2.702  -2.647   0.891  0.00  0.00     0.017 A 
ENDBRANCH   2  23
TORSDOF 3
