REMARK  5 active torsions:
REMARK  status: ('A' for Active; 'I' for Inactive)
REMARK    1  A    between atoms: N_6  and  C_1 
REMARK    2  A    between atoms: C_9  and  N_3 
REMARK    3  A    between atoms: C_8  and  C_4 
REMARK    4  A    between atoms: O_19  and  C_8 
REMARK    5  A    between atoms: C_23  and  O_19 
ROOT
ATOM      1  C   UNL d   1      -0.261  -1.111   0.074  0.00  0.00     0.141 A 
ATOM      2  C   UNL d   1       1.036  -0.629   0.109  0.00  0.00     0.098 A 
ATOM      3  N   UNL d   1      -1.141  -0.026  -0.023  0.00  0.00    -0.290 N 
ATOM      4  C   UNL d   1      -0.364   1.151  -0.054  0.00  0.00     0.124 A 
ATOM      5  C   UNL d   1       0.985   0.782  -0.003  0.00  0.00    -0.004 A 
ATOM      6  C   UNL d   1       2.248  -1.401   0.137  0.00  0.00     0.104 C 
ATOM      7  N   UNL d   1       3.240  -1.997   0.166  0.00  0.00    -0.191 NA
ATOM      8  C   UNL d   1       2.177   1.690  -0.009  0.00  0.00     0.052 C 
ENDROOT
BRANCH   1   9
ATOM      9  N   UNL d   1      -0.591  -2.478   0.017  0.00  0.00    -0.317 N 
ATOM     10  C   UNL d   1       0.078  -3.499   0.672  0.00  0.00     0.098 A 
ATOM     11  C   UNL d   1      -0.439  -4.716   0.290  0.00  0.00     0.019 A 
ATOM     12  C   UNL d   1      -1.485  -4.452  -0.612  0.00  0.00     0.019 A 
ATOM     13  C   UNL d   1      -1.565  -3.081  -0.756  0.00  0.00     0.098 A 
ENDBRANCH   1   9
BRANCH   3  14
ATOM     14  C   UNL d   1      -2.578  -0.078  -0.013  0.00  0.00     0.041 A 
ATOM     15  C   UNL d   1      -3.252  -0.998   0.801  0.00  0.00     0.030 A 
ATOM     16  C   UNL d   1      -4.651  -1.065   0.790  0.00  0.00     0.009 A 
ATOM     17  C   UNL d   1      -5.402  -0.195  -0.005  0.00  0.00    -0.062 A 
ATOM     18  C   UNL d   1      -4.731   0.738  -0.801  0.00  0.00     0.009 A 
ATOM     19  C   UNL d   1      -6.901  -0.263   0.012  0.00  0.00     0.048 C 
ATOM     20  C   UNL d   1      -3.331   0.788  -0.817  0.00  0.00     0.030 A 
ENDBRANCH   3  14
BRANCH   4  21
ATOM     21  C   UNL d   1      -0.875   2.515  -0.018  0.00  0.00     0.311 C 
ATOM     22  O   UNL d   1      -1.893   2.896   0.540  0.00  0.00    -0.258 OA
BRANCH  21  23
ATOM     23  O   UNL d   1      -0.024   3.338  -0.696  0.00  0.00    -0.317 OA
BRANCH  23  24
ATOM     24  C   UNL d   1      -0.365   4.731  -0.736  0.00  0.00     0.175 C 
ATOM     25  C   UNL d   1       0.057   5.430   0.543  0.00  0.00     0.034 C 
ENDBRANCH  23  24
ENDBRANCH  21  23
ENDBRANCH   4  21
TORSDOF 5
