REMARK  5 active torsions:
REMARK  status: ('A' for Active; 'I' for Inactive)
REMARK    1  A    between atoms: C_3  and  C_1 
REMARK    2  A    between atoms: O_13  and  C_3 
REMARK    3  A    between atoms: C_10  and  N_6 
REMARK    4  A    between atoms: C_14  and  C_10 
REMARK    5  A    between atoms: C_15  and  O_13 
ROOT
ATOM      1  C   UNL d   1       1.384  -1.192   0.083  0.00  0.00     0.122 C 
ATOM      2  C   UNL d   1       0.165  -0.666  -0.202  0.00  0.00    -0.050 C 
ATOM      3  C   UNL d   1       2.560  -0.382   0.140  0.00  0.00     0.106 C 
ATOM      4  N   UNL d   1       3.497   0.297   0.180  0.00  0.00    -0.191 NA
ATOM      5  N   UNL d   1      -2.505   0.665   0.055  0.00  0.00     0.093 N 
ATOM      6  C   UNL d   1      -0.043   0.817  -0.499  0.00  0.00     0.066 C 
ATOM      7  C   UNL d   1      -1.141  -1.452  -0.259  0.00  0.00     0.066 C 
ATOM      8  C   UNL d   1      -1.244   1.396   0.266  0.00  0.00     0.277 C 
ATOM      9  C   UNL d   1      -2.309  -0.740   0.454  0.00  0.00     0.277 C 
ENDROOT
BRANCH   1  10
ATOM     10  C   UNL d   1       1.568  -2.640   0.388  0.00  0.00     0.304 C 
ATOM     11  O   UNL d   1       0.876  -3.547  -0.046  0.00  0.00    -0.258 OA
BRANCH  10  12
ATOM     12  O   UNL d   1       2.552  -2.775   1.313  0.00  0.00    -0.317 OA
BRANCH  12  13
ATOM     13  C   UNL d   1       2.511  -3.974   2.096  0.00  0.00     0.174 C 
ATOM     14  C   UNL d   1       1.738  -3.649   3.361  0.00  0.00     0.034 C 
ENDBRANCH  12  13
ENDBRANCH  10  12
ENDBRANCH   1  10
BRANCH   5  15
ATOM     15  C   UNL d   1      -3.018   0.741  -1.326  0.00  0.00     0.311 C 
BRANCH  15  16
ATOM     16  C   UNL d   1      -3.278   2.140  -1.836  0.00  0.00    -0.030 A 
ATOM     17  C   UNL d   1      -2.553   2.639  -2.930  0.00  0.00     0.009 A 
ATOM     18  C   UNL d   1      -2.811   3.916  -3.430  0.00  0.00     0.001 A 
ATOM     19  C   UNL d   1      -3.798   4.706  -2.844  0.00  0.00     0.000 A 
ATOM     20  C   UNL d   1      -4.522   4.222  -1.755  0.00  0.00     0.001 A 
ATOM     21  C   UNL d   1      -4.263   2.947  -1.250  0.00  0.00     0.009 A 
ENDBRANCH  15  16
ENDBRANCH   5  15
TORSDOF 5
