REMARK  9 active torsions:
REMARK  status: ('A' for Active; 'I' for Inactive)
REMARK    1  A    between atoms: C_4  and  C_1 
REMARK    2  A    between atoms: C_6  and  C_2 
REMARK    3  A    between atoms: O_16  and  C_3 
REMARK    4  A    between atoms: O_17  and  C_4 
REMARK    5  A    between atoms: C_5  and  N_9 
REMARK    6  A    between atoms: O_18  and  C_6 
REMARK    7  A    between atoms: N_9  and  C_10 
REMARK    8  A    between atoms: O_19  and  C_11 
REMARK    9  A    between atoms: C_20  and  O_18 
ROOT
ATOM      1  C   UNL d   1      -0.400  -5.887  -0.444  0.00  0.00     0.135 C 
ATOM      2  C   UNL d   1       0.379  -4.794  -0.375  0.00  0.00     0.117 C 
ATOM      3  C   UNL d   1      -1.648  -5.966   0.230  0.00  0.00     0.107 C 
ATOM      4  N   UNL d   1      -2.666  -5.988   0.794  0.00  0.00    -0.191 NA
ENDROOT
BRANCH   1   5
ATOM      5  C   UNL d   1       0.077  -7.021  -1.276  0.00  0.00     0.305 C 
ATOM      6  O   UNL d   1       1.109  -7.000  -1.927  0.00  0.00    -0.258 OA
BRANCH   5   7
ATOM      7  O   UNL d   1      -0.817  -8.042  -1.255  0.00  0.00    -0.317 OA
BRANCH   7   8
ATOM      8  C   UNL d   1      -0.586  -9.104  -2.199  0.00  0.00     0.174 C 
ATOM      9  C   UNL d   1      -1.363  -8.801  -3.467  0.00  0.00     0.034 C 
ENDBRANCH   7   8
ENDBRANCH   5   7
ENDBRANCH   1   5
BRANCH   2  10
ATOM     10  N   UNL d   1       0.146  -3.575   0.244  0.00  0.00    -0.362 N 
ATOM     11  H   UNL d   1      -0.827  -3.323   0.402  0.00  0.00     0.165 HD
BRANCH  10  12
ATOM     12  C   UNL d   1       1.011  -2.454   0.158  0.00  0.00     0.067 C 
ATOM     13  C   UNL d   1       0.482  -1.153  -0.011  0.00  0.00     0.114 C 
ATOM     14  C   UNL d   1       1.326  -0.064  -0.325  0.00  0.00     0.108 C 
ATOM     15  C   UNL d   1       2.717  -0.257  -0.279  0.00  0.00     0.087 C 
ATOM     16  C   UNL d   1       3.247  -1.527  -0.050  0.00  0.00     0.040 C 
ATOM     17  C   UNL d   1       2.402  -2.619   0.143  0.00  0.00     0.035 C 
BRANCH  13  18
ATOM     18  O   UNL d   1      -0.889  -1.019   0.032  0.00  0.00    -0.352 OA
ATOM     19  C   UNL d   1      -1.297  -0.630   1.351  0.00  0.00     0.210 C 
ENDBRANCH  13  18
BRANCH  14  20
ATOM     20  C   UNL d   1       0.792   1.198  -0.901  0.00  0.00     0.298 C 
ATOM     21  O   UNL d   1       1.308   1.766  -1.850  0.00  0.00    -0.259 OA
BRANCH  20  22
ATOM     22  O   UNL d   1      -0.300   1.633  -0.230  0.00  0.00    -0.322 OA
ATOM     23  C   UNL d   1      -0.944   2.785  -0.785  0.00  0.00     0.213 C 
ENDBRANCH  20  22
ENDBRANCH  14  20
BRANCH  15  24
ATOM     24  O   UNL d   1       3.663   0.706  -0.517  0.00  0.00    -0.355 OA
ATOM     25  C   UNL d   1       3.570   1.837   0.348  0.00  0.00     0.210 C 
ENDBRANCH  15  24
ENDBRANCH  10  12
ENDBRANCH   2  10
TORSDOF 9
