REMARK  3 active torsions:
REMARK  status: ('A' for Active; 'I' for Inactive)
REMARK    1  A    between atoms: N_4  and  S_1 
REMARK    2  A    between atoms: C_7  and  S_1 
REMARK       I    between atoms: N_2  and  C_5 
REMARK       I    between atoms: C_3  and  N_2 
REMARK       I    between atoms: N_6  and  C_3 
REMARK    3  A    between atoms: C_5  and  C_10 
ROOT
ATOM      1  C   UNL d   1       1.241  -0.562  -1.969  0.00  0.00     0.074 A 
ATOM      2  C   UNL d   1       0.139  -0.409  -4.567  0.00  0.00     0.026 A 
ATOM      3  C   UNL d   1       0.217  -1.434  -2.341  0.00  0.00     0.026 A 
ATOM      4  C   UNL d   1       1.777   0.324  -2.907  0.00  0.00     0.026 A 
ATOM      5  C   UNL d   1       1.215   0.406  -4.197  0.00  0.00     0.018 A 
ATOM      6  C   UNL d   1      -0.320  -1.359  -3.632  0.00  0.00     0.018 A 
ENDROOT
BRANCH   2   7
ATOM      7  C   UNL d   1      -0.646  -0.313  -5.844  0.00  0.00     0.239 C 
ATOM      8  N   UNL d   1      -0.683   0.825  -6.632  0.00  0.00    -0.175 NA
ATOM      9  C   UNL d   1       0.367   1.326  -7.374  0.00  0.00     0.303 C 
ATOM     10  H   UNL d   1      -1.454   0.670  -7.262  0.00  0.00     0.141 HD
ATOM     11  N   UNL d   1      -0.000   2.208  -8.386  0.00  0.00    -0.334 N 
ATOM     12  O   UNL d   1       1.547   1.089  -7.121  0.00  0.00    -0.254 OA
ATOM     13  C   UNL d   1       1.048   3.072  -8.945  0.00  0.00     0.153 C 
ATOM     14  C   UNL d   1      -1.335   2.797  -8.608  0.00  0.00     0.153 C 
ATOM     15  C   UNL d   1       0.965   4.436  -8.249  0.00  0.00     0.187 C 
ATOM     16  O   UNL d   1      -0.326   5.037  -8.476  0.00  0.00    -0.388 OA
ATOM     17  C   UNL d   1      -1.391   4.203  -7.988  0.00  0.00     0.187 C 
ATOM     18  O   UNL d   1      -1.424  -1.222  -6.147  0.00  0.00    -0.274 OA
ENDBRANCH   2   7
BRANCH   1  19
ATOM     19  S   UNL d   1       1.631  -0.384  -0.240  0.00  0.00     0.243 S 
ATOM     20  O   UNL d   1       1.178   0.940   0.131  0.00  0.00    -0.206 OA
ATOM     21  O   UNL d   1       1.124  -1.555   0.446  0.00  0.00    -0.206 OA
BRANCH  19  22
ATOM     22  N   UNL d   1       3.328  -0.404  -0.110  0.00  0.00    -0.202 NA
ATOM     23  C   UNL d   1       4.037  -1.681  -0.441  0.00  0.00     0.134 C 
ATOM     24  C   UNL d   1       4.008  -2.686   0.720  0.00  0.00     0.183 C 
ATOM     25  O   UNL d   1       4.519  -2.112   1.932  0.00  0.00    -0.389 OA
ATOM     26  C   UNL d   1       3.756  -0.957   2.306  0.00  0.00     0.183 C 
ATOM     27  C   UNL d   1       3.833   0.116   1.214  0.00  0.00     0.134 C 
ENDBRANCH  19  22
ENDBRANCH   1  19
TORSDOF 3
