REMARK  7 active torsions:
REMARK  status: ('A' for Active; 'I' for Inactive)
REMARK    1  A    between atoms: C_8  and  N_1 
REMARK    2  A    between atoms: C_10  and  C_7 
REMARK    3  A    between atoms: C_9  and  C_8 
REMARK    4  A    between atoms: O_15  and  C_9 
REMARK    5  A    between atoms: S_11  and  C_10 
REMARK    6  A    between atoms: C_13  and  S_11 
REMARK    7  A    between atoms: C_21  and  O_15 
ROOT
ATOM      1  N   UNL d   1       0.098  -1.025  -0.007  0.00  0.00    -0.207 N 
ATOM      2  N   UNL d   1       1.359  -0.570   0.104  0.00  0.00    -0.003 NA
ATOM      3  N   UNL d   1      -0.865  -0.082   0.055  0.00  0.00    -0.272 N 
ATOM      4  HN  UNL d   1      -1.880  -0.179   0.040  1.00  0.00     0.189 HD
ATOM      5  N   UNL d   1       1.241   0.748   0.172  0.00  0.00    -0.270 N 
ATOM      6  HN  UNL d   1       2.000   1.427   0.234  1.00  0.00     0.185 HD
ATOM      7  C   UNL d   1      -0.103   1.021   0.142  0.00  0.00     0.119 A 
ENDROOT
BRANCH   7   8
ATOM      8  C   UNL d   1      -0.619   2.413   0.143  0.00  0.00     0.158 C 
BRANCH   8   9
ATOM      9  S   UNL d   1      -1.767   2.798   1.510  0.00  0.00    -0.122 SA
BRANCH   9  10
ATOM     10  C   UNL d   1      -0.805   2.482   2.981  0.00  0.00     0.001 A 
ATOM     11  C   UNL d   1       0.580   2.656   3.073  0.00  0.00     0.020 A 
ATOM     12  C   UNL d   1       1.248   2.411   4.279  0.00  0.00     0.025 A 
ATOM     13  C   UNL d   1       0.532   2.006   5.403  0.00  0.00     0.034 A 
ATOM     14  C   UNL d   1      -0.848   1.843   5.333  0.00  0.00     0.025 A 
ATOM     15 CL   UNL d   1       1.355   1.716   6.886  0.00  0.00    -0.084 Cl
ATOM     16  C   UNL d   1      -1.510   2.083   4.126  0.00  0.00     0.020 A 
ENDBRANCH   9  10
ENDBRANCH   8   9
ENDBRANCH   7   8
BRANCH   1  17
ATOM     17  C   UNL d   1      -0.202  -2.433   0.009  0.00  0.00     0.278 C 
BRANCH  17  18
ATOM     18  C   UNL d   1      -0.467  -2.939  -1.376  0.00  0.00     0.280 C 
ATOM     19  O   UNL d   1      -0.405  -2.296  -2.413  0.00  0.00    -0.263 OA
BRANCH  18  20
ATOM     20  O   UNL d   1      -0.827  -4.257  -1.301  0.00  0.00    -0.320 OA
BRANCH  20  21
ATOM     21  C   UNL d   1      -1.325  -4.839  -2.517  0.00  0.00     0.174 C 
ATOM     22  C   UNL d   1      -2.831  -4.659  -2.556  0.00  0.00     0.034 C 
ENDBRANCH  20  21
ENDBRANCH  18  20
ENDBRANCH  17  18
ENDBRANCH   1  17
TORSDOF 7
