REMARK  16 active torsions:
REMARK  status: ('A' for Active; 'I' for Inactive)
REMARK    1  A    between atoms: O_25  and  C_1 
REMARK    2  A    between atoms: O_26  and  C_2 
REMARK    3  A    between atoms: O_27  and  C_3 
REMARK    4  A    between atoms: O_28  and  C_4 
REMARK    5  A    between atoms: O_29  and  C_5 
REMARK    6  A    between atoms: O_30  and  C_6 
REMARK    7  A    between atoms: C_31  and  N_7 
REMARK    8  A    between atoms: N_8  and  C_32 
REMARK    9  A    between atoms: C_13  and  C_20 
REMARK   10  A    between atoms: C_19  and  C_14 
REMARK   11  A    between atoms: C_36  and  N_15 
REMARK   12  A    between atoms: N_17  and  C_35 
REMARK   13  A    between atoms: C_33  and  C_31 
REMARK   14  A    between atoms: C_32  and  C_34 
REMARK   15  A    between atoms: C_35  and  C_33 
REMARK   16  A    between atoms: C_34  and  C_36 
ROOT
ATOM      1  N   UNL d   1      -8.366  -4.685   1.138  0.00  0.00     0.091 N 
ATOM      2  N   UNL d   1      -8.342  -2.272  -0.717  0.00  0.00     0.091 N 
ATOM      3  C   UNL d   1      -8.248  -3.659  -1.220  0.00  0.00     0.302 C 
ATOM      4  C   UNL d   1      -8.102  -3.307   1.597  0.00  0.00     0.302 C 
ATOM      5  C   UNL d   1      -7.819  -4.784  -0.230  0.00  0.00     0.302 C 
ATOM      6  C   UNL d   1      -8.748  -2.231   0.700  0.00  0.00     0.302 C 
ENDROOT
BRANCH   1   7
ATOM      7  C   UNL d   1      -9.796  -5.059   1.173  0.00  0.00     0.274 C 
BRANCH   7   8
ATOM      8  C   UNL d   1     -10.395  -4.960   2.577  0.00  0.00     0.050 C 
BRANCH   8   9
ATOM      9  C   UNL d   1     -11.872  -5.338   2.622  0.00  0.00     0.120 C 
BRANCH   9  10
ATOM     10  N   UNL d   1     -12.279  -5.171   4.013  0.00  0.00    -0.398 N 
ATOM     11  C   UNL d   1     -13.272  -5.904   4.393  0.00  0.00     0.094 C 
ATOM     12  HN  UNL d   1     -11.810  -4.520   4.642  1.00  0.00     0.158 HD
BRANCH  11  13
ATOM     13  C   UNL d   1     -13.744  -5.877   5.786  0.00  0.00    -0.016 A 
ATOM     14  C   UNL d   1     -13.184  -5.010   6.721  0.00  0.00     0.052 A 
ATOM     15  C   UNL d   1     -13.627  -5.024   8.052  0.00  0.00     0.105 A 
ATOM     16  C   UNL d   1     -14.649  -5.910   8.441  0.00  0.00     0.135 A 
ATOM     17  C   UNL d   1     -15.274  -6.717   7.461  0.00  0.00     0.105 A 
ATOM     18  C   UNL d   1     -14.785  -6.731   6.150  0.00  0.00     0.052 A 
BRANCH  15  19
ATOM     19  O   UNL d   1     -13.035  -4.055   8.821  0.00  0.00    -0.353 OA
ATOM     20  C   UNL d   1     -12.797  -4.358  10.189  0.00  0.00     0.210 C 
ENDBRANCH  15  19
BRANCH  16  21
ATOM     21  O   UNL d   1     -15.109  -5.837   9.732  0.00  0.00    -0.351 OA
ATOM     22  C   UNL d   1     -15.265  -7.080  10.415  0.00  0.00     0.210 C 
ENDBRANCH  16  21
BRANCH  17  23
ATOM     23  O   UNL d   1     -16.381  -7.440   7.839  0.00  0.00    -0.353 OA
ATOM     24  C   UNL d   1     -17.244  -7.884   6.798  0.00  0.00     0.210 C 
ENDBRANCH  17  23
ENDBRANCH  11  13
ENDBRANCH   9  10
ENDBRANCH   8   9
ENDBRANCH   7   8
ENDBRANCH   1   7
BRANCH   2  25
ATOM     25  C   UNL d   1      -7.171  -1.424  -0.969  0.00  0.00     0.274 C 
BRANCH  25  26
ATOM     26  C   UNL d   1      -6.981  -1.053  -2.447  0.00  0.00     0.050 C 
BRANCH  26  27
ATOM     27  C   UNL d   1      -5.882   0.001  -2.588  0.00  0.00     0.120 C 
BRANCH  27  28
ATOM     28  N   UNL d   1      -5.704   0.310  -4.011  0.00  0.00    -0.398 N 
ATOM     29  C   UNL d   1      -4.771   1.176  -4.219  0.00  0.00     0.094 C 
ATOM     30  HN  UNL d   1      -6.258  -0.114  -4.755  1.00  0.00     0.158 HD
BRANCH  29  31
ATOM     31  C   UNL d   1      -4.405   1.604  -5.579  0.00  0.00    -0.016 A 
ATOM     32  C   UNL d   1      -5.102   1.157  -6.694  0.00  0.00     0.052 A 
ATOM     33  C   UNL d   1      -4.695   1.534  -7.978  0.00  0.00     0.105 A 
ATOM     34  C   UNL d   1      -3.594   2.400  -8.139  0.00  0.00     0.135 A 
ATOM     35  C   UNL d   1      -2.973   2.943  -6.989  0.00  0.00     0.105 A 
ATOM     36  C   UNL d   1      -3.343   2.490  -5.718  0.00  0.00     0.052 A 
BRANCH  33  37
ATOM     37  O   UNL d   1      -5.526   1.043  -8.950  0.00  0.00    -0.353 OA
ATOM     38  C   UNL d   1      -4.943   0.715 -10.200  0.00  0.00     0.210 C 
ENDBRANCH  33  37
BRANCH  34  39
ATOM     39  O   UNL d   1      -3.268   2.816  -9.406  0.00  0.00    -0.351 OA
ATOM     40  C   UNL d   1      -1.890   2.699  -9.763  0.00  0.00     0.210 C 
ENDBRANCH  34  39
BRANCH  35  41
ATOM     41  O   UNL d   1      -2.043   3.942  -7.163  0.00  0.00    -0.353 OA
ATOM     42  C   UNL d   1      -1.784   4.776  -6.034  0.00  0.00     0.210 C 
ENDBRANCH  35  41
ENDBRANCH  29  31
ENDBRANCH  27  28
ENDBRANCH  26  27
ENDBRANCH  25  26
ENDBRANCH   2  25
TORSDOF 16
