REMARK  1 active torsions:
REMARK  status: ('A' for Active; 'I' for Inactive)
REMARK       I    between atoms: C_6  and  N_1 
REMARK    1  A    between atoms: O_10  and  C_3 
ROOT
ATOM      1  N   UNL d   1      -1.182   0.052  -0.096  0.00  0.00    -0.317 N 
ATOM      2  C   UNL d   1       1.003   0.718  -0.015  0.00  0.00     0.074 C 
ATOM      3  C   UNL d   1      -0.387   1.247   0.047  0.00  0.00     0.268 C 
ATOM      4  C   UNL d   1       1.011  -0.624  -0.042  0.00  0.00    -0.045 C 
ATOM      5  C   UNL d   1      -0.386  -1.158   0.026  0.00  0.00     0.164 C 
ATOM      6  C   UNL d   1      -2.501  -0.031  -0.468  0.00  0.00     0.218 C 
ATOM      7  C   UNL d   1       2.132   1.560  -0.136  0.00  0.00     0.100 C 
ATOM      8  N   UNL d   1       3.061   2.241  -0.257  0.00  0.00    -0.191 NA
ATOM      9  O   UNL d   1      -3.068  -1.121  -0.575  0.00  0.00    -0.274 OA
ATOM     10  C   UNL d   1       2.179  -1.533  -0.184  0.00  0.00     0.046 C 
ATOM     11  C   UNL d   1      -3.254   1.237  -0.786  0.00  0.00     0.117 C 
ENDROOT
BRANCH   3  12
ATOM     12  O   UNL d   1      -0.665   1.781   1.320  0.00  0.00    -0.372 OA
ATOM     13  H   UNL d   1      -0.674   1.022   1.928  0.00  0.00     0.212 HD
ENDBRANCH   3  12
TORSDOF 1
