REMARK  1 active torsions:
REMARK  status: ('A' for Active; 'I' for Inactive)
REMARK    1  A    between atoms: C_7  and  C_2 
ROOT
ATOM      1  C   UNL d   1       0.030  -0.704  -0.101  0.00  0.00     0.057 A 
ATOM      2  C   UNL d   1       2.274   0.185  -0.023  0.00  0.00     0.041 A 
ATOM      3  S   UNL d   1       1.547  -1.382  -0.128  0.00  0.00    -0.079 SA
ATOM      4  C   UNL d   1       1.323   1.222  -0.034  0.00  0.00    -0.030 A 
ATOM      5  C   UNL d   1       0.019   0.642  -0.042  0.00  0.00     0.002 A 
ATOM      6  S   UNL d   1      -1.478  -1.415  -0.133  0.00  0.00    -0.093 SA
ATOM      7  C   UNL d   1      -1.294   1.191   0.003  0.00  0.00    -0.043 A 
ATOM      8  C   UNL d   1      -2.212   0.139  -0.047  0.00  0.00     0.058 A 
ATOM      9  C   UNL d   1       1.692   2.671  -0.033  0.00  0.00     0.050 C 
ATOM     10  C   UNL d   1      -1.768   2.601   0.100  0.00  0.00     0.049 C 
ENDROOT
BRANCH   2  11
ATOM     11  C   UNL d   1       3.776   0.345   0.075  0.00  0.00     0.067 A 
ATOM     12  N   UNL d   1       4.375   1.529   0.264  0.00  0.00    -0.300 N 
ATOM     13  N   UNL d   1       5.683   1.241   0.326  0.00  0.00    -0.311 N 
ATOM     14  HN  UNL d   1       3.933   2.445   0.343  1.00  0.00     0.187 HD
ATOM     15  C   UNL d   1       5.955  -0.084   0.171  0.00  0.00     0.109 A 
ATOM     16  H   UNL d   1       6.335   2.001   0.478  0.00  0.00     0.186 HD
ATOM     17  C   UNL d   1       4.737  -0.698   0.009  0.00  0.00     0.051 A 
ENDBRANCH   2  11
TORSDOF 1
