REMARK  7 active torsions:
REMARK  status: ('A' for Active; 'I' for Inactive)
REMARK    1  A    between atoms: C_7  and  C_1 
REMARK    2  A    between atoms: C_4  and  C_6 
REMARK       I    between atoms: N_19  and  C_7 
REMARK       I    between atoms: C_8  and  N_18 
REMARK    3  A    between atoms: O_10  and  C_8 
REMARK    4  A    between atoms: C_17  and  O_10 
REMARK    5  A    between atoms: N_18  and  C_21 
REMARK    6  A    between atoms: C_25  and  N_19 
REMARK    7  A    between atoms: C_21  and  C_25 
ROOT
ATOM      1  C   UNL d   1      -3.465  -0.842  -1.264  0.00  0.00     0.253 C 
ATOM      2  O   UNL d   1      -4.085  -0.920  -2.315  0.00  0.00    -0.268 OA
ATOM      3  N   UNL d   1      -4.091  -0.638  -0.054  0.00  0.00    -0.355 N 
ATOM      4  H   UNL d   1      -3.588  -0.680   0.827  0.00  0.00     0.162 HD
ENDROOT
BRANCH   1   5
ATOM      5  C   UNL d   1      -1.985  -0.974  -1.245  0.00  0.00     0.054 A 
ATOM      6  C   UNL d   1      -1.204  -0.465  -2.286  0.00  0.00     0.021 A 
ATOM      7  N   UNL d   1       0.152  -0.610  -2.321  0.00  0.00    -0.355 N 
ATOM      8  C   UNL d   1      -1.788   0.304  -3.438  0.00  0.00     0.069 C 
ATOM      9  C   UNL d   1       0.772  -1.281  -1.310  0.00  0.00     0.117 A 
ATOM     10  HN  UNL d   1       0.694  -0.221  -3.092  1.00  0.00     0.166 HD
ATOM     11  C   UNL d   1       0.051  -1.808  -0.239  0.00  0.00     0.035 A 
ATOM     12  C   UNL d   1      -1.337  -1.656  -0.208  0.00  0.00     0.021 A 
BRANCH   9  13
ATOM     13  C   UNL d   1       2.285  -1.470  -1.356  0.00  0.00     0.432 C 
ATOM     14  F   UNL d   1       2.892  -0.912  -2.442  0.00  0.00    -0.165 F 
ATOM     15  F   UNL d   1       2.910  -0.936  -0.266  0.00  0.00    -0.165 F 
ATOM     16  F   UNL d   1       2.642  -2.788  -1.369  0.00  0.00    -0.165 F 
ENDBRANCH   9  13
ENDBRANCH   1   5
BRANCH   3  17
ATOM     17  C   UNL d   1      -5.536  -0.582   0.049  0.00  0.00     0.142 C 
BRANCH  17  18
ATOM     18  C   UNL d   1      -6.191  -1.970   0.024  0.00  0.00     0.144 C 
BRANCH  18  19
ATOM     19  N   UNL d   1      -5.820  -2.919   1.066  0.00  0.00    -0.335 N 
ATOM     20  C   UNL d   1      -5.076  -2.685   2.177  0.00  0.00     0.361 C 
ATOM     21  O   UNL d   1      -4.554  -1.626   2.490  0.00  0.00    -0.238 OA
ATOM     22  H   UNL d   1      -6.202  -3.853   1.009  0.00  0.00     0.164 HD
BRANCH  20  23
ATOM     23  O   UNL d   1      -5.000  -3.832   2.891  0.00  0.00    -0.294 OA
BRANCH  23  24
ATOM     24  C   UNL d   1      -4.340  -3.846   4.185  0.00  0.00     0.061 C 
ATOM     25  C   UNL d   1      -5.045  -2.893   5.160  0.00  0.00     0.046 C 
ATOM     26  C   UNL d   1      -4.490  -5.290   4.690  0.00  0.00     0.046 C 
ATOM     27  C   UNL d   1      -2.845  -3.525   4.055  0.00  0.00     0.046 C 
ENDBRANCH  23  24
ENDBRANCH  20  23
ENDBRANCH  18  19
ENDBRANCH  17  18
ENDBRANCH   3  17
TORSDOF 7
