REMARK  4 active torsions:
REMARK  status: ('A' for Active; 'I' for Inactive)
REMARK    1  A    between atoms: C_7  and  N_1 
REMARK    2  A    between atoms: O_20  and  C_9 
REMARK    3  A    between atoms: O_21  and  C_15 
REMARK    4  A    between atoms: C_22  and  O_20 
ROOT
ATOM      1  N   UNL d   1      -2.407   0.642  -0.394  0.00  0.00    -0.244 N 
ATOM      2  C   UNL d   1      -2.537  -0.633   0.139  0.00  0.00     0.268 C 
ATOM      3  C   UNL d   1      -1.302  -1.450  -0.043  0.00  0.00     0.066 C 
ATOM      4  C   UNL d   1      -1.247   1.404  -0.291  0.00  0.00     0.266 C 
ATOM      5  C   UNL d   1       0.013   0.643  -0.044  0.00  0.00     0.046 A 
ATOM      6  C   UNL d   1      -0.000  -0.760  -0.016  0.00  0.00    -0.003 A 
ATOM      7  C   UNL d   1       1.227  -1.438   0.036  0.00  0.00     0.016 A 
ATOM      8  C   UNL d   1      -1.462  -2.750  -0.354  0.00  0.00     0.152 C 
ATOM      9  O   UNL d   1      -3.535  -1.044   0.732  0.00  0.00    -0.267 OA
ATOM     10  O   UNL d   1      -1.202   2.623  -0.413  0.00  0.00    -0.267 OA
ATOM     11  C   UNL d   1       1.228   1.343   0.016  0.00  0.00     0.054 A 
ATOM     12  C   UNL d   1       2.442   0.657   0.063  0.00  0.00     0.069 A 
ATOM     13  C   UNL d   1       2.437  -0.735   0.059  0.00  0.00     0.037 A 
ENDROOT
BRANCH   1  14
ATOM     14  C   UNL d   1      -3.430   1.048  -1.282  0.00  0.00     0.046 A 
ATOM     15  C   UNL d   1      -4.535   1.778  -0.852  0.00  0.00     0.031 A 
ATOM     16  C   UNL d   1      -5.612   1.963  -1.726  0.00  0.00     0.009 A 
ATOM     17  C   UNL d   1      -5.595   1.416  -3.020  0.00  0.00    -0.062 A 
ATOM     18  C   UNL d   1      -4.459   0.726  -3.455  0.00  0.00     0.009 A 
ATOM     19  C   UNL d   1      -6.799   1.527  -3.908  0.00  0.00     0.048 C 
ATOM     20  C   UNL d   1      -3.385   0.542  -2.590  0.00  0.00     0.031 A 
ENDBRANCH   1  14
BRANCH   8  21
ATOM     21  O   UNL d   1      -2.683  -3.345  -0.539  0.00  0.00    -0.362 OA
BRANCH  21  22
ATOM     22  C   UNL d   1      -2.681  -4.736  -0.216  0.00  0.00     0.170 C 
ATOM     23  C   UNL d   1      -4.097  -5.259  -0.361  0.00  0.00     0.034 C 
ENDBRANCH  21  22
ENDBRANCH   8  21
BRANCH  12  24
ATOM     24  O   UNL d   1       3.554   1.452   0.091  0.00  0.00    -0.356 OA
ATOM     25  C   UNL d   1       4.817   0.796   0.096  0.00  0.00     0.210 C 
ENDBRANCH  12  24
TORSDOF 4
