REMARK  0 active torsions:
REMARK  status: ('A' for Active; 'I' for Inactive)
ROOT
ATOM      1  C   UNL d   1       2.060  -0.629  -0.388  0.00  0.00    -0.007 C 
ATOM      2  C   UNL d   1       3.066  -1.473   0.155  0.00  0.00    -0.006 C 
ATOM      3  C   UNL d   1       2.333   0.762  -0.386  0.00  0.00    -0.044 C 
ATOM      4  C   UNL d   1       3.951  -0.910   1.097  0.00  0.00    -0.025 C 
ATOM      5  C   UNL d   1       4.239   0.453   1.057  0.00  0.00     0.052 C 
ATOM      6  C   UNL d   1       0.652  -1.071  -0.659  0.00  0.00    -0.018 A 
ATOM      7  C   UNL d   1       3.419  -2.856  -0.270  0.00  0.00    -0.018 A 
ATOM      8  C   UNL d   1       3.491   1.270   0.221  0.00  0.00     0.031 C 
ATOM      9  N   UNL d   1       6.114   1.515   2.502  0.00  0.00    -0.191 NA
ATOM     10  C   UNL d   1       5.272   1.037   1.853  0.00  0.00     0.100 C 
ATOM     11  C   UNL d   1       4.325  -1.777   2.278  0.00  0.00     0.045 C 
ATOM     12  C   UNL d   1       4.124  -3.711   0.606  0.00  0.00    -0.047 A 
ATOM     13  C   UNL d   1      -0.355  -0.110  -0.908  0.00  0.00    -0.047 A 
ATOM     14  C   UNL d   1       1.404   1.767  -1.010  0.00  0.00     0.044 C 
ATOM     15  C   UNL d   1       4.549  -3.255   1.976  0.00  0.00     0.044 C 
ATOM     16  C   UNL d   1      -0.051   1.346  -1.129  0.00  0.00     0.044 C 
ATOM     17  C   UNL d   1       0.208  -2.395  -0.464  0.00  0.00     0.013 A 
ATOM     18  C   UNL d   1       3.303  -3.272  -1.611  0.00  0.00     0.013 A 
ATOM     19  C   UNL d   1       4.570  -4.977   0.183  0.00  0.00     0.008 A 
ATOM     20  C   UNL d   1      -1.722  -0.464  -0.892  0.00  0.00     0.008 A 
ATOM     21  C   UNL d   1       3.812  -4.505  -2.044  0.00  0.00     0.001 A 
ATOM     22  C   UNL d   1      -1.149  -2.744  -0.471  0.00  0.00     0.001 A 
ATOM     23  C   UNL d   1      -2.117  -1.772  -0.661  0.00  0.00     0.001 A 
ATOM     24  C   UNL d   1       4.425  -5.367  -1.141  0.00  0.00     0.001 A 
ENDROOT
TORSDOF 0
