REMARK  5 active torsions:
REMARK  status: ('A' for Active; 'I' for Inactive)
REMARK    1  A    between atoms: S_4  and  C_1 
REMARK    2  A    between atoms: S_2  and  C_3 
REMARK    3  A    between atoms: N_8  and  S_2 
REMARK    4  A    between atoms: C_10  and  S_4 
REMARK    5  A    between atoms: N_9  and  N_8 
REMARK       I    between atoms: C_15  and  N_9 
ROOT
ATOM      1  C   UNL d   1       0.708   1.224   0.002  0.00  0.00     0.078 A 
ATOM      2  C   UNL d   1       0.410  -1.102  -0.038  0.00  0.00     0.129 A 
ATOM      3  C   UNL d   1       1.359  -0.075  -0.019  0.00  0.00    -0.009 A 
ATOM      4  S   UNL d   1      -1.194  -0.495  -0.070  0.00  0.00    -0.086 SA
ATOM      5  C   UNL d   1      -0.667   1.119  -0.013  0.00  0.00     0.075 A 
ATOM      6  C   UNL d   1       2.843  -0.278   0.000  0.00  0.00     0.052 C 
ENDROOT
BRANCH   1   7
ATOM      7  S   UNL d   1       1.490   2.789   0.059  0.00  0.00     0.207 S 
ATOM      8  O   UNL d   1       0.493   3.682   0.617  0.00  0.00    -0.217 OA
ATOM      9  O   UNL d   1       2.768   2.571   0.703  0.00  0.00    -0.217 OA
BRANCH   7  10
ATOM     10  C   UNL d   1       1.774   3.251  -1.632  0.00  0.00     0.064 A 
ATOM     11  C   UNL d   1       0.844   4.059  -2.295  0.00  0.00     0.025 A 
ATOM     12  C   UNL d   1       1.086   4.449  -3.615  0.00  0.00     0.025 A 
ATOM     13  C   UNL d   1       2.255   4.038  -4.259  0.00  0.00     0.034 A 
ATOM     14  C   UNL d   1       3.196   3.259  -3.586  0.00  0.00     0.025 A 
ATOM     15 CL   UNL d   1       2.542   4.504  -5.889  0.00  0.00    -0.084 Cl
ATOM     16  C   UNL d   1       2.964   2.874  -2.264  0.00  0.00     0.025 A 
ENDBRANCH   7  10
ENDBRANCH   1   7
BRANCH   2  17
ATOM     17  S   UNL d   1       0.489  -2.896  -0.052  0.00  0.00     0.283 S 
ATOM     18  O   UNL d   1       1.885  -3.247  -0.195  0.00  0.00    -0.198 OA
ATOM     19  O   UNL d   1      -0.281  -3.353   1.087  0.00  0.00    -0.198 OA
BRANCH  17  20
ATOM     20  N   UNL d   1      -0.286  -3.425  -1.459  0.00  0.00    -0.220 N 
ATOM     21  H   UNL d   1      -0.129  -2.867  -2.308  0.00  0.00     0.200 HD
BRANCH  20  22
ATOM     22  N   UNL d   1      -0.381  -4.863  -1.694  0.00  0.00    -0.261 N 
ATOM     23  C   UNL d   1      -0.392  -5.287  -3.005  0.00  0.00     0.232 C 
ATOM     24  O   UNL d   1      -0.350  -4.506  -3.954  0.00  0.00    -0.272 OA
ATOM     25  C   UNL d   1      -0.457  -6.778  -3.184  0.00  0.00     0.119 C 
ATOM     26  H   UNL d   1      -0.273  -5.487  -0.897  0.00  0.00     0.190 HD
ENDBRANCH  20  22
ENDBRANCH  17  20
ENDBRANCH   2  17
TORSDOF 5
