REMARK  3 active torsions:
REMARK  status: ('A' for Active; 'I' for Inactive)
REMARK    1  A    between atoms: N_3  and  C_1 
REMARK    2  A    between atoms: O_7  and  C_2 
REMARK    3  A    between atoms: C_12  and  O_7 
ROOT
ATOM      1  N   UNL d   1       4.976   7.157  -0.132  0.00  0.00    -0.191 NA
ATOM      2  C   UNL d   1       4.087   6.410  -0.116  0.00  0.00     0.099 C 
ATOM      3  C   UNL d   1       0.849   3.687  -0.048  0.00  0.00     0.076 A 
ATOM      4  C   UNL d   1       2.995   5.485  -0.093  0.00  0.00     0.044 A 
ATOM      5  C   UNL d   1       2.755   4.654  -1.190  0.00  0.00     0.025 A 
ATOM      6  C   UNL d   1       1.113   4.488   1.066  0.00  0.00     0.039 A 
ATOM      7  C   UNL d   1       1.683   3.758  -1.166  0.00  0.00     0.039 A 
ATOM      8  C   UNL d   1       2.170   5.402   1.034  0.00  0.00     0.025 A 
ENDROOT
BRANCH   3   9
ATOM      9  O   UNL d   1      -0.164   2.761  -0.119  0.00  0.00    -0.301 OA
BRANCH   9  10
ATOM     10  C   UNL d   1      -1.266   2.819   0.638  0.00  0.00     0.149 A 
ATOM     11  C   UNL d   1      -2.132   3.852   0.962  0.00  0.00     0.144 A 
ATOM     12  C   UNL d   1      -3.163   3.450   1.872  0.00  0.00     0.046 A 
ATOM     13  C   UNL d   1      -3.104   2.106   2.152  0.00  0.00     0.055 A 
ATOM     14  S   UNL d   1      -1.814   1.341   1.337  0.00  0.00    -0.074 SA
BRANCH  11  15
ATOM     15  N   UNL d   1      -2.000   5.189   0.461  0.00  0.00    -0.112 N 
ATOM     16  O   UNL d   1      -1.905   5.328  -0.764  0.00  0.00    -0.532 OA
ATOM     17  O   UNL d   1      -2.020   6.093   1.305  0.00  0.00    -0.532 OA
ENDBRANCH  11  15
ENDBRANCH   9  10
ENDBRANCH   3   9
TORSDOF 3
