REMARK  3 active torsions:
REMARK  status: ('A' for Active; 'I' for Inactive)
REMARK    1  A    between atoms: C_2  and  S_1 
REMARK    2  A    between atoms: N_6  and  S_1 
REMARK    3  A    between atoms: C_4  and  N_6 
ROOT
ATOM      1  C   UNL d   1      -0.129  -0.146   3.472  0.00  0.00     0.089 A 
ATOM      2  C   UNL d   1       0.679   0.729   2.700  0.00  0.00     0.052 A 
ATOM      3  S   UNL d   1      -1.794  -1.661   4.344  0.00  0.00     0.068 SA
ATOM      4  N   UNL d   1      -1.275  -0.724   3.076  0.00  0.00    -0.309 N 
ATOM      5  HN  UNL d   1      -1.737  -0.609   2.174  1.00  0.00     0.176 HD
ATOM      6  C   UNL d   1       0.244  -0.488   4.888  0.00  0.00     0.068 A 
ATOM      7  N   UNL d   1      -0.620  -1.333   5.471  0.00  0.00    -0.310 N 
ATOM      8  HN  UNL d   1      -0.566  -1.701   6.421  1.00  0.00     0.176 HD
ATOM      9  C   UNL d   1       1.840   1.218   3.328  0.00  0.00     0.027 A 
ATOM     10  C   UNL d   1       2.173   0.912   4.674  0.00  0.00     0.004 A 
ATOM     11  C   UNL d   1       1.399   0.064   5.489  0.00  0.00     0.032 A 
ENDROOT
BRANCH   2  12
ATOM     12  N   UNL d   1       0.334   1.106   1.360  0.00  0.00    -0.179 NA
ATOM     13  H   UNL d   1      -0.677   1.159   1.214  0.00  0.00     0.146 HD
BRANCH  12  14
ATOM     14  S   UNL d   1       1.025   0.222   0.086  0.00  0.00     0.252 S 
ATOM     15  O   UNL d   1       0.516   0.789  -1.139  0.00  0.00    -0.205 OA
ATOM     16  O   UNL d   1       2.443   0.083   0.328  0.00  0.00    -0.205 OA
BRANCH  14  17
ATOM     17  C   UNL d   1       0.406  -1.453   0.097  0.00  0.00     0.117 A 
ATOM     18  S   UNL d   1      -1.290  -1.653  -0.057  0.00  0.00    -0.065 SA
ATOM     19  C   UNL d   1      -1.153  -3.333   0.093  0.00  0.00     0.075 A 
ATOM     20 CL   UNL d   1      -2.566  -4.309   0.125  0.00  0.00    -0.076 Cl
ATOM     21  C   UNL d   1       0.143  -3.773   0.167  0.00  0.00     0.033 A 
ATOM     22  C   UNL d   1       1.054  -2.675   0.161  0.00  0.00     0.034 A 
ENDBRANCH  14  17
ENDBRANCH  12  14
ENDBRANCH   2  12
TORSDOF 3
