REMARK  7 active torsions:
REMARK  status: ('A' for Active; 'I' for Inactive)
REMARK    1  A    between atoms: C_9  and  N_1 
REMARK    2  A    between atoms: C_4  and  C_10 
REMARK    3  A    between atoms: C_7  and  C_4 
REMARK    4  A    between atoms: C_8  and  C_4 
REMARK    5  A    between atoms: O_21  and  C_4 
REMARK    6  A    between atoms: O_22  and  C_8 
REMARK    7  A    between atoms: C_25  and  O_22 
ROOT
ATOM      1  C   UNL d   1       3.277  -0.082  -0.144  0.00  0.00     0.046 A 
ATOM      2  C   UNL d   1       6.127  -0.177  -0.268  0.00  0.00    -0.005 A 
ATOM      3  C   UNL d   1       4.064   0.631   0.764  0.00  0.00     0.031 A 
ATOM      4  C   UNL d   1       3.940  -0.843  -1.117  0.00  0.00     0.031 A 
ATOM      5  C   UNL d   1       5.335  -0.888  -1.180  0.00  0.00     0.013 A 
ATOM      6  C   UNL d   1       5.462   0.579   0.710  0.00  0.00     0.013 A 
ENDROOT
BRANCH   2   7
ATOM      7  C   UNL d   1       7.659  -0.223  -0.338  0.00  0.00     0.271 C 
BRANCH   7   8
ATOM      8  C   UNL d   1       8.316   1.175  -0.488  0.00  0.00     0.432 C 
ATOM      9  F   UNL d   1       9.268   1.445   0.432  0.00  0.00    -0.167 F 
ATOM     10  F   UNL d   1       8.930   1.245  -1.707  0.00  0.00    -0.167 F 
ATOM     11  F   UNL d   1       7.437   2.202  -0.459  0.00  0.00    -0.167 F 
ENDBRANCH   7   8
BRANCH   7  12
ATOM     12  C   UNL d   1       8.270  -0.804   0.949  0.00  0.00     0.308 C 
ATOM     13  O   UNL d   1       7.772  -0.716   2.068  0.00  0.00    -0.261 OA
BRANCH  12  14
ATOM     14  O   UNL d   1       9.479  -1.396   0.708  0.00  0.00    -0.319 OA
BRANCH  14  15
ATOM     15  C   UNL d   1      10.133  -1.952   1.861  0.00  0.00     0.174 C 
ATOM     16  C   UNL d   1      10.870  -0.867   2.625  0.00  0.00     0.034 C 
ENDBRANCH  14  15
ENDBRANCH  12  14
ENDBRANCH   7  12
BRANCH   7  17
ATOM     17  O   UNL d   1       8.002  -1.078  -1.468  0.00  0.00    -0.368 OA
ATOM     18  H   UNL d   1       8.386  -0.502  -2.157  0.00  0.00     0.212 HD
ENDBRANCH   7  17
ENDBRANCH   2   7
BRANCH   1  19
ATOM     19  N   UNL d   1       1.860  -0.048  -0.091  0.00  0.00    -0.244 N 
ATOM     20  C   UNL d   1       1.117   0.935   0.527  0.00  0.00     0.266 A 
ATOM     21  C   UNL d   1      -0.290   0.591   0.324  0.00  0.00     0.048 A 
ATOM     22  O   UNL d   1       1.437   1.942   1.127  0.00  0.00    -0.267 OA
ATOM     23  C   UNL d   1      -1.439   1.251   0.704  0.00  0.00     0.018 A 
ATOM     24  C   UNL d   1      -0.334  -0.591  -0.387  0.00  0.00     0.048 A 
ATOM     25  C   UNL d   1      -2.662   0.663   0.357  0.00  0.00     0.001 A 
ATOM     26  C   UNL d   1      -2.701  -0.556  -0.348  0.00  0.00     0.001 A 
ATOM     27  C   UNL d   1      -1.524  -1.201  -0.731  0.00  0.00     0.018 A 
ATOM     28  C   UNL d   1       1.036  -1.000  -0.659  0.00  0.00     0.266 A 
ATOM     29  O   UNL d   1       1.276  -2.031  -1.260  0.00  0.00    -0.267 OA
ENDBRANCH   1  19
TORSDOF 7
