REMARK  5 active torsions:
REMARK  status: ('A' for Active; 'I' for Inactive)
REMARK    1  A    between atoms: O_3  and  S_1 
REMARK    2  A    between atoms: C_8  and  S_1 
REMARK    3  A    between atoms: C_2  and  O_3 
REMARK    4  A    between atoms: O_18  and  C_5 
REMARK    5  A    between atoms: C_7  and  C_6 
ROOT
ATOM      1  C   UNL d   1       1.288   1.720  -1.985  0.00  0.00     0.140 C 
ATOM      2  C   UNL d   1       2.572   2.283  -2.135  0.00  0.00     0.049 C 
ATOM      3  C   UNL d   1       0.177   2.564  -2.190  0.00  0.00     0.104 C 
ATOM      4  C   UNL d   1       1.648   4.525  -2.416  0.00  0.00    -0.030 C 
ATOM      5  C   UNL d   1       2.742   3.665  -2.306  0.00  0.00     0.031 C 
ATOM      6  C   UNL d   1       0.375   3.944  -2.410  0.00  0.00     0.049 C 
ATOM      7 BR   UNL d   1       4.193   1.295  -2.268  0.00  0.00    -0.048 Br
ENDROOT
BRANCH   1   8
ATOM      8  O   UNL d   1       1.069   0.390  -1.689  0.00  0.00    -0.225 OA
BRANCH   8   9
ATOM      9  S   UNL d   1       1.882  -0.356  -0.476  0.00  0.00     0.303 S 
ATOM     10  O   UNL d   1       2.247   0.607   0.545  0.00  0.00    -0.193 OA
ATOM     11  O   UNL d   1       2.873  -1.250  -1.057  0.00  0.00    -0.193 OA
BRANCH   9  12
ATOM     12  C   UNL d   1       0.682  -1.453   0.276  0.00  0.00     0.086 A 
ATOM     13  C   UNL d   1       0.567  -2.766  -0.195  0.00  0.00     0.026 A 
ATOM     14  C   UNL d   1      -0.247  -3.673   0.484  0.00  0.00     0.008 A 
ATOM     15  C   UNL d   1      -0.945  -3.280   1.634  0.00  0.00    -0.062 A 
ATOM     16  C   UNL d   1      -0.807  -1.968   2.107  0.00  0.00     0.008 A 
ATOM     17  C   UNL d   1      -1.811  -4.274   2.352  0.00  0.00     0.048 C 
ATOM     18  C   UNL d   1       0.008  -1.054   1.433  0.00  0.00     0.026 A 
ENDBRANCH   9  12
ENDBRANCH   8   9
ENDBRANCH   1   8
BRANCH   3  19
ATOM     19  O   UNL d   1      -1.157   2.260  -2.213  0.00  0.00    -0.353 OA
ATOM     20  C   UNL d   1      -1.599   0.922  -2.091  0.00  0.00     0.210 C 
ENDBRANCH   3  19
BRANCH   4  21
ATOM     21  C   UNL d   1       1.885   6.011  -2.558  0.00  0.00     0.141 C 
ATOM     22  S   UNL d   1       0.970   7.007  -1.348  0.00  0.00    -0.148 SA
ATOM     23  C   UNL d   1       1.023   8.522  -2.327  0.00  0.00     0.085 C 
ATOM     24  C   UNL d   1       0.662   8.145  -3.752  0.00  0.00     0.085 C 
ATOM     25  S   UNL d   1       1.548   6.631  -4.235  0.00  0.00    -0.148 SA
ENDBRANCH   4  21
TORSDOF 5
