REMARK  4 active torsions:
REMARK  status: ('A' for Active; 'I' for Inactive)
REMARK    1  A    between atoms: S_13  and  C_4 
REMARK    2  A    between atoms: C_9  and  N_12 
REMARK    3  A    between atoms: C_11  and  C_21 
REMARK       I    between atoms: N_12  and  C_11 
REMARK    4  A    between atoms: C_21  and  S_13 
ROOT
ATOM      1  S   UNL d   1       3.925   0.530   1.150  0.00  0.00    -0.096 SA
ENDROOT
BRANCH   1   2
ATOM      2  C   UNL d   1       2.261   1.087   1.179  0.00  0.00     0.113 A 
ATOM      3  N   UNL d   1       1.848   2.042   0.382  0.00  0.00    -0.343 N 
ATOM      4  C   UNL d   1       0.523   2.359   0.655  0.00  0.00     0.072 A 
ATOM      5  HN  UNL d   1       2.419   2.488  -0.336  1.00  0.00     0.167 HD
ATOM      6  C   UNL d   1      -0.061   1.593   1.670  0.00  0.00     0.037 A 
ATOM      7  C   UNL d   1      -0.280   3.351   0.050  0.00  0.00     0.063 A 
ATOM      8  C   UNL d   1      -1.391   1.796   2.086  0.00  0.00     0.045 A 
ATOM      9  S   UNL d   1       1.095   0.455   2.256  0.00  0.00    -0.063 SA
ATOM     10  C   UNL d   1      -2.134   2.803   1.461  0.00  0.00     0.037 A 
ATOM     11  C   UNL d   1      -1.595   3.580   0.446  0.00  0.00     0.050 A 
ATOM     12 CL   UNL d   1      -3.754   3.087   1.971  0.00  0.00    -0.084 Cl
ATOM     13 CL   UNL d   1       0.458   4.271  -1.189  0.00  0.00    -0.082 Cl
ENDBRANCH   1   2
BRANCH   1  14
ATOM     14  C   UNL d   1       4.652   1.833   0.113  0.00  0.00     0.184 C 
BRANCH  14  15
ATOM     15  C   UNL d   1       6.173   1.843   0.057  0.00  0.00     0.231 C 
ATOM     16  N   UNL d   1       6.827   0.841   0.746  0.00  0.00    -0.326 N 
ATOM     17  H   UNL d   1       6.230   0.133   1.163  0.00  0.00     0.169 HD
ATOM     18  O   UNL d   1       6.732   2.724  -0.599  0.00  0.00    -0.272 OA
BRANCH  16  19
ATOM     19  C   UNL d   1       8.223   0.658   0.871  0.00  0.00     0.037 A 
ATOM     20  C   UNL d   1       9.171   1.590   0.438  0.00  0.00     0.053 A 
ATOM     21  C   UNL d   1      10.535   1.328   0.581  0.00  0.00     0.037 A 
ATOM     22 CL   UNL d   1      11.688   2.489   0.043  0.00  0.00    -0.084 Cl
ATOM     23  C   UNL d   1      10.976   0.141   1.154  0.00  0.00     0.048 A 
ATOM     24  C   UNL d   1      10.036  -0.780   1.599  0.00  0.00     0.037 A 
ATOM     25  C   UNL d   1       8.667  -0.526   1.469  0.00  0.00     0.053 A 
ATOM     26 CL   UNL d   1      10.563  -2.257   2.310  0.00  0.00    -0.084 Cl
ENDBRANCH  16  19
ENDBRANCH  14  15
ENDBRANCH   1  14
TORSDOF 4
