REMARK  5 active torsions:
REMARK  status: ('A' for Active; 'I' for Inactive)
REMARK    1  A    between atoms: C_2  and  N_1 
REMARK    2  A    between atoms: C_3  and  C_5 
REMARK    3  A    between atoms: N_8  and  C_6 
REMARK    4  A    between atoms: C_18  and  N_8 
REMARK    5  A    between atoms: C_10  and  C_18 
ROOT
ATOM      1  C   UNL d   1       0.239  -0.785   0.758  0.00  0.00     0.130 A 
ATOM      2  C   UNL d   1       0.639  -0.880   2.104  0.00  0.00     0.054 A 
ATOM      3  C   UNL d   1      -0.051  -1.726   2.977  0.00  0.00     0.050 A 
ATOM      4  C   UNL d   1      -0.841  -1.523   0.228  0.00  0.00     0.061 A 
ATOM      5  C   UNL d   1      -1.147  -2.441   2.482  0.00  0.00     0.018 A 
ATOM      6  C   UNL d   1      -1.523  -2.350   1.133  0.00  0.00     0.032 A 
ENDROOT
BRANCH   4   7
ATOM      7  N   UNL d   1      -1.107  -1.546  -1.139  0.00  0.00    -0.388 N 
ATOM      8  H   UNL d   1      -1.024  -0.634  -1.595  0.00  0.00     0.159 HD
BRANCH   7   9
ATOM      9  C   UNL d   1      -2.101  -2.416  -1.739  0.00  0.00     0.124 C 
BRANCH   9  10
ATOM     10  C   UNL d   1      -1.878  -2.422  -3.220  0.00  0.00     0.003 A 
ATOM     11  C   UNL d   1      -2.347  -1.281  -4.086  0.00  0.00     0.007 A 
ATOM     12  C   UNL d   1      -3.038  -2.615  -4.165  0.00  0.00     0.007 A 
ENDBRANCH   9  10
ENDBRANCH   7   9
ENDBRANCH   4   7
BRANCH   1  13
ATOM     13  N   UNL d   1       1.008   0.102  -0.106  0.00  0.00    -0.113 N 
ATOM     14  O   UNL d   1       2.244   0.041  -0.026  0.00  0.00    -0.532 OA
ATOM     15  O   UNL d   1       0.377   0.885  -0.831  0.00  0.00    -0.532 OA
ENDBRANCH   1  13
BRANCH   3  16
ATOM     16  C   UNL d   1       0.370  -1.891   4.418  0.00  0.00     0.417 C 
ATOM     17  F   UNL d   1       1.502  -1.205   4.733  0.00  0.00    -0.166 F 
ATOM     18  F   UNL d   1      -0.585  -1.463   5.288  0.00  0.00    -0.166 F 
ATOM     19  F   UNL d   1       0.616  -3.191   4.739  0.00  0.00    -0.166 F 
ENDBRANCH   3  16
TORSDOF 5
