REMARK  4 active torsions:
REMARK  status: ('A' for Active; 'I' for Inactive)
REMARK    1  A    between atoms: C_2  and  S_1 
REMARK    2  A    between atoms: N_4  and  S_1 
REMARK    3  A    between atoms: C_14  and  N_4 
REMARK    4  A    between atoms: C_12  and  C_14 
ROOT
ATOM      1  S   UNL d   1       1.010   0.136  -0.025  0.00  0.00     0.262 S 
ATOM      2  O   UNL d   1       0.715   1.546  -0.130  0.00  0.00    -0.200 OA
ATOM      3  O   UNL d   1       2.363  -0.365  -0.119  0.00  0.00    -0.200 OA
ENDROOT
BRANCH   1   4
ATOM      4  C   UNL d   1       0.050  -0.680  -1.264  0.00  0.00     0.118 A 
ATOM      5  C   UNL d   1      -1.319  -0.439  -1.321  0.00  0.00     0.142 A 
ATOM      6  C   UNL d   1      -2.093  -0.990  -2.337  0.00  0.00     0.086 A 
ATOM      7  F   UNL d   1      -1.924   0.311  -0.389  0.00  0.00    -0.204 F 
ATOM      8  C   UNL d   1      -1.480  -1.790  -3.294  0.00  0.00     0.119 A 
ATOM      9  C   UNL d   1      -0.111  -2.045  -3.248  0.00  0.00     0.044 A 
ATOM     10  F   UNL d   1      -2.216  -2.322  -4.277  0.00  0.00    -0.206 F 
ATOM     11  C   UNL d   1       0.665  -1.485  -2.230  0.00  0.00     0.031 A 
ENDBRANCH   1   4
BRANCH   1  12
ATOM     12  N   UNL d   1       0.363  -0.414   1.429  0.00  0.00    -0.311 N 
ATOM     13  H   UNL d   1      -0.636  -0.218   1.508  0.00  0.00     0.172 HD
BRANCH  12  14
ATOM     14  C   UNL d   1       0.800  -1.728   1.907  0.00  0.00     0.170 C 
BRANCH  14  15
ATOM     15  C   UNL d   1       0.160  -2.084   3.231  0.00  0.00    -0.037 A 
ATOM     16  C   UNL d   1      -0.481  -3.319   3.405  0.00  0.00     0.032 A 
ATOM     17  C   UNL d   1      -1.041  -3.656   4.640  0.00  0.00     0.036 A 
ATOM     18 CL   UNL d   1      -1.822  -5.178   4.830  0.00  0.00    -0.084 Cl
ATOM     19  C   UNL d   1      -0.969  -2.779   5.719  0.00  0.00     0.047 A 
ATOM     20  C   UNL d   1      -0.326  -1.556   5.555  0.00  0.00     0.036 A 
ATOM     21  C   UNL d   1       0.240  -1.207   4.326  0.00  0.00     0.032 A 
ATOM     22 CL   UNL d   1      -0.222  -0.467   6.883  0.00  0.00    -0.084 Cl
ENDBRANCH  14  15
ENDBRANCH  12  14
ENDBRANCH   1  12
TORSDOF 4
