REMARK  5 active torsions:
REMARK  status: ('A' for Active; 'I' for Inactive)
REMARK    1  A    between atoms: C_7  and  N_1 
REMARK    2  A    between atoms: S_8  and  C_2 
REMARK    3  A    between atoms: C_14  and  S_8 
REMARK    4  A    between atoms: C_10  and  C_14 
REMARK       I    between atoms: N_11  and  C_10 
REMARK    5  A    between atoms: C_16  and  N_11 
ROOT
ATOM      1  N   UNL d   1      -0.166   0.617  -0.801  0.00  0.00    -0.241 N 
ATOM      2  C   UNL d   1       1.106   0.550  -0.298  0.00  0.00     0.170 A 
ATOM      3  C   UNL d   1      -0.961   0.093   0.202  0.00  0.00     0.347 A 
ATOM      4  N   UNL d   1       1.213  -0.022   0.870  0.00  0.00    -0.275 N 
ATOM      5  HN  UNL d   1       2.059  -0.193   1.414  1.00  0.00     0.189 HD
ATOM      6  N   UNL d   1      -0.074  -0.339   1.191  0.00  0.00    -0.249 N 
ATOM      7  O   UNL d   1      -2.171  -0.011   0.279  0.00  0.00    -0.245 OA
ATOM      8  H   UNL d   1      -0.344  -0.718   2.090  0.00  0.00     0.192 HD
ENDROOT
BRANCH   2   9
ATOM      9  S   UNL d   1       2.447   1.316  -1.071  0.00  0.00    -0.083 SA
BRANCH   9  10
ATOM     10  C   UNL d   1       3.864   0.762  -0.099  0.00  0.00     0.185 C 
BRANCH  10  11
ATOM     11  C   UNL d   1       5.147   1.356  -0.684  0.00  0.00     0.231 C 
ATOM     12  N   UNL d   1       6.188   1.398   0.233  0.00  0.00    -0.327 N 
ATOM     13  H   UNL d   1       6.138   0.765   1.020  0.00  0.00     0.169 HD
ATOM     14  O   UNL d   1       5.257   1.699  -1.859  0.00  0.00    -0.272 OA
BRANCH  12  15
ATOM     15  C   UNL d   1       7.432   2.011  -0.017  0.00  0.00     0.034 A 
ATOM     16  C   UNL d   1       7.564   3.156  -0.808  0.00  0.00     0.031 A 
ATOM     17  C   UNL d   1       8.817   3.755  -0.980  0.00  0.00     0.026 A 
ATOM     18  C   UNL d   1       9.941   3.188  -0.387  0.00  0.00     0.034 A 
ATOM     19  C   UNL d   1       9.822   2.035   0.388  0.00  0.00     0.026 A 
ATOM     20 CL   UNL d   1      11.485   3.916  -0.599  0.00  0.00    -0.084 Cl
ATOM     21  C   UNL d   1       8.565   1.462   0.595  0.00  0.00     0.031 A 
ENDBRANCH  12  15
ENDBRANCH  10  11
ENDBRANCH   9  10
ENDBRANCH   2   9
BRANCH   1  22
ATOM     22  C   UNL d   1      -0.642   1.200  -2.006  0.00  0.00     0.049 A 
ATOM     23  C   UNL d   1      -1.893   1.826  -2.056  0.00  0.00     0.072 A 
ATOM     24  C   UNL d   1      -2.281   2.535  -3.193  0.00  0.00     0.118 A 
ATOM     25  F   UNL d   1      -3.458   3.179  -3.195  0.00  0.00    -0.206 F 
ATOM     26  C   UNL d   1      -1.465   2.615  -4.310  0.00  0.00     0.042 A 
ATOM     27  C   UNL d   1      -0.259   1.925  -4.315  0.00  0.00     0.005 A 
ATOM     28  C   UNL d   1       0.133   1.206  -3.182  0.00  0.00     0.030 A 
ENDBRANCH   1  22
TORSDOF 5
