REMARK  7 active torsions:
REMARK  status: ('A' for Active; 'I' for Inactive)
REMARK    1  A    between atoms: C_8  and  C_1 
REMARK    2  A    between atoms: C_9  and  C_1 
REMARK    3  A    between atoms: O_12  and  N_2 
REMARK    4  A    between atoms: C_4  and  C_6 
REMARK    5  A    between atoms: C_5  and  C_7 
REMARK    6  A    between atoms: C_10  and  C_11 
REMARK    7  A    between atoms: C_11  and  O_12 
ROOT
ATOM      1  C   UNL d   1       0.418  -3.514   0.180  0.00  0.00     0.315 C 
ATOM      2  O   UNL d   1       0.990  -4.590   0.290  0.00  0.00    -0.257 OA
ENDROOT
BRANCH   1   3
ATOM      3  C   UNL d   1      -1.055  -3.372   0.058  0.00  0.00     0.043 A 
ATOM      4  C   UNL d   1      -1.712  -2.248   0.578  0.00  0.00     0.034 A 
ATOM      5  C   UNL d   1      -3.109  -2.134   0.507  0.00  0.00     0.049 A 
ATOM      6  C   UNL d   1      -3.843  -3.169  -0.093  0.00  0.00     0.032 A 
ATOM      7  C   UNL d   1      -3.203  -4.304  -0.622  0.00  0.00     0.049 A 
ATOM      8  C   UNL d   1      -1.803  -4.403  -0.528  0.00  0.00     0.034 A 
BRANCH   5   9
ATOM      9  C   UNL d   1      -3.789  -0.907   1.071  0.00  0.00     0.417 C 
ATOM     10  F   UNL d   1      -5.141  -0.913   0.909  0.00  0.00    -0.166 F 
ATOM     11  F   UNL d   1      -3.570  -0.759   2.405  0.00  0.00    -0.166 F 
ATOM     12  F   UNL d   1      -3.347   0.240   0.487  0.00  0.00    -0.166 F 
ENDBRANCH   5   9
BRANCH   7  13
ATOM     13  C   UNL d   1      -4.000  -5.399  -1.296  0.00  0.00     0.417 C 
ATOM     14  F   UNL d   1      -5.340  -5.150  -1.323  0.00  0.00    -0.166 F 
ATOM     15  F   UNL d   1      -3.631  -5.580  -2.593  0.00  0.00    -0.166 F 
ATOM     16  F   UNL d   1      -3.856  -6.606  -0.687  0.00  0.00    -0.166 F 
ENDBRANCH   7  13
ENDBRANCH   1   3
BRANCH   1  17
ATOM     17  O   UNL d   1       0.996  -2.284   0.081  0.00  0.00    -0.194 OA
BRANCH  17  18
ATOM     18  N   UNL d   1       1.807  -2.059   1.202  0.00  0.00    -0.255 N 
ATOM     19  C   UNL d   1       2.505  -0.959   1.157  0.00  0.00     0.089 C 
ATOM     20  HN  UNL d   1       1.848  -2.705   1.990  1.00  0.00     0.195 HD
BRANCH  19  21
ATOM     21  C   UNL d   1       3.309  -0.620   2.337  0.00  0.00     0.034 A 
ATOM     22  S   UNL d   1       4.013  -1.871   3.283  0.00  0.00    -0.100 SA
ATOM     23  C   UNL d   1       4.712  -0.758   4.375  0.00  0.00     0.050 A 
ATOM     24  C   UNL d   1       4.416   0.544   4.044  0.00  0.00     0.008 A 
ATOM     25  C   UNL d   1       3.597   0.623   2.880  0.00  0.00     0.022 A 
ENDBRANCH  19  21
BRANCH  19  26
ATOM     26  C   UNL d   1       2.585   0.022   0.065  0.00  0.00     0.034 A 
ATOM     27  S   UNL d   1       1.228   0.424  -0.912  0.00  0.00    -0.100 SA
ATOM     28  C   UNL d   1       2.117   1.541  -1.847  0.00  0.00     0.050 A 
ATOM     29  C   UNL d   1       3.410   1.668  -1.401  0.00  0.00     0.008 A 
ATOM     30  C   UNL d   1       3.684   0.784  -0.318  0.00  0.00     0.022 A 
ENDBRANCH  19  26
ENDBRANCH  17  18
ENDBRANCH   1  17
TORSDOF 7
