REMARK  8 active torsions:
REMARK  status: ('A' for Active; 'I' for Inactive)
REMARK    1  A    between atoms: S_3  and  C_1 
REMARK    2  A    between atoms: N_7  and  C_2 
REMARK    3  A    between atoms: C_17  and  S_3 
REMARK    4  A    between atoms: C_11  and  C_4 
REMARK    5  A    between atoms: N_9  and  N_7 
REMARK    6  A    between atoms: C_12  and  C_8 
REMARK    7  A    between atoms: O_21  and  C_11 
REMARK    8  A    between atoms: C_20  and  C_12 
ROOT
ATOM      1  C   UNL d   1       2.598   5.169   0.951  0.00  0.00     0.179 C 
ATOM      2  N   UNL d   1       1.566   4.728   0.284  0.00  0.00    -0.287 N 
ATOM      3  HN  UNL d   1       0.965   5.386  -0.213  1.00  0.00     0.188 HD
ATOM      4  C   UNL d   1       3.406   4.228   1.685  0.00  0.00     0.123 C 
ATOM      5  N   UNL d   1       4.051   3.408   2.202  0.00  0.00    -0.190 NA
ENDROOT
BRANCH   1   6
ATOM      6  C   UNL d   1       2.950   6.633   0.953  0.00  0.00     0.220 C 
ATOM      7  O   UNL d   1       3.336   7.135   2.002  0.00  0.00    -0.284 OA
BRANCH   6   8
ATOM      8  C   UNL d   1       2.857   7.437  -0.289  0.00  0.00     0.017 A 
ATOM      9  C   UNL d   1       2.682   8.823  -0.177  0.00  0.00     0.015 A 
ATOM     10  C   UNL d   1       2.526   9.605  -1.323  0.00  0.00     0.001 A 
ATOM     11  C   UNL d   1       2.562   9.010  -2.583  0.00  0.00     0.000 A 
ATOM     12  C   UNL d   1       2.783   7.638  -2.701  0.00  0.00     0.001 A 
ATOM     13  C   UNL d   1       2.941   6.851  -1.557  0.00  0.00     0.015 A 
ENDBRANCH   6   8
ENDBRANCH   1   6
BRANCH   2  14
ATOM     14  N   UNL d   1       1.284   3.392   0.247  0.00  0.00    -0.297 N 
ATOM     15  H   UNL d   1       2.060   2.723   0.368  0.00  0.00     0.187 HD
BRANCH  14  16
ATOM     16  C   UNL d   1       0.037   2.846   0.093  0.00  0.00     0.093 A 
ATOM     17  C   UNL d   1      -1.230   3.531  -0.025  0.00  0.00     0.095 A 
ATOM     18  C   UNL d   1      -2.284   2.645  -0.140  0.00  0.00     0.076 A 
ATOM     19  S   UNL d   1      -1.791   1.028  -0.134  0.00  0.00    -0.092 SA
ATOM     20  C   UNL d   1      -0.140   1.459   0.080  0.00  0.00     0.109 A 
BRANCH  17  21
ATOM     21  S   UNL d   1      -1.552   5.241   0.024  0.00  0.00     0.181 S 
ATOM     22  O   UNL d   1      -2.993   5.338  -0.132  0.00  0.00    -0.222 OA
ATOM     23  O   UNL d   1      -0.913   5.712   1.236  0.00  0.00    -0.222 OA
BRANCH  21  24
ATOM     24  C   UNL d   1      -0.798   5.986  -1.419  0.00  0.00     0.105 C 
ATOM     25  C   UNL d   1      -1.270   5.356  -2.724  0.00  0.00     0.026 C 
ATOM     26  C   UNL d   1      -1.088   7.487  -1.417  0.00  0.00     0.026 C 
ENDBRANCH  21  24
ENDBRANCH  17  21
BRANCH  20  27
ATOM     27  C   UNL d   1       0.790   0.344   0.230  0.00  0.00     0.302 C 
ATOM     28  O   UNL d   1       0.490  -0.845   0.213  0.00  0.00    -0.259 OA
BRANCH  27  29
ATOM     29  O   UNL d   1       2.069   0.795   0.412  0.00  0.00    -0.322 OA
ATOM     30  C   UNL d   1       3.035  -0.238   0.657  0.00  0.00     0.213 C 
ENDBRANCH  27  29
ENDBRANCH  20  27
ENDBRANCH  14  16
ENDBRANCH   2  14
TORSDOF 8
