REMARK  3 active torsions:
REMARK  status: ('A' for Active; 'I' for Inactive)
REMARK    1  A    between atoms: C_4  and  C_1 
REMARK    2  A    between atoms: C_3  and  C_4 
REMARK    3  A    between atoms: N_8  and  C_5 
ROOT
ATOM      1  C   UNL d   1      -0.159   3.415   0.310  0.00  0.00     0.037 A 
ATOM      2  C   UNL d   1       0.056   4.489   1.195  0.00  0.00     0.070 A 
ATOM      3  C   UNL d   1       1.370   4.951   1.398  0.00  0.00     0.056 A 
ATOM      4 CL   UNL d   1      -1.240   5.197   2.110  0.00  0.00    -0.081 Cl
ATOM      5 CL   UNL d   1       1.739   6.281   2.446  0.00  0.00    -0.083 Cl
ATOM      6  C   UNL d   1       0.941   2.799  -0.314  0.00  0.00     0.017 A 
ATOM      7  C   UNL d   1       2.243   3.256  -0.089  0.00  0.00     0.003 A 
ATOM      8  C   UNL d   1       2.453   4.338   0.760  0.00  0.00     0.026 A 
ENDROOT
BRANCH   1   9
ATOM      9  C   UNL d   1      -1.483   2.800   0.026  0.00  0.00     0.185 C 
ATOM     10  O   UNL d   1      -1.564   1.579  -0.075  0.00  0.00    -0.287 OA
BRANCH   9  11
ATOM     11  C   UNL d   1      -2.651   3.688  -0.209  0.00  0.00     0.072 C 
ATOM     12  C   UNL d   1      -3.891   3.198  -0.075  0.00  0.00     0.088 C 
BRANCH  12  13
ATOM     13  N   UNL d   1      -5.119   3.837  -0.185  0.00  0.00    -0.398 N 
ATOM     14  C   UNL d   1      -5.291   5.274  -0.388  0.00  0.00     0.148 C 
ATOM     15  C   UNL d   1      -6.373   3.125   0.080  0.00  0.00     0.148 C 
ENDBRANCH  12  13
ENDBRANCH   9  11
ENDBRANCH   1   9
TORSDOF 3
