REMARK  2 active torsions:
REMARK  status: ('A' for Active; 'I' for Inactive)
REMARK    1  A    between atoms: S_7  and  C_1 
REMARK    2  A    between atoms: C_12  and  C_6 
ROOT
ATOM      1  C   UNL d   1      -0.069  -1.353   0.048  0.00  0.00     0.168 A 
ATOM      2  C   UNL d   1       1.188  -0.778   0.101  0.00  0.00     0.113 A 
ATOM      3  N   UNL d   1      -0.927  -0.280   0.005  0.00  0.00    -0.284 N 
ATOM      4  N   UNL d   1      -0.297   0.918  -0.030  0.00  0.00    -0.296 N 
ATOM      5  HN  UNL d   1      -0.725   1.844  -0.063  1.00  0.00     0.187 HD
ATOM      6  C   UNL d   1       1.009   0.624  -0.012  0.00  0.00     0.082 A 
ATOM      7  C   UNL d   1       2.423  -1.470   0.232  0.00  0.00     0.105 C 
ATOM      8  N   UNL d   1       3.412  -2.073   0.316  0.00  0.00    -0.191 NA
ATOM      9  C   UNL d   1      -2.375  -0.277   0.002  0.00  0.00     0.179 C 
ENDROOT
BRANCH   1  10
ATOM     10  S   UNL d   1      -0.651  -3.015   0.033  0.00  0.00     0.190 S 
ATOM     11  O   UNL d   1      -1.344  -3.151   1.297  0.00  0.00    -0.221 OA
ATOM     12  O   UNL d   1      -1.333  -3.131  -1.236  0.00  0.00    -0.221 OA
ATOM     13  C   UNL d   1       0.762  -4.080   0.024  0.00  0.00     0.168 C 
ENDBRANCH   1  10
BRANCH   6  14
ATOM     14  C   UNL d   1       2.051   1.652  -0.075  0.00  0.00    -0.006 A 
ATOM     15  C   UNL d   1       3.242   1.410  -0.779  0.00  0.00     0.014 A 
ATOM     16  C   UNL d   1       4.297   2.321  -0.739  0.00  0.00     0.001 A 
ATOM     17  C   UNL d   1       4.161   3.506  -0.023  0.00  0.00     0.000 A 
ATOM     18  C   UNL d   1       2.962   3.788   0.633  0.00  0.00     0.001 A 
ATOM     19  C   UNL d   1       1.909   2.867   0.607  0.00  0.00     0.014 A 
ENDBRANCH   6  14
TORSDOF 2
