REMARK  3 active torsions:
REMARK  status: ('A' for Active; 'I' for Inactive)
REMARK    1  A    between atoms: C_3  and  N_1 
REMARK    2  A    between atoms: C_4  and  C_3 
REMARK    3  A    between atoms: C_7  and  C_4 
ROOT
ATOM      1  C   UNL d   1      -1.826   2.527  -0.644  0.00  0.00     0.206 C 
ENDROOT
BRANCH   1   2
ATOM      2  N   UNL d   1      -1.640   1.157  -0.144  0.00  0.00    -0.373 N 
ATOM      3  C   UNL d   1      -0.505   0.661   0.477  0.00  0.00     0.036 C 
ATOM      4  C   UNL d   1      -0.296  -0.734   0.497  0.00  0.00    -0.031 C 
ATOM      5  C   UNL d   1       0.481   1.472   1.047  0.00  0.00     0.030 C 
ATOM      6  C   UNL d   1       0.942  -1.261   0.905  0.00  0.00     0.016 C 
ATOM      7  C   UNL d   1      -1.402  -1.693   0.116  0.00  0.00     0.042 C 
ATOM      8  C   UNL d   1       1.967  -0.419   1.340  0.00  0.00    -0.061 C 
ATOM      9  C   UNL d   1       1.702   0.943   1.474  0.00  0.00     0.009 C 
ATOM     10  C   UNL d   1       3.312  -0.972   1.698  0.00  0.00     0.048 C 
ATOM     11  C   UNL d   1      -2.647  -1.023  -0.459  0.00  0.00     0.024 C 
ATOM     12  C   UNL d   1      -2.844   0.369   0.118  0.00  0.00     0.123 C 
ENDBRANCH   1   2
BRANCH   1  13
ATOM     13  C   UNL d   1      -0.600   3.296  -1.122  0.00  0.00     0.177 C 
ATOM     14  O   UNL d   1      -0.402   4.449  -0.708  0.00  0.00    -0.291 OA
BRANCH  13  15
ATOM     15  C   UNL d   1       0.373   2.740  -2.120  0.00  0.00     0.014 A 
ATOM     16  C   UNL d   1       0.189   1.527  -2.791  0.00  0.00     0.054 A 
ATOM     17  C   UNL d   1       1.202   1.032  -3.620  0.00  0.00     0.103 A 
ATOM     18  O   UNL d   1       0.984  -0.190  -4.206  0.00  0.00    -0.346 OA
ATOM     19  C   UNL d   1       2.382   1.757  -3.821  0.00  0.00     0.102 A 
ATOM     20  C   UNL d   1       2.230  -0.823  -4.516  0.00  0.00     0.202 C 
ATOM     21  C   UNL d   1       3.142   0.112  -5.296  0.00  0.00     0.202 C 
ATOM     22  O   UNL d   1       3.435   1.312  -4.574  0.00  0.00    -0.346 OA
ATOM     23  C   UNL d   1       2.546   2.990  -3.201  0.00  0.00     0.040 A 
ATOM     24  C   UNL d   1       1.549   3.477  -2.357  0.00  0.00     0.018 A 
ENDBRANCH  13  15
ENDBRANCH   1  13
TORSDOF 3
