REMARK  8 active torsions:
REMARK  status: ('A' for Active; 'I' for Inactive)
REMARK    1  A    between atoms: C_2  and  C_1 
REMARK    2  A    between atoms: C_4  and  C_1 
REMARK    3  A    between atoms: C_5  and  C_1 
REMARK    4  A    between atoms: O_15  and  C_1 
REMARK       I    between atoms: C_3  and  N_7 
REMARK       I    between atoms: N_6  and  C_3 
REMARK    5  A    between atoms: O_20  and  C_4 
REMARK    6  A    between atoms: C_9  and  N_6 
REMARK    7  A    between atoms: N_7  and  C_18 
REMARK    8  A    between atoms: C_27  and  O_20 
ROOT
ATOM      1  C   UNL d   1       0.265   1.484   0.114  0.00  0.00    -0.005 C 
ATOM      2  C   UNL d   1      -0.922   1.726   0.824  0.00  0.00     0.013 C 
ATOM      3  C   UNL d   1       1.096   2.591  -0.121  0.00  0.00     0.013 C 
ATOM      4  C   UNL d   1      -0.272   4.027   1.280  0.00  0.00     0.036 C 
ATOM      5  C   UNL d   1      -1.180   2.975   1.411  0.00  0.00     0.030 C 
ATOM      6  C   UNL d   1       0.831   3.839   0.452  0.00  0.00     0.030 C 
ENDROOT
BRANCH   4   7
ATOM      7  N   UNL d   1      -0.495   5.194   2.050  0.00  0.00    -0.309 N 
ATOM      8  C   UNL d   1       0.384   6.260   2.181  0.00  0.00     0.325 C 
ATOM      9  N   UNL d   1      -0.001   7.127   3.193  0.00  0.00    -0.309 N 
ATOM     10  O   UNL d   1       1.398   6.402   1.509  0.00  0.00    -0.247 OA
ATOM     11  H   UNL d   1      -0.840   6.897   3.703  0.00  0.00     0.170 HD
ATOM     12  H   UNL d   1      -1.310   5.189   2.640  0.00  0.00     0.170 HD
BRANCH   9  13
ATOM     13  C   UNL d   1       0.733   8.247   3.660  0.00  0.00     0.037 A 
ATOM     14  C   UNL d   1       1.925   8.697   3.081  0.00  0.00     0.053 A 
ATOM     15  C   UNL d   1       2.611   9.785   3.623  0.00  0.00     0.036 A 
ATOM     16 CL   UNL d   1       4.084  10.311   2.901  0.00  0.00    -0.084 Cl
ATOM     17  C   UNL d   1       2.120  10.444   4.744  0.00  0.00     0.024 A 
ATOM     18  C   UNL d   1       0.928  10.017   5.322  0.00  0.00     0.004 A 
ATOM     19  C   UNL d   1       0.237   8.925   4.781  0.00  0.00     0.029 A 
ENDBRANCH   9  13
ENDBRANCH   4   7
BRANCH   1  20
ATOM     20  C   UNL d   1       0.704   0.097  -0.382  0.00  0.00     0.271 C 
BRANCH  20  21
ATOM     21  C   UNL d   1       0.245  -0.234  -1.817  0.00  0.00     0.432 C 
ATOM     22  F   UNL d   1      -0.455  -1.390  -1.903  0.00  0.00    -0.167 F 
ATOM     23  F   UNL d   1      -0.522   0.731  -2.374  0.00  0.00    -0.167 F 
ATOM     24  F   UNL d   1       1.322  -0.395  -2.635  0.00  0.00    -0.167 F 
ENDBRANCH  20  21
BRANCH  20  25
ATOM     25  C   UNL d   1       0.217  -1.072   0.492  0.00  0.00     0.308 C 
ATOM     26  O   UNL d   1      -0.888  -1.184   1.010  0.00  0.00    -0.261 OA
BRANCH  25  27
ATOM     27  O   UNL d   1       1.208  -2.014   0.624  0.00  0.00    -0.319 OA
BRANCH  27  28
ATOM     28  C   UNL d   1       0.992  -2.999   1.647  0.00  0.00     0.174 C 
ATOM     29  C   UNL d   1       1.652  -2.514   2.925  0.00  0.00     0.034 C 
ENDBRANCH  27  28
ENDBRANCH  25  27
ENDBRANCH  20  25
BRANCH  20  30
ATOM     30  O   UNL d   1       2.168   0.103  -0.277  0.00  0.00    -0.368 OA
ATOM     31  H   UNL d   1       2.469  -0.795  -0.513  0.00  0.00     0.212 HD
ENDBRANCH  20  30
ENDBRANCH   1  20
TORSDOF 8
