REMARK  5 active torsions:
REMARK  status: ('A' for Active; 'I' for Inactive)
REMARK    1  A    between atoms: C_5  and  C_1 
REMARK    2  A    between atoms: C_7  and  C_5 
REMARK    3  A    between atoms: C_13  and  C_6 
REMARK    4  A    between atoms: N_14  and  N_9 
REMARK    5  A    between atoms: C_16  and  N_14 
ROOT
ATOM      1  C   UNL d   1       0.891  -3.516   0.065  0.00  0.00     0.181 C 
ATOM      2  N   UNL d   1      -0.101  -2.925  -0.532  0.00  0.00    -0.287 N 
ATOM      3  HN  UNL d   1       0.057  -2.036  -1.006  1.00  0.00     0.188 HD
ATOM      4  C   UNL d   1       0.643  -4.790   0.702  0.00  0.00     0.123 C 
ATOM      5  N   UNL d   1       0.376  -5.797   1.214  0.00  0.00    -0.190 NA
ENDROOT
BRANCH   1   6
ATOM      6  C   UNL d   1       2.267  -2.912   0.040  0.00  0.00     0.238 C 
ATOM      7  O   UNL d   1       3.205  -3.709   0.042  0.00  0.00    -0.283 OA
BRANCH   6   8
ATOM      8  C   UNL d   1       2.501  -1.470   0.025  0.00  0.00     0.110 A 
ATOM      9  N   UNL d   1       1.521  -0.556   0.058  0.00  0.00    -0.257 N 
ATOM     10  O   UNL d   1       2.139   0.681   0.034  0.00  0.00    -0.241 OA
ATOM     11  HN  UNL d   1       0.518  -0.737   0.093  1.00  0.00     0.195 HD
ATOM     12  C   UNL d   1       3.494   0.521   0.011  0.00  0.00     0.086 A 
ATOM     13  C   UNL d   1       3.767  -0.827  -0.001  0.00  0.00     0.071 A 
BRANCH  12  14
ATOM     14  C   UNL d   1       4.335   1.772   0.027  0.00  0.00     0.000 C 
ATOM     15  C   UNL d   1       5.834   1.410   0.025  0.00  0.00     0.021 C 
ATOM     16  C   UNL d   1       4.038   2.636  -1.211  0.00  0.00     0.021 C 
ATOM     17  C   UNL d   1       4.035   2.591   1.295  0.00  0.00     0.021 C 
ENDBRANCH  12  14
ENDBRANCH   6   8
ENDBRANCH   1   6
BRANCH   2  18
ATOM     18  N   UNL d   1      -1.351  -3.473  -0.535  0.00  0.00    -0.300 N 
ATOM     19  H   UNL d   1      -1.684  -4.045   0.245  0.00  0.00     0.187 HD
BRANCH  18  20
ATOM     20  C   UNL d   1      -2.382  -2.701  -1.118  0.00  0.00     0.048 A 
ATOM     21  C   UNL d   1      -2.115  -1.500  -1.793  0.00  0.00     0.032 A 
ATOM     22  C   UNL d   1      -3.136  -0.777  -2.411  0.00  0.00     0.026 A 
ATOM     23  C   UNL d   1      -4.437  -1.265  -2.384  0.00  0.00     0.034 A 
ATOM     24  C   UNL d   1      -4.721  -2.476  -1.756  0.00  0.00     0.026 A 
ATOM     25 CL   UNL d   1      -5.699  -0.370  -3.135  0.00  0.00    -0.084 Cl
ATOM     26  C   UNL d   1      -3.694  -3.196  -1.135  0.00  0.00     0.032 A 
ENDBRANCH  18  20
ENDBRANCH   2  18
TORSDOF 5
