REMARK  3 active torsions:
REMARK  status: ('A' for Active; 'I' for Inactive)
REMARK    1  A    between atoms: C_2  and  N_1 
REMARK    2  A    between atoms: S_4  and  C_3 
REMARK    3  A    between atoms: C_11  and  S_4 
ROOT
ATOM      1  C   UNL d   1       3.286  -0.052  -0.202  0.00  0.00     0.074 A 
ATOM      2  C   UNL d   1       4.026  -0.717  -1.242  0.00  0.00     0.098 A 
ATOM      3  C   UNL d   1       4.139   0.630   0.647  0.00  0.00     0.081 A 
ATOM      4  C   UNL d   1       5.391  -0.555  -1.095  0.00  0.00     0.075 A 
ATOM      5  S   UNL d   1       5.789   0.379   0.276  0.00  0.00    -0.110 SA
ENDROOT
BRANCH   1   6
ATOM      6  N   UNL d   1       1.905  -0.023  -0.045  0.00  0.00    -0.242 N 
ATOM      7  C   UNL d   1       1.164   1.127   0.070  0.00  0.00     0.266 A 
ATOM      8  C   UNL d   1      -0.238   0.702   0.066  0.00  0.00     0.048 A 
ATOM      9  O   UNL d   1       1.512   2.292   0.138  0.00  0.00    -0.267 OA
ATOM     10  C   UNL d   1      -1.401   1.445   0.057  0.00  0.00     0.018 A 
ATOM     11  C   UNL d   1      -0.261  -0.681   0.035  0.00  0.00     0.048 A 
ATOM     12  C   UNL d   1      -2.610   0.741   0.034  0.00  0.00     0.001 A 
ATOM     13  C   UNL d   1      -2.629  -0.670   0.028  0.00  0.00     0.001 A 
ATOM     14  C   UNL d   1      -1.439  -1.401   0.029  0.00  0.00     0.018 A 
ATOM     15  C   UNL d   1       1.120  -1.146  -0.008  0.00  0.00     0.266 A 
ATOM     16  O   UNL d   1       1.435  -2.320   0.050  0.00  0.00    -0.267 OA
ENDBRANCH   1   6
BRANCH   2  17
ATOM     17  S   UNL d   1       3.343  -1.508  -2.632  0.00  0.00     0.209 S 
ATOM     18  O   UNL d   1       2.053  -0.867  -2.821  0.00  0.00    -0.217 OA
ATOM     19  O   UNL d   1       4.379  -1.447  -3.642  0.00  0.00    -0.217 OA
BRANCH  17  20
ATOM     20  C   UNL d   1       3.083  -3.212  -2.245  0.00  0.00     0.064 A 
ATOM     21  C   UNL d   1       2.028  -3.882  -2.876  0.00  0.00     0.025 A 
ATOM     22  C   UNL d   1       1.752  -5.207  -2.534  0.00  0.00     0.025 A 
ATOM     23  C   UNL d   1       2.525  -5.847  -1.565  0.00  0.00     0.034 A 
ATOM     24  C   UNL d   1       3.583  -5.182  -0.945  0.00  0.00     0.025 A 
ATOM     25 CL   UNL d   1       2.165  -7.470  -1.122  0.00  0.00    -0.084 Cl
ATOM     26  C   UNL d   1       3.870  -3.859  -1.288  0.00  0.00     0.025 A 
ENDBRANCH  17  20
ENDBRANCH   2  17
TORSDOF 3
