REMARK  5 active torsions:
REMARK  status: ('A' for Active; 'I' for Inactive)
REMARK    1  A    between atoms: C_5  and  S_1 
REMARK    2  A    between atoms: N_6  and  S_1 
REMARK    3  A    between atoms: C_4  and  C_17 
REMARK    4  A    between atoms: C_21  and  N_6 
REMARK    5  A    between atoms: N_11  and  C_12 
REMARK       I    between atoms: C_16  and  N_11 
ROOT
ATOM      1  S   UNL d   1       1.133   0.058   0.090  0.00  0.00     0.263 S 
ATOM      2  O   UNL d   1       0.480   0.168  -1.199  0.00  0.00    -0.200 OA
ATOM      3  O   UNL d   1       2.573   0.089   0.201  0.00  0.00    -0.200 OA
ENDROOT
BRANCH   1   4
ATOM      4  C   UNL d   1       0.547  -1.436   0.851  0.00  0.00     0.081 A 
ATOM      5  C   UNL d   1       1.357  -2.134   1.747  0.00  0.00     0.051 A 
ATOM      6  C   UNL d   1       0.899  -3.342   2.284  0.00  0.00     0.062 A 
ATOM      7 CL   UNL d   1       1.934  -4.184   3.388  0.00  0.00    -0.082 Cl
ATOM      8  C   UNL d   1      -0.363  -3.868   1.934  0.00  0.00     0.056 A 
ATOM      9  C   UNL d   1      -1.151  -3.147   1.030  0.00  0.00     0.033 A 
ATOM     10  C   UNL d   1      -0.701  -1.942   0.485  0.00  0.00     0.027 A 
BRANCH   8  11
ATOM     11  N   UNL d   1      -0.777  -5.104   2.497  0.00  0.00    -0.326 N 
ATOM     12  C   UNL d   1      -1.972  -5.764   2.283  0.00  0.00     0.218 C 
ATOM     13  O   UNL d   1      -2.901  -5.382   1.580  0.00  0.00    -0.274 OA
ATOM     14  C   UNL d   1      -2.088  -7.069   3.030  0.00  0.00     0.117 C 
ATOM     15  H   UNL d   1      -0.104  -5.532   3.127  0.00  0.00     0.169 HD
ENDBRANCH   8  11
ENDBRANCH   1   4
BRANCH   1  16
ATOM     16  N   UNL d   1       0.468   1.252   1.048  0.00  0.00    -0.281 N 
ATOM     17  H   UNL d   1      -0.256   1.837   0.639  0.00  0.00     0.179 HD
BRANCH  16  18
ATOM     18  C   UNL d   1       0.919   1.478   2.365  0.00  0.00     0.042 A 
ATOM     19  C   UNL d   1       2.043   2.268   2.594  0.00  0.00     0.031 A 
ATOM     20  C   UNL d   1       2.433   2.560   3.906  0.00  0.00     0.016 A 
ATOM     21  C   UNL d   1       1.700   2.065   4.994  0.00  0.00    -0.009 A 
ATOM     22  C   UNL d   1       0.586   1.251   4.742  0.00  0.00     0.016 A 
ATOM     23  C   UNL d   1       0.186   0.971   3.434  0.00  0.00     0.031 A 
BRANCH  21  24
ATOM     24  C   UNL d   1       2.057   2.379   6.373  0.00  0.00     0.049 A 
ATOM     25  N   UNL d   1       1.775   1.498   7.407  0.00  0.00    -0.353 N 
ATOM     26  C   UNL d   1       2.171   2.005   8.554  0.00  0.00     0.047 A 
ATOM     27  HN  UNL d   1       1.326   0.589   7.294  1.00  0.00     0.166 HD
ATOM     28  C   UNL d   1       2.042   1.321   9.870  0.00  0.00     0.076 C 
ATOM     29  S   UNL d   1       2.869   3.573   8.469  0.00  0.00    -0.087 SA
ATOM     30  C   UNL d   1       2.640   3.567   6.770  0.00  0.00     0.081 A 
ENDBRANCH  21  24
ENDBRANCH  16  18
ENDBRANCH   1  16
TORSDOF 5
