REMARK  2 active torsions:
REMARK  status: ('A' for Active; 'I' for Inactive)
REMARK    1  A    between atoms: C_2  and  C_1 
REMARK       I    between atoms: N_4  and  C_2 
REMARK    2  A    between atoms: C_10  and  C_3 
ROOT
ATOM      1  C   UNL d   1       0.903   0.094   0.146  0.00  0.00     0.113 C 
ATOM      2  C   UNL d   1       0.232  -0.786  -0.632  0.00  0.00     0.040 C 
ATOM      3  C   UNL d   1       0.238   1.056   0.949  0.00  0.00     0.105 C 
ATOM      4  N   UNL d   1      -0.304   1.860   1.587  0.00  0.00    -0.191 NA
ENDROOT
BRANCH   1   5
ATOM      5  C   UNL d   1       2.397  -0.049   0.157  0.00  0.00     0.264 C 
ATOM      6  N   UNL d   1       3.204   1.057   0.323  0.00  0.00    -0.347 N 
ATOM      7  C   UNL d   1       2.848   2.464   0.417  0.00  0.00     0.126 C 
ATOM      8  C   UNL d   1       4.654   0.908   0.293  0.00  0.00     0.126 C 
ATOM      9  C   UNL d   1       4.023   3.172  -0.233  0.00  0.00     0.021 C 
ATOM     10  C   UNL d   1       5.218   2.321   0.172  0.00  0.00     0.021 C 
ATOM     11  O   UNL d   1       2.893  -1.166  -0.023  0.00  0.00    -0.267 OA
ENDBRANCH   1   5
BRANCH   2  12
ATOM     12  C   UNL d   1      -1.226  -0.816  -0.786  0.00  0.00    -0.032 A 
ATOM     13  C   UNL d   1      -1.818  -0.179  -1.885  0.00  0.00     0.051 A 
ATOM     14  C   UNL d   1      -3.193  -0.217  -1.988  0.00  0.00     0.105 A 
ATOM     15  O   UNL d   1      -3.931   0.346  -2.982  0.00  0.00    -0.323 OA
ATOM     16  C   UNL d   1      -3.975  -0.855  -1.053  0.00  0.00     0.105 A 
ATOM     17  C   UNL d   1      -5.263  -0.040  -2.583  0.00  0.00     0.352 A 
ATOM     18  O   UNL d   1      -5.301  -0.772  -1.341  0.00  0.00    -0.323 OA
ATOM     19  C   UNL d   1      -3.424  -1.492   0.038  0.00  0.00     0.040 A 
ATOM     20  C   UNL d   1      -2.031  -1.475   0.168  0.00  0.00     0.014 A 
ENDBRANCH   2  12
TORSDOF 2
