REMARK  7 active torsions:
REMARK  status: ('A' for Active; 'I' for Inactive)
REMARK    1  A    between atoms: S_9  and  C_2 
REMARK    2  A    between atoms: C_13  and  C_3 
REMARK    3  A    between atoms: C_8  and  S_12 
REMARK    4  A    between atoms: C_16  and  S_9 
REMARK    5  A    between atoms: C_11  and  C_16 
REMARK    6  A    between atoms: C_14  and  C_11 
REMARK    7  A    between atoms: S_12  and  C_13 
ROOT
ATOM      1  N   UNL d   1       0.889   0.020  -0.081  0.00  0.00    -0.319 N 
ATOM      2  C   UNL d   1       0.009   1.061  -0.210  0.00  0.00     0.162 A 
ATOM      3  C   UNL d   1       0.109  -1.117  -0.006  0.00  0.00     0.109 A 
ATOM      4  N   UNL d   1      -1.221   0.608  -0.172  0.00  0.00    -0.278 N 
ATOM      5  HN  UNL d   1      -2.071   1.171  -0.227  1.00  0.00     0.189 HD
ATOM      6  N   UNL d   1      -1.162  -0.758  -0.046  0.00  0.00    -0.286 N 
ATOM      7  HN  UNL d   1      -1.962  -1.388   0.008  1.00  0.00     0.188 HD
ATOM      8  C   UNL d   1       2.328   0.070  -0.046  0.00  0.00     0.159 C 
ENDROOT
BRANCH   2   9
ATOM      9  S   UNL d   1       0.475   2.712  -0.433  0.00  0.00    -0.085 SA
BRANCH   9  10
ATOM     10  C   UNL d   1      -1.157   3.507  -0.517  0.00  0.00     0.166 C 
BRANCH  10  11
ATOM     11  C   UNL d   1      -1.065   4.994  -0.830  0.00  0.00     0.169 C 
ATOM     12  O   UNL d   1      -0.020   5.567  -1.148  0.00  0.00    -0.291 OA
BRANCH  11  13
ATOM     13  C   UNL d   1      -2.324   5.803  -0.761  0.00  0.00     0.011 A 
ATOM     14  C   UNL d   1      -3.577   5.221  -0.519  0.00  0.00     0.017 A 
ATOM     15  C   UNL d   1      -4.724   6.022  -0.447  0.00  0.00     0.025 A 
ATOM     16  C   UNL d   1      -4.626   7.400  -0.621  0.00  0.00     0.034 A 
ATOM     17  C   UNL d   1      -3.390   7.989  -0.873  0.00  0.00     0.025 A 
ATOM     18 CL   UNL d   1      -6.040   8.377  -0.521  0.00  0.00    -0.084 Cl
ATOM     19  C   UNL d   1      -2.243   7.192  -0.944  0.00  0.00     0.017 A 
ENDBRANCH  11  13
ENDBRANCH  10  11
ENDBRANCH   9  10
ENDBRANCH   2   9
BRANCH   3  20
ATOM     20  C   UNL d   1       0.613  -2.524   0.037  0.00  0.00     0.158 C 
BRANCH  20  21
ATOM     21  S   UNL d   1       1.347  -2.929   1.647  0.00  0.00    -0.115 SA
BRANCH  21  22
ATOM     22  C   UNL d   1       1.950  -4.574   1.460  0.00  0.00     0.041 A 
ATOM     23  S   UNL d   1       1.537  -5.652   0.197  0.00  0.00    -0.095 SA
ATOM     24  C   UNL d   1       2.476  -6.915   0.867  0.00  0.00     0.051 A 
ATOM     25  C   UNL d   1       3.109  -6.526   2.025  0.00  0.00     0.009 A 
ATOM     26  C   UNL d   1       2.808  -5.173   2.361  0.00  0.00     0.026 A 
ENDBRANCH  21  22
ENDBRANCH  20  21
ENDBRANCH   3  20
TORSDOF 7
