REMARK  4 active torsions:
REMARK  status: ('A' for Active; 'I' for Inactive)
REMARK    1  A    between atoms: C_13  and  C_1 
REMARK    2  A    between atoms: C_17  and  C_6 
REMARK    3  A    between atoms: C_10  and  C_14 
REMARK    4  A    between atoms: C_14  and  C_12 
ROOT
ATOM      1  N   UNL d   1       5.659  -0.105   0.673  0.00  0.00    -0.277 N 
ATOM      2  HN  UNL d   1       6.513  -0.310   1.192  1.00  0.00     0.189 HD
ATOM      3  C   UNL d   1       5.229  -0.722  -0.409  0.00  0.00     0.174 A 
ATOM      4  O   UNL d   1       4.052  -0.197  -0.878  0.00  0.00    -0.277 OA
ATOM      5  N   UNL d   1       4.729   0.871   0.969  0.00  0.00    -0.281 N 
ATOM      6  HN  UNL d   1       4.760   1.529   1.747  1.00  0.00     0.189 HD
ATOM      7  C   UNL d   1       3.794   0.782   0.045  0.00  0.00     0.146 A 
ENDROOT
BRANCH   7   8
ATOM      8  C   UNL d   1       2.546   1.568  -0.109  0.00  0.00     0.143 C 
BRANCH   8   9
ATOM      9  C   UNL d   1       1.310   0.725  -0.025  0.00  0.00     0.024 A 
ATOM     10  N   UNL d   1       0.413   0.740  -1.088  0.00  0.00    -0.352 N 
ATOM     11  C   UNL d   1      -0.624  -0.039  -0.841  0.00  0.00     0.091 A 
ATOM     12  HN  UNL d   1       0.540   1.280  -1.944  1.00  0.00     0.166 HD
ATOM     13  S   UNL d   1      -0.569  -0.836   0.685  0.00  0.00    -0.081 SA
ATOM     14  C   UNL d   1       0.923  -0.077   1.033  0.00  0.00     0.077 A 
BRANCH  11  15
ATOM     15  C   UNL d   1      -1.704  -0.181  -1.795  0.00  0.00     0.038 A 
ATOM     16  S   UNL d   1      -3.102  -1.143  -1.520  0.00  0.00    -0.099 SA
ATOM     17  C   UNL d   1      -3.777  -0.740  -3.036  0.00  0.00     0.050 A 
ATOM     18  C   UNL d   1      -2.964   0.106  -3.753  0.00  0.00     0.008 A 
ATOM     19  C   UNL d   1      -1.772   0.426  -3.038  0.00  0.00     0.022 A 
ENDBRANCH  11  15
ENDBRANCH   8   9
ENDBRANCH   7   8
BRANCH   3  20
ATOM     20  C   UNL d   1       5.779  -1.870  -1.121  0.00  0.00     0.017 A 
ATOM     21  C   UNL d   1       5.158  -2.394  -2.266  0.00  0.00     0.017 A 
ATOM     22  C   UNL d   1       5.676  -3.525  -2.906  0.00  0.00     0.025 A 
ATOM     23  C   UNL d   1       6.822  -4.140  -2.408  0.00  0.00     0.034 A 
ATOM     24  C   UNL d   1       7.461  -3.627  -1.281  0.00  0.00     0.025 A 
ATOM     25 CL   UNL d   1       7.444  -5.544  -3.181  0.00  0.00    -0.084 Cl
ATOM     26  C   UNL d   1       6.941  -2.496  -0.643  0.00  0.00     0.017 A 
ENDBRANCH   3  20
TORSDOF 4
