REMARK  3 active torsions:
REMARK  status: ('A' for Active; 'I' for Inactive)
REMARK    1  A    between atoms: C_3  and  C_1 
REMARK    2  A    between atoms: O_6  and  C_2 
REMARK    3  A    between atoms: C_5  and  O_6 
ROOT
ATOM      1  C   UNL d   1      -1.852   0.308  -1.111  0.00  0.00     0.099 A 
ATOM      2  C   UNL d   1      -1.978   1.686  -1.000  0.00  0.00     0.163 A 
ATOM      3  N   UNL d   1      -2.620   2.447  -1.923  0.00  0.00    -0.346 N 
ATOM      4  HN  UNL d   1      -2.728   3.453  -1.792  1.00  0.00     0.167 HD
ATOM      5  C   UNL d   1      -2.374  -0.295  -2.269  0.00  0.00     0.022 A 
ATOM      6  C   UNL d   1      -3.109   1.833  -3.019  0.00  0.00     0.090 A 
ATOM      7  C   UNL d   1      -3.005   0.476  -3.240  0.00  0.00     0.018 A 
ENDROOT
BRANCH   2   8
ATOM      8  O   UNL d   1      -1.487   2.321   0.125  0.00  0.00    -0.292 OA
BRANCH   8   9
ATOM      9  C   UNL d   1      -0.925   3.570  -0.026  0.00  0.00     0.084 A 
ATOM     10  C   UNL d   1      -1.055   4.470   1.023  0.00  0.00    -0.017 A 
ATOM     11  C   UNL d   1      -0.426   5.721   0.983  0.00  0.00    -0.043 A 
ATOM     12  C   UNL d   1      -1.794   4.268   2.306  0.00  0.00     0.042 C 
ATOM     13  C   UNL d   1      -0.667   6.490   2.244  0.00  0.00     0.040 C 
ATOM     14  C   UNL d   1       0.356   6.104  -0.104  0.00  0.00    -0.055 A 
ATOM     15  C   UNL d   1      -1.716   5.646   2.978  0.00  0.00     0.009 C 
ATOM     16  C   UNL d   1       0.472   5.204  -1.171  0.00  0.00     0.010 A 
ATOM     17  C   UNL d   1       1.065   7.423  -0.133  0.00  0.00     0.049 C 
ATOM     18  C   UNL d   1      -0.147   3.945  -1.127  0.00  0.00     0.038 A 
ENDBRANCH   8   9
ENDBRANCH   2   8
BRANCH   1  19
ATOM     19  C   UNL d   1      -1.184  -0.545  -0.079  0.00  0.00     0.421 C 
ATOM     20  F   UNL d   1      -0.742   0.093   1.036  0.00  0.00    -0.166 F 
ATOM     21  F   UNL d   1      -2.011  -1.534   0.372  0.00  0.00    -0.166 F 
ATOM     22  F   UNL d   1      -0.096  -1.195  -0.586  0.00  0.00    -0.166 F 
ENDBRANCH   1  19
TORSDOF 3
