REMARK  9 active torsions:
REMARK  status: ('A' for Active; 'I' for Inactive)
REMARK    1  A    between atoms: C_7  and  C_1 
REMARK       I    between atoms: C_2  and  N_3 
REMARK    2  A    between atoms: C_4  and  C_2 
REMARK    3  A    between atoms: N_3  and  C_6 
REMARK    4  A    between atoms: O_18  and  C_5 
REMARK       I    between atoms: N_16  and  C_7 
REMARK    5  A    between atoms: O_20  and  C_8 
REMARK    6  A    between atoms: O_19  and  C_9 
REMARK    7  A    between atoms: C_22  and  N_16 
REMARK    8  A    between atoms: C_17  and  C_21 
REMARK    9  A    between atoms: C_21  and  C_22 
ROOT
ATOM      1  C   UNL d   1       0.983  -0.484   0.282  0.00  0.00     0.058 C 
ATOM      2  C   UNL d   1       0.375  -1.431  -0.552  0.00  0.00     0.050 C 
ATOM      3  C   UNL d   1       0.228   0.646   0.661  0.00  0.00     0.019 C 
ATOM      4  C   UNL d   1      -1.014  -1.368  -0.759  0.00  0.00     0.030 C 
ATOM      5  C   UNL d   1      -1.117   0.778   0.313  0.00  0.00     0.001 C 
ATOM      6  C   UNL d   1      -1.753  -0.258  -0.356  0.00  0.00     0.002 C 
ENDROOT
BRANCH   2   7
ATOM      7  N   UNL d   1       1.048  -2.537  -1.094  0.00  0.00    -0.322 N 
ATOM      8  C   UNL d   1       1.648  -2.594  -2.348  0.00  0.00     0.256 C 
ATOM      9  O   UNL d   1       2.627  -3.344  -2.419  0.00  0.00    -0.267 OA
ATOM     10  H   UNL d   1       1.693  -2.982  -0.442  0.00  0.00     0.169 HD
BRANCH   8  11
ATOM     11  C   UNL d   1       1.248  -1.841  -3.590  0.00  0.00     0.037 C 
ATOM     12  C   UNL d   1       0.061  -1.131  -3.784  0.00  0.00     0.057 C 
ATOM     13  C   UNL d   1      -0.299  -0.562  -5.023  0.00  0.00     0.105 C 
ATOM     14  C   UNL d   1       0.565  -0.696  -6.120  0.00  0.00     0.135 C 
ATOM     15  C   UNL d   1       1.817  -1.302  -5.906  0.00  0.00     0.105 C 
ATOM     16  C   UNL d   1       2.130  -1.901  -4.677  0.00  0.00     0.057 C 
BRANCH  13  17
ATOM     17  O   UNL d   1      -1.465   0.134  -5.209  0.00  0.00    -0.353 OA
ATOM     18  C   UNL d   1      -2.347   0.323  -4.111  0.00  0.00     0.210 C 
ENDBRANCH  13  17
BRANCH  14  19
ATOM     19  O   UNL d   1       0.323  -0.299  -7.410  0.00  0.00    -0.351 OA
ATOM     20  C   UNL d   1      -0.987   0.079  -7.805  0.00  0.00     0.210 C 
ENDBRANCH  14  19
BRANCH  15  21
ATOM     21  O   UNL d   1       2.803  -1.404  -6.860  0.00  0.00    -0.353 OA
ATOM     22  C   UNL d   1       3.058  -0.177  -7.548  0.00  0.00     0.210 C 
ENDBRANCH  15  21
ENDBRANCH   8  11
ENDBRANCH   2   7
BRANCH   1  23
ATOM     23  C   UNL d   1       2.322  -0.601   0.940  0.00  0.00     0.253 C 
ATOM     24  O   UNL d   1       2.508   0.036   1.977  0.00  0.00    -0.268 OA
ATOM     25  N   UNL d   1       3.308  -1.420   0.409  0.00  0.00    -0.356 N 
ATOM     26  H   UNL d   1       3.272  -1.639  -0.581  0.00  0.00     0.162 HD
BRANCH  25  27
ATOM     27  C   UNL d   1       4.639  -1.365   1.020  0.00  0.00     0.129 C 
BRANCH  27  28
ATOM     28  C   UNL d   1       5.493  -2.618   0.838  0.00  0.00     0.076 C 
BRANCH  28  29
ATOM     29  C   UNL d   1       6.045  -2.783  -0.553  0.00  0.00     0.010 A 
ATOM     30  N   UNL d   1       7.064  -1.967  -0.915  0.00  0.00    -0.369 N 
ATOM     31  C   UNL d   1       7.599  -2.150  -2.144  0.00  0.00     0.088 A 
ATOM     32  HN  UNL d   1       7.412  -1.243  -0.287  1.00  0.00     0.165 HD
ATOM     33  C   UNL d   1       7.161  -3.113  -3.043  0.00  0.00     0.017 A 
ATOM     34  C   UNL d   1       6.113  -3.931  -2.654  0.00  0.00     0.003 A 
ATOM     35  C   UNL d   1       5.548  -3.773  -1.393  0.00  0.00     0.025 A 
ENDBRANCH  28  29
ENDBRANCH  27  28
ENDBRANCH  25  27
ENDBRANCH   1  23
TORSDOF 9
