REMARK  3 active torsions:
REMARK  status: ('A' for Active; 'I' for Inactive)
REMARK    1  A    between atoms: S_2  and  C_1 
REMARK    2  A    between atoms: C_11  and  S_2 
REMARK    3  A    between atoms: N_5  and  C_3 
ROOT
ATOM      1  S   UNL d   1       2.836  -1.705  -0.009  0.00  0.00     0.207 S 
ATOM      2  O   UNL d   1       2.734  -2.424   1.244  0.00  0.00    -0.217 OA
ATOM      3  O   UNL d   1       2.786  -2.374  -1.294  0.00  0.00    -0.217 OA
ENDROOT
BRANCH   1   4
ATOM      4  C   UNL d   1       1.451  -0.654  -0.017  0.00  0.00     0.073 A 
ATOM      5  C   UNL d   1       0.746  -0.230  -1.192  0.00  0.00     0.068 A 
ATOM      6  C   UNL d   1      -0.318   0.589  -0.868  0.00  0.00     0.145 A 
ATOM      7  S   UNL d   1      -0.484   0.823   0.808  0.00  0.00    -0.076 SA
ATOM      8  C   UNL d   1       0.876  -0.160   1.138  0.00  0.00     0.075 A 
BRANCH   6   9
ATOM      9  N   UNL d   1      -1.238   1.222  -1.782  0.00  0.00    -0.108 N 
ATOM     10  O   UNL d   1      -1.040   1.013  -2.987  0.00  0.00    -0.531 OA
ATOM     11  O   UNL d   1      -2.139   1.929  -1.317  0.00  0.00    -0.531 OA
ENDBRANCH   6   9
ENDBRANCH   1   4
BRANCH   1  12
ATOM     12  C   UNL d   1       4.261  -0.654   0.045  0.00  0.00     0.064 A 
ATOM     13  C   UNL d   1       4.791  -0.266   1.282  0.00  0.00     0.024 A 
ATOM     14  C   UNL d   1       5.957   0.500   1.323  0.00  0.00     0.002 A 
ATOM     15  C   UNL d   1       6.600   0.861   0.138  0.00  0.00     0.000 A 
ATOM     16  C   UNL d   1       6.081   0.455  -1.092  0.00  0.00     0.002 A 
ATOM     17  C   UNL d   1       4.911  -0.306  -1.143  0.00  0.00     0.024 A 
ENDBRANCH   1  12
TORSDOF 3
