REMARK  4 active torsions:
REMARK  status: ('A' for Active; 'I' for Inactive)
REMARK    1  A    between atoms: C_6  and  C_7 
REMARK       I    between atoms: N_8  and  C_6 
REMARK    2  A    between atoms: C_9  and  N_8 
REMARK    3  A    between atoms: C_12  and  C_9 
REMARK    4  A    between atoms: C_13  and  C_12 
ROOT
ATOM      1  C   UNL d   1      -2.640   6.756  -1.023  0.00  0.00     0.005 A 
ATOM      2  C   UNL d   1      -3.990   7.006  -0.662  0.00  0.00     0.027 A 
ATOM      3  C   UNL d   1      -4.640   7.787  -1.727  0.00  0.00     0.194 A 
ATOM      4  C   UNL d   1      -2.406   7.446  -2.300  0.00  0.00    -0.010 A 
ATOM      5  C   UNL d   1      -3.606   8.052  -2.730  0.00  0.00     0.026 A 
ATOM      6  C   UNL d   1      -1.896   5.958  -0.148  0.00  0.00     0.044 A 
ATOM      7  O   UNL d   1      -5.796   8.147  -1.757  0.00  0.00    -0.287 OA
ATOM      8  C   UNL d   1      -4.611   6.588   0.502  0.00  0.00     0.016 A 
ATOM      9  C   UNL d   1      -1.282   7.674  -3.076  0.00  0.00     0.013 A 
ATOM     10  C   UNL d   1      -3.751   8.820  -3.875  0.00  0.00     0.016 A 
ATOM     11  C   UNL d   1      -2.499   5.599   1.093  0.00  0.00     0.018 A 
ATOM     12  C   UNL d   1      -3.834   5.893   1.408  0.00  0.00     0.002 A 
ATOM     13  C   UNL d   1      -1.388   8.459  -4.242  0.00  0.00     0.001 A 
ATOM     14  C   UNL d   1      -2.612   9.020  -4.643  0.00  0.00     0.001 A 
ENDROOT
BRANCH   6  15
ATOM     15  C   UNL d   1      -0.529   5.380  -0.425  0.00  0.00     0.253 C 
ATOM     16  N   UNL d   1      -0.291   4.166   0.208  0.00  0.00    -0.348 N 
ATOM     17  H   UNL d   1      -1.122   3.708   0.535  0.00  0.00     0.163 HD
ATOM     18  O   UNL d   1       0.275   5.937  -1.151  0.00  0.00    -0.268 OA
BRANCH  16  19
ATOM     19  C   UNL d   1       0.856   3.253   0.037  0.00  0.00     0.026 C 
ATOM     20  C   UNL d   1       0.740   2.545  -1.316  0.00  0.00     0.038 C 
ATOM     21  C   UNL d   1       2.192   4.035   0.067  0.00  0.00     0.038 C 
BRANCH  19  22
ATOM     22  C   UNL d   1       0.923   2.247   1.248  0.00  0.00     0.038 C 
BRANCH  22  23
ATOM     23  C   UNL d   1      -0.154   1.155   1.573  0.00  0.00    -0.049 C 
ATOM     24  C   UNL d   1      -0.144  -0.010   0.570  0.00  0.00     0.014 C 
ATOM     25  C   UNL d   1       0.218   0.556   2.956  0.00  0.00     0.014 C 
ATOM     26  C   UNL d   1      -1.584   1.696   1.693  0.00  0.00     0.014 C 
ENDBRANCH  22  23
ENDBRANCH  19  22
ENDBRANCH  16  19
ENDBRANCH   6  15
TORSDOF 4
