REMARK  7 active torsions:
REMARK  status: ('A' for Active; 'I' for Inactive)
REMARK    1  A    between atoms: N_7  and  C_1 
REMARK    2  A    between atoms: S_3  and  C_2 
REMARK    3  A    between atoms: C_8  and  S_3 
REMARK    4  A    between atoms: C_9  and  C_4 
REMARK    5  A    between atoms: N_11  and  N_7 
REMARK    6  A    between atoms: C_15  and  C_8 
REMARK    7  A    between atoms: O_25  and  C_9 
ROOT
ATOM      1  C   UNL d   1       3.592   3.619  -0.113  0.00  0.00     0.209 C 
ATOM      2  N   UNL d   1       2.731   2.739  -0.523  0.00  0.00    -0.281 N 
ATOM      3  HN  UNL d   1       2.165   2.922  -1.352  1.00  0.00     0.188 HD
ATOM      4  N   UNL d   1       5.117   3.206   1.951  0.00  0.00    -0.189 NA
ATOM      5  N   UNL d   1       3.759   5.800  -1.521  0.00  0.00    -0.189 NA
ATOM      6  C   UNL d   1       4.423   3.393   1.038  0.00  0.00     0.130 C 
ATOM      7  C   UNL d   1       3.659   4.819  -0.899  0.00  0.00     0.130 C 
ENDROOT
BRANCH   2   8
ATOM      8  N   UNL d   1       2.586   1.560   0.166  0.00  0.00    -0.296 N 
ATOM      9  H   UNL d   1       3.456   1.040   0.354  0.00  0.00     0.187 HD
BRANCH   8  10
ATOM     10  C   UNL d   1       1.436   0.822   0.051  0.00  0.00     0.093 A 
ATOM     11  C   UNL d   1       1.437  -0.623  -0.009  0.00  0.00     0.095 A 
ATOM     12  C   UNL d   1       0.173  -1.137  -0.148  0.00  0.00     0.076 A 
ATOM     13  S   UNL d   1      -1.018   0.061  -0.131  0.00  0.00    -0.092 SA
ATOM     14  C   UNL d   1       0.141   1.342  -0.010  0.00  0.00     0.109 A 
BRANCH  11  15
ATOM     15  S   UNL d   1       2.872  -1.598  -0.008  0.00  0.00     0.184 S 
ATOM     16  O   UNL d   1       3.459  -1.309  -1.303  0.00  0.00    -0.222 OA
ATOM     17  O   UNL d   1       3.559  -1.203   1.207  0.00  0.00    -0.222 OA
BRANCH  15  18
ATOM     18  C   UNL d   1       2.418  -3.321   0.036  0.00  0.00     0.210 C 
BRANCH  18  19
ATOM     19  C   UNL d   1       1.649  -3.658   1.254  0.00  0.00     0.066 A 
ATOM     20  O   UNL d   1       0.397  -4.167   1.045  0.00  0.00    -0.326 OA
ATOM     21  C   UNL d   1      -0.154  -4.399   2.262  0.00  0.00     0.142 A 
ATOM     22  C   UNL d   1       0.736  -4.076   3.258  0.00  0.00     0.027 A 
ATOM     23  C   UNL d   1       1.906  -3.611   2.610  0.00  0.00     0.035 A 
ENDBRANCH  18  19
ENDBRANCH  15  18
ENDBRANCH  11  15
BRANCH  14  24
ATOM     24  C   UNL d   1      -0.355   2.720   0.048  0.00  0.00     0.302 C 
ATOM     25  O   UNL d   1       0.299   3.744   0.220  0.00  0.00    -0.259 OA
BRANCH  24  26
ATOM     26  O   UNL d   1      -1.718   2.732  -0.096  0.00  0.00    -0.322 OA
ATOM     27  C   UNL d   1      -2.357   4.005  -0.048  0.00  0.00     0.213 C 
ENDBRANCH  24  26
ENDBRANCH  14  24
ENDBRANCH   8  10
ENDBRANCH   2   8
TORSDOF 7
