REMARK  8 active torsions:
REMARK  status: ('A' for Active; 'I' for Inactive)
REMARK    1  A    between atoms: C_3  and  N_1 
REMARK    2  A    between atoms: S_12  and  C_2 
REMARK    3  A    between atoms: O_27  and  C_4 
REMARK    4  A    between atoms: C_11  and  C_5 
REMARK    5  A    between atoms: N_10  and  C_13 
REMARK    6  A    between atoms: C_18  and  S_12 
REMARK    7  A    between atoms: C_15  and  C_18 
REMARK    8  A    between atoms: C_17  and  C_15 
ROOT
ATOM      1  N   UNL d   1      -0.161  -1.323  -0.083  0.00  0.00    -0.254 N 
ATOM      2  C   UNL d   1       1.028  -0.721  -0.470  0.00  0.00     0.169 A 
ATOM      3  C   UNL d   1      -1.029  -0.237   0.033  0.00  0.00     0.245 A 
ATOM      4  N   UNL d   1       0.907   0.586  -0.474  0.00  0.00    -0.276 N 
ATOM      5  HN  UNL d   1       1.651   1.257  -0.666  1.00  0.00     0.189 HD
ATOM      6  N   UNL d   1      -0.391   0.891  -0.174  0.00  0.00    -0.263 N 
ATOM      7  HN  UNL d   1      -0.793   1.827  -0.120  1.00  0.00     0.190 HD
ENDROOT
BRANCH   2   8
ATOM      8  S   UNL d   1       2.421  -1.563  -1.071  0.00  0.00    -0.084 SA
BRANCH   8   9
ATOM      9  C   UNL d   1       3.386  -0.192  -1.755  0.00  0.00     0.166 C 
BRANCH   9  10
ATOM     10  C   UNL d   1       2.773   0.313  -3.050  0.00  0.00     0.169 C 
ATOM     11  O   UNL d   1       1.993  -0.346  -3.742  0.00  0.00    -0.291 OA
BRANCH  10  12
ATOM     12  C   UNL d   1       3.171   1.654  -3.541  0.00  0.00     0.011 A 
ATOM     13  C   UNL d   1       4.419   2.215  -3.229  0.00  0.00     0.017 A 
ATOM     14  C   UNL d   1       4.778   3.454  -3.773  0.00  0.00     0.037 A 
ATOM     15  C   UNL d   1       3.886   4.128  -4.622  0.00  0.00     0.102 A 
ATOM     16  C   UNL d   1       2.634   3.577  -4.921  0.00  0.00     0.037 A 
ATOM     17  C   UNL d   1       2.284   2.338  -4.379  0.00  0.00     0.017 A 
BRANCH  15  18
ATOM     18  N   UNL d   1       4.275   5.412  -5.217  0.00  0.00    -0.116 N 
ATOM     19  O   UNL d   1       5.402   5.853  -4.945  0.00  0.00    -0.532 OA
ATOM     20  O   UNL d   1       3.461   5.974  -5.959  0.00  0.00    -0.532 OA
ENDBRANCH  15  18
ENDBRANCH  10  12
ENDBRANCH   9  10
ENDBRANCH   8   9
ENDBRANCH   2   8
BRANCH   1  21
ATOM     21  C   UNL d   1      -0.494  -2.709   0.037  0.00  0.00     0.060 A 
ATOM     22  C   UNL d   1       0.332  -3.673   0.664  0.00  0.00     0.075 A 
ATOM     23  C   UNL d   1      -0.073  -5.029   0.620  0.00  0.00     0.018 A 
ATOM     24  C   UNL d   1      -1.284  -5.416   0.054  0.00  0.00     0.001 A 
ATOM     25  C   UNL d   1      -2.118  -4.458  -0.502  0.00  0.00     0.002 A 
ATOM     26  C   UNL d   1      -1.721  -3.120  -0.529  0.00  0.00     0.031 A 
BRANCH  22  27
ATOM     27  C   UNL d   1       1.577  -3.409   1.488  0.00  0.00     0.419 C 
ATOM     28  F   UNL d   1       1.752  -2.111   1.851  0.00  0.00    -0.166 F 
ATOM     29  F   UNL d   1       1.554  -4.097   2.669  0.00  0.00    -0.166 F 
ATOM     30  F   UNL d   1       2.720  -3.812   0.871  0.00  0.00    -0.166 F 
ENDBRANCH  22  27
ENDBRANCH   1  21
BRANCH   3  31
ATOM     31  O   UNL d   1      -2.314  -0.263   0.371  0.00  0.00    -0.331 OA
ATOM     32  H   UNL d   1      -2.530  -1.125   0.756  0.00  0.00     0.221 HD
ENDBRANCH   3  31
TORSDOF 8
