REMARK  7 active torsions:
REMARK  status: ('A' for Active; 'I' for Inactive)
REMARK    1  A    between atoms: C_2  and  C_1 
REMARK    2  A    between atoms: N_4  and  C_3 
REMARK       I    between atoms: C_5  and  N_4 
REMARK    3  A    between atoms: C_15  and  C_5 
REMARK    4  A    between atoms: C_6  and  C_16 
REMARK    5  A    between atoms: O_13  and  C_6 
REMARK    6  A    between atoms: O_12  and  C_15 
REMARK    7  A    between atoms: C_16  and  O_12 
ROOT
ATOM      1  N   UNL d   1       2.870  -2.030  -0.478  0.00  0.00    -0.325 N 
ATOM      2  C   UNL d   1       3.497  -0.797  -0.394  0.00  0.00     0.245 C 
ATOM      3  O   UNL d   1       2.929   0.293  -0.349  0.00  0.00    -0.271 OA
ATOM      4  H   UNL d   1       3.461  -2.783  -0.822  0.00  0.00     0.169 HD
ENDROOT
BRANCH   1   5
ATOM      5  C   UNL d   1       1.474  -2.258  -0.402  0.00  0.00     0.049 A 
ATOM      6  C   UNL d   1       0.906  -3.408  -0.977  0.00  0.00     0.074 A 
ATOM      7  C   UNL d   1      -0.490  -3.606  -0.878  0.00  0.00     0.018 A 
ATOM      8  C   UNL d   1      -1.305  -2.693  -0.211  0.00  0.00     0.001 A 
ATOM      9  C   UNL d   1      -0.735  -1.571   0.374  0.00  0.00     0.002 A 
ATOM     10  C   UNL d   1       0.641  -1.357   0.282  0.00  0.00     0.030 A 
BRANCH   6  11
ATOM     11  C   UNL d   1       1.695  -4.421  -1.762  0.00  0.00     0.419 C 
ATOM     12  F   UNL d   1       3.047  -4.216  -1.747  0.00  0.00    -0.166 F 
ATOM     13  F   UNL d   1       1.345  -4.453  -3.078  0.00  0.00    -0.166 F 
ATOM     14  F   UNL d   1       1.524  -5.693  -1.302  0.00  0.00    -0.166 F 
ENDBRANCH   6  11
ENDBRANCH   1   5
BRANCH   2  15
ATOM     15  C   UNL d   1       5.015  -0.894  -0.312  0.00  0.00     0.271 C 
BRANCH  15  16
ATOM     16  O   UNL d   1       5.588  -1.665  -1.370  0.00  0.00    -0.372 OA
BRANCH  16  17
ATOM     17  C   UNL d   1       7.010  -1.482  -1.416  0.00  0.00     0.277 C 
BRANCH  17  18
ATOM     18  C   UNL d   1       7.700  -2.364  -0.386  0.00  0.00     0.164 C 
ATOM     19  O   UNL d   1       8.608  -2.003   0.346  0.00  0.00    -0.648 OA
BRANCH  18  20
ATOM     20  O   UNL d   1       7.195  -3.623  -0.379  0.00  0.00    -0.775 OA
ATOM     21  H   UNL d   1       6.464  -3.706  -1.027  0.00  0.00     0.167 HD
ENDBRANCH  18  20
ENDBRANCH  17  18
ENDBRANCH  16  17
ENDBRANCH  15  16
ENDBRANCH   2  15
TORSDOF 7
