REMARK  4 active torsions:
REMARK  status: ('A' for Active; 'I' for Inactive)
REMARK    1  A    between atoms: C_7  and  C_1 
REMARK    2  A    between atoms: C_8  and  C_2 
REMARK    3  A    between atoms: C_13  and  C_6 
REMARK       I    between atoms: N_10  and  C_7 
REMARK    4  A    between atoms: C_14  and  N_10 
ROOT
ATOM      1  C   UNL d   1       1.147   0.639   0.211  0.00  0.00     0.073 A 
ATOM      2  C   UNL d   1      -0.128   1.158   0.004  0.00  0.00     0.175 A 
ATOM      3  O   UNL d   1      -1.052   0.138   0.025  0.00  0.00    -0.304 OA
ATOM      4  C   UNL d   1       0.942  -0.754   0.457  0.00  0.00     0.058 A 
ATOM      5  C   UNL d   1      -0.394  -1.025   0.279  0.00  0.00     0.087 A 
ENDROOT
BRANCH   1   6
ATOM      6  C   UNL d   1       2.417   1.360   0.145  0.00  0.00     0.254 C 
ATOM      7  N   UNL d   1       3.507   0.595   0.502  0.00  0.00    -0.351 N 
ATOM      8  H   UNL d   1       3.343  -0.357   0.789  0.00  0.00     0.163 HD
ATOM      9  O   UNL d   1       2.514   2.514  -0.242  0.00  0.00    -0.268 OA
BRANCH   7  10
ATOM     10  C   UNL d   1       4.902   0.955   0.343  0.00  0.00     0.099 C 
ATOM     11  C   UNL d   1       5.374   2.201   1.081  0.00  0.00     0.165 C 
ATOM     12  S   UNL d   1       7.047   2.389   0.482  0.00  0.00     0.146 S 
ATOM     13  O   UNL d   1       7.922   1.620   1.341  0.00  0.00    -0.228 OA
ATOM     14  O   UNL d   1       7.295   3.781   0.178  0.00  0.00    -0.228 OA
ATOM     15  C   UNL d   1       6.829   1.479  -1.046  0.00  0.00     0.142 C 
ATOM     16  C   UNL d   1       5.343   1.139  -1.113  0.00  0.00     0.041 C 
ENDBRANCH   7  10
ENDBRANCH   1   6
BRANCH   2  17
ATOM     17  C   UNL d   1      -0.688   2.515  -0.248  0.00  0.00     0.440 C 
ATOM     18  F   UNL d   1       0.150   3.529   0.072  0.00  0.00    -0.164 F 
ATOM     19  F   UNL d   1      -1.039   2.680  -1.550  0.00  0.00    -0.164 F 
ATOM     20  F   UNL d   1      -1.818   2.724   0.483  0.00  0.00    -0.164 F 
ENDBRANCH   2  17
BRANCH   5  21
ATOM     21  C   UNL d   1      -1.166  -2.265   0.287  0.00  0.00    -0.002 A 
ATOM     22  C   UNL d   1      -0.544  -3.471   0.654  0.00  0.00     0.016 A 
ATOM     23  C   UNL d   1      -1.242  -4.682   0.631  0.00  0.00     0.024 A 
ATOM     24  C   UNL d   1      -2.575  -4.698   0.240  0.00  0.00     0.034 A 
ATOM     25  C   UNL d   1      -3.213  -3.516  -0.128  0.00  0.00     0.024 A 
ATOM     26 CL   UNL d   1      -3.433  -6.188   0.206  0.00  0.00    -0.084 Cl
ATOM     27  C   UNL d   1      -2.511  -2.304  -0.104  0.00  0.00     0.016 A 
ENDBRANCH   5  21
TORSDOF 4
