REMARK  5 active torsions:
REMARK  status: ('A' for Active; 'I' for Inactive)
REMARK    1  A    between atoms: C_4  and  N_1 
REMARK    2  A    between atoms: C_2  and  C_4 
REMARK    3  A    between atoms: C_6  and  C_3 
REMARK    4  A    between atoms: C_7  and  C_6 
REMARK       I    between atoms: N_13  and  C_7 
REMARK    5  A    between atoms: N_18  and  N_13 
ROOT
ATOM      1  N   UNL d   1      -1.266  -1.131   0.440  0.00  0.00     0.108 N 
ATOM      2  C   UNL d   1       0.157  -1.235  -0.027  0.00  0.00     0.323 C 
ATOM      3  C   UNL d   1       0.932   0.099   0.095  0.00  0.00     0.251 C 
ATOM      4  N   UNL d   1       0.246   1.257  -0.161  0.00  0.00    -0.358 N 
ATOM      5  O   UNL d   1       2.141   0.169   0.299  0.00  0.00    -0.271 OA
ATOM      6  C   UNL d   1      -1.895   0.017  -0.256  0.00  0.00     0.293 C 
ATOM      7  C   UNL d   1      -1.188   1.352  -0.004  0.00  0.00     0.153 C 
ATOM      8  H   UNL d   1       0.804   2.099  -0.045  0.00  0.00     0.162 HD
ENDROOT
BRANCH   1   9
ATOM      9  C   UNL d   1      -1.408  -1.074   1.920  0.00  0.00     0.315 C 
BRANCH   9  10
ATOM     10  C   UNL d   1      -2.860  -0.951   2.370  0.00  0.00     0.013 A 
ATOM     11  C   UNL d   1      -3.806  -1.944   2.045  0.00  0.00     0.043 A 
ATOM     12 CL   UNL d   1      -3.350  -3.477   1.394  0.00  0.00    -0.084 Cl
ATOM     13  C   UNL d   1      -5.176  -1.738   2.244  0.00  0.00     0.024 A 
ATOM     14  C   UNL d   1      -5.631  -0.557   2.818  0.00  0.00     0.003 A 
ATOM     15  C   UNL d   1      -4.709   0.390   3.250  0.00  0.00     0.024 A 
ATOM     16  C   UNL d   1      -3.336   0.190   3.046  0.00  0.00     0.043 A 
ATOM     17 CL   UNL d   1      -2.285   1.407   3.682  0.00  0.00    -0.084 Cl
ENDBRANCH   9  10
ENDBRANCH   1   9
BRANCH   2  18
ATOM     18  C   UNL d   1       0.988  -2.373   0.579  0.00  0.00     0.149 C 
BRANCH  18  19
ATOM     19  C   UNL d   1       0.535  -3.793   0.314  0.00  0.00     0.234 C 
ATOM     20  O   UNL d   1       1.177  -4.752   0.750  0.00  0.00    -0.272 OA
ATOM     21  N   UNL d   1      -0.598  -3.961  -0.462  0.00  0.00    -0.294 N 
ATOM     22  H   UNL d   1      -1.299  -3.215  -0.455  0.00  0.00     0.183 HD
BRANCH  21  23
ATOM     23  N   UNL d   1      -1.052  -5.283  -0.715  0.00  0.00    -0.247 NA
ATOM     24  H   UNL d   1      -0.802  -5.842   0.113  0.00  0.00     0.143 HD
ATOM     25  H   UNL d   1      -0.450  -5.673  -1.446  0.00  0.00     0.143 HD
ENDBRANCH  21  23
ENDBRANCH  18  19
ENDBRANCH   2  18
TORSDOF 5
