REMARK  5 active torsions:
REMARK  status: ('A' for Active; 'I' for Inactive)
REMARK    1  A    between atoms: O_10  and  C_3 
REMARK    2  A    between atoms: O_18  and  C_4 
REMARK    3  A    between atoms: N_17  and  C_5 
REMARK    4  A    between atoms: C_6  and  C_11 
REMARK    5  A    between atoms: C_13  and  O_10 
ROOT
ATOM      1  N   UNL d   1      -0.495   1.270   0.405  0.00  0.00    -0.311 N 
ATOM      2  HN  UNL d   1      -0.855   2.153   0.768  1.00  0.00     0.170 HD
ATOM      3  C   UNL d   1      -0.749  -1.099   0.048  0.00  0.00     0.149 A 
ATOM      4  C   UNL d   1      -1.159   0.118   0.568  0.00  0.00     0.179 A 
ATOM      5  C   UNL d   1       0.659   1.204  -0.256  0.00  0.00     0.157 A 
ATOM      6  N   UNL d   1       1.211   0.073  -0.704  0.00  0.00    -0.334 N 
ATOM      7  HN  UNL d   1       2.130   0.070  -1.147  1.00  0.00     0.168 HD
ATOM      8  C   UNL d   1       0.503  -1.069  -0.545  0.00  0.00     0.046 A 
ATOM      9  C   UNL d   1       1.167  -2.330  -1.020  0.00  0.00     0.071 C 
ENDROOT
BRANCH   3  10
ATOM     10  O   UNL d   1      -1.383  -2.304   0.160  0.00  0.00    -0.304 OA
BRANCH  10  11
ATOM     11  C   UNL d   1      -2.748  -2.409   0.007  0.00  0.00     0.077 A 
ATOM     12  C   UNL d   1      -3.557  -1.521  -0.707  0.00  0.00     0.053 A 
ATOM     13  C   UNL d   1      -4.957  -1.654  -0.674  0.00  0.00     0.050 A 
ATOM     14  C   UNL d   1      -5.522  -2.744   0.006  0.00  0.00     0.016 A 
ATOM     15  C   UNL d   1      -4.709  -3.678   0.647  0.00  0.00     0.004 A 
ATOM     16  C   UNL d   1      -3.327  -3.507   0.650  0.00  0.00     0.037 A 
BRANCH  13  17
ATOM     17  C   UNL d   1      -5.855  -0.622  -1.313  0.00  0.00     0.417 C 
ATOM     18  F   UNL d   1      -5.179   0.387  -1.929  0.00  0.00    -0.166 F 
ATOM     19  F   UNL d   1      -6.673  -1.159  -2.259  0.00  0.00    -0.166 F 
ATOM     20  F   UNL d   1      -6.676  -0.023  -0.406  0.00  0.00    -0.166 F 
ENDBRANCH  13  17
ENDBRANCH  10  11
ENDBRANCH   3  10
BRANCH   4  21
ATOM     21  O   UNL d   1      -2.271   0.254   1.348  0.00  0.00    -0.344 OA
ATOM     22  H   UNL d   1      -2.532  -0.629   1.650  0.00  0.00     0.219 HD
ENDBRANCH   4  21
BRANCH   5  23
ATOM     23  N   UNL d   1       1.364   2.374  -0.425  0.00  0.00    -0.274 NA
ATOM     24  H   UNL d   1       1.060   3.049   0.264  0.00  0.00     0.127 HD
ATOM     25  H   UNL d   1       2.353   2.174  -0.474  0.00  0.00     0.127 HD
ENDBRANCH   5  23
TORSDOF 5
