REMARK  3 active torsions:
REMARK  status: ('A' for Active; 'I' for Inactive)
REMARK       I    between atoms: C_2  and  N_1 
REMARK       I    between atoms: C_3  and  N_1 
REMARK       I    between atoms: N_5  and  C_2 
REMARK    1  A    between atoms: C_7  and  C_3 
REMARK    2  A    between atoms: C_4  and  C_6 
REMARK    3  A    between atoms: C_17  and  N_5 
ROOT
ATOM      1  N   UNL d   1       1.070   0.039   0.116  0.00  0.00    -0.275 N 
ATOM      2  C   UNL d   1       0.273   1.116  -0.204  0.00  0.00     0.327 C 
ATOM      3  C   UNL d   1       2.260   0.012   0.818  0.00  0.00     0.259 C 
ATOM      4  N   UNL d   1       0.719   2.335   0.236  0.00  0.00    -0.309 N 
ATOM      5  O   UNL d   1      -0.733   0.896  -0.872  0.00  0.00    -0.247 OA
ATOM      6  O   UNL d   1       2.735   0.983   1.401  0.00  0.00    -0.267 OA
ATOM      7  H   UNL d   1       0.688  -0.821  -0.247  0.00  0.00     0.173 HD
ATOM      8  H   UNL d   1       1.621   2.320   0.711  0.00  0.00     0.170 HD
ENDROOT
BRANCH   3   9
ATOM      9  C   UNL d   1       2.953  -1.303   0.865  0.00  0.00     0.032 A 
ATOM     10  C   UNL d   1       2.945  -2.175  -0.230  0.00  0.00     0.018 A 
ATOM     11  C   UNL d   1       3.649  -3.381  -0.167  0.00  0.00     0.017 A 
ATOM     12  C   UNL d   1       4.374  -3.729   0.985  0.00  0.00     0.048 A 
ATOM     13  C   UNL d   1       4.370  -2.852   2.080  0.00  0.00     0.017 A 
ATOM     14  C   UNL d   1       3.669  -1.643   2.018  0.00  0.00     0.018 A 
BRANCH  12  15
ATOM     15  C   UNL d   1       5.161  -5.019   1.016  0.00  0.00     0.417 C 
ATOM     16  F   UNL d   1       5.836  -5.220   2.181  0.00  0.00    -0.166 F 
ATOM     17  F   UNL d   1       4.370  -6.114   0.846  0.00  0.00    -0.166 F 
ATOM     18  F   UNL d   1       6.096  -5.076   0.027  0.00  0.00    -0.166 F 
ENDBRANCH  12  15
ENDBRANCH   3   9
BRANCH   4  19
ATOM     19  C   UNL d   1       0.112   3.591   0.045  0.00  0.00     0.036 A 
ATOM     20  C   UNL d   1      -1.179   3.756  -0.466  0.00  0.00     0.032 A 
ATOM     21  C   UNL d   1      -1.713   5.035  -0.647  0.00  0.00     0.044 A 
ATOM     22  C   UNL d   1      -0.952   6.149  -0.320  0.00  0.00     0.116 A 
ATOM     23  C   UNL d   1       0.327   6.008   0.200  0.00  0.00     0.044 A 
ATOM     24  F   UNL d   1      -1.460   7.374  -0.508  0.00  0.00    -0.206 F 
ATOM     25  C   UNL d   1       0.856   4.728   0.392  0.00  0.00     0.032 A 
ENDBRANCH   4  19
TORSDOF 3
