REMARK  3 active torsions:
REMARK  status: ('A' for Active; 'I' for Inactive)
REMARK    1  A    between atoms: C_13  and  C_1 
REMARK    2  A    between atoms: S_3  and  O_10 
REMARK    3  A    between atoms: O_10  and  C_15 
ROOT
ATOM      1  C   UNL d   1      -2.290  -0.337   0.028  0.00  0.00     0.048 A 
ATOM      2  C   UNL d   1      -1.383   0.839   0.041  0.00  0.00     0.197 A 
ATOM      3  C   UNL d   1       0.061   0.551   0.026  0.00  0.00     0.049 A 
ATOM      4  C   UNL d   1      -1.725  -1.555   0.025  0.00  0.00     0.159 A 
ATOM      5  C   UNL d   1       0.496  -0.771   0.019  0.00  0.00     0.091 A 
ATOM      6  O   UNL d   1      -0.376  -1.833   0.032  0.00  0.00    -0.321 OA
ATOM      7  C   UNL d   1       1.867  -1.053  -0.007  0.00  0.00     0.076 A 
ATOM      8  C   UNL d   1       0.984   1.597   0.018  0.00  0.00     0.021 A 
ATOM      9  O   UNL d   1      -1.796   1.992   0.060  0.00  0.00    -0.286 OA
ATOM     10  C   UNL d   1       2.799  -0.007  -0.043  0.00  0.00     0.092 A 
ATOM     11  C   UNL d   1       2.352   1.316  -0.013  0.00  0.00     0.039 A 
ENDROOT
BRANCH   1  12
ATOM     12  C   UNL d   1      -3.747  -0.171   0.013  0.00  0.00    -0.020 A 
ATOM     13  C   UNL d   1      -4.465  -0.103   1.214  0.00  0.00     0.012 A 
ATOM     14  C   UNL d   1      -5.848   0.095   1.199  0.00  0.00     0.001 A 
ATOM     15  C   UNL d   1      -6.522   0.223  -0.015  0.00  0.00     0.000 A 
ATOM     16  C   UNL d   1      -5.816   0.151  -1.215  0.00  0.00     0.001 A 
ATOM     17  C   UNL d   1      -4.433  -0.046  -1.202  0.00  0.00     0.012 A 
ENDBRANCH   1  12
BRANCH  10  18
ATOM     18  O   UNL d   1       4.127  -0.364  -0.079  0.00  0.00    -0.233 OA
BRANCH  18  19
ATOM     19  S   UNL d   1       5.245   0.628  -0.748  0.00  0.00     0.266 S 
ATOM     20  O   UNL d   1       4.945   0.809  -2.153  0.00  0.00    -0.199 OA
ATOM     21  O   UNL d   1       5.489   1.752   0.135  0.00  0.00    -0.199 OA
ATOM     22  C   UNL d   1       6.640  -0.461  -0.620  0.00  0.00     0.194 C 
ENDBRANCH  18  19
ENDBRANCH  10  18
TORSDOF 3
