REMARK  6 active torsions:
REMARK  status: ('A' for Active; 'I' for Inactive)
REMARK    1  A    between atoms: C_2  and  S_1 
REMARK    2  A    between atoms: C_3  and  S_1 
REMARK    3  A    between atoms: C_10  and  C_2 
REMARK    4  A    between atoms: N_12  and  C_10 
REMARK    5  A    between atoms: C_11  and  C_13 
REMARK    6  A    between atoms: C_13  and  N_12 
ROOT
ATOM      1  C   UNL d   1       0.764  -0.738  -1.337  0.00  0.00     0.176 C 
ENDROOT
BRANCH   1   2
ATOM      2  S   UNL d   1       1.494   0.083   0.066  0.00  0.00     0.177 S 
ATOM      3  O   UNL d   1       2.874   0.400  -0.243  0.00  0.00    -0.223 OA
ATOM      4  O   UNL d   1       1.164  -0.689   1.251  0.00  0.00    -0.223 OA
BRANCH   2   5
ATOM      5  C   UNL d   1       0.611   1.626   0.203  0.00  0.00     0.059 A 
ATOM      6  C   UNL d   1      -0.575   1.682   0.942  0.00  0.00     0.025 A 
ATOM      7  C   UNL d   1      -1.240   2.904   1.081  0.00  0.00     0.025 A 
ATOM      8  C   UNL d   1      -0.714   4.054   0.492  0.00  0.00     0.034 A 
ATOM      9  C   UNL d   1       0.476   3.998  -0.235  0.00  0.00     0.025 A 
ATOM     10 CL   UNL d   1      -1.530   5.557   0.672  0.00  0.00    -0.084 Cl
ATOM     11  C   UNL d   1       1.150   2.782  -0.372  0.00  0.00     0.025 A 
ENDBRANCH   2   5
ENDBRANCH   1   2
BRANCH   1  12
ATOM     12  C   UNL d   1       0.963   0.042  -2.634  0.00  0.00     0.287 C 
BRANCH  12  13
ATOM     13  N   UNL d   1       0.430  -0.622  -3.850  0.00  0.00     0.089 N 
ATOM     14  C   UNL d   1       0.771   0.208  -5.019  0.00  0.00     0.310 C 
BRANCH  13  15
ATOM     15  C   UNL d   1      -1.029  -0.824  -3.766  0.00  0.00     0.311 C 
BRANCH  15  16
ATOM     16  C   UNL d   1      -1.640  -1.583  -4.916  0.00  0.00    -0.015 A 
ATOM     17  C   UNL d   1      -2.637  -1.006  -5.697  0.00  0.00     0.096 A 
ATOM     18  N   UNL d   1      -3.303  -1.649  -6.682  0.00  0.00    -0.375 N 
ATOM     19  C   UNL d   1      -2.958  -2.934  -6.904  0.00  0.00     0.087 A 
ATOM     20  HN  UNL d   1      -4.029  -1.186  -7.229  1.00  0.00     0.164 HD
ATOM     21  C   UNL d   1      -1.965  -3.598  -6.203  0.00  0.00     0.018 A 
ATOM     22  C   UNL d   1      -1.294  -2.908  -5.197  0.00  0.00     0.011 A 
ENDBRANCH  15  16
ENDBRANCH  13  15
ENDBRANCH  12  13
ENDBRANCH   1  12
TORSDOF 6
