REMARK  3 active torsions:
REMARK  status: ('A' for Active; 'I' for Inactive)
REMARK    1  A    between atoms: C_9  and  C_2 
REMARK    2  A    between atoms: C_13  and  C_7 
REMARK    3  A    between atoms: N_8  and  C_10 
ROOT
ATOM      1  O   UNL d   1      -0.545   0.100   0.951  0.00  0.00    -0.277 OA
ATOM      2  C   UNL d   1       0.104  -1.032   0.508  0.00  0.00     0.144 A 
ATOM      3  N   UNL d   1       0.635  -0.873  -0.687  0.00  0.00    -0.281 N 
ATOM      4  HN  UNL d   1       1.156  -1.569  -1.219  1.00  0.00     0.189 HD
ATOM      5  N   UNL d   1       0.350   0.412  -1.078  0.00  0.00    -0.277 N 
ATOM      6  HN  UNL d   1       0.621   0.855  -1.956  1.00  0.00     0.189 HD
ATOM      7  C   UNL d   1      -0.341   0.961  -0.101  0.00  0.00     0.174 A 
ENDROOT
BRANCH   7   8
ATOM      8  C   UNL d   1      -0.865   2.322  -0.021  0.00  0.00     0.019 A 
ATOM      9  C   UNL d   1      -1.672   2.779   1.030  0.00  0.00     0.052 A 
ATOM     10  C   UNL d   1      -2.140   4.106   1.023  0.00  0.00     0.103 A 
ATOM     11  C   UNL d   1      -1.810   4.986  -0.017  0.00  0.00     0.036 A 
ATOM     12  C   UNL d   1      -1.009   4.536  -1.060  0.00  0.00     0.003 A 
ATOM     13  C   UNL d   1      -0.545   3.219  -1.060  0.00  0.00     0.016 A 
BRANCH  10  14
ATOM     14  N   UNL d   1      -2.992   4.587   2.120  0.00  0.00    -0.116 N 
ATOM     15  O   UNL d   1      -3.275   3.783   3.021  0.00  0.00    -0.532 OA
ATOM     16  O   UNL d   1      -3.377   5.763   2.081  0.00  0.00    -0.532 OA
ENDBRANCH  10  14
ENDBRANCH   7   8
BRANCH   2  17
ATOM     17  C   UNL d   1       0.245  -2.341   1.267  0.00  0.00     0.062 A 
ATOM     18  C   UNL d   1      -0.879  -2.817   2.160  0.00  0.00     0.013 A 
ATOM     19  C   UNL d   1       0.380  -2.308   2.774  0.00  0.00     0.013 A 
ENDBRANCH   2  17
TORSDOF 3
