REMARK  5 active torsions:
REMARK  status: ('A' for Active; 'I' for Inactive)
REMARK    1  A    between atoms: C_3  and  N_1 
REMARK    2  A    between atoms: C_2  and  C_8 
REMARK    3  A    between atoms: O_13  and  C_16 
REMARK    4  A    between atoms: C_14  and  O_13 
REMARK    5  A    between atoms: C_16  and  C_15 
ROOT
ATOM      1  C   UNL d   1      -2.361   5.303  -8.451  0.00  0.00    -0.035 A 
ATOM      2  C   UNL d   1      -2.112   3.930  -8.608  0.00  0.00     0.012 A 
ATOM      3  C   UNL d   1      -2.336   5.831  -7.149  0.00  0.00     0.012 A 
ATOM      4  C   UNL d   1      -1.796   3.663  -6.216  0.00  0.00     0.069 A 
ATOM      5  C   UNL d   1      -1.842   3.121  -7.500  0.00  0.00     0.037 A 
ATOM      6  C   UNL d   1      -2.055   5.021  -6.041  0.00  0.00     0.037 A 
ENDROOT
BRANCH   4   7
ATOM      7  O   UNL d   1      -1.543   2.767  -5.214  0.00  0.00    -0.347 OA
BRANCH   7   8
ATOM      8  C   UNL d   1      -0.918   3.289  -4.042  0.00  0.00     0.214 C 
BRANCH   8   9
ATOM      9  C   UNL d   1      -0.661   2.139  -3.091  0.00  0.00    -0.034 A 
ATOM     10  C   UNL d   1       0.162   1.069  -3.478  0.00  0.00     0.012 A 
ATOM     11  C   UNL d   1       0.383  -0.009  -2.616  0.00  0.00     0.037 A 
ATOM     12  C   UNL d   1      -0.222  -0.017  -1.352  0.00  0.00     0.102 A 
ATOM     13  C   UNL d   1      -1.034   1.049  -0.946  0.00  0.00     0.037 A 
ATOM     14  C   UNL d   1      -1.248   2.122  -1.816  0.00  0.00     0.012 A 
BRANCH  12  15
ATOM     15  N   UNL d   1      -0.011  -1.155  -0.449  0.00  0.00    -0.116 N 
ATOM     16  O   UNL d   1      -0.571  -1.126   0.656  0.00  0.00    -0.532 OA
ATOM     17  O   UNL d   1       0.716  -2.078  -0.845  0.00  0.00    -0.532 OA
ENDBRANCH  12  15
ENDBRANCH   8   9
ENDBRANCH   7   8
ENDBRANCH   4   7
BRANCH   1  18
ATOM     18  C   UNL d   1      -2.657   6.160  -9.666  0.00  0.00     0.141 C 
ATOM     19  S   UNL d   1      -1.456   7.520  -9.864  0.00  0.00    -0.148 SA
ATOM     20  C   UNL d   1      -2.650   8.783 -10.365  0.00  0.00     0.085 C 
ATOM     21  C   UNL d   1      -3.909   8.575  -9.549  0.00  0.00     0.085 C 
ATOM     22  S   UNL d   1      -4.357   6.824  -9.650  0.00  0.00    -0.148 SA
ENDBRANCH   1  18
TORSDOF 5
