REMARK  6 active torsions:
REMARK  status: ('A' for Active; 'I' for Inactive)
REMARK    1  A    between atoms: O_4  and  C_1 
REMARK    2  A    between atoms: C_3  and  C_2 
REMARK       I    between atoms: N_5  and  C_3 
REMARK    3  A    between atoms: C_12  and  O_4 
REMARK    4  A    between atoms: C_11  and  N_5 
REMARK    5  A    between atoms: C_8  and  C_11 
REMARK    6  A    between atoms: O_13  and  C_8 
ROOT
ATOM      1  C   UNL d   1      -0.826   0.749   0.113  0.00  0.00     0.163 A 
ATOM      2  C   UNL d   1       0.465   1.257   0.134  0.00  0.00     0.083 A 
ATOM      3  N   UNL d   1      -1.113  -0.543  -0.221  0.00  0.00    -0.346 N 
ATOM      4  HN  UNL d   1      -2.077  -0.852  -0.339  1.00  0.00     0.167 HD
ATOM      5  C   UNL d   1       1.508   0.333  -0.055  0.00  0.00     0.023 A 
ATOM      6  C   UNL d   1      -0.087  -1.397  -0.389  0.00  0.00     0.090 A 
ATOM      7  C   UNL d   1       1.233  -1.014  -0.294  0.00  0.00     0.018 A 
ENDROOT
BRANCH   2   8
ATOM      8  C   UNL d   1       0.843   2.635   0.524  0.00  0.00     0.256 C 
ATOM      9  N   UNL d   1       0.127   3.754   0.197  0.00  0.00    -0.347 N 
ATOM     10  H   UNL d   1       0.542   4.584   0.605  0.00  0.00     0.163 HD
ATOM     11  O   UNL d   1       1.883   2.792   1.168  0.00  0.00    -0.268 OA
BRANCH   9  12
ATOM     12  C   UNL d   1      -0.791   3.997  -0.913  0.00  0.00     0.233 C 
BRANCH  12  13
ATOM     13  C   UNL d   1      -2.120   4.670  -0.567  0.00  0.00     0.276 C 
ATOM     14  O   UNL d   1      -2.917   5.047  -1.426  0.00  0.00    -0.263 OA
BRANCH  13  15
ATOM     15  O   UNL d   1      -2.316   4.790   0.772  0.00  0.00    -0.325 OA
ATOM     16  C   UNL d   1      -3.577   5.351   1.150  0.00  0.00     0.213 C 
ENDBRANCH  13  15
ENDBRANCH  12  13
ENDBRANCH   9  12
ENDBRANCH   2   8
BRANCH   1  17
ATOM     17  O   UNL d   1      -1.884   1.545   0.537  0.00  0.00    -0.293 OA
BRANCH  17  18
ATOM     18  C   UNL d   1      -2.947   0.880   1.116  0.00  0.00     0.077 A 
ATOM     19  C   UNL d   1      -2.770  -0.085   2.116  0.00  0.00     0.037 A 
ATOM     20  C   UNL d   1      -3.868  -0.788   2.611  0.00  0.00     0.003 A 
ATOM     21  C   UNL d   1      -5.145  -0.494   2.144  0.00  0.00     0.000 A 
ATOM     22  C   UNL d   1      -5.330   0.512   1.191  0.00  0.00     0.003 A 
ATOM     23  C   UNL d   1      -4.230   1.205   0.680  0.00  0.00     0.037 A 
ENDBRANCH  17  18
ENDBRANCH   1  17
TORSDOF 6
