REMARK  7 active torsions:
REMARK  status: ('A' for Active; 'I' for Inactive)
REMARK       I    between atoms: N_2  and  C_1 
REMARK       I    between atoms: N_5  and  C_1 
REMARK    1  A    between atoms: C_3  and  N_2 
REMARK    2  A    between atoms: C_12  and  N_2 
REMARK    3  A    between atoms: C_4  and  C_3 
REMARK    4  A    between atoms: C_13  and  C_3 
REMARK    5  A    between atoms: C_6  and  C_4 
REMARK    6  A    between atoms: C_10  and  N_5 
REMARK    7  A    between atoms: C_7  and  C_6 
ROOT
ATOM      1  C   UNL d   1       0.796   0.011  -0.127  0.00  0.00     0.328 C 
ATOM      2  N   UNL d   1       0.189   0.762  -1.169  0.00  0.00    -0.290 N 
ATOM      3  N   UNL d   1       0.085  -0.047   1.071  0.00  0.00    -0.307 N 
ATOM      4  O   UNL d   1       1.912  -0.500  -0.200  0.00  0.00    -0.246 OA
ATOM      5  H   UNL d   1      -0.479   0.768   1.273  0.00  0.00     0.170 HD
ENDROOT
BRANCH   2   6
ATOM      6  C   UNL d   1      -1.282   1.081  -1.148  0.00  0.00     0.134 C 
BRANCH   6   7
ATOM      7  C   UNL d   1      -2.029   0.529  -2.392  0.00  0.00     0.109 C 
BRANCH   7   8
ATOM      8  C   UNL d   1      -2.050  -0.980  -2.382  0.00  0.00     0.133 C 
ATOM      9  O   UNL d   1      -2.877  -1.608  -1.721  0.00  0.00    -0.297 OA
BRANCH   8  10
ATOM     10  C   UNL d   1      -1.019  -1.684  -3.195  0.00  0.00     0.055 A 
ATOM     11  C   UNL d   1      -1.300  -3.048  -3.783  0.00  0.00     0.013 A 
ATOM     12  C   UNL d   1      -0.353  -2.914  -2.624  0.00  0.00     0.013 A 
ENDBRANCH   8  10
ENDBRANCH   7   8
ENDBRANCH   6   7
BRANCH   6  13
ATOM     13  C   UNL d   1      -1.585   2.542  -0.752  0.00  0.00    -0.035 A 
ATOM     14  C   UNL d   1      -2.753   3.209  -1.168  0.00  0.00     0.009 A 
ATOM     15  C   UNL d   1      -3.081   4.479  -0.679  0.00  0.00     0.001 A 
ATOM     16  C   UNL d   1      -2.253   5.112   0.240  0.00  0.00     0.000 A 
ATOM     17  C   UNL d   1      -1.075   4.494   0.640  0.00  0.00     0.001 A 
ATOM     18  C   UNL d   1      -0.741   3.230   0.143  0.00  0.00     0.009 A 
ENDBRANCH   6  13
ENDBRANCH   2   6
BRANCH   2  19
ATOM     19  C   UNL d   1       0.979   1.191  -2.326  0.00  0.00     0.039 A 
ATOM     20  C   UNL d   1       2.216   0.614  -2.662  0.00  0.00     0.030 A 
ATOM     21  C   UNL d   1       2.935   0.986  -3.806  0.00  0.00     0.009 A 
ATOM     22  C   UNL d   1       2.443   1.957  -4.670  0.00  0.00    -0.062 A 
ATOM     23  C   UNL d   1       1.241   2.575  -4.347  0.00  0.00     0.009 A 
ATOM     24  C   UNL d   1       3.182   2.281  -5.931  0.00  0.00     0.048 C 
ATOM     25  C   UNL d   1       0.535   2.210  -3.189  0.00  0.00     0.030 A 
ENDBRANCH   2  19
BRANCH   3  26
ATOM     26  C   UNL d   1       0.691  -0.606   2.240  0.00  0.00     0.058 A 
ATOM     27  C   UNL d   1       0.641   0.097   3.453  0.00  0.00     0.060 A 
ATOM     28 CL   UNL d   1      -0.246   1.575   3.592  0.00  0.00    -0.082 Cl
ATOM     29  C   UNL d   1       1.373  -0.345   4.559  0.00  0.00     0.026 A 
ATOM     30  C   UNL d   1       2.127  -1.517   4.476  0.00  0.00     0.002 A 
ATOM     31  C   UNL d   1       2.121  -2.263   3.300  0.00  0.00     0.002 A 
ATOM     32  C   UNL d   1       1.403  -1.812   2.189  0.00  0.00     0.031 A 
ENDBRANCH   3  26
TORSDOF 7
