REMARK  5 active torsions:
REMARK  status: ('A' for Active; 'I' for Inactive)
REMARK    1  A    between atoms: C_9  and  C_1 
REMARK    2  A    between atoms: C_6  and  C_2 
REMARK    3  A    between atoms: C_3  and  C_7 
REMARK    4  A    between atoms: C_8  and  C_5 
REMARK    5  A    between atoms: O_18  and  C_9 
ROOT
ATOM      1  C   UNL d   1      -1.039   0.603   1.273  0.00  0.00     0.120 C 
ATOM      2  C   UNL d   1       0.251   0.859   0.976  0.00  0.00     0.067 C 
ATOM      3  C   UNL d   1      -1.726   1.169   2.377  0.00  0.00     0.106 C 
ATOM      4  N   UNL d   1      -2.394   1.586   3.231  0.00  0.00    -0.191 NA
ENDROOT
BRANCH   1   5
ATOM      5  C   UNL d   1      -1.779  -0.288   0.344  0.00  0.00     0.187 C 
ATOM      6  O   UNL d   1      -1.272  -0.782  -0.650  0.00  0.00    -0.645 OA
BRANCH   5   7
ATOM      7  O   UNL d   1      -3.072  -0.524   0.660  0.00  0.00    -0.772 OA
ATOM      8  H   UNL d   1      -3.453  -0.120   1.465  0.00  0.00     0.167 HD
ENDBRANCH   5   7
ENDBRANCH   1   5
BRANCH   2   9
ATOM      9  C   UNL d   1       1.076   1.697   1.775  0.00  0.00     0.077 A 
ATOM     10  O   UNL d   1       0.940   1.814   3.135  0.00  0.00    -0.310 OA
ATOM     11  C   UNL d   1       1.844   2.719   3.608  0.00  0.00     0.087 A 
ATOM     12  C   UNL d   1       2.589   3.196   2.553  0.00  0.00     0.041 A 
ATOM     13  C   UNL d   1       2.127   2.518   1.394  0.00  0.00     0.040 A 
BRANCH  11  14
ATOM     14  C   UNL d   1       1.760   2.969   5.046  0.00  0.00     0.013 A 
ATOM     15  C   UNL d   1       2.868   3.197   5.886  0.00  0.00     0.060 A 
ATOM     16  C   UNL d   1       2.639   3.476   7.256  0.00  0.00     0.017 A 
ATOM     17  C   UNL d   1       1.355   3.496   7.796  0.00  0.00     0.001 A 
ATOM     18  C   UNL d   1       0.267   3.242   6.977  0.00  0.00     0.001 A 
ATOM     19  C   UNL d   1       0.470   2.986   5.621  0.00  0.00     0.015 A 
BRANCH  15  20
ATOM     20  C   UNL d   1       4.309   3.178   5.438  0.00  0.00     0.418 C 
ATOM     21  F   UNL d   1       4.567   2.497   4.291  0.00  0.00    -0.166 F 
ATOM     22  F   UNL d   1       4.798   4.436   5.245  0.00  0.00    -0.166 F 
ATOM     23  F   UNL d   1       5.131   2.610   6.370  0.00  0.00    -0.166 F 
ENDBRANCH  15  20
ENDBRANCH  11  14
ENDBRANCH   2   9
TORSDOF 5
