REMARK  6 active torsions:
REMARK  status: ('A' for Active; 'I' for Inactive)
REMARK    1  A    between atoms: C_2  and  S_1 
REMARK    2  A    between atoms: O_4  and  S_1 
REMARK    3  A    between atoms: C_11  and  O_4 
REMARK    4  A    between atoms: O_12  and  C_14 
REMARK    5  A    between atoms: C_15  and  O_12 
REMARK    6  A    between atoms: C_20  and  C_15 
ROOT
ATOM      1  C   UNL d   1       0.855   1.057  -2.401  0.00  0.00     0.089 A 
ATOM      2  C   UNL d   1       1.340   3.438  -3.800  0.00  0.00     0.069 A 
ATOM      3  C   UNL d   1       2.165   1.485  -2.624  0.00  0.00     0.041 A 
ATOM      4  C   UNL d   1      -0.205   1.778  -2.951  0.00  0.00     0.041 A 
ATOM      5  C   UNL d   1       0.035   2.967  -3.649  0.00  0.00     0.039 A 
ATOM      6  C   UNL d   1       2.404   2.672  -3.324  0.00  0.00     0.039 A 
ENDROOT
BRANCH   1   7
ATOM      7  O   UNL d   1       0.517  -0.062  -1.678  0.00  0.00    -0.229 OA
BRANCH   7   8
ATOM      8  S   UNL d   1       1.427  -0.526  -0.400  0.00  0.00     0.303 S 
ATOM      9  O   UNL d   1       2.634  -1.177  -0.881  0.00  0.00    -0.193 OA
ATOM     10  O   UNL d   1       1.508   0.583   0.530  0.00  0.00    -0.193 OA
BRANCH   8  11
ATOM     11  C   UNL d   1       0.470  -1.817   0.404  0.00  0.00     0.093 A 
ATOM     12  C   UNL d   1       0.165  -1.643   1.769  0.00  0.00     0.035 A 
ATOM     13  C   UNL d   1      -0.470  -2.656   2.507  0.00  0.00    -0.039 A 
ATOM     14  C   UNL d   1      -0.748  -2.449   3.970  0.00  0.00     0.050 C 
ATOM     15  C   UNL d   1      -0.785  -3.855   1.857  0.00  0.00     0.040 A 
ATOM     16  C   UNL d   1      -0.502  -4.021   0.496  0.00  0.00     0.032 A 
ATOM     17 CL   UNL d   1      -1.504  -5.180   2.700  0.00  0.00    -0.084 Cl
ATOM     18  C   UNL d   1       0.118  -3.006  -0.258  0.00  0.00    -0.036 A 
ATOM     19  C   UNL d   1       0.414  -3.314  -1.699  0.00  0.00     0.050 C 
ENDBRANCH   8  11
ENDBRANCH   7   8
ENDBRANCH   1   7
BRANCH   2  20
ATOM     20  O   UNL d   1       1.672   4.605  -4.434  0.00  0.00    -0.347 OA
BRANCH  20  21
ATOM     21  C   UNL d   1       0.780   5.690  -4.166  0.00  0.00     0.214 C 
BRANCH  21  22
ATOM     22  C   UNL d   1       1.377   6.968  -4.704  0.00  0.00    -0.034 A 
ATOM     23  C   UNL d   1       1.122   7.366  -6.025  0.00  0.00     0.009 A 
ATOM     24  C   UNL d   1       1.662   8.551  -6.526  0.00  0.00     0.001 A 
ATOM     25  C   UNL d   1       2.470   9.347  -5.716  0.00  0.00     0.000 A 
ATOM     26  C   UNL d   1       2.741   8.956  -4.405  0.00  0.00     0.001 A 
ATOM     27  C   UNL d   1       2.201   7.771  -3.902  0.00  0.00     0.009 A 
ENDBRANCH  21  22
ENDBRANCH  20  21
ENDBRANCH   2  20
TORSDOF 6
