REMARK  3 active torsions:
REMARK  status: ('A' for Active; 'I' for Inactive)
REMARK    1  A    between atoms: O_2  and  C_1 
REMARK    2  A    between atoms: C_3  and  O_2 
REMARK    3  A    between atoms: C_4  and  C_3 
ROOT
ATOM      1  O   UNL d   1       0.283   2.247   0.240  0.00  0.00    -0.271 OA
ENDROOT
BRANCH   1   2
ATOM      2  C   UNL d   1       0.207   0.868   0.148  0.00  0.00     0.127 A 
ATOM      3  C   UNL d   1       1.067  -0.121   0.441  0.00  0.00    -0.046 A 
ATOM      4  C   UNL d   1       0.497  -1.491   0.190  0.00  0.00     0.044 A 
ATOM      5  C   UNL d   1       2.452  -0.023   0.985  0.00  0.00     0.046 C 
ATOM      6  C   UNL d   1      -0.966  -1.267  -0.176  0.00  0.00     0.090 A 
ATOM      7  C   UNL d   1      -1.062   0.225  -0.251  0.00  0.00     0.183 A 
ATOM      8  O   UNL d   1      -2.061   0.848  -0.576  0.00  0.00    -0.290 OA
ENDBRANCH   1   2
BRANCH   1   9
ATOM      9  C   UNL d   1       1.357   2.912  -0.286  0.00  0.00     0.305 C 
ATOM     10  O   UNL d   1       2.394   2.392  -0.687  0.00  0.00    -0.258 OA
BRANCH   9  11
ATOM     11  C   UNL d   1       1.046   4.330  -0.331  0.00  0.00     0.080 A 
ATOM     12  S   UNL d   1       2.310   5.476  -0.499  0.00  0.00    -0.096 SA
ATOM     13  C   UNL d   1       1.211   6.788  -0.521  0.00  0.00     0.050 A 
ATOM     14  C   UNL d   1      -0.095   6.370  -0.410  0.00  0.00     0.009 A 
ATOM     15  C   UNL d   1      -0.191   4.953  -0.286  0.00  0.00     0.025 A 
ENDBRANCH   9  11
ENDBRANCH   1   9
TORSDOF 3
