REMARK  7 active torsions:
REMARK  status: ('A' for Active; 'I' for Inactive)
REMARK    1  A    between atoms: C_15  and  C_13 
REMARK    2  A    between atoms: C_16  and  C_15 
REMARK    3  A    between atoms: C_20  and  C_16 
REMARK    4  A    between atoms: C_17  and  C_18 
REMARK    5  A    between atoms: C_18  and  C_19 
REMARK    6  A    between atoms: C_19  and  C_21 
REMARK    7  A    between atoms: C_21  and  C_20 
ROOT
ATOM      1  C   UNL d   1      -3.006  -0.385  -0.969  0.00  0.00    -0.042 A 
ATOM      2  C   UNL d   1      -0.705  -0.068  -1.343  0.00  0.00    -0.042 A 
ATOM      3  C   UNL d   1      -2.480   0.392   0.085  0.00  0.00    -0.019 A 
ATOM      4  C   UNL d   1      -1.065   0.586  -0.143  0.00  0.00    -0.019 A 
ATOM      5  C   UNL d   1      -1.915  -0.740  -1.958  0.00  0.00     0.078 A 
ATOM      6  C   UNL d   1      -0.113   1.265   0.599  0.00  0.00     0.014 A 
ATOM      7  C   UNL d   1      -3.304   0.833   1.106  0.00  0.00     0.013 A 
ATOM      8  C   UNL d   1       0.597  -0.049  -1.818  0.00  0.00     0.027 A 
ATOM      9  C   UNL d   1      -4.346  -0.731  -1.017  0.00  0.00     0.015 A 
ATOM     10  C   UNL d   1       1.550   0.638  -1.067  0.00  0.00     0.011 A 
ATOM     11  C   UNL d   1       1.206   1.289   0.130  0.00  0.00     0.020 A 
ATOM     12  C   UNL d   1      -4.658   0.483   1.069  0.00  0.00     0.008 A 
ATOM     13  C   UNL d   1      -5.188  -0.299   0.021  0.00  0.00    -0.058 A 
ATOM     14 BR   UNL d   1       3.342   0.696  -1.671  0.00  0.00    -0.051 Br
ENDROOT
BRANCH  13  15
ATOM     15  C   UNL d   1      -6.656  -0.661   0.016  0.00  0.00     0.038 C 
BRANCH  15  16
ATOM     16  C   UNL d   1      -6.874  -2.174   0.071  0.00  0.00     0.005 C 
BRANCH  16  17
ATOM     17  C   UNL d   1      -8.358  -2.535   0.092  0.00  0.00     0.000 C 
BRANCH  17  18
ATOM     18  C   UNL d   1      -8.527  -4.052   0.132  0.00  0.00     0.000 C 
BRANCH  18  19
ATOM     19  C   UNL d   1      -9.998  -4.458   0.153  0.00  0.00     0.000 C 
BRANCH  19  20
ATOM     20  C   UNL d   1     -10.135  -5.980   0.194  0.00  0.00    -0.000 C 
BRANCH  20  21
ATOM     21  C   UNL d   1     -11.602  -6.401   0.216  0.00  0.00    -0.005 C 
ATOM     22  C   UNL d   1     -11.741  -7.914   0.256  0.00  0.00     0.005 C 
ENDBRANCH  20  21
ENDBRANCH  19  20
ENDBRANCH  18  19
ENDBRANCH  17  18
ENDBRANCH  16  17
ENDBRANCH  15  16
ENDBRANCH  13  15
TORSDOF 7
