REMARK  7 active torsions:
REMARK  status: ('A' for Active; 'I' for Inactive)
REMARK    1  A    between atoms: S_2  and  C_1 
REMARK    2  A    between atoms: C_17  and  S_2 
REMARK    3  A    between atoms: S_19  and  C_3 
REMARK    4  A    between atoms: C_11  and  C_5 
REMARK    5  A    between atoms: C_9  and  C_6 
REMARK    6  A    between atoms: C_8  and  N_10 
REMARK       I    between atoms: N_10  and  C_9 
REMARK    7  A    between atoms: O_21  and  C_11 
ROOT
ATOM      1  C   UNL d   1       1.561   0.754   0.154  0.00  0.00     0.084 A 
ATOM      2  C   UNL d   1       0.292   1.308   0.169  0.00  0.00     0.063 A 
ATOM      3  C   UNL d   1       1.517  -0.681   0.172  0.00  0.00     0.050 A 
ATOM      4  C   UNL d   1       0.237  -1.189   0.270  0.00  0.00     0.075 A 
ATOM      5  S   UNL d   1      -0.913   0.067   0.193  0.00  0.00    -0.076 SA
ENDROOT
BRANCH   4   6
ATOM      6  C   UNL d   1      -0.117  -2.591   0.482  0.00  0.00     0.263 C 
ATOM      7  N   UNL d   1      -1.443  -2.919   0.261  0.00  0.00    -0.321 N 
ATOM      8  H   UNL d   1      -1.996  -2.274  -0.295  0.00  0.00     0.169 HD
ATOM      9  O   UNL d   1       0.737  -3.420   0.794  0.00  0.00    -0.267 OA
BRANCH   7  10
ATOM     10  C   UNL d   1      -1.986  -4.182   0.492  0.00  0.00     0.058 A 
ATOM     11  C   UNL d   1      -3.036  -4.705  -0.251  0.00  0.00     0.106 A 
ATOM     12  S   UNL d   1      -3.499  -6.261   0.323  0.00  0.00    -0.094 SA
ATOM     13  C   UNL d   1      -2.302  -6.253   1.534  0.00  0.00     0.053 A 
ATOM     14  C   UNL d   1      -1.556  -5.098   1.506  0.00  0.00     0.038 A 
BRANCH  11  15
ATOM     15  C   UNL d   1      -3.716  -4.192  -1.429  0.00  0.00     0.302 C 
ATOM     16  O   UNL d   1      -4.560  -4.779  -2.099  0.00  0.00    -0.259 OA
BRANCH  15  17
ATOM     17  O   UNL d   1      -3.256  -2.936  -1.733  0.00  0.00    -0.322 OA
ATOM     18  C   UNL d   1      -3.786  -2.401  -2.947  0.00  0.00     0.213 C 
ENDBRANCH  15  17
ENDBRANCH  11  15
ENDBRANCH   7  10
ENDBRANCH   4   6
BRANCH   1  19
ATOM     19  S   UNL d   1       3.082   1.598   0.181  0.00  0.00     0.180 S 
ATOM     20  O   UNL d   1       4.081   0.551   0.292  0.00  0.00    -0.222 OA
ATOM     21  O   UNL d   1       3.026   2.454  -0.983  0.00  0.00    -0.222 OA
BRANCH  19  22
ATOM     22  C   UNL d   1       3.097   2.578   1.683  0.00  0.00     0.105 C 
ATOM     23  C   UNL d   1       2.941   1.715   2.930  0.00  0.00     0.026 C 
ATOM     24  C   UNL d   1       4.387   3.392   1.758  0.00  0.00     0.026 C 
ENDBRANCH  19  22
ENDBRANCH   1  19
BRANCH   2  25
ATOM     25  S   UNL d   1      -0.259   2.976   0.315  0.00  0.00    -0.126 SA
ATOM     26  C   UNL d   1       0.346   3.793  -1.176  0.00  0.00     0.096 C 
ENDBRANCH   2  25
TORSDOF 7
