REMARK  1 active torsions:
REMARK  status: ('A' for Active; 'I' for Inactive)
REMARK    1  A    between atoms: C_7  and  C_3 
ROOT
ATOM      1  N   UNL d   1      -9.131  -1.606   1.034  0.00  0.00    -0.327 N 
ATOM      2  C   UNL d   1      -5.088  -0.969   0.135  0.00  0.00    -0.008 A 
ATOM      3  C   UNL d   1      -7.784  -1.394   0.730  0.00  0.00     0.041 A 
ATOM      4  C   UNL d   1      -9.572  -2.458   2.014  0.00  0.00     0.222 C 
ATOM      5  C   UNL d   1      -6.811  -2.227   1.294  0.00  0.00    -0.030 A 
ATOM      6  C   UNL d   1      -5.462  -2.014   0.988  0.00  0.00     0.023 A 
ATOM      7  C   UNL d   1      -6.073  -0.151  -0.431  0.00  0.00     0.016 A 
ATOM      8  C   UNL d   1      -7.423  -0.368  -0.142  0.00  0.00     0.031 A 
ATOM      9  O   UNL d   1     -10.772  -2.630   2.211  0.00  0.00    -0.273 OA
ATOM     10  C   UNL d   1      -7.248  -3.395   2.133  0.00  0.00     0.050 C 
ATOM     11  C   UNL d   1      -8.511  -3.058   2.908  0.00  0.00     0.108 C 
ATOM     12  H   UNL d   1      -9.854  -1.103   0.535  0.00  0.00     0.169 HD
ENDROOT
BRANCH   2  13
ATOM     13  C   UNL d   1      -3.680  -0.738  -0.157  0.00  0.00     0.053 A 
ATOM     14  N   UNL d   1      -3.049  -1.327  -1.229  0.00  0.00    -0.325 N 
ATOM     15  C   UNL d   1      -1.718  -1.062  -1.339  0.00  0.00     0.147 A 
ATOM     16  C   UNL d   1      -3.384  -2.368  -2.147  0.00  0.00     0.151 C 
ATOM     17  S   UNL d   1      -1.207   0.029  -0.072  0.00  0.00    -0.064 SA
ATOM     18  N   UNL d   1      -1.024  -1.624  -2.281  0.00  0.00    -0.369 N 
ATOM     19  C   UNL d   1      -2.860   0.053   0.568  0.00  0.00     0.083 A 
ATOM     20  C   UNL d   1      -2.109  -2.360  -3.032  0.00  0.00     0.142 C 
ATOM     21  HN  UNL d   1      -0.022  -1.580  -2.465  1.00  0.00     0.161 HD
ENDBRANCH   2  13
TORSDOF 1
