REMARK  6 active torsions:
REMARK  status: ('A' for Active; 'I' for Inactive)
REMARK    1  A    between atoms: C_2  and  C_1 
REMARK    2  A    between atoms: O_9  and  C_2 
REMARK    3  A    between atoms: C_3  and  C_12 
REMARK    4  A    between atoms: N_5  and  O_9 
REMARK    5  A    between atoms: C_13  and  C_8 
REMARK    6  A    between atoms: N_22  and  C_8 
ROOT
ATOM      1  N   UNL d   1       2.284   3.147   0.170  0.00  0.00    -0.246 N 
ATOM      2  HN  UNL d   1       1.331   3.438   0.383  1.00  0.00     0.196 HD
ATOM      3  C   UNL d   1       3.271   3.965  -0.043  0.00  0.00     0.109 C 
ENDROOT
BRANCH   3   4
ATOM      4  C   UNL d   1       2.987   5.436   0.001  0.00  0.00     0.004 A 
ATOM      5  C   UNL d   1       1.926   5.924   0.771  0.00  0.00     0.015 A 
ATOM      6  C   UNL d   1       1.669   7.300   0.820  0.00  0.00     0.017 A 
ATOM      7  C   UNL d   1       2.461   8.202   0.091  0.00  0.00     0.048 A 
ATOM      8  C   UNL d   1       3.514   7.701  -0.690  0.00  0.00     0.017 A 
ATOM      9  C   UNL d   1       3.776   6.328  -0.734  0.00  0.00     0.015 A 
BRANCH   7  10
ATOM     10  C   UNL d   1       2.168   9.683   0.149  0.00  0.00     0.417 C 
ATOM     11  F   UNL d   1       3.016  10.435  -0.608  0.00  0.00    -0.166 F 
ATOM     12  F   UNL d   1       0.914   9.986  -0.284  0.00  0.00    -0.166 F 
ATOM     13  F   UNL d   1       2.260  10.181   1.413  0.00  0.00    -0.166 F 
ENDBRANCH   7  10
ENDBRANCH   3   4
BRANCH   3  14
ATOM     14  N   UNL d   1       4.561   3.555  -0.297  0.00  0.00    -0.286 NA
ATOM     15  H   UNL d   1       4.711   2.576  -0.072  0.00  0.00     0.125 HD
ATOM     16  H   UNL d   1       5.291   4.149   0.082  0.00  0.00     0.125 HD
ENDBRANCH   3  14
BRANCH   1  17
ATOM     17  O   UNL d   1       2.703   1.801   0.070  0.00  0.00    -0.193 OA
BRANCH  17  18
ATOM     18  C   UNL d   1       1.635   0.947   0.229  0.00  0.00     0.323 C 
ATOM     19  O   UNL d   1       0.483   1.300   0.471  0.00  0.00    -0.257 OA
BRANCH  18  20
ATOM     20  C   UNL d   1       2.070  -0.437   0.082  0.00  0.00     0.103 A 
ATOM     21  C   UNL d   1       3.300  -1.001  -0.211  0.00  0.00     0.057 A 
ATOM     22  C   UNL d   1       3.256  -2.429  -0.251  0.00  0.00     0.032 A 
ATOM     23 CL   UNL d   1       4.783  -0.190  -0.511  0.00  0.00    -0.083 Cl
ATOM     24  C   UNL d   1       1.999  -2.921   0.010  0.00  0.00     0.052 A 
ATOM     25  S   UNL d   1       0.879  -1.670   0.299  0.00  0.00    -0.094 SA
ENDBRANCH  18  20
ENDBRANCH  17  18
ENDBRANCH   1  17
TORSDOF 6
