REMARK  7 active torsions:
REMARK  status: ('A' for Active; 'I' for Inactive)
REMARK    1  A    between atoms: C_3  and  C_1 
REMARK    2  A    between atoms: C_5  and  C_2 
REMARK       I    between atoms: N_4  and  C_3 
REMARK    3  A    between atoms: C_6  and  N_4 
REMARK    4  A    between atoms: O_16  and  C_5 
REMARK    5  A    between atoms: C_15  and  C_6 
REMARK    6  A    between atoms: C_6  and  C_7 
REMARK    7  A    between atoms: O_17  and  C_7 
ROOT
ATOM      1  C   UNK d   1       1.674  -3.240  -3.542  0.00  0.00     0.134 A 
ATOM      2  C   UNK d   1       2.713  -2.318  -3.607  0.00  0.00     0.139 A 
ATOM      3  N   UNK d   1       1.315  -3.934  -4.670  0.00  0.00    -0.358 N 
ATOM      4  HN  UNK d   1       0.551  -4.610  -4.652  1.00  0.00     0.165 HD
ATOM      5  N   UNK d   1       3.458  -2.114  -4.753  0.00  0.00    -0.357 N 
ATOM      6  HN  UNK d   1       4.255  -1.478  -4.773  1.00  0.00     0.165 HD
ATOM      7  C8  <1> d   1       2.007  -3.691  -5.805  0.00  0.00     0.105 A 
ATOM      8  C9  <1> d   1       3.066  -2.808  -5.843  0.00  0.00     0.105 A 
ENDROOT
BRANCH   1   9
ATOM      9  C   UNK d   1       0.937  -3.714  -2.316  0.00  0.00     0.271 C 
ATOM     10  N   UNK d   1       0.889  -2.952  -1.174  0.00  0.00    -0.341 N 
ATOM     11  H   UNK d   1       1.223  -1.987  -1.170  0.00  0.00     0.163 HD
ATOM     12  O   UNK d   1       0.329  -4.787  -2.330  0.00  0.00    -0.266 OA
BRANCH  10  13
ATOM     13  C   UNK d   1       0.242  -3.415   0.064  0.00  0.00     0.186 C 
BRANCH  13  14
ATOM     14  C   UNK d   1       0.832  -2.683   1.296  0.00  0.00     0.010 C 
ATOM     15  C   UNK d   1       0.226  -3.179   2.615  0.00  0.00     0.012 C 
ATOM     16  C   UNK d   1       2.355  -2.866   1.382  0.00  0.00     0.012 C 
ENDBRANCH  13  14
BRANCH  13  17
ATOM     17  C   UNK d   1      -1.282  -3.218  -0.097  0.00  0.00     0.163 C 
ATOM     18  O   UNK d   1      -1.966  -2.434   0.546  0.00  0.00    -0.648 OA
BRANCH  17  19
ATOM     19  O   UNK d   1      -1.826  -4.018  -1.050  0.00  0.00    -0.775 OA
ATOM     20  H   UNK d   1      -1.144  -4.548  -1.535  0.00  0.00     0.167 HD
ENDBRANCH  17  19
ENDBRANCH  13  17
ENDBRANCH  10  13
ENDBRANCH   1   9
BRANCH   2  21
ATOM     21  C   UNK d   1       3.166  -1.446  -2.494  0.00  0.00     0.196 C 
ATOM     22  O   UNK d   1       2.476  -1.046  -1.577  0.00  0.00    -0.645 OA
BRANCH  21  23
ATOM     23  O   UNK d   1       4.465  -1.093  -2.662  0.00  0.00    -0.772 OA
ATOM     24  H   UNK d   1       4.782  -1.387  -3.547  0.00  0.00     0.167 HD
ENDBRANCH  21  23
ENDBRANCH   2  21
TORSDOF 7
