REMARK  3 active torsions:
REMARK  status: ('A' for Active; 'I' for Inactive)
REMARK    1  A    between atoms: C_15  and  N_3 
REMARK    2  A    between atoms: C_10  and  C_5 
REMARK    3  A    between atoms: C_14  and  C_15 
ROOT
ATOM      1  N   UNL d   1       2.793  -0.068   3.495  0.00  0.00    -0.197 NA
ATOM      2  C   UNL d   1       3.068  -0.322   2.395  0.00  0.00     0.060 C 
ATOM      3  C   UNL d   1       3.445  -0.640   1.013  0.00  0.00     0.146 C 
ENDROOT
BRANCH   3   4
ATOM      4  C   UNL d   1       2.338  -1.402   0.290  0.00  0.00     0.166 C 
BRANCH   4   5
ATOM      5  N   UNL d   1       1.077  -0.678   0.161  0.00  0.00    -0.256 N 
ATOM      6  N   UNL d   1       1.148   0.693   0.025  0.00  0.00    -0.295 N 
ATOM      7  C   UNL d   1       0.035   1.354  -0.082  0.00  0.00     0.058 C 
ATOM      8  HN  UNL d   1       2.048   1.173   0.008  1.00  0.00     0.187 HD
ATOM      9  C   UNL d   1      -1.303   0.721  -0.036  0.00  0.00     0.037 C 
ATOM     10  C   UNL d   1      -1.343  -0.611  -0.008  0.00  0.00     0.078 C 
ATOM     11  C   UNL d   1      -0.102  -1.404   0.035  0.00  0.00     0.262 C 
ATOM     12  O   UNL d   1      -0.174  -2.629  -0.005  0.00  0.00    -0.267 OA
BRANCH   7  13
ATOM     13  C   UNL d   1       0.078   2.840  -0.241  0.00  0.00    -0.008 A 
ATOM     14  C   UNL d   1      -0.920   3.535  -0.941  0.00  0.00     0.017 A 
ATOM     15  C   UNL d   1      -0.848   4.924  -1.074  0.00  0.00     0.043 A 
ATOM     16  C   UNL d   1       0.226   5.613  -0.524  0.00  0.00     0.116 A 
ATOM     17  C   UNL d   1       1.234   4.939   0.157  0.00  0.00     0.043 A 
ATOM     18  F   UNL d   1       0.294   6.943  -0.659  0.00  0.00    -0.206 F 
ATOM     19  C   UNL d   1       1.163   3.550   0.298  0.00  0.00     0.017 A 
ENDBRANCH   7  13
ENDBRANCH   4   5
ENDBRANCH   3   4
TORSDOF 3
