REMARK  8 active torsions:
REMARK  status: ('A' for Active; 'I' for Inactive)
REMARK    1  A    between atoms: C_5  and  C_1 
REMARK    2  A    between atoms: C_8  and  C_2 
REMARK       I    between atoms: N_17  and  C_8 
REMARK       I    between atoms: C_9  and  N_12 
REMARK    3  A    between atoms: N_12  and  C_13 
REMARK    4  A    between atoms: C_28  and  N_17 
REMARK    5  A    between atoms: C_18  and  O_22 
REMARK    6  A    between atoms: C_21  and  C_28 
REMARK    7  A    between atoms: C_31  and  C_21 
REMARK    8  A    between atoms: O_22  and  C_31 
ROOT
ATOM      1  C   UNL d   1       1.735  -2.285  -1.278  0.00  0.00     0.256 C 
ATOM      2  O   UNL d   1       2.229  -2.664  -2.333  0.00  0.00    -0.267 OA
ATOM      3  N   UNL d   1       1.698  -3.063  -0.139  0.00  0.00    -0.357 N 
ATOM      4  H   UNL d   1       1.143  -2.735   0.642  0.00  0.00     0.162 HD
ENDROOT
BRANCH   1   5
ATOM      5  C   UNL d   1       1.075  -1.005  -1.149  0.00  0.00     0.092 A 
ATOM      6  C   UNL d   1       0.163  -0.382  -2.063  0.00  0.00     0.088 A 
ATOM      7  N   UNL d   1      -0.265   0.789  -1.565  0.00  0.00    -0.259 N 
ATOM      8  O   UNL d   1       0.407   0.982  -0.382  0.00  0.00    -0.241 OA
ATOM      9  HN  UNL d   1      -0.954   1.414  -1.984  1.00  0.00     0.195 HD
ATOM     10  C   UNL d   1       1.209  -0.083  -0.130  0.00  0.00     0.090 A 
ATOM     11  C   UNL d   1       2.024   0.024   1.095  0.00  0.00     0.080 C 
BRANCH   6  12
ATOM     12  C   UNL d   1      -0.354  -0.891  -3.334  0.00  0.00     0.054 A 
ATOM     13  C   UNL d   1      -0.433  -0.110  -4.500  0.00  0.00     0.049 A 
ATOM     14 CL   UNL d   1       0.106   1.534  -4.585  0.00  0.00    -0.083 Cl
ATOM     15  C   UNL d   1      -0.939  -0.656  -5.691  0.00  0.00     0.025 A 
ATOM     16  C   UNL d   1      -1.354  -1.986  -5.743  0.00  0.00     0.005 A 
ATOM     17  C   UNL d   1      -1.283  -2.768  -4.597  0.00  0.00     0.043 A 
ATOM     18  C   UNL d   1      -0.804  -2.217  -3.409  0.00  0.00     0.130 A 
ATOM     19  F   UNL d   1      -0.807  -3.000  -2.319  0.00  0.00    -0.205 F 
ENDBRANCH   6  12
ENDBRANCH   1   5
BRANCH   3  20
ATOM     20  C   UNL d   1       2.145  -4.444  -0.125  0.00  0.00     0.125 C 
BRANCH  20  21
ATOM     21  C   UNL d   1       3.663  -4.597  -0.026  0.00  0.00     0.046 C 
BRANCH  21  22
ATOM     22  C   UNL d   1       4.209  -3.861   1.189  0.00  0.00     0.177 C 
BRANCH  22  23
ATOM     23  O   UNL d   1       5.607  -4.121   1.348  0.00  0.00    -0.351 OA
BRANCH  23  24
ATOM     24  C   UNL d   1       6.206  -3.436   2.378  0.00  0.00     0.070 A 
ATOM     25  C   UNL d   1       5.696  -2.276   2.971  0.00  0.00     0.066 A 
ATOM     26  C   UNL d   1       6.370  -1.631   4.010  0.00  0.00     0.037 A 
ATOM     27  C   UNL d   1       7.586  -2.162   4.452  0.00  0.00     0.029 A 
ATOM     28  C   UNL d   1       8.112  -3.314   3.859  0.00  0.00     0.005 A 
ATOM     29  C   UNL d   1       7.425  -3.945   2.820  0.00  0.00     0.037 A 
BRANCH  26  30
ATOM     30  N   UNL d   1       5.895  -0.450   4.623  0.00  0.00    -0.327 N 
ATOM     31  C   UNL d   1       4.687   0.187   4.387  0.00  0.00     0.218 C 
ATOM     32  O   UNL d   1       3.781  -0.198   3.657  0.00  0.00    -0.274 OA
ATOM     33  C   UNL d   1       4.541   1.488   5.137  0.00  0.00     0.117 C 
ATOM     34  H   UNL d   1       6.503  -0.045   5.324  0.00  0.00     0.169 HD
ENDBRANCH  26  30
ENDBRANCH  23  24
ENDBRANCH  22  23
ENDBRANCH  21  22
ENDBRANCH  20  21
ENDBRANCH   3  20
TORSDOF 8
