REMARK  5 active torsions:
REMARK  status: ('A' for Active; 'I' for Inactive)
REMARK    1  A    between atoms: C_2  and  C_1 
REMARK    2  A    between atoms: C_13  and  C_5 
REMARK    3  A    between atoms: C_14  and  C_11 
REMARK    4  A    between atoms: O_15  and  C_14 
REMARK    5  A    between atoms: C_16  and  O_15 
ROOT
ATOM      1  C   UNL d   1       0.307  -2.729  -0.055  0.00  0.00     0.054 A 
ATOM      2  N   UNL d   1       1.069  -3.236   0.978  0.00  0.00    -0.351 N 
ATOM      3  HN  UNL d   1       1.412  -2.692   1.769  1.00  0.00     0.166 HD
ATOM      4  C   UNL d   1      -0.066  -3.654  -1.008  0.00  0.00     0.082 A 
ATOM      5  C   UNL d   1       1.292  -4.523   0.798  0.00  0.00     0.075 A 
ATOM      6  S   UNL d   1       0.573  -5.196  -0.612  0.00  0.00    -0.084 SA
ENDROOT
BRANCH   1   7
ATOM      7  C   UNL d   1      -0.014  -1.304  -0.050  0.00  0.00     0.052 A 
ATOM      8  C   UNL d   1       0.791  -0.230   0.447  0.00  0.00     0.080 A 
ATOM      9  N   UNL d   1       0.126   0.933   0.309  0.00  0.00    -0.259 N 
ATOM     10  O   UNL d   1      -1.077   0.636  -0.288  0.00  0.00    -0.241 OA
ATOM     11  HN  UNL d   1       0.452   1.857   0.593  1.00  0.00     0.195 HD
ATOM     12  C   UNL d   1      -1.161  -0.699  -0.512  0.00  0.00     0.087 A 
ATOM     13  C   UNL d   1      -2.408  -1.169  -1.145  0.00  0.00     0.080 C 
BRANCH   8  14
ATOM     14  C   UNL d   1       2.147  -0.229   1.012  0.00  0.00    -0.007 A 
ATOM     15  C   UNL d   1       2.486   0.674   2.032  0.00  0.00     0.014 A 
ATOM     16  C   UNL d   1       3.771   0.681   2.583  0.00  0.00     0.001 A 
ATOM     17  C   UNL d   1       4.733  -0.216   2.123  0.00  0.00     0.000 A 
ATOM     18  C   UNL d   1       4.419  -1.103   1.098  0.00  0.00     0.001 A 
ATOM     19  C   UNL d   1       3.140  -1.097   0.536  0.00  0.00     0.014 A 
ENDBRANCH   8  14
ENDBRANCH   1   7
BRANCH   5  20
ATOM     20  C   UNL d   1       2.134  -5.373   1.703  0.00  0.00     0.240 C 
BRANCH  20  21
ATOM     21  O   UNL d   1       1.258  -5.928   2.681  0.00  0.00    -0.345 OA
BRANCH  21  22
ATOM     22  C   UNL d   1       1.829  -6.690   3.661  0.00  0.00     0.069 A 
ATOM     23  C   UNL d   1       3.164  -7.093   3.723  0.00  0.00     0.037 A 
ATOM     24  C   UNL d   1       3.606  -7.891   4.782  0.00  0.00     0.003 A 
ATOM     25  C   UNL d   1       2.718  -8.286   5.781  0.00  0.00     0.000 A 
ATOM     26  C   UNL d   1       1.387  -7.884   5.728  0.00  0.00     0.003 A 
ATOM     27  C   UNL d   1       0.948  -7.090   4.670  0.00  0.00     0.037 A 
ENDBRANCH  21  22
ENDBRANCH  20  21
ENDBRANCH   5  20
TORSDOF 5
