REMARK  6 active torsions:
REMARK  status: ('A' for Active; 'I' for Inactive)
REMARK    1  A    between atoms: C_6  and  C_1 
REMARK    2  A    between atoms: N_9  and  C_2 
REMARK    3  A    between atoms: C_12  and  N_3 
REMARK       I    between atoms: C_8  and  N_9 
REMARK       I    between atoms: N_11  and  C_8 
REMARK    4  A    between atoms: C_10  and  O_13 
REMARK    5  A    between atoms: C_21  and  N_11 
REMARK    6  A    between atoms: O_13  and  C_22 
ROOT
ATOM      1  C   UNL d   1      -2.197  -2.597   0.059  0.00  0.00     0.325 C 
ATOM      2  N   UNL d   1      -0.852  -2.352  -0.164  0.00  0.00    -0.305 N 
ATOM      3  N   UNL d   1      -2.627  -3.770  -0.536  0.00  0.00    -0.309 N 
ATOM      4  O   UNL d   1      -2.897  -1.863   0.753  0.00  0.00    -0.247 OA
ATOM      5  H   UNL d   1      -0.263  -3.154  -0.334  0.00  0.00     0.171 HD
ATOM      6  H   UNL d   1      -1.929  -4.352  -0.973  0.00  0.00     0.170 HD
ENDROOT
BRANCH   2   7
ATOM      7  C   UNL d   1      -0.220  -1.212   0.323  0.00  0.00     0.087 C 
ATOM      8  C   UNL d   1      -0.724   0.059   0.527  0.00  0.00     0.168 C 
ATOM      9  N   UNL d   1       0.260   0.760   1.200  0.00  0.00    -0.250 N 
ATOM     10  N   UNL d   1       1.462   0.124   1.081  0.00  0.00    -0.302 N 
ATOM     11  C   UNL d   1       1.149  -1.083   0.629  0.00  0.00     0.139 C 
ATOM     12  HN  UNL d   1       2.390   0.493   1.292  1.00  0.00     0.186 HD
BRANCH   8  13
ATOM     13  C   UNL d   1      -1.933   0.736   0.022  0.00  0.00     0.436 C 
ATOM     14  F   UNL d   1      -2.471   0.098  -1.052  0.00  0.00    -0.164 F 
ATOM     15  F   UNL d   1      -2.917   0.875   0.940  0.00  0.00    -0.164 F 
ATOM     16  F   UNL d   1      -1.643   1.989  -0.427  0.00  0.00    -0.164 F 
ENDBRANCH   8  13
BRANCH   9  17
ATOM     17  C   UNL d   1       0.186   1.968   1.957  0.00  0.00     0.057 A 
ATOM     18  C   UNL d   1      -0.990   2.355   2.612  0.00  0.00     0.031 A 
ATOM     19  C   UNL d   1      -1.027   3.543   3.349  0.00  0.00     0.002 A 
ATOM     20  C   UNL d   1       0.107   4.346   3.444  0.00  0.00     0.000 A 
ATOM     21  C   UNL d   1       1.291   3.950   2.824  0.00  0.00     0.002 A 
ATOM     22  C   UNL d   1       1.337   2.758   2.096  0.00  0.00     0.031 A 
ENDBRANCH   9  17
ENDBRANCH   2   7
BRANCH   3  23
ATOM     23  C   UNL d   1      -3.933  -4.306  -0.449  0.00  0.00     0.036 A 
ATOM     24  C   UNL d   1      -5.037  -3.583   0.013  0.00  0.00     0.032 A 
ATOM     25  C   UNL d   1      -6.289  -4.192   0.181  0.00  0.00     0.039 A 
ATOM     26  C   UNL d   1      -6.468  -5.528  -0.158  0.00  0.00     0.078 A 
ATOM     27  C   UNL d   1      -5.376  -6.244  -0.658  0.00  0.00     0.039 A 
ATOM     28  C   UNL d   1      -4.122  -5.638  -0.818  0.00  0.00     0.032 A 
BRANCH  26  29
ATOM     29  O   UNL d   1      -7.614  -6.256  -0.067  0.00  0.00    -0.255 OA
BRANCH  29  30
ATOM     30  C   UNL d   1      -8.845  -5.619   0.233  0.00  0.00     0.530 C 
ATOM     31  F   UNL d   1      -8.948  -4.384  -0.298  0.00  0.00    -0.144 F 
ATOM     32  F   UNL d   1      -9.842  -6.371  -0.289  0.00  0.00    -0.144 F 
ATOM     33  F   UNL d   1      -9.027  -5.552   1.569  0.00  0.00    -0.144 F 
ENDBRANCH  29  30
ENDBRANCH  26  29
ENDBRANCH   3  23
TORSDOF 6
