REMARK  3 active torsions:
REMARK  status: ('A' for Active; 'I' for Inactive)
REMARK       I    between atoms: N_5  and  C_1 
REMARK       I    between atoms: N_9  and  C_1 
REMARK    1  A    between atoms: C_2  and  N_6 
REMARK    2  A    between atoms: N_6  and  N_5 
REMARK    3  A    between atoms: C_13  and  N_9 
ROOT
ATOM      1  C   UNL d   1      -0.667   0.921  -0.551  0.00  0.00     0.339 C 
ATOM      2  N   UNL d   1       0.389   0.268  -1.198  0.00  0.00    -0.248 N 
ATOM      3  N   UNL d   1      -1.257   0.099   0.397  0.00  0.00    -0.308 N 
ATOM      4  O   UNL d   1      -1.018   2.071  -0.802  0.00  0.00    -0.245 OA
ATOM      5  H   UNL d   1       0.275  -0.729  -1.337  0.00  0.00     0.192 HD
ATOM      6  H   UNL d   1      -0.653  -0.605   0.795  0.00  0.00     0.170 HD
ENDROOT
BRANCH   2   7
ATOM      7  N   UNL d   1       0.947   0.930  -2.326  0.00  0.00    -0.276 N 
ATOM      8  C   UNL d   1       0.089   1.052  -3.503  0.00  0.00     0.179 C 
BRANCH   7   9
ATOM      9  C   UNL d   1       2.330   0.778  -2.541  0.00  0.00     0.136 A 
ATOM     10  N   UNL d   1       2.839   0.873  -3.790  0.00  0.00    -0.284 N 
ATOM     11  N   UNL d   1       4.199   0.865  -4.030  0.00  0.00    -0.304 N 
ATOM     12  HN  UNL d   1       2.199   0.953  -4.579  1.00  0.00     0.188 HD
ATOM     13  C   UNL d   1       5.061   0.762  -3.004  0.00  0.00     0.022 A 
ATOM     14  HN  UNL d   1       4.548   0.936  -4.986  1.00  0.00     0.186 HD
ATOM     15  C   UNL d   1       4.597   0.613  -1.710  0.00  0.00     0.030 A 
ATOM     16  C   UNL d   1       6.516   0.860  -3.329  0.00  0.00     0.069 C 
ATOM     17  C   UNL d   1       3.218   0.621  -1.480  0.00  0.00     0.053 A 
ENDBRANCH   7   9
ENDBRANCH   2   7
BRANCH   3  18
ATOM     18  C   UNL d   1      -2.481   0.349   1.057  0.00  0.00     0.036 A 
ATOM     19  C   UNL d   1      -3.437   1.249   0.575  0.00  0.00     0.031 A 
ATOM     20  C   UNL d   1      -4.643   1.444   1.258  0.00  0.00     0.026 A 
ATOM     21  C   UNL d   1      -4.896   0.736   2.428  0.00  0.00     0.034 A 
ATOM     22  C   UNL d   1      -3.959  -0.172   2.915  0.00  0.00     0.026 A 
ATOM     23 CL   UNL d   1      -6.374   0.979   3.273  0.00  0.00    -0.084 Cl
ATOM     24  C   UNL d   1      -2.756  -0.373   2.224  0.00  0.00     0.031 A 
ENDBRANCH   3  18
TORSDOF 3
