REMARK  3 active torsions:
REMARK  status: ('A' for Active; 'I' for Inactive)
REMARK    1  A    between atoms: N_3  and  C_1 
REMARK    2  A    between atoms: C_7  and  C_2 
REMARK       I    between atoms: C_5  and  N_3 
REMARK    3  A    between atoms: O_12  and  C_10 
ROOT
ATOM      1  C   UNL d   1       1.417  -0.318  -0.077  0.00  0.00     0.051 A 
ATOM      2  C   UNL d   1       0.539  -1.415  -0.065  0.00  0.00     0.036 A 
ATOM      3  C   UNL d   1       0.863   0.971  -0.053  0.00  0.00     0.067 A 
ATOM      4  C   UNL d   1      -0.850  -1.210  -0.010  0.00  0.00     0.020 A 
ATOM      5  C   UNL d   1      -0.521   1.179   0.006  0.00  0.00     0.070 A 
ATOM      6  C   UNL d   1      -1.378   0.083   0.022  0.00  0.00     0.038 A 
ENDROOT
BRANCH   1   7
ATOM      7  N   UNL d   1       2.822  -0.503  -0.019  0.00  0.00    -0.327 N 
ATOM      8  C   UNL d   1       3.776   0.407  -0.440  0.00  0.00     0.218 C 
ATOM      9  O   UNL d   1       3.561   1.461  -1.028  0.00  0.00    -0.274 OA
ATOM     10  C   UNL d   1       5.186  -0.018  -0.119  0.00  0.00     0.117 C 
ATOM     11  H   UNL d   1       3.157  -1.407   0.285  0.00  0.00     0.169 HD
ENDBRANCH   1   7
BRANCH   2  12
ATOM     12  C   UNL d   1       0.979  -2.832  -0.151  0.00  0.00     0.158 C 
ATOM     13  O   UNL d   1       0.455  -3.671   0.574  0.00  0.00    -0.293 OA
ATOM     14  C   UNL d   1       2.035  -3.214  -1.156  0.00  0.00     0.097 C 
ENDBRANCH   2  12
BRANCH   5  15
ATOM     15  O   UNL d   1      -0.895   2.493   0.066  0.00  0.00    -0.356 OA
ATOM     16  C   UNL d   1      -2.286   2.771   0.159  0.00  0.00     0.210 C 
ENDBRANCH   5  15
TORSDOF 3
