REMARK  4 active torsions:
REMARK  status: ('A' for Active; 'I' for Inactive)
REMARK    1  A    between atoms: C_10  and  C_6 
REMARK    2  A    between atoms: C_9  and  C_7 
REMARK    3  A    between atoms: C_8  and  O_11 
REMARK    4  A    between atoms: O_11  and  C_19 
ROOT
ATOM      1  O   UNL d   1      -1.076  -0.011  -0.028  0.00  0.00    -0.273 OA
ATOM      2  N   UNL d   1       1.046   0.698  -0.054  0.00  0.00    -0.277 N 
ATOM      3  HN  UNL d   1       1.858   1.315  -0.068  1.00  0.00     0.189 HD
ATOM      4  N   UNL d   1       1.060  -0.682  -0.026  0.00  0.00    -0.277 N 
ATOM      5  HN  UNL d   1       1.882  -1.285  -0.022  1.00  0.00     0.189 HD
ATOM      6  C   UNL d   1      -0.200  -1.065  -0.006  0.00  0.00     0.174 A 
ATOM      7  C   UNL d   1      -0.220   1.062  -0.057  0.00  0.00     0.174 A 
ENDROOT
BRANCH   7   8
ATOM      8  C   UNL d   1      -0.806   2.394  -0.105  0.00  0.00     0.017 A 
ATOM      9  C   UNL d   1       0.034   3.518  -0.089  0.00  0.00     0.018 A 
ATOM     10  C   UNL d   1      -0.486   4.815  -0.188  0.00  0.00     0.038 A 
ATOM     11  C   UNL d   1      -1.862   5.011  -0.263  0.00  0.00     0.078 A 
ATOM     12  C   UNL d   1      -2.705   3.897  -0.289  0.00  0.00     0.038 A 
ATOM     13  C   UNL d   1      -2.187   2.601  -0.205  0.00  0.00     0.018 A 
BRANCH  11  14
ATOM     14  O   UNL d   1      -2.499   6.207  -0.386  0.00  0.00    -0.255 OA
BRANCH  14  15
ATOM     15  C   UNL d   1      -1.942   7.373   0.203  0.00  0.00     0.530 C 
ATOM     16  F   UNL d   1      -0.860   7.149   0.973  0.00  0.00    -0.144 F 
ATOM     17  F   UNL d   1      -1.613   8.248  -0.769  0.00  0.00    -0.144 F 
ATOM     18  F   UNL d   1      -2.890   7.948   0.982  0.00  0.00    -0.144 F 
ENDBRANCH  14  15
ENDBRANCH  11  14
ENDBRANCH   7   8
BRANCH   6  19
ATOM     19  C   UNL d   1      -0.759  -2.408   0.066  0.00  0.00     0.017 A 
ATOM     20  C   UNL d   1       0.104  -3.517   0.068  0.00  0.00     0.017 A 
ATOM     21  C   UNL d   1      -0.397  -4.815   0.204  0.00  0.00     0.025 A 
ATOM     22  C   UNL d   1      -1.768  -5.016   0.334  0.00  0.00     0.034 A 
ATOM     23  C   UNL d   1      -2.643  -3.932   0.306  0.00  0.00     0.025 A 
ATOM     24 CL   UNL d   1      -2.384  -6.607   0.544  0.00  0.00    -0.084 Cl
ATOM     25  C   UNL d   1      -2.141  -2.634   0.169  0.00  0.00     0.017 A 
ENDBRANCH   6  19
TORSDOF 4
