REMARK  2 active torsions:
REMARK  status: ('A' for Active; 'I' for Inactive)
REMARK    1  A    between atoms: S_13  and  C_3 
REMARK    2  A    between atoms: C_16  and  S_13 
ROOT
ATOM      1  C   UNL d   1       0.075  -0.737   0.066  0.00  0.00     0.042 A 
ATOM      2  C   UNL d   1       0.386   0.678   0.011  0.00  0.00    -0.014 A 
ATOM      3  C   UNL d   1       1.215  -1.521   0.085  0.00  0.00     0.057 A 
ATOM      4  C   UNL d   1       1.751   0.896  -0.030  0.00  0.00     0.093 A 
ATOM      5  S   UNL d   1       2.633  -0.562   0.007  0.00  0.00    -0.071 SA
ATOM      6  C   UNL d   1      -1.314  -1.200   0.098  0.00  0.00     0.162 C 
ATOM      7  C   UNL d   1       2.388   2.171  -0.111  0.00  0.00     0.107 C 
ATOM      8  N   UNL d   1       2.881   3.221  -0.177  0.00  0.00    -0.191 NA
ATOM      9  C   UNL d   1      -0.693   1.739  -0.027  0.00  0.00     0.050 C 
ATOM     10  C   UNL d   1      -2.097   1.190   0.362  0.00  0.00    -0.037 C 
ATOM     11  C   UNL d   1      -2.340  -0.165  -0.335  0.00  0.00     0.093 C 
ATOM     12  O   UNL d   1      -1.661  -2.322   0.455  0.00  0.00    -0.292 OA
ATOM     13  C   UNL d   1      -3.180   2.183  -0.092  0.00  0.00     0.015 C 
ATOM     14  C   UNL d   1      -2.208   1.034   1.895  0.00  0.00     0.015 C 
ENDROOT
BRANCH   3  15
ATOM     15  S   UNL d   1       1.304  -3.282   0.069  0.00  0.00    -0.122 SA
BRANCH  15  16
ATOM     16  C   UNL d   1       2.331  -3.645   1.524  0.00  0.00     0.075 C 
ATOM     17  C   UNL d   1       1.645  -3.285   2.830  0.00  0.00     0.016 C 
ENDBRANCH  15  16
ENDBRANCH   3  15
TORSDOF 2
