REMARK  6 active torsions:
REMARK  status: ('A' for Active; 'I' for Inactive)
REMARK    1  A    between atoms: C_16  and  N_1 
REMARK    2  A    between atoms: S_12  and  C_2 
REMARK    3  A    between atoms: S_13  and  C_3 
REMARK       I    between atoms: C_8  and  N_15 
REMARK       I    between atoms: N_9  and  C_8 
REMARK    4  A    between atoms: C_11  and  N_9 
REMARK    5  A    between atoms: N_15  and  C_19 
REMARK    6  A    between atoms: C_19  and  C_16 
ROOT
ATOM      1  C   UNL d   1      -0.196  -6.082   0.255  0.00  0.00     0.320 C 
ATOM      2  N   UNL d   1       0.017  -7.293   0.833  0.00  0.00    -0.309 N 
ATOM      3  O   UNL d   1      -1.037  -5.975  -0.631  0.00  0.00    -0.247 OA
ATOM      4  N   UNL d   1       0.528  -5.022   0.699  0.00  0.00    -0.341 N 
ATOM      5  H   UNL d   1      -0.693  -7.951   0.529  0.00  0.00     0.170 HD
ATOM      6  H   UNL d   1       0.748  -5.030   1.686  0.00  0.00     0.164 HD
ENDROOT
BRANCH   4   7
ATOM      7  C   UNL d   1       0.477  -3.739   0.020  0.00  0.00     0.144 C 
BRANCH   7   8
ATOM      8  C   UNL d   1      -0.795  -2.908   0.253  0.00  0.00     0.153 C 
BRANCH   8   9
ATOM      9  N   UNL d   1      -1.179  -2.675   1.630  0.00  0.00    -0.304 N 
ATOM     10  C   UNL d   1      -0.412  -2.233   2.679  0.00  0.00     0.163 C 
ATOM     11  N   UNL d   1      -1.105  -2.284   3.793  0.00  0.00    -0.278 N 
ATOM     12  N   UNL d   1      -2.394  -2.607   3.465  0.00  0.00    -0.278 N 
ATOM     13  HN  UNL d   1      -0.747  -2.114   4.733  1.00  0.00     0.189 HD
ATOM     14  C   UNL d   1      -2.446  -2.752   2.160  0.00  0.00     0.163 C 
ATOM     15  HN  UNL d   1      -3.173  -2.715   4.115  1.00  0.00     0.189 HD
BRANCH  10  16
ATOM     16  S   UNL d   1       1.181  -1.582   2.536  0.00  0.00    -0.097 SA
ATOM     17  C   UNL d   1       1.332  -0.749   4.135  0.00  0.00     0.099 C 
ENDBRANCH  10  16
BRANCH  14  18
ATOM     18  S   UNL d   1      -3.898  -2.864   1.226  0.00  0.00    -0.097 SA
ATOM     19  C   UNL d   1      -5.127  -2.438   2.486  0.00  0.00     0.099 C 
ENDBRANCH  14  18
ENDBRANCH   8   9
ENDBRANCH   7   8
ENDBRANCH   4   7
BRANCH   2  20
ATOM     20  C   UNL d   1       1.072  -7.837   1.589  0.00  0.00     0.037 A 
ATOM     21  C   UNL d   1       2.284  -7.197   1.861  0.00  0.00     0.053 A 
ATOM     22  C   UNL d   1       3.282  -7.859   2.585  0.00  0.00     0.036 A 
ATOM     23 CL   UNL d   1       4.768  -7.055   2.918  0.00  0.00    -0.084 Cl
ATOM     24  C   UNL d   1       3.098  -9.167   3.029  0.00  0.00     0.024 A 
ATOM     25  C   UNL d   1       1.904  -9.821   2.748  0.00  0.00     0.004 A 
ATOM     26  C   UNL d   1       0.900  -9.159   2.034  0.00  0.00     0.029 A 
ENDBRANCH   2  20
TORSDOF 6
