REMARK  2 active torsions:
REMARK  status: ('A' for Active; 'I' for Inactive)
REMARK    1  A    between atoms: C_6  and  C_5 
REMARK    2  A    between atoms: O_17  and  C_7 
ROOT
ATOM      1  C   UNL d   1      -0.032   0.805   0.003  0.00  0.00     0.046 A 
ATOM      2  N   UNL d   1       1.158  -1.309   0.004  0.00  0.00    -0.351 N 
ATOM      3  HN  UNL d   1       1.131  -2.329   0.004  1.00  0.00     0.166 HD
ATOM      4  C   UNL d   1       0.015  -0.607   0.003  0.00  0.00     0.049 A 
ATOM      5  C   UNL d   1       2.354  -0.658   0.004  0.00  0.00     0.119 A 
ATOM      6  C   UNL d   1       1.233   1.445   0.004  0.00  0.00     0.082 A 
ATOM      7  C   UNL d   1      -1.319   1.421   0.001  0.00  0.00     0.051 A 
ATOM      8  C   UNL d   1       2.421   0.724   0.005  0.00  0.00     0.071 A 
ATOM      9  C   UNL d   1      -2.493   0.666   0.000  0.00  0.00     0.048 A 
ATOM     10  C   UNL d   1      -1.163  -1.338   0.002  0.00  0.00     0.054 A 
ATOM     11  C   UNL d   1      -2.405  -0.715   0.001  0.00  0.00     0.037 A 
ATOM     12 CL   UNL d   1      -1.522   3.143  -0.000  0.00  0.00    -0.083 Cl
ATOM     13 CL   UNL d   1      -3.840  -1.663  -0.000  0.00  0.00    -0.084 Cl
ENDROOT
BRANCH   5  14
ATOM     14  C   UNL d   1       3.650  -1.457   0.004  0.00  0.00     0.432 C 
ATOM     15  F   UNL d   1       3.476  -2.808  -0.002  0.00  0.00    -0.165 F 
ATOM     16  F   UNL d   1       4.434  -1.179  -1.079  0.00  0.00    -0.165 F 
ATOM     17  F   UNL d   1       4.427  -1.189   1.095  0.00  0.00    -0.165 F 
ENDBRANCH   5  14
BRANCH   6  18
ATOM     18  O   UNL d   1       1.403   2.804   0.005  0.00  0.00    -0.360 OA
ATOM     19  H   UNL d   1       0.533   3.242   0.007  0.00  0.00     0.217 HD
ENDBRANCH   6  18
TORSDOF 2
