REMARK  9 active torsions:
REMARK  status: ('A' for Active; 'I' for Inactive)
REMARK    1  A    between atoms: S_4  and  C_1 
REMARK    2  A    between atoms: N_7  and  C_2 
REMARK    3  A    between atoms: C_8  and  C_3 
REMARK    4  A    between atoms: C_14  and  S_4 
REMARK    5  A    between atoms: S_9  and  C_5 
REMARK    6  A    between atoms: O_19  and  C_8 
REMARK    7  A    between atoms: C_18  and  S_9 
REMARK    8  A    between atoms: C_22  and  C_18 
REMARK    9  A    between atoms: C_29  and  O_19 
ROOT
ATOM      1  C   UNL d   1       1.504  -0.702  -0.027  0.00  0.00     0.112 A 
ATOM      2  C   UNL d   1       1.488   0.778  -0.034  0.00  0.00     0.085 A 
ATOM      3  C   UNL d   1       0.182   1.271   0.046  0.00  0.00     0.110 A 
ATOM      4  C   UNL d   1       0.209  -1.217   0.021  0.00  0.00     0.066 A 
ATOM      5  S   UNL d   1      -0.962   0.012   0.142  0.00  0.00    -0.073 SA
ENDROOT
BRANCH   4   6
ATOM      6  S   UNL d   1      -0.393  -2.880   0.084  0.00  0.00    -0.116 SA
BRANCH   6   7
ATOM      7  C   UNL d   1      -1.328  -2.996  -1.473  0.00  0.00     0.118 C 
BRANCH   7   8
ATOM      8  C   UNL d   1      -1.960  -4.355  -1.669  0.00  0.00    -0.047 A 
ATOM      9  C   UNL d   1      -3.357  -4.489  -1.742  0.00  0.00     0.031 A 
ATOM     10  C   UNL d   1      -3.936  -5.741  -1.955  0.00  0.00     0.034 A 
ATOM     11 CL   UNL d   1      -5.649  -5.884  -2.054  0.00  0.00    -0.084 Cl
ATOM     12  C   UNL d   1      -3.140  -6.875  -2.095  0.00  0.00     0.024 A 
ATOM     13  C   UNL d   1      -1.753  -6.756  -2.024  0.00  0.00     0.002 A 
ATOM     14  C   UNL d   1      -1.167  -5.504  -1.819  0.00  0.00     0.008 A 
ENDBRANCH   7   8
ENDBRANCH   6   7
ENDBRANCH   4   6
BRANCH   1  15
ATOM     15  S   UNL d   1       2.938  -1.728  -0.044  0.00  0.00     0.183 S 
ATOM     16  O   UNL d   1       2.504  -3.078   0.248  0.00  0.00    -0.222 OA
ATOM     17  O   UNL d   1       3.552  -1.437  -1.318  0.00  0.00    -0.222 OA
BRANCH  15  18
ATOM     18  C   UNL d   1       4.001  -1.221   1.316  0.00  0.00     0.105 C 
ATOM     19  C   UNL d   1       3.337  -1.464   2.668  0.00  0.00     0.026 C 
ATOM     20  C   UNL d   1       5.320  -1.994   1.240  0.00  0.00     0.026 C 
ENDBRANCH  15  18
ENDBRANCH   1  15
BRANCH   2  21
ATOM     21  N   UNL d   1       2.625   1.674  -0.076  0.00  0.00    -0.330 N 
ATOM     22  C   UNL d   1       2.718   2.885   0.592  0.00  0.00     0.097 A 
ATOM     23  C   UNL d   1       3.950   3.457   0.362  0.00  0.00     0.019 A 
ATOM     24  C   UNL d   1       4.656   2.578  -0.475  0.00  0.00     0.019 A 
ATOM     25  C   UNL d   1       3.816   1.523  -0.755  0.00  0.00     0.097 A 
ENDBRANCH   2  21
BRANCH   3  26
ATOM     26  C   UNL d   1      -0.342   2.631  -0.048  0.00  0.00     0.302 C 
ATOM     27  O   UNL d   1       0.147   3.542  -0.705  0.00  0.00    -0.259 OA
BRANCH  26  28
ATOM     28  O   UNL d   1      -1.468   2.760   0.714  0.00  0.00    -0.317 OA
BRANCH  28  29
ATOM     29  C   UNL d   1      -2.107   4.045   0.728  0.00  0.00     0.174 C 
ATOM     30  C   UNL d   1      -2.968   4.240  -0.506  0.00  0.00     0.034 C 
ENDBRANCH  28  29
ENDBRANCH  26  28
ENDBRANCH   3  26
TORSDOF 9
