REMARK  2 active torsions:
REMARK  status: ('A' for Active; 'I' for Inactive)
REMARK    1  A    between atoms: N_6  and  C_1 
REMARK       I    between atoms: C_4  and  N_6 
REMARK    2  A    between atoms: C_7  and  C_4 
REMARK       I    between atoms: N_12  and  C_7 
ROOT
ATOM      1  C   UNL d   1      -3.657  -1.185   0.270  0.00  0.00     0.314 C 
ATOM      2  N   UNL d   1      -2.375  -1.509  -0.100  0.00  0.00    -0.303 N 
ATOM      3  O   UNL d   1      -4.127  -0.119   0.642  0.00  0.00    -0.262 OA
ATOM      4  H   UNL d   1      -2.211  -2.469  -0.379  0.00  0.00     0.171 HD
ENDROOT
BRANCH   2   5
ATOM      5  C   UNL d   1      -1.305  -0.648  -0.035  0.00  0.00     0.131 A 
ATOM      6  N   UNL d   1      -1.358   0.629   0.352  0.00  0.00    -0.245 N 
ATOM      7  O   UNL d   1      -0.061   1.098   0.328  0.00  0.00    -0.241 OA
ATOM      8  HN  UNL d   1      -2.193   1.154   0.614  1.00  0.00     0.196 HD
ATOM      9  C   UNL d   1       0.770   0.103  -0.075  0.00  0.00     0.076 A 
ATOM     10  C   UNL d   1       0.027  -1.018  -0.346  0.00  0.00     0.084 A 
ATOM     11  C   UNL d   1       2.206   0.428  -0.113  0.00  0.00     0.079 C 
ENDBRANCH   2   5
BRANCH   1  12
ATOM     12  C   UNL d   1      -4.591  -2.409   0.208  0.00  0.00     0.307 C 
ATOM     13  O   UNL d   1      -4.167  -3.493  -0.170  0.00  0.00    -0.263 OA
ATOM     14  N   UNL d   1      -5.873  -2.176   0.615  0.00  0.00    -0.362 N 
ATOM     15  H   UNL d   1      -6.130  -1.246   0.934  0.00  0.00     0.159 HD
ATOM     16  H   UNL d   1      -6.547  -2.926   0.639  0.00  0.00     0.159 HD
ENDBRANCH   1  12
TORSDOF 2
