REMARK  7 active torsions:
REMARK  status: ('A' for Active; 'I' for Inactive)
REMARK    1  A    between atoms: C_3  and  S_1 
REMARK    2  A    between atoms: C_4  and  S_1 
REMARK    3  A    between atoms: S_2  and  C_5 
REMARK    4  A    between atoms: N_14  and  S_2 
REMARK    5  A    between atoms: C_9  and  C_10 
REMARK    6  A    between atoms: C_11  and  C_22 
REMARK    7  A    between atoms: C_29  and  N_14 
ROOT
ATOM      1  C   UNL d   1       0.529   1.245  -1.255  0.00  0.00     0.107 A 
ATOM      2  C   UNL d   1       0.083   3.309  -2.549  0.00  0.00     0.116 A 
ATOM      3  S   UNL d   1       0.861   2.918  -1.074  0.00  0.00    -0.065 SA
ATOM      4  C   UNL d   1      -0.179   0.996  -2.416  0.00  0.00     0.033 A 
ATOM      5  C   UNL d   1      -0.419   2.179  -3.168  0.00  0.00     0.034 A 
ENDROOT
BRANCH   1   6
ATOM      6  S   UNL d   1       1.052   0.161   0.069  0.00  0.00     0.230 S 
ATOM      7  O   UNL d   1       0.571   0.822   1.268  0.00  0.00    -0.215 OA
ATOM      8  O   UNL d   1       0.557  -1.146  -0.329  0.00  0.00    -0.215 OA
BRANCH   6   9
ATOM      9  C   UNL d   1       2.823   0.072   0.101  0.00  0.00     0.155 A 
ATOM     10  N   UNL d   1       3.421   0.359  -1.094  0.00  0.00    -0.354 N 
ATOM     11  C   UNL d   1       4.768   0.221  -1.146  0.00  0.00     0.105 A 
ATOM     12  HN  UNL d   1       2.882   0.662  -1.905  1.00  0.00     0.166 HD
ATOM     13  C   UNL d   1       5.549  -0.177  -0.068  0.00  0.00     0.065 A 
ATOM     14  C   UNL d   1       4.895  -0.447   1.143  0.00  0.00     0.044 A 
ATOM     15  C   UNL d   1       3.506  -0.334   1.238  0.00  0.00     0.073 A 
ATOM     16 CL   UNL d   1       2.776  -0.760   2.733  0.00  0.00    -0.081 Cl
BRANCH  13  17
ATOM     17  C   UNL d   1       7.033  -0.327  -0.229  0.00  0.00     0.418 C 
ATOM     18  F   UNL d   1       7.662  -0.716   0.914  0.00  0.00    -0.166 F 
ATOM     19  F   UNL d   1       7.360  -1.252  -1.170  0.00  0.00    -0.166 F 
ATOM     20  F   UNL d   1       7.634   0.831  -0.612  0.00  0.00    -0.166 F 
ENDBRANCH  13  17
ENDBRANCH   6   9
ENDBRANCH   1   6
BRANCH   2  21
ATOM     21  S   UNL d   1       0.026   5.027  -3.029  0.00  0.00     0.252 S 
ATOM     22  O   UNL d   1       1.145   5.686  -2.391  0.00  0.00    -0.205 OA
ATOM     23  O   UNL d   1      -0.091   5.004  -4.473  0.00  0.00    -0.205 OA
BRANCH  21  24
ATOM     24  N   UNL d   1      -1.389   5.734  -2.397  0.00  0.00    -0.181 NA
ATOM     25  H   UNL d   1      -1.315   6.741  -2.549  0.00  0.00     0.146 HD
BRANCH  24  26
ATOM     26  C   UNL d   1      -2.626   5.187  -2.857  0.00  0.00     0.022 A 
ATOM     27  C   UNL d   1      -3.243   4.193  -2.101  0.00  0.00     0.025 A 
ATOM     28  C   UNL d   1      -4.421   3.595  -2.557  0.00  0.00     0.018 A 
ATOM     29  C   UNL d   1      -4.989   3.983  -3.780  0.00  0.00     0.048 A 
ATOM     30  C   UNL d   1      -4.362   4.989  -4.529  0.00  0.00     0.018 A 
ATOM     31  C   UNL d   1      -3.182   5.587  -4.074  0.00  0.00     0.025 A 
BRANCH  29  32
ATOM     32  C   UNL d   1      -6.251   3.309  -4.274  0.00  0.00     0.417 C 
ATOM     33  F   UNL d   1      -6.682   3.776  -5.479  0.00  0.00    -0.166 F 
ATOM     34  F   UNL d   1      -6.090   1.966  -4.432  0.00  0.00    -0.166 F 
ATOM     35  F   UNL d   1      -7.298   3.464  -3.418  0.00  0.00    -0.166 F 
ENDBRANCH  29  32
ENDBRANCH  24  26
ENDBRANCH  21  24
ENDBRANCH   2  21
TORSDOF 7
