REMARK  4 active torsions:
REMARK  status: ('A' for Active; 'I' for Inactive)
REMARK    1  A    between atoms: C_3  and  C_1 
REMARK    2  A    between atoms: C_2  and  C_9 
REMARK    3  A    between atoms: C_6  and  C_3 
REMARK    4  A    between atoms: C_8  and  C_4 
ROOT
ATOM      1  C   UNL d   1       1.020   0.029   0.025  0.00  0.00     0.096 C 
ATOM      2  C   UNL d   1       0.328   0.464  -1.049  0.00  0.00     0.045 C 
ATOM      3  C   UNL d   1       0.388  -0.614   1.124  0.00  0.00     0.103 C 
ATOM      4  N   UNL d   1      -0.098  -1.102   2.052  0.00  0.00    -0.191 NA
ENDROOT
BRANCH   1   5
ATOM      5  C   UNL d   1       2.518   0.121   0.042  0.00  0.00     0.202 C 
ATOM      6  O   UNL d   1       3.164   0.224  -0.998  0.00  0.00    -0.286 OA
BRANCH   5   7
ATOM      7  C   UNL d   1       3.263   0.050   1.342  0.00  0.00     0.016 A 
ATOM      8  C   UNL d   1       2.763   0.573   2.545  0.00  0.00     0.031 A 
ATOM      9  C   UNL d   1       3.513   0.500   3.733  0.00  0.00     0.048 A 
ATOM     10  C   UNL d   1       4.773  -0.116   3.705  0.00  0.00     0.016 A 
ATOM     11  C   UNL d   1       5.274  -0.646   2.516  0.00  0.00     0.002 A 
ATOM     12  C   UNL d   1       4.529  -0.551   1.339  0.00  0.00     0.015 A 
BRANCH   9  13
ATOM     13  C   UNL d   1       2.975   1.069   5.025  0.00  0.00     0.417 C 
ATOM     14  F   UNL d   1       1.739   1.627   4.892  0.00  0.00    -0.166 F 
ATOM     15  F   UNL d   1       2.862   0.131   6.003  0.00  0.00    -0.166 F 
ATOM     16  F   UNL d   1       3.771   2.050   5.533  0.00  0.00    -0.166 F 
ENDBRANCH   9  13
ENDBRANCH   5   7
ENDBRANCH   1   5
BRANCH   2  17
ATOM     17  C   UNL d   1      -1.106   0.472  -1.120  0.00  0.00     0.006 A 
ATOM     18  S   UNL d   1      -1.882   0.251  -2.646  0.00  0.00    -0.102 SA
ATOM     19  C   UNL d   1      -3.445   0.338  -1.962  0.00  0.00     0.050 A 
ATOM     20  C   UNL d   1      -3.402   0.575  -0.610  0.00  0.00     0.008 A 
ATOM     21  C   UNL d   1      -2.064   0.680  -0.135  0.00  0.00     0.019 A 
ENDBRANCH   2  17
TORSDOF 4
