REMARK  4 active torsions:
REMARK  status: ('A' for Active; 'I' for Inactive)
REMARK    1  A    between atoms: N_3  and  S_1 
REMARK    2  A    between atoms: C_9  and  S_1 
REMARK    3  A    between atoms: C_2  and  N_7 
REMARK    4  A    between atoms: C_6  and  C_8 
ROOT
ATOM      1  N   UNL d   1       0.354  -1.609   0.177  0.00  0.00    -0.205 NA
ATOM      2  N   UNL d   1      -1.136  -4.179  -0.411  0.00  0.00    -0.216 N 
ATOM      3  C   UNL d   1      -1.069  -1.679  -0.340  0.00  0.00     0.128 C 
ATOM      4  C   UNL d   1      -1.794  -2.970   0.076  0.00  0.00     0.157 C 
ATOM      5  C   UNL d   1       1.266  -3.953   0.212  0.00  0.00     0.036 C 
ATOM      6  C   UNL d   1       1.220  -2.619  -0.524  0.00  0.00     0.109 C 
ATOM      7  C   UNL d   1      -0.045  -4.716   0.380  0.00  0.00     0.142 C 
ENDROOT
BRANCH   2   8
ATOM      8  C   UNL d   1      -1.484  -4.737  -1.615  0.00  0.00     0.680 A 
ATOM      9  N   UNL d   1      -0.855  -5.853  -2.020  0.00  0.00    -0.186 N 
ATOM     10  C   UNL d   1      -1.253  -6.456  -3.173  0.00  0.00     0.133 A 
ATOM     11  HN  UNL d   1      -0.089  -6.243  -1.471  1.00  0.00     0.184 HD
ATOM     12  C   UNL d   1      -2.269  -5.935  -3.946  0.00  0.00     0.052 A 
ATOM     13  C   UNL d   1      -2.839  -4.781  -3.481  0.00  0.00     0.108 A 
ATOM     14  N   UNL d   1      -2.463  -4.174  -2.338  0.00  0.00    -0.202 N 
ATOM     15  HN  UNL d   1      -2.911  -3.311  -2.031  1.00  0.00     0.183 HD
BRANCH  10  16
ATOM     16  C   UNL d   1      -0.583  -7.745  -3.611  0.00  0.00     0.433 C 
ATOM     17  F   UNL d   1       0.386  -8.196  -2.766  0.00  0.00    -0.165 F 
ATOM     18  F   UNL d   1      -1.472  -8.775  -3.739  0.00  0.00    -0.165 F 
ATOM     19  F   UNL d   1       0.014  -7.632  -4.835  0.00  0.00    -0.165 F 
ENDBRANCH  10  16
ENDBRANCH   2   8
BRANCH   1  20
ATOM     20  S   UNL d   1       1.030  -0.016   0.055  0.00  0.00     0.243 S 
ATOM     21  O   UNL d   1       0.747   0.466  -1.281  0.00  0.00    -0.206 OA
ATOM     22  O   UNL d   1       2.386  -0.060   0.563  0.00  0.00    -0.206 OA
BRANCH  20  23
ATOM     23  C   UNL d   1       0.087   0.949   1.212  0.00  0.00     0.074 A 
ATOM     24  C   UNL d   1       0.203   0.671   2.576  0.00  0.00     0.025 A 
ATOM     25  C   UNL d   1      -0.507   1.443   3.498  0.00  0.00     0.008 A 
ATOM     26  C   UNL d   1      -1.327   2.495   3.065  0.00  0.00    -0.062 A 
ATOM     27  C   UNL d   1      -1.409   2.782   1.696  0.00  0.00     0.008 A 
ATOM     28  C   UNL d   1      -2.105   3.294   4.071  0.00  0.00     0.048 C 
ATOM     29  C   UNL d   1      -0.701   2.014   0.768  0.00  0.00     0.025 A 
ENDBRANCH  20  23
ENDBRANCH   1  20
TORSDOF 4
