REMARK  6 active torsions:
REMARK  status: ('A' for Active; 'I' for Inactive)
REMARK    1  A    between atoms: S_9  and  C_2 
REMARK    2  A    between atoms: S_10  and  C_5 
REMARK    3  A    between atoms: C_15  and  S_9 
REMARK    4  A    between atoms: C_16  and  S_10 
REMARK    5  A    between atoms: C_13  and  C_16 
REMARK    6  A    between atoms: C_14  and  C_15 
ROOT
ATOM      1  C   UNL d   1      -0.368  -1.264  -0.032  0.00  0.00     0.103 A 
ATOM      2  C   UNL d   1       0.930  -0.779  -0.029  0.00  0.00     0.082 A 
ATOM      3  N   UNL d   1      -0.806   1.049  -0.117  0.00  0.00    -0.319 N 
ATOM      4  HN  UNL d   1      -1.349   1.912  -0.149  1.00  0.00     0.175 HD
ATOM      5  C   UNL d   1      -1.303  -0.183  -0.071  0.00  0.00     0.099 A 
ATOM      6  S   UNL d   1       0.844   0.941  -0.111  0.00  0.00    -0.005 SA
ATOM      7  C   UNL d   1      -0.724  -2.642   0.023  0.00  0.00     0.104 C 
ATOM      8  N   UNL d   1      -0.957  -3.780   0.064  0.00  0.00    -0.191 NA
ENDROOT
BRANCH   2   9
ATOM      9  S   UNL d   1       2.498  -1.561   0.120  0.00  0.00    -0.112 SA
BRANCH   9  10
ATOM     10  C   UNL d   1       2.402  -3.087  -0.841  0.00  0.00     0.157 C 
BRANCH  10  11
ATOM     11  C   UNL d   1       1.998  -2.904  -2.291  0.00  0.00     0.132 C 
ATOM     12  O   UNL d   1       1.768  -1.812  -2.810  0.00  0.00    -0.298 OA
ATOM     13  C   UNL d   1       1.914  -4.173  -3.104  0.00  0.00     0.091 C 
ENDBRANCH  10  11
ENDBRANCH   9  10
ENDBRANCH   2   9
BRANCH   5  14
ATOM     14  S   UNL d   1      -3.054  -0.375   0.008  0.00  0.00    -0.103 SA
BRANCH  14  15
ATOM     15  C   UNL d   1      -3.548   0.582  -1.452  0.00  0.00     0.158 C 
BRANCH  15  16
ATOM     16  C   UNL d   1      -3.122  -0.078  -2.753  0.00  0.00     0.132 C 
ATOM     17  O   UNL d   1      -2.446  -1.106  -2.816  0.00  0.00    -0.298 OA
ATOM     18  C   UNL d   1      -3.593   0.603  -4.013  0.00  0.00     0.091 C 
ENDBRANCH  15  16
ENDBRANCH  14  15
ENDBRANCH   5  14
TORSDOF 6
