REMARK  8 active torsions:
REMARK  status: ('A' for Active; 'I' for Inactive)
REMARK    1  A    between atoms: C_13  and  N_1 
REMARK    2  A    between atoms: S_12  and  C_2 
REMARK    3  A    between atoms: C_7  and  C_9 
REMARK    4  A    between atoms: C_8  and  C_10 
REMARK    5  A    between atoms: C_11  and  C_17 
REMARK    6  A    between atoms: C_18  and  S_12 
REMARK    7  A    between atoms: C_17  and  C_18 
REMARK    8  A    between atoms: O_31  and  C_28 
ROOT
ATOM      1  C   UNL d   1       3.759  -3.903  -0.209  0.00  0.00     0.169 C 
ATOM      2  O   UNL d   1       4.758  -3.399  -0.720  0.00  0.00    -0.291 OA
ENDROOT
BRANCH   1   3
ATOM      3  C   UNL d   1       3.888  -5.280   0.373  0.00  0.00     0.012 A 
ATOM      4  C   UNL d   1       2.789  -6.000   0.855  0.00  0.00     0.031 A 
ATOM      5  C   UNL d   1       2.960  -7.271   1.435  0.00  0.00     0.049 A 
ATOM      6  C   UNL d   1       4.250  -7.823   1.507  0.00  0.00     0.032 A 
ATOM      7  C   UNL d   1       5.364  -7.121   1.023  0.00  0.00     0.049 A 
ATOM      8  C   UNL d   1       5.169  -5.852   0.452  0.00  0.00     0.031 A 
BRANCH   5   9
ATOM      9  C   UNL d   1       1.762  -8.008   1.993  0.00  0.00     0.417 C 
ATOM     10  F   UNL d   1       2.082  -9.170   2.622  0.00  0.00    -0.166 F 
ATOM     11  F   UNL d   1       1.084  -7.258   2.905  0.00  0.00    -0.166 F 
ATOM     12  F   UNL d   1       0.860  -8.332   1.028  0.00  0.00    -0.166 F 
ENDBRANCH   5   9
BRANCH   7  13
ATOM     13  C   UNL d   1       6.759  -7.694   1.128  0.00  0.00     0.417 C 
ATOM     14  F   UNL d   1       6.803  -8.892   1.771  0.00  0.00    -0.166 F 
ATOM     15  F   UNL d   1       7.332  -7.901  -0.091  0.00  0.00    -0.166 F 
ATOM     16  F   UNL d   1       7.605  -6.874   1.808  0.00  0.00    -0.166 F 
ENDBRANCH   7  13
ENDBRANCH   1   3
BRANCH   1  17
ATOM     17  C   UNL d   1       2.406  -3.213  -0.120  0.00  0.00     0.166 C 
BRANCH  17  18
ATOM     18  S   UNL d   1       2.488  -1.491  -0.693  0.00  0.00    -0.084 SA
BRANCH  18  19
ATOM     19  C   UNL d   1       0.887  -0.946  -0.315  0.00  0.00     0.177 A 
ATOM     20  N   UNL d   1       0.529   0.365  -0.023  0.00  0.00    -0.219 N 
ATOM     21  N   UNL d   1      -0.715   0.324   0.526  0.00  0.00     0.001 NA
ATOM     22  N   UNL d   1      -1.120  -0.934   0.434  0.00  0.00    -0.006 NA
ATOM     23  N   UNL d   1      -0.133  -1.738  -0.065  0.00  0.00    -0.264 N 
ATOM     24  HN  UNL d   1      -0.178  -2.746  -0.214  1.00  0.00     0.186 HD
BRANCH  20  25
ATOM     25  C   UNL d   1       1.226   1.591  -0.158  0.00  0.00     0.057 A 
ATOM     26  C   UNL d   1       2.195   1.773  -1.152  0.00  0.00     0.034 A 
ATOM     27  C   UNL d   1       2.901   2.976  -1.227  0.00  0.00     0.039 A 
ATOM     28  C   UNL d   1       2.646   3.986  -0.309  0.00  0.00     0.065 A 
ATOM     29  C   UNL d   1       1.658   3.837   0.659  0.00  0.00     0.039 A 
ATOM     30  C   UNL d   1       0.932   2.645   0.721  0.00  0.00     0.034 A 
BRANCH  28  31
ATOM     31  O   UNL d   1       3.397   5.120  -0.392  0.00  0.00    -0.361 OA
ATOM     32  H   UNL d   1       3.195   5.686   0.372  0.00  0.00     0.217 HD
ENDBRANCH  28  31
ENDBRANCH  20  25
ENDBRANCH  18  19
ENDBRANCH  17  18
ENDBRANCH   1  17
TORSDOF 8
