REMARK  1 active torsions:
REMARK  status: ('A' for Active; 'I' for Inactive)
REMARK    1  A    between atoms: C_5  and  N_1 
ROOT
ATOM      1  N   UNL d   1      -1.265  -1.393  -0.327  0.00  0.00    -0.286 N 
ATOM      2  C   UNL d   1      -0.043  -0.708  -0.146  0.00  0.00     0.022 C 
ATOM      3  C   UNL d   1      -2.498  -0.706  -0.357  0.00  0.00     0.229 C 
ATOM      4  C   UNL d   1      -0.025   0.617   0.117  0.00  0.00    -0.056 C 
ATOM      5  C   UNL d   1      -2.417   0.790  -0.531  0.00  0.00     0.108 C 
ATOM      6  O   UNL d   1      -3.610  -1.241  -0.345  0.00  0.00    -0.273 OA
ATOM      7  C   UNL d   1      -1.291   1.407   0.259  0.00  0.00     0.045 C 
ATOM      8  C   UNL d   1       1.268  -1.465  -0.306  0.00  0.00     0.058 C 
ATOM      9  C   UNL d   1       1.240   1.426   0.279  0.00  0.00     0.036 C 
ATOM     10  C   UNL d   1       2.494  -0.579  -0.533  0.00  0.00     0.006 C 
ATOM     11  C   UNL d   1       2.502   0.587   0.440  0.00  0.00     0.005 C 
ENDROOT
BRANCH   1  12
ATOM     12  C   UNL d   1      -1.337  -2.812  -0.572  0.00  0.00     0.042 A 
ATOM     13  C   UNL d   1      -2.036  -3.283  -1.695  0.00  0.00     0.030 A 
ATOM     14  C   UNL d   1      -2.065  -4.644  -1.998  0.00  0.00     0.002 A 
ATOM     15  C   UNL d   1      -1.413  -5.556  -1.174  0.00  0.00     0.000 A 
ATOM     16  C   UNL d   1      -0.740  -5.107  -0.038  0.00  0.00     0.002 A 
ATOM     17  C   UNL d   1      -0.705  -3.739   0.261  0.00  0.00     0.030 A 
ENDBRANCH   1  12
TORSDOF 1
