REMARK  7 active torsions:
REMARK  status: ('A' for Active; 'I' for Inactive)
REMARK    1  A    between atoms: O_5  and  C_1 
REMARK       I    between atoms: N_6  and  C_1 
REMARK    2  A    between atoms: N_2  and  O_5 
REMARK    3  A    between atoms: C_8  and  C_4 
REMARK    4  A    between atoms: N_15  and  C_4 
REMARK    5  A    between atoms: C_7  and  C_11 
REMARK    6  A    between atoms: C_11  and  O_14 
REMARK    7  A    between atoms: O_14  and  C_16 
ROOT
ATOM      1  C   UNL d   1      -1.023   2.486  -2.540  0.00  0.00     0.004 A 
ATOM      2  C   UNL d   1       0.085   1.956  -3.213  0.00  0.00     0.017 A 
ATOM      3  C   UNL d   1      -1.393   3.815  -2.763  0.00  0.00     0.017 A 
ATOM      4  C   UNL d   1       0.488   4.099  -4.270  0.00  0.00     0.069 A 
ATOM      5  C   UNL d   1      -0.642   4.617  -3.632  0.00  0.00     0.037 A 
ATOM      6  C   UNL d   1       0.827   2.758  -4.084  0.00  0.00     0.037 A 
ENDROOT
BRANCH   1   7
ATOM      7  C   UNL d   1      -1.760   1.640  -1.544  0.00  0.00     0.109 C 
ATOM      8  N   UNL d   1      -1.080   0.697  -0.970  0.00  0.00    -0.244 N 
ATOM      9  HN  UNL d   1      -0.105   0.497  -1.193  1.00  0.00     0.196 HD
BRANCH   8  10
ATOM     10  O   UNL d   1      -1.818  -0.026  -0.008  0.00  0.00    -0.180 OA
BRANCH  10  11
ATOM     11  C   UNL d   1      -0.985  -0.966   0.576  0.00  0.00     0.384 C 
ATOM     12  N   UNL d   1      -1.584  -1.694   1.602  0.00  0.00    -0.335 N 
ATOM     13  C   UNL d   1      -0.802  -2.705   2.291  0.00  0.00     0.154 C 
ATOM     14  C   UNL d   1      -2.954  -1.516   2.039  0.00  0.00     0.154 C 
ATOM     15  O   UNL d   1       0.181  -1.165   0.234  0.00  0.00    -0.236 OA
ENDBRANCH  10  11
ENDBRANCH   8  10
BRANCH   7  16
ATOM     16  N   UNL d   1      -3.087   1.903  -1.298  0.00  0.00    -0.286 NA
ATOM     17  H   UNL d   1      -3.544   1.134  -0.818  0.00  0.00     0.125 HD
ATOM     18  H   UNL d   1      -3.619   2.228  -2.099  0.00  0.00     0.125 HD
ENDBRANCH   7  16
ENDBRANCH   1   7
BRANCH   4  19
ATOM     19  O   UNL d   1       1.327   4.807  -5.089  0.00  0.00    -0.347 OA
BRANCH  19  20
ATOM     20  C   UNL d   1       1.377   6.218  -4.843  0.00  0.00     0.217 C 
BRANCH  20  21
ATOM     21  C   UNL d   1       2.663   6.810  -5.362  0.00  0.00     0.004 A 
ATOM     22  C   UNL d   1       3.227   7.905  -4.698  0.00  0.00     0.124 A 
ATOM     23  F   UNL d   1       2.628   8.402  -3.606  0.00  0.00    -0.205 F 
ATOM     24  C   UNL d   1       4.401   8.505  -5.145  0.00  0.00     0.043 A 
ATOM     25  C   UNL d   1       5.029   8.019  -6.289  0.00  0.00     0.003 A 
ATOM     26  C   UNL d   1       4.472   6.942  -6.980  0.00  0.00     0.001 A 
ATOM     27  C   UNL d   1       3.293   6.343  -6.524  0.00  0.00     0.012 A 
ENDBRANCH  20  21
ENDBRANCH  19  20
ENDBRANCH   4  19
TORSDOF 7
