REMARK  9 active torsions:
REMARK  status: ('A' for Active; 'I' for Inactive)
REMARK    1  A    between atoms: C_7  and  C_1 
REMARK    2  A    between atoms: C_6  and  C_2 
REMARK    3  A    between atoms: C_8  and  C_5 
REMARK       I    between atoms: N_18  and  C_7 
REMARK       I    between atoms: C_9  and  N_10 
REMARK    4  A    between atoms: N_10  and  C_12 
REMARK    5  A    between atoms: C_29  and  N_18 
REMARK    6  A    between atoms: C_22  and  O_27 
REMARK    7  A    between atoms: C_26  and  C_29 
REMARK    8  A    between atoms: C_32  and  C_26 
REMARK    9  A    between atoms: O_27  and  C_32 
ROOT
ATOM      1  C   UNL d   1       1.717   2.447  -1.111  0.00  0.00     0.254 C 
ATOM      2  O   UNL d   1       2.118   2.781  -2.220  0.00  0.00    -0.268 OA
ATOM      3  N   UNL d   1       2.352   2.853   0.036  0.00  0.00    -0.357 N 
ATOM      4  H   UNL d   1       1.985   2.614   0.947  0.00  0.00     0.162 HD
ENDROOT
BRANCH   1   5
ATOM      5  C   UNL d   1       0.535   1.595  -0.977  0.00  0.00     0.073 A 
ATOM      6  C   UNL d   1      -0.126   1.082   0.132  0.00  0.00     0.175 A 
ATOM      7  O   UNL d   1      -1.189   0.314  -0.276  0.00  0.00    -0.304 OA
ATOM      8  C   UNL d   1      -1.221   0.307  -1.637  0.00  0.00     0.087 A 
ATOM      9  C   UNL d   1      -0.193   1.090  -2.107  0.00  0.00     0.058 A 
BRANCH   6  10
ATOM     10  C   UNL d   1       0.036   1.147   1.610  0.00  0.00     0.440 C 
ATOM     11  F   UNL d   1       1.105   1.895   1.988  0.00  0.00    -0.164 F 
ATOM     12  F   UNL d   1      -1.051   1.687   2.218  0.00  0.00    -0.164 F 
ATOM     13  F   UNL d   1       0.223  -0.085   2.151  0.00  0.00    -0.164 F 
ENDBRANCH   6  10
BRANCH   8  14
ATOM     14  C   UNL d   1      -2.250  -0.516  -2.267  0.00  0.00    -0.002 A 
ATOM     15  C   UNL d   1      -2.331  -0.608  -3.666  0.00  0.00     0.016 A 
ATOM     16  C   UNL d   1      -3.260  -1.456  -4.280  0.00  0.00     0.024 A 
ATOM     17  C   UNL d   1      -4.125  -2.215  -3.498  0.00  0.00     0.034 A 
ATOM     18  C   UNL d   1      -4.084  -2.117  -2.110  0.00  0.00     0.024 A 
ATOM     19 CL   UNL d   1      -5.239  -3.290  -4.249  0.00  0.00    -0.084 Cl
ATOM     20  C   UNL d   1      -3.153  -1.270  -1.500  0.00  0.00     0.016 A 
ENDBRANCH   8  14
ENDBRANCH   1   5
BRANCH   3  21
ATOM     21  C   UNL d   1       3.502   3.742   0.009  0.00  0.00     0.125 C 
BRANCH  21  22
ATOM     22  C   UNL d   1       3.110   5.220   0.007  0.00  0.00     0.046 C 
BRANCH  22  23
ATOM     23  C   UNL d   1       2.319   5.567   1.257  0.00  0.00     0.177 C 
BRANCH  23  24
ATOM     24  O   UNL d   1       1.998   6.964   1.308  0.00  0.00    -0.351 OA
BRANCH  24  25
ATOM     25  C   UNL d   1       1.222   7.317   2.389  0.00  0.00     0.070 A 
ATOM     26  C   UNL d   1       0.821   6.421   3.383  0.00  0.00     0.066 A 
ATOM     27  C   UNL d   1      -0.018   6.792   4.429  0.00  0.00     0.037 A 
ATOM     28  C   UNL d   1      -0.410   8.128   4.519  0.00  0.00     0.029 A 
ATOM     29  C   UNL d   1       0.013   9.053   3.551  0.00  0.00     0.005 A 
ATOM     30  C   UNL d   1       0.815   8.644   2.480  0.00  0.00     0.037 A 
BRANCH  27  31
ATOM     31  N   UNL d   1      -0.489   5.851   5.376  0.00  0.00    -0.327 N 
ATOM     32  C   UNL d   1      -0.226   4.487   5.380  0.00  0.00     0.218 C 
ATOM     33  O   UNL d   1       0.477   3.857   4.589  0.00  0.00    -0.274 OA
ATOM     34  C   UNL d   1      -0.895   3.739   6.502  0.00  0.00     0.117 C 
ATOM     35  H   UNL d   1      -1.117   6.211   6.084  0.00  0.00     0.169 HD
ENDBRANCH  27  31
ENDBRANCH  24  25
ENDBRANCH  23  24
ENDBRANCH  22  23
ENDBRANCH  21  22
ENDBRANCH   3  21
TORSDOF 9
