REMARK  15 active torsions:
REMARK  status: ('A' for Active; 'I' for Inactive)
REMARK    1  A    between atoms: C_2  and  C_1 
REMARK    2  A    between atoms: C_2  and  O_11 
REMARK    3  A    between atoms: C_2  and  C_3 
REMARK    4  A    between atoms: C_7  and  C_3 
REMARK    5  A    between atoms: C_3  and  O_12 
REMARK    6  A    between atoms: C_10  and  C_7 
REMARK    7  A    between atoms: C_7  and  O_13 
REMARK    8  A    between atoms: C_10  and  O_14 
REMARK    9  A    between atoms: C_20  and  C_10 
REMARK   10  A    between atoms: C_16  and  O_11 
REMARK   11  A    between atoms: C_15  and  O_12 
REMARK   12  A    between atoms: C_17  and  O_13 
REMARK   13  A    between atoms: C_18  and  O_14 
REMARK   14  A    between atoms: C_19  and  O_21 
REMARK   15  A    between atoms: O_21  and  C_20 
ROOT
ATOM      1  C   UNL d   1      -0.385   1.038  -0.261  0.00  0.00     0.201 C 
ENDROOT
BRANCH   1   2
ATOM      2  C   UNL d   1      -0.285   0.534  -1.738  0.00  0.00     0.196 C 
BRANCH   2   3
ATOM      3  C   UNL d   1      -1.304  -0.566  -2.154  0.00  0.00     0.188 C 
BRANCH   3   4
ATOM      4  O   UNL d   1      -2.704  -0.220  -2.023  0.00  0.00    -0.311 OA
BRANCH   4   5
ATOM      5  C   UNL d   1      -3.462   0.087  -3.113  0.00  0.00     0.255 C 
ATOM      6  O   UNL d   1      -3.047   0.423  -4.213  0.00  0.00    -0.266 OA
ATOM      7  C   UNL d   1      -4.898  -0.232  -2.828  0.00  0.00     0.126 C 
ENDBRANCH   4   5
ENDBRANCH   3   4
BRANCH   3   8
ATOM      8  C   UNL d   1      -0.921  -1.222  -3.507  0.00  0.00     0.213 C 
BRANCH   8   9
ATOM      9  O   UNL d   1      -1.913  -2.164  -3.955  0.00  0.00    -0.319 OA
BRANCH   9  10
ATOM     10  C   UNL d   1      -2.021  -3.321  -3.258  0.00  0.00     0.254 C 
ATOM     11  O   UNL d   1      -1.259  -3.680  -2.373  0.00  0.00    -0.266 OA
ATOM     12  C   UNL d   1      -3.232  -4.084  -3.703  0.00  0.00     0.126 C 
ENDBRANCH   9  10
ENDBRANCH   8   9
ENDBRANCH   3   8
ENDBRANCH   2   3
BRANCH   2  13
ATOM     13  O   UNL d   1      -0.071   1.545  -2.756  0.00  0.00    -0.311 OA
BRANCH  13  14
ATOM     14  C   UNL d   1      -1.077   2.346  -3.195  0.00  0.00     0.255 C 
ATOM     15  O   UNL d   1      -2.137   2.548  -2.622  0.00  0.00    -0.266 OA
ATOM     16  C   UNL d   1      -0.718   2.961  -4.511  0.00  0.00     0.126 C 
ENDBRANCH  13  14
ENDBRANCH   2  13
ENDBRANCH   1   2
BRANCH   1  17
ATOM     17  O   UNL d   1      -1.534   1.885  -0.026  0.00  0.00    -0.310 OA
BRANCH  17  18
ATOM     18  C   UNL d   1      -1.450   3.235  -0.146  0.00  0.00     0.255 C 
ATOM     19  O   UNL d   1      -0.428   3.860  -0.402  0.00  0.00    -0.266 OA
ATOM     20  C   UNL d   1      -2.783   3.862   0.122  0.00  0.00     0.126 C 
ENDBRANCH  17  18
ENDBRANCH   1  17
BRANCH   1  21
ATOM     21  C   UNL d   1       0.993   1.569   0.244  0.00  0.00     0.233 C 
BRANCH  21  22
ATOM     22  O   UNL d   1       1.894   0.437   0.347  0.00  0.00    -0.306 OA
BRANCH  22  23
ATOM     23  C   UNL d   1       3.211   0.694   0.136  0.00  0.00     0.255 C 
ATOM     24  O   UNL d   1       3.658   1.763  -0.260  0.00  0.00    -0.266 OA
ATOM     25  C   UNL d   1       4.057  -0.493   0.489  0.00  0.00     0.126 C 
ENDBRANCH  22  23
ENDBRANCH  21  22
BRANCH  21  26
ATOM     26  C   UNL d   1       0.917   2.141   1.618  0.00  0.00     0.140 A 
ATOM     27  N   UNL d   1       0.546   1.575   2.745  0.00  0.00    -0.272 N 
ATOM     28  N   UNL d   1       0.622   2.549   3.709  0.00  0.00    -0.007 NA
ATOM     29  HN  UNL d   1       0.258   0.606   2.877  1.00  0.00     0.185 HD
ATOM     30  N   UNL d   1       1.038   3.699   3.193  0.00  0.00    -0.007 NA
ATOM     31  N   UNL d   1       1.232   3.447   1.892  0.00  0.00    -0.272 N 
ATOM     32  H   UNL d   1       1.516   4.191   1.263  0.00  0.00     0.185 HD
ENDBRANCH  21  26
ENDBRANCH   1  21
TORSDOF 15
