REMARK  6 active torsions:
REMARK  status: ('A' for Active; 'I' for Inactive)
REMARK    1  A    between atoms: C_13  and  C_2 
REMARK    2  A    between atoms: C_6  and  C_13 
REMARK    3  A    between atoms: S_18  and  C_7 
REMARK    4  A    between atoms: C_16  and  C_19 
REMARK    5  A    between atoms: C_23  and  S_18 
REMARK    6  A    between atoms: C_19  and  C_23 
ROOT
ATOM      1  N   UNL d   1       0.897  -0.017   0.179  0.00  0.00    -0.319 N 
ATOM      2  C   UNL d   1       0.062   1.022  -0.179  0.00  0.00     0.105 A 
ATOM      3  C   UNL d   1       0.092  -1.122   0.269  0.00  0.00     0.162 A 
ATOM      4  N   UNL d   1      -1.158   0.540  -0.347  0.00  0.00    -0.286 N 
ATOM      5  HN  UNL d   1      -1.975   1.074  -0.642  1.00  0.00     0.188 HD
ATOM      6  N   UNL d   1      -1.139  -0.804  -0.055  0.00  0.00    -0.278 N 
ATOM      7  HN  UNL d   1      -1.937  -1.438  -0.085  1.00  0.00     0.189 HD
ATOM      8  C   UNL d   1       2.314   0.045   0.433  0.00  0.00     0.159 C 
ENDROOT
BRANCH   2   9
ATOM      9  C   UNL d   1       0.413   2.470  -0.213  0.00  0.00     0.137 C 
BRANCH   9  10
ATOM     10  C   UNL d   1       1.397   2.827  -1.316  0.00  0.00     0.044 A 
ATOM     11  N   UNL d   1       2.648   2.887  -0.972  0.00  0.00    -0.299 N 
ATOM     12  N   UNL d   1       3.582   3.294  -1.885  0.00  0.00    -0.261 N 
ATOM     13  HN  UNL d   1       2.933   2.631  -0.027  1.00  0.00     0.187 HD
ATOM     14  C   UNL d   1       4.945   3.419  -1.407  0.00  0.00     0.181 C 
ATOM     15  C   UNL d   1       3.288   3.711  -3.179  0.00  0.00     0.272 A 
ATOM     16  C   UNL d   1       1.874   3.619  -3.588  0.00  0.00     0.046 A 
ATOM     17  O   UNL d   1       4.126   4.140  -3.967  0.00  0.00    -0.266 OA
ATOM     18  C   UNL d   1       0.920   3.164  -2.679  0.00  0.00     0.004 A 
ATOM     19  C   UNL d   1       1.503   3.998  -4.885  0.00  0.00     0.018 A 
ATOM     20  C   UNL d   1      -0.419   3.080  -3.076  0.00  0.00     0.014 A 
ATOM     21  C   UNL d   1      -0.790   3.464  -4.370  0.00  0.00     0.001 A 
ATOM     22  C   UNL d   1       0.168   3.925  -5.275  0.00  0.00     0.001 A 
ENDBRANCH   9  10
ENDBRANCH   2   9
BRANCH   3  23
ATOM     23  S   UNL d   1       0.651  -2.685   0.754  0.00  0.00    -0.085 SA
BRANCH  23  24
ATOM     24  C   UNL d   1      -0.903  -3.469   1.283  0.00  0.00     0.166 C 
BRANCH  24  25
ATOM     25  C   UNL d   1      -0.687  -4.916   1.718  0.00  0.00     0.170 C 
ATOM     26  O   UNL d   1       0.369  -5.523   1.554  0.00  0.00    -0.291 OA
BRANCH  25  27
ATOM     27  C   UNL d   1      -1.851  -5.652   2.309  0.00  0.00     0.032 A 
ATOM     28  C   UNL d   1      -1.686  -6.670   3.267  0.00  0.00     0.049 A 
ATOM     29  C   UNL d   1      -2.790  -7.420   3.703  0.00  0.00     0.048 A 
ATOM     30 CL   UNL d   1      -0.174  -7.036   4.023  0.00  0.00    -0.083 Cl
ATOM     31  C   UNL d   1      -4.058  -7.148   3.201  0.00  0.00     0.035 A 
ATOM     32  C   UNL d   1      -4.243  -6.122   2.281  0.00  0.00     0.025 A 
ATOM     33 CL   UNL d   1      -5.404  -8.085   3.716  0.00  0.00    -0.084 Cl
ATOM     34  C   UNL d   1      -3.145  -5.379   1.834  0.00  0.00     0.018 A 
ENDBRANCH  25  27
ENDBRANCH  24  25
ENDBRANCH  23  24
ENDBRANCH   3  23
TORSDOF 6
