REMARK  6 active torsions:
REMARK  status: ('A' for Active; 'I' for Inactive)
REMARK    1  A    between atoms: C_2  and  C_1 
REMARK    2  A    between atoms: O_12  and  C_1 
REMARK    3  A    between atoms: N_3  and  O_11 
REMARK    4  A    between atoms: C_6  and  C_5 
REMARK    5  A    between atoms: O_11  and  C_20 
REMARK    6  A    between atoms: C_20  and  C_14 
ROOT
ATOM      1  O   UNL d   1       1.587   3.731   6.325  0.00  0.00    -0.276 OA
ENDROOT
BRANCH   1   2
ATOM      2  N   UNL d   1       2.062   3.334   5.071  0.00  0.00    -0.270 N 
ATOM      3  C   UNL d   1       3.331   3.595   4.939  0.00  0.00     0.038 C 
ATOM      4  C   UNL d   1       4.184   4.190   6.051  0.00  0.00     0.071 C 
ATOM      5  HN  UNL d   1       1.488   2.895   4.351  1.00  0.00     0.194 HD
BRANCH   3   6
ATOM      6  C   UNL d   1       4.016   3.278   3.639  0.00  0.00    -0.012 A 
ATOM      7  C   UNL d   1       3.259   2.805   2.555  0.00  0.00     0.015 A 
ATOM      8  C   UNL d   1       3.873   2.518   1.328  0.00  0.00     0.024 A 
ATOM      9  C   UNL d   1       5.246   2.696   1.185  0.00  0.00     0.034 A 
ATOM     10  C   UNL d   1       6.014   3.154   2.253  0.00  0.00     0.024 A 
ATOM     11 CL   UNL d   1       6.002   2.350  -0.320  0.00  0.00    -0.084 Cl
ATOM     12  C   UNL d   1       5.398   3.444   3.477  0.00  0.00     0.015 A 
ENDBRANCH   3   6
ENDBRANCH   1   2
BRANCH   1  13
ATOM     13  C   UNL d   1       0.355   3.071   6.606  0.00  0.00     0.239 C 
BRANCH  13  14
ATOM     14  C   UNL d   1      -0.122   3.544   7.957  0.00  0.00    -0.031 A 
ATOM     15  C   UNL d   1      -0.192   2.662   9.046  0.00  0.00     0.027 A 
ATOM     16  C   UNL d   1      -0.617   3.121  10.302  0.00  0.00     0.038 A 
ATOM     17  C   UNL d   1      -1.000   4.457  10.464  0.00  0.00     0.018 A 
ATOM     18  C   UNL d   1      -0.935   5.340   9.384  0.00  0.00     0.002 A 
ATOM     19  C   UNL d   1      -0.492   4.886   8.142  0.00  0.00     0.009 A 
BRANCH  16  20
ATOM     20  C   UNL d   1      -0.720   2.218  11.475  0.00  0.00     0.176 C 
ATOM     21  O   UNL d   1      -1.560   2.357  12.347  0.00  0.00    -0.646 OA
BRANCH  20  22
ATOM     22  O   UNL d   1       0.227   1.256  11.509  0.00  0.00    -0.773 OA
ATOM     23  H   UNL d   1       0.951   1.371  10.867  0.00  0.00     0.167 HD
ENDBRANCH  20  22
ENDBRANCH  16  20
ENDBRANCH  13  14
ENDBRANCH   1  13
TORSDOF 6
