REMARK  4 active torsions:
REMARK  status: ('A' for Active; 'I' for Inactive)
REMARK    1  A    between atoms: N_2  and  S_1 
REMARK    2  A    between atoms: C_4  and  S_1 
REMARK       I    between atoms: C_3  and  N_5 
REMARK    3  A    between atoms: C_6  and  C_3 
REMARK    4  A    between atoms: N_5  and  C_14 
ROOT
ATOM      1  C   UNL d   1       0.610   1.692  -0.460  0.00  0.00     0.074 A 
ATOM      2  C   UNL d   1      -0.627   1.855  -1.089  0.00  0.00     0.027 A 
ATOM      3  C   UNL d   1       1.353   2.805  -0.076  0.00  0.00     0.027 A 
ATOM      4  C   UNL d   1      -0.394   4.279  -0.921  0.00  0.00     0.035 A 
ATOM      5  C   UNL d   1       0.852   4.089  -0.311  0.00  0.00     0.031 A 
ATOM      6  C   UNL d   1      -1.125   3.147  -1.314  0.00  0.00     0.031 A 
ENDROOT
BRANCH   4   7
ATOM      7  N   UNL d   1      -0.984   5.553  -1.118  0.00  0.00    -0.323 N 
ATOM      8  C   UNL d   1      -0.395   6.782  -0.856  0.00  0.00     0.256 C 
ATOM      9  O   UNL d   1       0.779   6.970  -0.551  0.00  0.00    -0.267 OA
ATOM     10  H   UNL d   1      -1.927   5.561  -1.488  0.00  0.00     0.169 HD
BRANCH   8  11
ATOM     11  C   UNL d   1      -1.297   7.973  -0.936  0.00  0.00     0.038 A 
ATOM     12  C   UNL d   1      -0.856   9.202  -1.470  0.00  0.00    -0.046 A 
ATOM     13  C   UNL d   1       0.474   9.398  -2.147  0.00  0.00     0.049 C 
ATOM     14  C   UNL d   1      -1.681  10.334  -1.337  0.00  0.00     0.007 A 
ATOM     15  C   UNL d   1      -2.931  10.245  -0.726  0.00  0.00     0.001 A 
ATOM     16  C   UNL d   1      -3.381   9.022  -0.240  0.00  0.00     0.001 A 
ATOM     17  C   UNL d   1      -2.566   7.891  -0.337  0.00  0.00     0.017 A 
ENDBRANCH   8  11
ENDBRANCH   4   7
BRANCH   1  18
ATOM     18  S   UNL d   1       1.212   0.070  -0.050  0.00  0.00     0.243 S 
ATOM     19  O   UNL d   1       1.498   0.075   1.368  0.00  0.00    -0.206 OA
ATOM     20  O   UNL d   1       0.307  -0.904  -0.623  0.00  0.00    -0.206 OA
BRANCH  18  21
ATOM     21  N   UNL d   1       2.691  -0.030  -0.889  0.00  0.00    -0.202 NA
ATOM     22  C   UNL d   1       2.624  -0.067  -2.384  0.00  0.00     0.134 C 
ATOM     23  C   UNL d   1       2.347  -1.482  -2.911  0.00  0.00     0.183 C 
ATOM     24  O   UNL d   1       3.302  -2.429  -2.408  0.00  0.00    -0.389 OA
ATOM     25  C   UNL d   1       3.274  -2.462  -0.973  0.00  0.00     0.183 C 
ATOM     26  C   UNL d   1       3.629  -1.090  -0.395  0.00  0.00     0.134 C 
ENDBRANCH  18  21
ENDBRANCH   1  18
TORSDOF 4
