REMARK  9 active torsions:
REMARK  status: ('A' for Active; 'I' for Inactive)
REMARK    1  A    between atoms: C_4  and  S_1 
REMARK    2  A    between atoms: C_11  and  S_1 
REMARK    3  A    between atoms: C_2  and  C_5 
REMARK    4  A    between atoms: C_6  and  C_3 
REMARK       I    between atoms: N_10  and  C_6 
REMARK    5  A    between atoms: C_9  and  S_28 
REMARK    6  A    between atoms: C_29  and  N_10 
REMARK    7  A    between atoms: C_30  and  C_11 
REMARK    8  A    between atoms: C_13  and  C_29 
REMARK    9  A    between atoms: S_28  and  C_30 
ROOT
ATOM      1  C   UNL d   1       0.615   6.655  -0.707  0.00  0.00     0.065 A 
ATOM      2  C   UNL d   1       1.300   5.534  -0.236  0.00  0.00     0.085 A 
ATOM      3  N   UNL d   1       2.009   5.567   0.931  0.00  0.00    -0.360 N 
ATOM      4  HN  UNL d   1       2.500   4.735   1.259  1.00  0.00     0.166 HD
ATOM      5  C   UNL d   1       0.691   7.829   0.080  0.00  0.00     0.021 A 
ATOM      6  C   UNL d   1       2.053   6.712   1.646  0.00  0.00     0.089 A 
ATOM      7  C   UNL d   1       1.415   7.865   1.264  0.00  0.00     0.018 A 
ENDROOT
BRANCH   2   8
ATOM      8  S   UNL d   1       1.439   3.976  -1.108  0.00  0.00    -0.110 SA
BRANCH   8   9
ATOM      9  C   UNL d   1       1.842   2.823   0.274  0.00  0.00     0.096 C 
BRANCH   9  10
ATOM     10  C   UNL d   1       2.437   1.532  -0.267  0.00  0.00     0.158 C 
BRANCH  10  11
ATOM     11  S   UNL d   1       2.548   0.317   1.034  0.00  0.00     0.191 S 
ATOM     12  O   UNL d   1       3.501   0.784   2.023  0.00  0.00    -0.221 OA
ATOM     13  O   UNL d   1       1.194  -0.049   1.421  0.00  0.00    -0.221 OA
BRANCH  11  14
ATOM     14  C   UNL d   1       3.264  -1.131   0.279  0.00  0.00     0.128 A 
ATOM     15  N   UNL d   1       3.636  -0.982  -1.017  0.00  0.00    -0.356 N 
ATOM     16  C   UNL d   1       4.190  -2.071  -1.603  0.00  0.00     0.105 A 
ATOM     17  HN  UNL d   1       3.507  -0.104  -1.520  1.00  0.00     0.166 HD
ATOM     18  C   UNL d   1       4.385  -3.288  -0.959  0.00  0.00     0.063 A 
ATOM     19  C   UNL d   1       3.974  -3.394   0.378  0.00  0.00     0.020 A 
ATOM     20  C   UNL d   1       3.401  -2.297   1.017  0.00  0.00     0.042 A 
BRANCH  18  21
ATOM     21  C   UNL d   1       5.016  -4.443  -1.679  0.00  0.00     0.418 C 
ATOM     22  F   UNL d   1       5.381  -4.152  -2.958  0.00  0.00    -0.166 F 
ATOM     23  F   UNL d   1       6.144  -4.887  -1.061  0.00  0.00    -0.166 F 
ATOM     24  F   UNL d   1       4.186  -5.519  -1.763  0.00  0.00    -0.166 F 
ENDBRANCH  18  21
ENDBRANCH  11  14
ENDBRANCH  10  11
ENDBRANCH   9  10
ENDBRANCH   8   9
ENDBRANCH   2   8
BRANCH   1  25
ATOM     25  C   UNL d   1      -0.206   6.808  -1.942  0.00  0.00     0.254 C 
ATOM     26  N   UNL d   1      -0.622   5.726  -2.701  0.00  0.00    -0.352 N 
ATOM     27  H   UNL d   1      -0.413   4.771  -2.432  0.00  0.00     0.163 HD
ATOM     28  O   UNL d   1      -0.573   7.945  -2.251  0.00  0.00    -0.268 OA
BRANCH  26  29
ATOM     29  C   UNL d   1      -1.643   6.009  -3.685  0.00  0.00     0.169 C 
BRANCH  29  30
ATOM     30  C   UNL d   1      -2.087   4.883  -4.560  0.00  0.00     0.000 A 
ATOM     31  S   UNL d   1      -2.000   3.236  -4.118  0.00  0.00    -0.105 SA
ATOM     32  C   UNL d   1      -2.857   2.748  -5.522  0.00  0.00     0.050 A 
ATOM     33  C   UNL d   1      -3.187   3.814  -6.327  0.00  0.00     0.008 A 
ATOM     34  C   UNL d   1      -2.725   5.042  -5.780  0.00  0.00     0.017 A 
ENDBRANCH  29  30
ENDBRANCH  26  29
ENDBRANCH   1  25
TORSDOF 9
