REMARK  0 active torsions:
REMARK  status: ('A' for Active; 'I' for Inactive)
ROOT
ATOM      1  C   UNL d   1      -0.714  -0.498  -0.001  0.00  0.00     0.002 A 
ATOM      2  C   UNL d   1      -1.170   0.845   0.002  0.00  0.00    -0.041 A 
ATOM      3  C   UNL d   1       0.743  -0.479  -0.001  0.00  0.00    -0.017 A 
ATOM      4  C   UNL d   1       1.183   0.865   0.002  0.00  0.00    -0.043 A 
ATOM      5  C   UNL d   1       0.000   1.808   0.006  0.00  0.00     0.078 A 
ATOM      6  N   UNL d   1      -0.962  -4.039  -0.014  0.00  0.00    -0.191 NA
ATOM      7  C   UNL d   1      -1.255  -2.915  -0.008  0.00  0.00     0.100 C 
ATOM      8  C   UNL d   1      -1.638  -1.537  -0.002  0.00  0.00     0.056 A 
ATOM      9  C   UNL d   1      -2.520   1.162   0.004  0.00  0.00     0.008 A 
ATOM     10  C   UNL d   1       1.673  -1.506  -0.003  0.00  0.00     0.013 A 
ATOM     11  C   UNL d   1       2.530   1.192   0.003  0.00  0.00     0.008 A 
ATOM     12  C   UNL d   1      -3.443   0.116   0.005  0.00  0.00     0.002 A 
ATOM     13  C   UNL d   1      -3.007  -1.218   0.003  0.00  0.00     0.023 A 
ATOM     14  C   UNL d   1       3.035  -1.185  -0.001  0.00  0.00     0.001 A 
ATOM     15  C   UNL d   1       3.459   0.151   0.001  0.00  0.00     0.001 A 
ENDROOT
TORSDOF 0
