REMARK  4 active torsions:
REMARK  status: ('A' for Active; 'I' for Inactive)
REMARK    1  A    between atoms: C_8  and  C_6 
REMARK    2  A    between atoms: O_14  and  C_7 
REMARK    3  A    between atoms: O_15  and  C_11 
REMARK    4  A    between atoms: C_18  and  O_15 
ROOT
ATOM      1  C   UNL d   1      -1.139  -0.960   0.651  0.00  0.00     0.045 A 
ATOM      2  C   UNL d   1       0.365  -1.000   0.575  0.00  0.00     0.257 A 
ATOM      3  N   UNL d   1       0.780   0.224   1.075  0.00  0.00    -0.322 N 
ATOM      4  C   UNL d   1      -1.509   0.326   1.253  0.00  0.00     0.006 A 
ATOM      5  C   UNL d   1      -0.303   1.001   1.477  0.00  0.00     0.046 A 
ATOM      6  C   UNL d   1      -1.870  -1.969   0.153  0.00  0.00     0.029 C 
ATOM      7  O   UNL d   1       1.062  -1.898   0.146  0.00  0.00    -0.267 OA
ATOM      8  C   UNL d   1      -2.708   0.910   1.621  0.00  0.00     0.015 A 
ATOM      9  C   UNL d   1      -0.248   2.262   2.038  0.00  0.00     0.030 A 
ATOM     10  C   UNL d   1      -2.676   2.184   2.201  0.00  0.00     0.001 A 
ATOM     11  C   UNL d   1      -1.458   2.856   2.403  0.00  0.00     0.002 A 
ATOM     12  H   UNL d   1       1.751   0.487   1.136  0.00  0.00     0.169 HD
ENDROOT
BRANCH   6  13
ATOM     13  C   UNL d   1      -3.326  -1.948   0.038  0.00  0.00    -0.032 A 
ATOM     14  C   UNL d   1      -3.904  -1.377  -1.105  0.00  0.00     0.051 A 
ATOM     15  C   UNL d   1      -5.295  -1.244  -1.230  0.00  0.00     0.102 A 
ATOM     16  C   UNL d   1      -6.117  -1.720  -0.192  0.00  0.00     0.102 A 
ATOM     17  C   UNL d   1      -5.527  -2.309   0.939  0.00  0.00     0.040 A 
ATOM     18  C   UNL d   1      -4.141  -2.424   1.059  0.00  0.00     0.014 A 
BRANCH  15  19
ATOM     19  O   UNL d   1      -5.884  -0.658  -2.318  0.00  0.00    -0.353 OA
ATOM     20  C   UNL d   1      -5.052  -0.086  -3.319  0.00  0.00     0.210 C 
ENDBRANCH  15  19
BRANCH  16  21
ATOM     21  O   UNL d   1      -7.487  -1.686  -0.103  0.00  0.00    -0.349 OA
BRANCH  21  22
ATOM     22  C   UNL d   1      -8.230  -1.124  -1.180  0.00  0.00     0.171 C 
ATOM     23  C   UNL d   1      -9.709  -1.226  -0.853  0.00  0.00     0.034 C 
ENDBRANCH  21  22
ENDBRANCH  16  21
ENDBRANCH   6  13
TORSDOF 4
