REMARK  5 active torsions:
REMARK  status: ('A' for Active; 'I' for Inactive)
REMARK    1  A    between atoms: C_7  and  N_2 
REMARK       I    between atoms: C_6  and  N_8 
REMARK    2  A    between atoms: C_11  and  C_6 
REMARK    3  A    between atoms: C_10  and  C_7 
REMARK    4  A    between atoms: N_8  and  N_13 
REMARK    5  A    between atoms: C_9  and  C_10 
REMARK       I    between atoms: N_13  and  C_9 
ROOT
ATOM      1  C   UNL d   1       3.925  -4.050  -0.073  0.00  0.00     0.237 C 
ATOM      2  N   UNL d   1       4.745  -4.588   0.895  0.00  0.00    -0.267 N 
ATOM      3  O   UNL d   1       3.477  -4.706  -1.012  0.00  0.00    -0.272 OA
ATOM      4  H   UNL d   1       4.925  -4.112   1.780  0.00  0.00     0.190 HD
ENDROOT
BRANCH   1   5
ATOM      5  C   UNL d   1       3.673  -2.568   0.086  0.00  0.00     0.125 C 
BRANCH   5   6
ATOM      6  C   UNL d   1       2.191  -2.230  -0.042  0.00  0.00     0.144 C 
BRANCH   6   7
ATOM      7  N   UNL d   1       1.316  -2.798   0.967  0.00  0.00    -0.290 N 
ATOM      8  C   UNL d   1       1.592  -3.031   2.303  0.00  0.00     0.372 A 
ATOM      9  O   UNL d   1       0.453  -3.472   2.990  0.00  0.00    -0.259 OA
ATOM     10  O   UNL d   1       2.679  -2.893   2.849  0.00  0.00    -0.237 OA
ATOM     11  C   UNL d   1      -0.520  -3.441   2.007  0.00  0.00     0.107 A 
ATOM     12  C   UNL d   1      -1.846  -3.778   2.186  0.00  0.00     0.040 A 
ATOM     13  C   UNL d   1      -0.034  -3.019   0.787  0.00  0.00     0.073 A 
ATOM     14  C   UNL d   1      -2.692  -3.670   1.078  0.00  0.00     0.003 A 
ATOM     15  C   UNL d   1      -2.198  -3.222  -0.162  0.00  0.00     0.002 A 
ATOM     16  C   UNL d   1      -0.849  -2.886  -0.317  0.00  0.00     0.033 A 
ENDBRANCH   6   7
ENDBRANCH   5   6
ENDBRANCH   1   5
BRANCH   2  17
ATOM     17  N   UNL d   1       5.008  -5.965   0.867  0.00  0.00    -0.263 N 
ATOM     18  C   UNL d   1       6.134  -6.424   1.520  0.00  0.00     0.270 C 
ATOM     19  O   UNL d   1       6.922  -5.691   2.117  0.00  0.00    -0.266 OA
ATOM     20  H   UNL d   1       4.547  -6.497   0.129  0.00  0.00     0.190 HD
BRANCH  18  21
ATOM     21  C   UNL d   1       6.363  -7.892   1.504  0.00  0.00     0.035 A 
ATOM     22  C   UNL d   1       5.290  -8.786   1.578  0.00  0.00     0.041 A 
ATOM     23  C   UNL d   1       5.543 -10.153   1.710  0.00  0.00     0.035 A 
ATOM     24 CL   UNL d   1       4.225 -11.248   1.868  0.00  0.00    -0.084 Cl
ATOM     25  C   UNL d   1       6.851 -10.636   1.751  0.00  0.00     0.024 A 
ATOM     26  C   UNL d   1       7.921  -9.747   1.659  0.00  0.00     0.003 A 
ATOM     27  C   UNL d   1       7.679  -8.376   1.545  0.00  0.00     0.017 A 
ENDBRANCH  18  21
ENDBRANCH   2  17
TORSDOF 5
