REMARK  3 active torsions:
REMARK  status: ('A' for Active; 'I' for Inactive)
REMARK    1  A    between atoms: C_7  and  C_1 
REMARK    2  A    between atoms: C_8  and  C_2 
REMARK    3  A    between atoms: O_10  and  C_7 
ROOT
ATOM      1  C   UNL d   1       0.057  -1.362  -0.073  0.00  0.00     0.098 A 
ATOM      2  C   UNL d   1      -1.262  -0.951  -0.030  0.00  0.00     0.128 A 
ATOM      3  O   UNL d   1      -1.301   0.412  -0.042  0.00  0.00    -0.236 OA
ATOM      4  N   UNL d   1      -0.018   0.920  -0.048  0.00  0.00    -0.264 N 
ATOM      5  HN  UNL d   1       0.255   1.903  -0.059  1.00  0.00     0.194 HD
ATOM      6  C   UNL d   1       0.793  -0.143  -0.036  0.00  0.00     0.048 A 
ATOM      7  C   UNL d   1       2.264   0.043  -0.016  0.00  0.00     0.071 C 
ENDROOT
BRANCH   2   8
ATOM      8  C   UNL d   1      -2.562  -1.606   0.045  0.00  0.00     0.001 A 
ATOM      9  C   UNL d   1      -2.725  -2.795   0.773  0.00  0.00     0.014 A 
ATOM     10  C   UNL d   1      -3.949  -3.466   0.780  0.00  0.00     0.001 A 
ATOM     11  C   UNL d   1      -5.034  -2.943   0.082  0.00  0.00     0.000 A 
ATOM     12  C   UNL d   1      -4.899  -1.744  -0.614  0.00  0.00     0.001 A 
ATOM     13  C   UNL d   1      -3.670  -1.079  -0.632  0.00  0.00     0.014 A 
ENDBRANCH   2   8
BRANCH   1  14
ATOM     14  C   UNL d   1       0.597  -2.701  -0.115  0.00  0.00     0.181 C 
ATOM     15  O   UNL d   1       1.693  -2.989   0.346  0.00  0.00    -0.646 OA
BRANCH  14  16
ATOM     16  O   UNL d   1      -0.164  -3.630  -0.744  0.00  0.00    -0.773 OA
ATOM     17  H   UNL d   1      -0.970  -3.273  -1.165  0.00  0.00     0.167 HD
ENDBRANCH  14  16
ENDBRANCH   1  14
TORSDOF 3
