REMARK  4 active torsions:
REMARK  status: ('A' for Active; 'I' for Inactive)
REMARK    1  A    between atoms: N_2  and  S_1 
REMARK    2  A    between atoms: C_7  and  S_1 
REMARK    3  A    between atoms: C_8  and  N_2 
REMARK    4  A    between atoms: C_3  and  C_8 
ROOT
ATOM      1  S   UNL d   1       0.939   0.107  -0.059  0.00  0.00     0.241 S 
ATOM      2  O   UNL d   1       0.483  -0.726   1.032  0.00  0.00    -0.206 OA
ATOM      3  O   UNL d   1       0.534   1.490  -0.182  0.00  0.00    -0.206 OA
ENDROOT
BRANCH   1   4
ATOM      4  N   UNL d   1       0.554  -0.649  -1.519  0.00  0.00    -0.211 NA
ATOM      5  H   UNL d   1       1.166  -0.343  -2.275  0.00  0.00     0.140 HD
BRANCH   4   6
ATOM      6  C   UNL d   1       0.414  -2.110  -1.455  0.00  0.00     0.150 C 
BRANCH   6   7
ATOM      7  C   UNL d   1       0.016  -2.604  -2.816  0.00  0.00    -0.004 A 
ATOM      8  S   UNL d   1       1.009  -3.724  -3.651  0.00  0.00    -0.105 SA
ATOM      9  C   UNL d   1      -0.091  -3.829  -4.955  0.00  0.00     0.050 A 
ATOM     10  C   UNL d   1      -1.185  -3.013  -4.775  0.00  0.00     0.008 A 
ATOM     11  C   UNL d   1      -1.122  -2.302  -3.541  0.00  0.00     0.016 A 
ENDBRANCH   6   7
ENDBRANCH   4   6
ENDBRANCH   1   4
BRANCH   1  12
ATOM     12  C   UNL d   1       2.720   0.086  -0.065  0.00  0.00     0.074 A 
ATOM     13  C   UNL d   1       3.413   1.170  -0.615  0.00  0.00     0.025 A 
ATOM     14  C   UNL d   1       4.805   1.211  -0.539  0.00  0.00     0.002 A 
ATOM     15  C   UNL d   1       5.499   0.175   0.088  0.00  0.00     0.000 A 
ATOM     16  C   UNL d   1       4.806  -0.903   0.641  0.00  0.00     0.002 A 
ATOM     17  C   UNL d   1       3.412  -0.949   0.573  0.00  0.00     0.025 A 
ENDBRANCH   1  12
TORSDOF 4
