REMARK  0 active torsions:
REMARK  status: ('A' for Active; 'I' for Inactive)
ROOT
ATOM      1  N   UNL d   1       0.889   0.518   0.003  0.00  0.00    -0.090 N 
ATOM      2  C   UNL d   1       1.629  -0.614   0.005  0.00  0.00     0.722 A 
ATOM      3  C   UNL d   1       1.775   1.558   0.001  0.00  0.00     0.360 A 
ATOM      4  N   UNL d   1       1.058  -1.860   0.006  0.00  0.00    -0.130 N 
ATOM      5  HN  UNL d   1       1.650  -2.691   0.008  1.00  0.00     0.205 HD
ATOM      6  N   UNL d   1       2.918  -0.415   0.004  0.00  0.00    -0.126 N 
ATOM      7  HN  UNL d   1       3.664  -1.111   0.005  1.00  0.00     0.206 HD
ATOM      8  N   UNL d   1      -0.197  -1.984   0.006  0.00  0.00    -0.284 N 
ATOM      9  HN  UNL d   1      -0.617  -2.914   0.008  1.00  0.00     0.187 HD
ATOM     10  C   UNL d   1      -0.493   0.463   0.001  0.00  0.00     0.090 A 
ATOM     11  C   UNL d   1      -1.023  -0.836   0.003  0.00  0.00     0.078 A 
ATOM     12  N   UNL d   1       3.036   0.955   0.002  0.00  0.00    -0.236 N 
ATOM     13  C   UNL d   1      -2.410  -1.001   0.001  0.00  0.00     0.057 A 
ATOM     14  C   UNL d   1      -1.325   1.583  -0.002  0.00  0.00     0.035 A 
ATOM     15  O   UNL d   1       1.565   2.759  -0.000  0.00  0.00    -0.244 OA
ATOM     16  C   UNL d   1      -3.245   0.116  -0.004  0.00  0.00     0.036 A 
ATOM     17  C   UNL d   1      -2.709   1.404  -0.005  0.00  0.00     0.026 A 
ATOM     18 CL   UNL d   1      -4.952  -0.099  -0.007  0.00  0.00    -0.084 Cl
ATOM     19  H   UNL d   1       3.929   1.430   0.000  0.00  0.00     0.192 HD
ENDROOT
TORSDOF 0
