REMARK  6 active torsions:
REMARK  status: ('A' for Active; 'I' for Inactive)
REMARK    1  A    between atoms: C_4  and  S_1 
REMARK    2  A    between atoms: O_5  and  S_1 
REMARK    3  A    between atoms: S_2  and  C_3 
REMARK    4  A    between atoms: O_6  and  S_2 
REMARK    5  A    between atoms: C_8  and  O_5 
REMARK    6  A    between atoms: C_9  and  O_6 
ROOT
ATOM      1  C   UNL d   1      -1.211  -2.634  -2.174  0.00  0.00     0.088 A 
ATOM      2  C   UNL d   1       0.281  -1.438  -0.708  0.00  0.00     0.088 A 
ATOM      3  C   UNL d   1      -0.776  -1.423  -1.624  0.00  0.00     0.051 A 
ATOM      4  C   UNL d   1      -0.603  -3.842  -1.812  0.00  0.00     0.026 A 
ATOM      5  C   UNL d   1       0.887  -2.642  -0.331  0.00  0.00     0.026 A 
ATOM      6  C   UNL d   1       0.442  -3.843  -0.886  0.00  0.00     0.003 A 
ENDROOT
BRANCH   1   7
ATOM      7  S   UNL d   1      -2.422  -2.623  -3.485  0.00  0.00     0.303 S 
ATOM      8  O   UNL d   1      -2.343  -1.313  -4.103  0.00  0.00    -0.193 OA
ATOM      9  O   UNL d   1      -2.191  -3.822  -4.270  0.00  0.00    -0.193 OA
BRANCH   7  10
ATOM     10  O   UNL d   1      -3.859  -2.762  -2.721  0.00  0.00    -0.229 OA
BRANCH  10  11
ATOM     11  C   UNL d   1      -5.040  -2.866  -3.422  0.00  0.00     0.092 A 
ATOM     12  C   UNL d   1      -5.163  -2.749  -4.810  0.00  0.00     0.062 A 
ATOM     13  C   UNL d   1      -6.414  -2.884  -5.415  0.00  0.00     0.038 A 
ATOM     14 CL   UNL d   1      -6.547  -2.746  -7.126  0.00  0.00    -0.084 Cl
ATOM     15  C   UNL d   1      -7.552  -3.131  -4.655  0.00  0.00     0.048 A 
ATOM     16  C   UNL d   1      -7.429  -3.240  -3.272  0.00  0.00     0.038 A 
ATOM     17  C   UNL d   1      -6.184  -3.106  -2.653  0.00  0.00     0.062 A 
ATOM     18 CL   UNL d   1      -8.829  -3.547  -2.320  0.00  0.00    -0.084 Cl
ENDBRANCH  10  11
ENDBRANCH   7  10
ENDBRANCH   1   7
BRANCH   2  19
ATOM     19  S   UNL d   1       0.856   0.094   0.004  0.00  0.00     0.303 S 
ATOM     20  O   UNL d   1       1.484  -0.238   1.269  0.00  0.00    -0.193 OA
ATOM     21  O   UNL d   1      -0.256   1.023  -0.053  0.00  0.00    -0.193 OA
BRANCH  19  22
ATOM     22  O   UNL d   1       2.004   0.571  -1.051  0.00  0.00    -0.229 OA
BRANCH  22  23
ATOM     23  C   UNL d   1       2.766   1.698  -0.865  0.00  0.00     0.092 A 
ATOM     24  C   UNL d   1       2.600   2.633   0.157  0.00  0.00     0.062 A 
ATOM     25  C   UNL d   1       3.450   3.742   0.224  0.00  0.00     0.038 A 
ATOM     26 CL   UNL d   1       3.244   4.896   1.485  0.00  0.00    -0.084 Cl
ATOM     27  C   UNL d   1       4.461   3.930  -0.715  0.00  0.00     0.048 A 
ATOM     28  C   UNL d   1       4.619   2.995  -1.732  0.00  0.00     0.038 A 
ATOM     29  C   UNL d   1       3.778   1.885  -1.812  0.00  0.00     0.062 A 
ATOM     30 CL   UNL d   1       5.863   3.208  -2.901  0.00  0.00    -0.084 Cl
ENDBRANCH  22  23
ENDBRANCH  19  22
ENDBRANCH   2  19
TORSDOF 6
