REMARK  2 active torsions:
REMARK  status: ('A' for Active; 'I' for Inactive)
REMARK    1  A    between atoms: S_2  and  C_1 
REMARK    2  A    between atoms: N_7  and  S_2 
ROOT
ATOM      1  C   UNL d   1      -1.269  -3.890  -1.403  0.00  0.00     0.122 A 
ATOM      2  C   UNL d   1      -1.875  -3.384  -2.599  0.00  0.00     0.064 A 
ATOM      3  C   UNL d   1      -1.320  -5.267  -1.387  0.00  0.00     0.100 A 
ATOM      4  S   UNL d   1      -2.093  -5.939  -2.740  0.00  0.00    -0.063 SA
ATOM      5  C   UNL d   1      -2.364  -4.399  -3.387  0.00  0.00     0.095 A 
ATOM      6 BR   UNL d   1      -2.014  -1.560  -3.096  0.00  0.00    -0.047 Br
ATOM      7 CL   UNL d   1      -0.719  -6.372  -0.206  0.00  0.00    -0.074 Cl
ATOM      8 CL   UNL d   1      -3.188  -4.286  -4.895  0.00  0.00    -0.075 Cl
ENDROOT
BRANCH   1   9
ATOM      9  S   UNL d   1      -0.525  -3.004  -0.121  0.00  0.00     0.247 S 
ATOM     10  O   UNL d   1       0.825  -3.524  -0.092  0.00  0.00    -0.206 OA
ATOM     11  O   UNL d   1      -0.779  -1.605  -0.359  0.00  0.00    -0.206 OA
BRANCH   9  12
ATOM     12  N   UNL d   1      -1.308  -3.421   1.336  0.00  0.00    -0.206 NA
ATOM     13  C   UNL d   1      -2.681  -2.882   1.510  0.00  0.00     0.107 C 
ATOM     14  C   UNL d   1      -2.502  -1.676   2.414  0.00  0.00     0.017 C 
ATOM     15  C   UNL d   1      -1.414  -2.119   3.371  0.00  0.00     0.017 C 
ATOM     16  C   UNL d   1      -0.539  -3.076   2.567  0.00  0.00     0.107 C 
ENDBRANCH   9  12
ENDBRANCH   1   9
TORSDOF 2
