REMARK  11 active torsions:
REMARK  status: ('A' for Active; 'I' for Inactive)
REMARK    1  A    between atoms: C_5  and  O_7 
REMARK    2  A    between atoms: C_12  and  C_5 
REMARK    3  A    between atoms: O_7  and  C_13 
REMARK    4  A    between atoms: C_23  and  C_19 
REMARK    5  A    between atoms: C_24  and  C_22 
REMARK    6  A    between atoms: C_25  and  C_23 
REMARK    7  A    between atoms: C_27  and  C_24 
REMARK    8  A    between atoms: C_30  and  C_25 
REMARK    9  A    between atoms: C_26  and  C_30 
REMARK   10  A    between atoms: C_29  and  C_27 
REMARK   11  A    between atoms: C_28  and  C_29 
ROOT
ATOM      1  C   UNL d   1       1.149   0.906  -0.019  0.00  0.00    -0.040 A 
ATOM      2  C   UNL d   1      -1.224   0.974  -0.007  0.00  0.00    -0.042 A 
ATOM      3  C   UNL d   1       0.637  -0.409  -0.023  0.00  0.00    -0.019 A 
ATOM      4  C   UNL d   1      -0.805  -0.368  -0.018  0.00  0.00    -0.019 A 
ATOM      5  C   UNL d   1      -0.011   1.895  -0.024  0.00  0.00     0.078 A 
ATOM      6  C   UNL d   1       1.482  -1.503  -0.005  0.00  0.00     0.015 A 
ATOM      7  C   UNL d   1      -1.721  -1.408  -0.021  0.00  0.00     0.013 A 
ATOM      8  C   UNL d   1       2.526   1.130  -0.008  0.00  0.00     0.045 A 
ATOM      9  C   UNL d   1      -2.575   1.291   0.026  0.00  0.00     0.015 A 
ATOM     10  C   UNL d   1       3.383   0.017   0.014  0.00  0.00     0.079 A 
ATOM     11  C   UNL d   1       2.860  -1.287   0.011  0.00  0.00     0.038 A 
ATOM     12  C   UNL d   1      -3.079  -1.098  -0.000  0.00  0.00     0.008 A 
ATOM     13  C   UNL d   1      -3.516   0.241   0.024  0.00  0.00    -0.058 A 
ENDROOT
BRANCH  10  14
ATOM     14  O   UNL d   1       4.794   0.284   0.005  0.00  0.00    -0.279 OA
BRANCH  14  15
ATOM     15  C   UNL d   1       5.822  -0.673   0.073  0.00  0.00     0.268 C 
ATOM     16  O   UNL d   1       5.660  -1.892   0.210  0.00  0.00    -0.264 OA
BRANCH  15  17
ATOM     17  C   UNL d   1       7.209  -0.072  -0.167  0.00  0.00     0.086 C 
ATOM     18  C   UNL d   1       7.319   1.453  -0.098  0.00  0.00     0.015 C 
ATOM     19  C   UNL d   1       8.733   1.907  -0.481  0.00  0.00     0.005 C 
ATOM     20  C   UNL d   1       9.841   1.267   0.377  0.00  0.00    -0.014 C 
ATOM     21  C   UNL d   1       9.684  -0.263   0.357  0.00  0.00     0.005 C 
ATOM     22  C   UNL d   1       8.274  -0.729   0.734  0.00  0.00     0.015 C 
BRANCH  20  23
ATOM     23  C   UNL d   1       9.883   1.861   1.803  0.00  0.00     0.004 C 
BRANCH  23  24
ATOM     24  C   UNL d   1      11.093   1.377   2.613  0.00  0.00     0.000 C 
BRANCH  24  25
ATOM     25  C   UNL d   1      11.129   1.983   4.017  0.00  0.00    -0.000 C 
BRANCH  25  26
ATOM     26  C   UNL d   1      12.326   1.448   4.806  0.00  0.00    -0.005 C 
ATOM     27  C   UNL d   1      12.376   2.027   6.210  0.00  0.00     0.005 C 
ENDBRANCH  25  26
ENDBRANCH  24  25
ENDBRANCH  23  24
ENDBRANCH  20  23
ENDBRANCH  15  17
ENDBRANCH  14  15
ENDBRANCH  10  14
BRANCH  13  28
ATOM     28  C   UNL d   1      -4.998   0.523   0.040  0.00  0.00     0.038 C 
BRANCH  28  29
ATOM     29  C   UNL d   1      -5.428   1.296  -1.201  0.00  0.00     0.005 C 
BRANCH  29  30
ATOM     30  C   UNL d   1      -6.928   1.567  -1.205  0.00  0.00    -0.000 C 
BRANCH  30  31
ATOM     31  C   UNL d   1      -7.304   2.371  -2.446  0.00  0.00    -0.005 C 
ATOM     32  C   UNL d   1      -8.790   2.670  -2.486  0.00  0.00     0.005 C 
ENDBRANCH  30  31
ENDBRANCH  29  30
ENDBRANCH  28  29
ENDBRANCH  13  28
TORSDOF 11
