REMARK  7 active torsions:
REMARK  status: ('A' for Active; 'I' for Inactive)
REMARK    1  A    between atoms: C_6  and  C_1 
REMARK    2  A    between atoms: C_16  and  C_3 
REMARK    3  A    between atoms: S_17  and  C_5 
REMARK    4  A    between atoms: S_15  and  C_9 
REMARK    5  A    between atoms: C_14  and  C_18 
REMARK    6  A    between atoms: C_20  and  C_14 
REMARK    7  A    between atoms: C_18  and  S_15 
ROOT
ATOM      1  C   UNL d   1       1.214  -1.307   0.032  0.00  0.00     0.045 A 
ATOM      2  C   UNL d   1      -0.218   0.418  -0.677  0.00  0.00     0.080 A 
ATOM      3  C   UNL d   1       0.681  -0.646  -1.083  0.00  0.00     0.016 A 
ATOM      4  S   UNL d   1       0.596  -0.642   1.497  0.00  0.00    -0.079 SA
ATOM      5  C   UNL d   1      -0.341   0.526   0.691  0.00  0.00     0.063 A 
ATOM      6  C   UNL d   1      -0.910   1.295  -1.578  0.00  0.00     0.102 C 
ATOM      7  N   UNL d   1      -1.508   1.985  -2.298  0.00  0.00    -0.191 NA
ENDROOT
BRANCH   3   8
ATOM      8  C   UNL d   1       1.018  -1.005  -2.475  0.00  0.00    -0.023 A 
ATOM      9  C   UNL d   1       2.346  -1.213  -2.879  0.00  0.00     0.012 A 
ATOM     10  C   UNL d   1       2.646  -1.614  -4.184  0.00  0.00     0.001 A 
ATOM     11  C   UNL d   1       1.628  -1.753  -5.123  0.00  0.00     0.000 A 
ATOM     12  C   UNL d   1       0.310  -1.500  -4.755  0.00  0.00     0.001 A 
ATOM     13  C   UNL d   1       0.005  -1.145  -3.437  0.00  0.00     0.012 A 
ENDBRANCH   3   8
BRANCH   5  14
ATOM     14  S   UNL d   1      -1.263   1.708   1.622  0.00  0.00    -0.126 SA
ATOM     15  C   UNL d   1      -2.953   1.124   1.349  0.00  0.00     0.096 C 
ENDBRANCH   5  14
BRANCH   1  16
ATOM     16  C   UNL d   1       2.149  -2.447   0.137  0.00  0.00     0.053 A 
ATOM     17  N   UNL d   1       2.026  -3.364  -0.838  0.00  0.00    -0.336 N 
ATOM     18  C   UNL d   1       2.901  -4.375  -0.845  0.00  0.00     0.144 A 
ATOM     19  HN  UNL d   1       1.293  -3.291  -1.544  1.00  0.00     0.168 HD
ATOM     20  N   UNL d   1       3.873  -4.557   0.066  0.00  0.00    -0.347 N 
ATOM     21  C   UNL d   1       3.949  -3.636   1.041  0.00  0.00     0.092 A 
ATOM     22  HN  UNL d   1       4.516  -5.347   0.019  1.00  0.00     0.167 HD
ATOM     23  C   UNL d   1       3.116  -2.546   1.120  0.00  0.00     0.048 A 
BRANCH  18  24
ATOM     24  S   UNL d   1       2.846  -5.466  -2.244  0.00  0.00    -0.086 SA
BRANCH  24  25
ATOM     25  C   UNL d   1       3.325  -7.008  -1.414  0.00  0.00     0.166 C 
BRANCH  25  26
ATOM     26  C   UNL d   1       2.346  -7.382  -0.313  0.00  0.00     0.169 C 
ATOM     27  O   UNL d   1       1.147  -7.104  -0.362  0.00  0.00    -0.291 OA
BRANCH  26  28
ATOM     28  C   UNL d   1       2.840  -8.160   0.863  0.00  0.00     0.010 A 
ATOM     29  C   UNL d   1       4.115  -8.738   0.914  0.00  0.00     0.015 A 
ATOM     30  C   UNL d   1       4.514  -9.459   2.043  0.00  0.00     0.001 A 
ATOM     31  C   UNL d   1       3.643  -9.616   3.120  0.00  0.00     0.000 A 
ATOM     32  C   UNL d   1       2.370  -9.053   3.074  0.00  0.00     0.001 A 
ATOM     33  C   UNL d   1       1.971  -8.328   1.951  0.00  0.00     0.015 A 
ENDBRANCH  26  28
ENDBRANCH  25  26
ENDBRANCH  24  25
ENDBRANCH  18  24
ENDBRANCH   1  16
TORSDOF 7
