REMARK  4 active torsions:
REMARK  status: ('A' for Active; 'I' for Inactive)
REMARK    1  A    between atoms: C_17  and  N_2 
REMARK       I    between atoms: C_3  and  N_11 
REMARK       I    between atoms: N_4  and  C_3 
REMARK    2  A    between atoms: C_5  and  N_4 
REMARK    3  A    between atoms: N_11  and  C_20 
REMARK    4  A    between atoms: C_20  and  C_17 
ROOT
ATOM      1  C   UNL d   1      -3.588  -3.801  -1.455  0.00  0.00     0.320 C 
ATOM      2  N   UNL d   1      -4.002  -4.806  -2.276  0.00  0.00    -0.306 N 
ATOM      3  O   UNL d   1      -4.431  -3.025  -1.008  0.00  0.00    -0.247 OA
ATOM      4  N   UNL d   1      -2.257  -3.618  -1.279  0.00  0.00    -0.341 N 
ATOM      5  H   UNL d   1      -4.973  -4.664  -2.521  0.00  0.00     0.171 HD
ATOM      6  H   UNL d   1      -1.631  -4.379  -1.487  0.00  0.00     0.164 HD
ENDROOT
BRANCH   4   7
ATOM      7  C   UNL d   1      -1.683  -2.446  -0.645  0.00  0.00     0.144 C 
BRANCH   7   8
ATOM      8  C   UNL d   1      -1.017  -2.772   0.694  0.00  0.00     0.147 C 
BRANCH   8   9
ATOM      9  N   UNL d   1      -0.408  -1.610   1.317  0.00  0.00    -0.331 N 
ATOM     10  C   UNL d   1       0.862  -1.139   0.994  0.00  0.00     0.318 C 
ATOM     11  N   UNL d   1       1.012   0.100   1.601  0.00  0.00    -0.341 N 
ATOM     12  O   UNL d   1       1.702  -1.685   0.301  0.00  0.00    -0.247 OA
ATOM     13  C   UNL d   1      -0.100   0.380   2.469  0.00  0.00     0.144 C 
ATOM     14  H   UNL d   1       1.922   0.542   1.625  0.00  0.00     0.164 HD
ATOM     15  C   UNL d   1      -1.178  -0.572   1.966  0.00  0.00     0.147 C 
ENDBRANCH   8   9
ENDBRANCH   7   8
ENDBRANCH   4   7
BRANCH   2  16
ATOM     16  C   UNL d   1      -3.327  -5.847  -2.948  0.00  0.00     0.075 A 
ATOM     17  C   UNL d   1      -2.111  -6.418  -2.551  0.00  0.00     0.146 A 
ATOM     18  C   UNL d   1      -1.496  -7.419  -3.299  0.00  0.00     0.086 A 
ATOM     19  F   UNL d   1      -1.512  -6.047  -1.410  0.00  0.00    -0.204 F 
ATOM     20  C   UNL d   1      -2.108  -7.868  -4.457  0.00  0.00     0.119 A 
ATOM     21  C   UNL d   1      -3.334  -7.353  -4.860  0.00  0.00     0.044 A 
ATOM     22  F   UNL d   1      -1.514  -8.814  -5.194  0.00  0.00    -0.206 F 
ATOM     23  C   UNL d   1      -3.951  -6.357  -4.097  0.00  0.00     0.036 A 
ENDBRANCH   2  16
TORSDOF 4
