REMARK  7 active torsions:
REMARK  status: ('A' for Active; 'I' for Inactive)
REMARK    1  A    between atoms: S_8  and  C_1 
REMARK    2  A    between atoms: C_7  and  C_13 
REMARK       I    between atoms: N_10  and  C_7 
REMARK    3  A    between atoms: C_13  and  S_8 
REMARK    4  A    between atoms: C_9  and  C_14 
REMARK    5  A    between atoms: O_15  and  C_9 
REMARK    6  A    between atoms: C_14  and  N_10 
REMARK    7  A    between atoms: C_18  and  O_15 
ROOT
ATOM      1  S   UNL d   1      -3.976  -0.639   1.479  0.00  0.00    -0.096 SA
ENDROOT
BRANCH   1   2
ATOM      2  C   UNL d   1      -3.619  -2.350   1.378  0.00  0.00     0.113 A 
ATOM      3  N   UNL d   1      -4.049  -3.087   0.380  0.00  0.00    -0.344 N 
ATOM      4  C   UNL d   1      -3.740  -4.416   0.614  0.00  0.00     0.050 A 
ATOM      5  HN  UNL d   1      -4.538  -2.733  -0.443  1.00  0.00     0.167 HD
ATOM      6  C   UNL d   1      -4.120  -5.499  -0.204  0.00  0.00     0.031 A 
ATOM      7  C   UNL d   1      -3.018  -4.667   1.780  0.00  0.00     0.034 A 
ATOM      8  C   UNL d   1      -3.774  -6.801   0.164  0.00  0.00     0.002 A 
ATOM      9  C   UNL d   1      -3.040  -7.029   1.325  0.00  0.00     0.002 A 
ATOM     10  C   UNL d   1      -2.645  -5.970   2.149  0.00  0.00     0.021 A 
ATOM     11  S   UNL d   1      -2.732  -3.174   2.588  0.00  0.00    -0.063 SA
ENDBRANCH   1   2
BRANCH   1  12
ATOM     12  C   UNL d   1      -4.858  -0.333  -0.078  0.00  0.00     0.184 C 
BRANCH  12  13
ATOM     13  C   UNL d   1      -6.301  -0.813  -0.019  0.00  0.00     0.227 C 
ATOM     14  N   UNL d   1      -6.469  -2.155  -0.245  0.00  0.00    -0.351 N 
ATOM     15  H   UNL d   1      -5.630  -2.732  -0.300  0.00  0.00     0.163 HD
ATOM     16  O   UNL d   1      -7.241  -0.048   0.184  0.00  0.00    -0.273 OA
BRANCH  14  17
ATOM     17  C   UNL d   1      -7.750  -2.839  -0.182  0.00  0.00     0.233 C 
BRANCH  17  18
ATOM     18  C   UNL d   1      -7.995  -3.806  -1.335  0.00  0.00     0.276 C 
ATOM     19  O   UNL d   1      -9.008  -4.490  -1.435  0.00  0.00    -0.263 OA
BRANCH  18  20
ATOM     20  O   UNL d   1      -6.957  -3.826  -2.221  0.00  0.00    -0.321 OA
BRANCH  20  21
ATOM     21  C   UNL d   1      -7.128  -4.677  -3.365  0.00  0.00     0.174 C 
ATOM     22  C   UNL d   1      -7.941  -3.969  -4.433  0.00  0.00     0.034 C 
ENDBRANCH  20  21
ENDBRANCH  18  20
ENDBRANCH  17  18
ENDBRANCH  14  17
ENDBRANCH  12  13
ENDBRANCH   1  12
TORSDOF 7
