REMARK  2 active torsions:
REMARK  status: ('A' for Active; 'I' for Inactive)
REMARK    1  A    between atoms: N_16  and  C_11 
REMARK    2  A    between atoms: C_20  and  N_16 
ROOT
ATOM      1  C   UNL d   1       0.003  -0.724  -0.048  0.00  0.00     0.135 A 
ATOM      2  C   UNL d   1      -0.011   0.633   0.005  0.00  0.00     0.128 A 
ATOM      3  N   UNL d   1       1.236  -1.389  -0.029  0.00  0.00    -0.288 N 
ATOM      4  N   UNL d   1       2.427   0.651   0.005  0.00  0.00    -0.270 N 
ATOM      5  N   UNL d   1      -1.238  -1.422  -0.102  0.00  0.00    -0.303 N 
ATOM      6  C   UNL d   1       2.465  -0.720  -0.064  0.00  0.00     0.332 A 
ATOM      7  C   UNL d   1       1.268   1.383   0.065  0.00  0.00     0.269 A 
ATOM      8  C   UNL d   1      -2.465   0.585  -0.308  0.00  0.00     0.099 C 
ATOM      9  C   UNL d   1      -2.465  -0.803   0.133  0.00  0.00     0.264 C 
ATOM     10  C   UNL d   1      -1.286   1.402  -0.059  0.00  0.00     0.208 C 
ATOM     11  C   UNL d   1      -3.403   0.974  -1.187  0.00  0.00     0.109 C 
ATOM     12  O   UNL d   1       3.536  -1.331  -0.139  0.00  0.00    -0.246 OA
ATOM     13  O   UNL d   1       1.290   2.615   0.143  0.00  0.00    -0.267 OA
ATOM     14  O   UNL d   1      -3.499  -1.383   0.455  0.00  0.00    -0.267 OA
ATOM     15  O   UNL d   1      -1.383   2.622   0.053  0.00  0.00    -0.286 OA
ATOM     16  C   UNL d   1       1.400  -2.830   0.087  0.00  0.00     0.163 C 
ATOM     17  C   UNL d   1       3.677   1.395   0.047  0.00  0.00     0.164 C 
ATOM     18  C   UNL d   1      -1.435  -2.777  -0.586  0.00  0.00     0.161 C 
ENDROOT
BRANCH  11  19
ATOM     19  N   UNL d   1      -4.462   0.225  -1.645  0.00  0.00    -0.365 N 
ATOM     20  H   UNL d   1      -4.633  -0.644  -1.130  0.00  0.00     0.165 HD
BRANCH  19  21
ATOM     21  C   UNL d   1      -5.469   0.588  -2.549  0.00  0.00     0.032 A 
ATOM     22  C   UNL d   1      -5.472   1.803  -3.244  0.00  0.00     0.031 A 
ATOM     23  C   UNL d   1      -6.507   2.125  -4.125  0.00  0.00     0.026 A 
ATOM     24  C   UNL d   1      -7.547   1.225  -4.327  0.00  0.00     0.034 A 
ATOM     25  C   UNL d   1      -7.554   0.001  -3.666  0.00  0.00     0.026 A 
ATOM     26 CL   UNL d   1      -8.829   1.628  -5.398  0.00  0.00    -0.084 Cl
ATOM     27  C   UNL d   1      -6.513  -0.319  -2.792  0.00  0.00     0.031 A 
ENDBRANCH  19  21
ENDBRANCH  11  19
TORSDOF 2
