REMARK  8 active torsions:
REMARK  status: ('A' for Active; 'I' for Inactive)
REMARK    1  A    between atoms: C_8  and  C_1 
REMARK    2  A    between atoms: S_9  and  C_3 
REMARK    3  A    between atoms: C_10  and  S_9 
REMARK    4  A    between atoms: C_18  and  C_13 
REMARK    5  A    between atoms: S_20  and  C_14 
REMARK    6  A    between atoms: C_19  and  C_22 
REMARK    7  A    between atoms: C_21  and  C_19 
REMARK    8  A    between atoms: C_22  and  S_20 
ROOT
ATOM      1  C   UNL d   1       2.234  -2.819  -0.169  0.00  0.00     0.051 A 
ATOM      2  N   UNL d   1       4.327  -2.311   0.925  0.00  0.00    -0.335 N 
ATOM      3  HN  UNL d   1       4.847  -1.965   1.732  1.00  0.00     0.168 HD
ATOM      4  C   UNL d   1       2.960  -2.344   0.928  0.00  0.00     0.063 A 
ATOM      5  C   UNL d   1       4.965  -2.749  -0.174  0.00  0.00     0.145 A 
ATOM      6  N   UNL d   1       4.354  -3.283  -1.238  0.00  0.00    -0.345 N 
ATOM      7  HN  UNL d   1       4.880  -3.660  -2.027  1.00  0.00     0.167 HD
ATOM      8  C   UNL d   1       3.009  -3.297  -1.211  0.00  0.00     0.111 A 
ENDROOT
BRANCH   1   9
ATOM      9  S   UNL d   1       0.464  -2.804  -0.396  0.00  0.00    -0.049 SA
BRANCH   9  10
ATOM     10  C   UNL d   1       0.279  -1.195  -1.013  0.00  0.00     0.167 A 
ATOM     11  N   UNL d   1      -0.931  -0.627  -1.333  0.00  0.00    -0.312 N 
ATOM     12  C   UNL d   1      -0.629   0.598  -1.885  0.00  0.00     0.209 A 
ATOM     13  C   UNL d   1      -2.221  -1.236  -1.107  0.00  0.00     0.160 C 
ATOM     14  N   UNL d   1       0.682   0.769  -1.818  0.00  0.00    -0.279 N 
ATOM     15  N   UNL d   1       1.245  -0.352  -1.276  0.00  0.00    -0.278 N 
ATOM     16  HN  UNL d   1       1.189   1.601  -2.120  1.00  0.00     0.188 HD
ATOM     17  HN  UNL d   1       2.240  -0.505  -1.108  1.00  0.00     0.189 HD
BRANCH  12  18
ATOM     18  C   UNL d   1      -1.581   1.578  -2.476  0.00  0.00     0.450 C 
ATOM     19  F   UNL d   1      -2.858   1.122  -2.553  0.00  0.00    -0.163 F 
ATOM     20  F   UNL d   1      -1.634   2.730  -1.759  0.00  0.00    -0.163 F 
ATOM     21  F   UNL d   1      -1.234   1.917  -3.744  0.00  0.00    -0.163 F 
ENDBRANCH  12  18
ENDBRANCH   9  10
ENDBRANCH   1   9
BRANCH   4  22
ATOM     22  C   UNL d   1       2.352  -1.745   2.151  0.00  0.00    -0.008 A 
ATOM     23  C   UNL d   1       2.958  -0.630   2.765  0.00  0.00     0.015 A 
ATOM     24  C   UNL d   1       2.348   0.048   3.827  0.00  0.00     0.024 A 
ATOM     25  C   UNL d   1       1.112  -0.379   4.298  0.00  0.00     0.034 A 
ATOM     26  C   UNL d   1       0.523  -1.520   3.768  0.00  0.00     0.024 A 
ATOM     27 CL   UNL d   1       0.304   0.512   5.527  0.00  0.00    -0.084 Cl
ATOM     28  C   UNL d   1       1.157  -2.214   2.730  0.00  0.00     0.015 A 
ENDBRANCH   4  22
BRANCH   5  29
ATOM     29  S   UNL d   1       6.726  -2.573  -0.317  0.00  0.00    -0.086 SA
BRANCH  29  30
ATOM     30  C   UNL d   1       7.112  -1.720   1.235  0.00  0.00     0.166 C 
BRANCH  30  31
ATOM     31  C   UNL d   1       8.550  -1.213   1.279  0.00  0.00     0.169 C 
ATOM     32  O   UNL d   1       9.287  -1.136   0.296  0.00  0.00    -0.291 OA
BRANCH  31  33
ATOM     33  C   UNL d   1       9.084  -0.756   2.603  0.00  0.00     0.011 A 
ATOM     34  C   UNL d   1       8.276  -0.668   3.746  0.00  0.00     0.017 A 
ATOM     35  C   UNL d   1       8.826  -0.269   4.970  0.00  0.00     0.025 A 
ATOM     36  C   UNL d   1      10.180   0.051   5.055  0.00  0.00     0.034 A 
ATOM     37  C   UNL d   1      10.989  -0.011   3.923  0.00  0.00     0.025 A 
ATOM     38 CL   UNL d   1      10.851   0.519   6.567  0.00  0.00    -0.084 Cl
ATOM     39  C   UNL d   1      10.442  -0.411   2.700  0.00  0.00     0.017 A 
ENDBRANCH  31  33
ENDBRANCH  30  31
ENDBRANCH  29  30
ENDBRANCH   5  29
TORSDOF 8
