REMARK  5 active torsions:
REMARK  status: ('A' for Active; 'I' for Inactive)
REMARK    1  A    between atoms: C_4  and  C_1 
REMARK    2  A    between atoms: C_2  and  C_5 
REMARK    3  A    between atoms: C_3  and  C_6 
REMARK    4  A    between atoms: O_10  and  C_3 
REMARK    5  A    between atoms: C_19  and  O_10 
ROOT
ATOM      1  C   UNL d   1       0.689   0.151   1.846  0.00  0.00     0.049 A 
ATOM      2  C   UNL d   1      -0.027   0.110   4.182  0.00  0.00     0.049 A 
ATOM      3  C   UNL d   1       0.653   2.224   3.154  0.00  0.00     0.041 A 
ATOM      4  C   UNL d   1       0.216  -0.546   2.967  0.00  0.00     0.032 A 
ATOM      5  C   UNL d   1       0.914   1.537   1.957  0.00  0.00     0.033 A 
ATOM      6  C   UNL d   1       0.183   1.501   4.264  0.00  0.00     0.033 A 
ENDROOT
BRANCH   3   7
ATOM      7  C   UNL d   1       0.892   3.703   3.198  0.00  0.00     0.293 C 
ATOM      8  O   UNL d   1       1.409   4.317   2.282  0.00  0.00    -0.259 OA
BRANCH   7   9
ATOM      9  O   UNL d   1       0.447   4.222   4.363  0.00  0.00    -0.311 OA
BRANCH   9  10
ATOM     10  C   UNL d   1       0.527   5.637   4.683  0.00  0.00     0.142 C 
ATOM     11  C   UNL d   1      -0.568   6.470   4.017  0.00  0.00     0.043 C 
ATOM     12  C   UNL d   1      -0.007   7.099   2.756  0.00  0.00     0.076 C 
ATOM     13  S   UNL d   1       1.672   7.593   3.205  0.00  0.00    -0.166 SA
ATOM     14  C   UNL d   1       1.885   6.317   4.484  0.00  0.00     0.106 C 
ENDBRANCH   9  10
ENDBRANCH   7   9
ENDBRANCH   3   7
BRANCH   1  15
ATOM     15  C   UNL d   1       0.959  -0.571   0.544  0.00  0.00     0.417 C 
ATOM     16  F   UNL d   1       0.607  -1.887   0.580  0.00  0.00    -0.166 F 
ATOM     17  F   UNL d   1       2.274  -0.546   0.199  0.00  0.00    -0.166 F 
ATOM     18  F   UNL d   1       0.278  -0.033  -0.502  0.00  0.00    -0.166 F 
ENDBRANCH   1  15
BRANCH   2  19
ATOM     19  C   UNL d   1      -0.495  -0.665   5.395  0.00  0.00     0.417 C 
ATOM     20  F   UNL d   1      -0.598  -2.006   5.172  0.00  0.00    -0.166 F 
ATOM     21  F   UNL d   1       0.350  -0.529   6.454  0.00  0.00    -0.166 F 
ATOM     22  F   UNL d   1      -1.718  -0.264   5.831  0.00  0.00    -0.166 F 
ENDBRANCH   2  19
TORSDOF 5
