REMARK  5 active torsions:
REMARK  status: ('A' for Active; 'I' for Inactive)
REMARK    1  A    between atoms: N_2  and  C_1 
REMARK    2  A    between atoms: C_8  and  C_3 
REMARK    3  A    between atoms: C_5  and  C_7 
REMARK    4  A    between atoms: O_15  and  C_8 
REMARK    5  A    between atoms: C_16  and  O_15 
ROOT
ATOM      1  C   UNL d   1       3.922  -1.006   0.021  0.00  0.00     0.120 C 
ATOM      2  C   UNL d   1       2.731  -1.640  -0.020  0.00  0.00     0.041 C 
ATOM      3  C   UNL d   1       5.168  -1.695   0.122  0.00  0.00     0.105 C 
ATOM      4  N   UNL d   1       6.168  -2.280   0.182  0.00  0.00    -0.191 NA
ENDROOT
BRANCH   1   5
ATOM      5  C   UNL d   1       3.941   0.471  -0.104  0.00  0.00     0.303 C 
ATOM      6  O   UNL d   1       2.946   1.168  -0.229  0.00  0.00    -0.258 OA
BRANCH   5   7
ATOM      7  O   UNL d   1       5.227   0.902  -0.163  0.00  0.00    -0.317 OA
BRANCH   7   8
ATOM      8  C   UNL d   1       5.445   2.225  -0.670  0.00  0.00     0.174 C 
ATOM      9  C   UNL d   1       5.561   2.140  -2.182  0.00  0.00     0.034 C 
ENDBRANCH   7   8
ENDBRANCH   5   7
ENDBRANCH   1   5
BRANCH   2  10
ATOM     10  C   UNL d   1       2.511  -3.060  -0.027  0.00  0.00    -0.025 A 
ATOM     11  C   UNL d   1       3.324  -4.035  -0.687  0.00  0.00     0.055 A 
ATOM     12  C   UNL d   1       2.887  -5.319  -0.446  0.00  0.00     0.144 A 
ATOM     13  S   UNL d   1       1.460  -5.361   0.472  0.00  0.00    -0.077 SA
ATOM     14  C   UNL d   1       1.427  -3.647   0.595  0.00  0.00     0.063 A 
BRANCH  12  15
ATOM     15  N   UNL d   1       3.523  -6.531  -0.894  0.00  0.00    -0.108 N 
ATOM     16  O   UNL d   1       4.552  -6.391  -1.571  0.00  0.00    -0.531 OA
ATOM     17  O   UNL d   1       3.013  -7.613  -0.582  0.00  0.00    -0.531 OA
ENDBRANCH  12  15
ENDBRANCH   2  10
TORSDOF 5
