REMARK  7 active torsions:
REMARK  status: ('A' for Active; 'I' for Inactive)
REMARK    1  A    between atoms: C_10  and  C_1 
REMARK    2  A    between atoms: C_4  and  C_9 
REMARK    3  A    between atoms: C_5  and  C_11 
REMARK       I    between atoms: N_22  and  C_10 
REMARK    4  A    between atoms: C_13  and  N_23 
REMARK    5  A    between atoms: C_28  and  N_22 
REMARK    6  A    between atoms: N_23  and  C_29 
REMARK    7  A    between atoms: C_29  and  C_28 
ROOT
ATOM      1  C   UNL d   1      -3.450  -0.421  -1.132  0.00  0.00     0.253 C 
ATOM      2  O   UNL d   1      -4.023   0.154  -2.050  0.00  0.00    -0.268 OA
ATOM      3  N   UNL d   1      -4.136  -0.969  -0.066  0.00  0.00    -0.356 N 
ATOM      4  H   UNL d   1      -3.649  -1.506   0.638  0.00  0.00     0.162 HD
ENDROOT
BRANCH   3   5
ATOM      5  C   UNL d   1      -5.590  -0.893   0.028  0.00  0.00     0.137 C 
BRANCH   5   6
ATOM      6  C   UNL d   1      -6.254  -2.275  -0.045  0.00  0.00     0.113 C 
BRANCH   6   7
ATOM      7  N   UNL d   1      -7.715  -2.148   0.000  0.00  0.00    -0.277 NA
ATOM      8  H   UNL d   1      -8.065  -1.572  -0.762  0.00  0.00     0.129 HD
BRANCH   7   9
ATOM      9  C   UNL d   1      -8.393  -3.380  -0.026  0.00  0.00     0.080 A 
ATOM     10  N   UNL d   1      -7.702  -4.534   0.011  0.00  0.00    -0.343 N 
ATOM     11  C   UNL d   1      -8.380  -5.718   0.001  0.00  0.00     0.117 A 
ATOM     12  HN  UNL d   1      -6.683  -4.524   0.048  1.00  0.00     0.167 HD
ATOM     13  C   UNL d   1      -9.772  -5.768  -0.033  0.00  0.00     0.034 A 
ATOM     14  C   UNL d   1     -10.482  -4.574  -0.054  0.00  0.00     0.005 A 
ATOM     15  C   UNL d   1      -9.785  -3.369  -0.047  0.00  0.00     0.042 A 
BRANCH  11  16
ATOM     16  C   UNL d   1      -7.594  -7.019   0.022  0.00  0.00     0.432 C 
ATOM     17  F   UNL d   1      -6.241  -6.859   0.072  0.00  0.00    -0.165 F 
ATOM     18  F   UNL d   1      -7.913  -7.806   1.092  0.00  0.00    -0.165 F 
ATOM     19  F   UNL d   1      -7.835  -7.790  -1.079  0.00  0.00    -0.165 F 
ENDBRANCH  11  16
ENDBRANCH   7   9
ENDBRANCH   6   7
ENDBRANCH   5   6
ENDBRANCH   3   5
BRANCH   1  20
ATOM     20  C   UNL d   1      -1.964  -0.557  -1.128  0.00  0.00     0.054 A 
ATOM     21  C   UNL d   1      -1.231  -0.608  -2.320  0.00  0.00     0.021 A 
ATOM     22  N   UNL d   1       0.131  -0.708  -2.337  0.00  0.00    -0.355 N 
ATOM     23  C   UNL d   1      -1.869  -0.566  -3.679  0.00  0.00     0.069 C 
ATOM     24  C   UNL d   1       0.812  -0.747  -1.158  0.00  0.00     0.117 A 
ATOM     25  HN  UNL d   1       0.633  -0.754  -3.223  1.00  0.00     0.166 HD
ATOM     26  C   UNL d   1       0.144  -0.690   0.063  0.00  0.00     0.035 A 
ATOM     27  C   UNL d   1      -1.249  -0.591   0.077  0.00  0.00     0.021 A 
BRANCH  24  28
ATOM     28  C   UNL d   1       2.333  -0.843  -1.172  0.00  0.00     0.432 C 
ATOM     29  F   UNL d   1       2.888  -0.881  -2.417  0.00  0.00    -0.165 F 
ATOM     30  F   UNL d   1       2.926   0.209  -0.533  0.00  0.00    -0.165 F 
ATOM     31  F   UNL d   1       2.788  -1.959  -0.529  0.00  0.00    -0.165 F 
ENDBRANCH  24  28
ENDBRANCH   1  20
TORSDOF 7
