REMARK  6 active torsions:
REMARK  status: ('A' for Active; 'I' for Inactive)
REMARK    1  A    between atoms: C_2  and  C_1 
REMARK    2  A    between atoms: C_3  and  C_1 
REMARK    3  A    between atoms: N_4  and  C_1 
REMARK    4  A    between atoms: N_6  and  C_1 
REMARK       I    between atoms: C_7  and  N_4 
REMARK    5  A    between atoms: C_5  and  C_8 
REMARK    6  A    between atoms: C_19  and  N_6 
ROOT
ATOM      1  C   UNL d   1       0.720   0.009  -0.094  0.00  0.00     0.290 C 
ENDROOT
BRANCH   1   2
ATOM      2  C   UNL d   1      -0.017   0.003  -1.489  0.00  0.00     0.435 C 
ATOM      3  F   UNL d   1      -1.103  -0.789  -1.579  0.00  0.00    -0.167 F 
ATOM      4  F   UNL d   1      -0.446   1.253  -1.823  0.00  0.00    -0.167 F 
ATOM      5  F   UNL d   1       0.820  -0.386  -2.489  0.00  0.00    -0.167 F 
ENDBRANCH   1   2
BRANCH   1   6
ATOM      6  C   UNL d   1       0.459  -1.411   0.552  0.00  0.00     0.435 C 
ATOM      7  F   UNL d   1      -0.325  -2.259  -0.136  0.00  0.00    -0.167 F 
ATOM      8  F   UNL d   1       1.658  -2.062   0.692  0.00  0.00    -0.167 F 
ATOM      9  F   UNL d   1      -0.039  -1.320   1.812  0.00  0.00    -0.167 F 
ENDBRANCH   1   6
BRANCH   1  10
ATOM     10  N   UNL d   1       0.363   1.126   0.796  0.00  0.00    -0.324 N 
ATOM     11  C   UNL d   1      -0.923   1.354   1.166  0.00  0.00     0.215 C 
ATOM     12  O   UNL d   1      -1.839   0.635   0.761  0.00  0.00    -0.274 OA
ATOM     13  C   UNL d   1      -1.142   2.535   2.062  0.00  0.00     0.117 C 
ATOM     14  H   UNL d   1       1.133   1.697   1.117  0.00  0.00     0.165 HD
ENDBRANCH   1  10
BRANCH   1  15
ATOM     15  N   UNL d   1       2.233   0.239  -0.163  0.00  0.00    -0.251 NA
ATOM     16  H   UNL d   1       2.713  -0.666  -0.121  0.00  0.00     0.130 HD
BRANCH  15  17
ATOM     17  C   UNL d   1       2.829   1.076  -1.108  0.00  0.00     0.010 A 
ATOM     18  C   UNL d   1       2.244   2.260  -1.563  0.00  0.00     0.024 A 
ATOM     19  C   UNL d   1       2.867   3.055  -2.529  0.00  0.00     0.018 A 
ATOM     20  C   UNL d   1       4.129   2.717  -3.027  0.00  0.00     0.048 A 
ATOM     21  C   UNL d   1       4.765   1.582  -2.514  0.00  0.00     0.018 A 
ATOM     22  C   UNL d   1       4.125   0.783  -1.556  0.00  0.00     0.024 A 
BRANCH  20  23
ATOM     23  C   UNL d   1       4.766   3.578  -4.088  0.00  0.00     0.417 C 
ATOM     24  F   UNL d   1       6.002   3.153  -4.469  0.00  0.00    -0.166 F 
ATOM     25  F   UNL d   1       4.021   3.631  -5.227  0.00  0.00    -0.166 F 
ATOM     26  F   UNL d   1       4.922   4.869  -3.684  0.00  0.00    -0.166 F 
ENDBRANCH  20  23
ENDBRANCH  15  17
ENDBRANCH   1  15
TORSDOF 6
