REMARK  5 active torsions:
REMARK  status: ('A' for Active; 'I' for Inactive)
REMARK    1  A    between atoms: N_7  and  C_1 
REMARK    2  A    between atoms: C_6  and  C_5 
REMARK    3  A    between atoms: C_9  and  C_6 
REMARK    4  A    between atoms: C_15  and  N_7 
REMARK       I    between atoms: N_10  and  C_9 
REMARK    5  A    between atoms: C_12  and  N_10 
ROOT
ATOM      1  C   UNL d   1       1.187   0.752   0.487  0.00  0.00     0.148 C 
ATOM      2  N   UNL d   1       1.402  -0.378   1.207  0.00  0.00    -0.306 N 
ATOM      3  C   UNL d   1       0.332  -1.182   1.453  0.00  0.00     0.238 C 
ATOM      4  S   UNL d   1      -0.527   1.062   0.369  0.00  0.00    -0.079 SA
ATOM      5  C   UNL d   1      -0.911  -0.678   0.752  0.00  0.00     0.156 C 
ATOM      6  O   UNL d   1       0.390  -2.221   2.102  0.00  0.00    -0.272 OA
ATOM      7  H   UNL d   1       2.322  -0.644   1.527  0.00  0.00     0.171 HD
ENDROOT
BRANCH   5   8
ATOM      8  C   UNL d   1      -2.201  -0.976   1.496  0.00  0.00     0.128 C 
BRANCH   8   9
ATOM      9  C   UNL d   1      -2.234  -0.516   2.942  0.00  0.00     0.223 C 
ATOM     10  N   UNL d   1      -1.575  -1.363   3.816  0.00  0.00    -0.327 N 
ATOM     11  H   UNL d   1      -0.977  -2.083   3.408  0.00  0.00     0.169 HD
ATOM     12  O   UNL d   1      -2.813   0.524   3.242  0.00  0.00    -0.273 OA
BRANCH  10  13
ATOM     13  C   UNL d   1      -1.512  -1.244   5.220  0.00  0.00     0.036 A 
ATOM     14  C   UNL d   1      -2.345  -0.402   5.961  0.00  0.00     0.053 A 
ATOM     15  C   UNL d   1      -2.212  -0.332   7.348  0.00  0.00     0.036 A 
ATOM     16 CL   UNL d   1      -3.249   0.703   8.254  0.00  0.00    -0.084 Cl
ATOM     17  C   UNL d   1      -1.253  -1.094   8.011  0.00  0.00     0.024 A 
ATOM     18  C   UNL d   1      -0.431  -1.949   7.282  0.00  0.00     0.004 A 
ATOM     19  C   UNL d   1      -0.567  -2.031   5.893  0.00  0.00     0.029 A 
ENDBRANCH  10  13
ENDBRANCH   8   9
ENDBRANCH   5   8
BRANCH   1  20
ATOM     20  N   UNL d   1       2.069   1.506  -0.070  0.00  0.00    -0.337 N 
ATOM     21  HN  UNL d   1       1.778   2.366  -0.535  1.00  0.00     0.168 HD
BRANCH  20  22
ATOM     22  C   UNL d   1       3.431   1.155  -0.042  0.00  0.00     0.034 A 
ATOM     23  C   UNL d   1       3.888  -0.106  -0.454  0.00  0.00     0.029 A 
ATOM     24  C   UNL d   1       5.240  -0.442  -0.372  0.00  0.00     0.002 A 
ATOM     25  C   UNL d   1       6.161   0.505   0.064  0.00  0.00     0.000 A 
ATOM     26  C   UNL d   1       5.731   1.787   0.406  0.00  0.00     0.002 A 
ATOM     27  C   UNL d   1       4.371   2.107   0.354  0.00  0.00     0.029 A 
ENDBRANCH  20  22
ENDBRANCH   1  20
TORSDOF 5
