REMARK  3 active torsions:
REMARK  status: ('A' for Active; 'I' for Inactive)
REMARK    1  A    between atoms: C_14  and  C_7 
REMARK    2  A    between atoms: O_15  and  C_9 
REMARK    3  A    between atoms: C_13  and  O_15 
ROOT
ATOM      1  C   UNL d   1      -0.377  -1.092   0.177  0.00  0.00     0.198 A 
ATOM      2  O   UNL d   1       0.450  -0.674   1.192  0.00  0.00    -0.275 OA
ATOM      3  N   UNL d   1      -0.685  -0.106  -0.645  0.00  0.00    -0.276 N 
ATOM      4  HN  UNL d   1      -1.277  -0.169  -1.473  1.00  0.00     0.189 HD
ATOM      5  N   UNL d   1      -0.055   1.023  -0.175  0.00  0.00    -0.281 N 
ATOM      6  HN  UNL d   1      -0.091   1.958  -0.582  1.00  0.00     0.189 HD
ATOM      7  C   UNL d   1       0.602   0.659   0.902  0.00  0.00     0.148 A 
ATOM      8  C   UNL d   1      -0.865  -2.427   0.019  0.00  0.00     0.131 A 
ATOM      9  C   UNL d   1      -1.223  -4.567   0.415  0.00  0.00     0.191 A 
ATOM     10  O   UNL d   1      -0.596  -3.456   0.890  0.00  0.00    -0.283 OA
ATOM     11  C   UNL d   1      -1.670  -2.905  -1.003  0.00  0.00     0.047 A 
ATOM     12  C   UNL d   1      -1.939  -4.260  -0.722  0.00  0.00     0.067 A 
ENDROOT
BRANCH   9  13
ATOM     13  O   UNL d   1      -0.988  -5.681   1.113  0.00  0.00    -0.288 OA
BRANCH  13  14
ATOM     14  C   UNL d   1      -1.107  -6.902   0.485  0.00  0.00     0.081 A 
ATOM     15  C   UNL d   1      -0.661  -7.101  -0.829  0.00  0.00     0.061 A 
ATOM     16  C   UNL d   1      -0.889  -8.316  -1.458  0.00  0.00     0.038 A 
ATOM     17 CL   UNL d   1      -0.451  -8.499  -3.113  0.00  0.00    -0.084 Cl
ATOM     18  C   UNL d   1      -1.489  -9.365  -0.775  0.00  0.00     0.048 A 
ATOM     19  C   UNL d   1      -1.857  -9.190   0.558  0.00  0.00     0.038 A 
ATOM     20  C   UNL d   1      -1.671  -7.960   1.196  0.00  0.00     0.061 A 
ATOM     21 CL   UNL d   1      -2.566 -10.502   1.416  0.00  0.00    -0.084 Cl
ENDBRANCH  13  14
ENDBRANCH   9  13
BRANCH   7  22
ATOM     22  C   UNL d   1       1.493   1.473   1.794  0.00  0.00     0.016 C 
ATOM     23  C   UNL d   1       2.929   0.929   1.721  0.00  0.00     0.023 C 
ATOM     24  C   UNL d   1       1.491   2.943   1.332  0.00  0.00     0.023 C 
ATOM     25  C   UNL d   1       0.993   1.413   3.245  0.00  0.00     0.023 C 
ENDBRANCH   7  22
TORSDOF 3
