REMARK  1 active torsions:
REMARK  status: ('A' for Active; 'I' for Inactive)
REMARK    1  A    between atoms: C_11  and  C_5 
ROOT
ATOM      1  C   UNL d   1      -0.231   0.751  -0.000  0.00  0.00     0.129 A 
ATOM      2  N   UNL d   1      -0.271  -0.649  -0.000  0.00  0.00    -0.244 N 
ATOM      3  N   UNL d   1       0.938   1.458   0.002  0.00  0.00    -0.337 N 
ATOM      4  HN  UNL d   1       0.943   2.478   0.003  1.00  0.00     0.167 HD
ATOM      5  C   UNL d   1       2.050   0.769   0.004  0.00  0.00     0.120 A 
ATOM      6  N   UNL d   1      -1.552  -1.103  -0.001  0.00  0.00    -0.297 N 
ATOM      7  HN  UNL d   1      -1.867  -2.073  -0.001  1.00  0.00     0.187 HD
ATOM      8  C   UNL d   1      -1.538   1.173  -0.001  0.00  0.00     0.076 A 
ATOM      9  C   UNL d   1       0.920  -1.391   0.000  0.00  0.00     0.034 A 
ATOM     10  C   UNL d   1       2.097  -0.737   0.002  0.00  0.00     0.061 A 
ATOM     11  C   UNL d   1      -2.312  -0.002  -0.001  0.00  0.00     0.026 A 
ATOM     12  C   UNL d   1       0.860  -2.888  -0.000  0.00  0.00     0.070 C 
ATOM     13  C   UNL d   1      -3.791  -0.112   0.001  0.00  0.00     0.070 C 
ENDROOT
BRANCH   5  14
ATOM     14  C   UNL d   1       3.396   1.499   0.010  0.00  0.00     0.432 C 
ATOM     15  F   UNL d   1       4.459   0.644   0.010  0.00  0.00    -0.165 F 
ATOM     16  F   UNL d   1       3.556   2.300  -1.078  0.00  0.00    -0.165 F 
ATOM     17  F   UNL d   1       3.550   2.290   1.106  0.00  0.00    -0.165 F 
ENDBRANCH   5  14
TORSDOF 1
