REMARK  6 active torsions:
REMARK  status: ('A' for Active; 'I' for Inactive)
REMARK    1  A    between atoms: C_7  and  C_1 
REMARK    2  A    between atoms: C_14  and  N_2 
REMARK    3  A    between atoms: O_16  and  C_7 
REMARK    4  A    between atoms: C_12  and  C_19 
REMARK    5  A    between atoms: O_18  and  C_15 
REMARK    6  A    between atoms: C_19  and  O_18 
ROOT
ATOM      1  C   UNL d   1       2.532   0.597  -0.125  0.00  0.00     0.113 A 
ATOM      2  N   UNL d   1       1.343   1.344  -0.010  0.00  0.00    -0.341 N 
ATOM      3  C   UNL d   1       2.570  -0.742  -0.208  0.00  0.00     0.092 A 
ATOM      4  C   UNL d   1       0.091   0.669  -0.018  0.00  0.00     0.049 A 
ATOM      5  C   UNL d   1       0.055  -0.740  -0.036  0.00  0.00     0.043 A 
ATOM      6  C   UNL d   1       1.317  -1.498  -0.098  0.00  0.00     0.186 A 
ATOM      7  C   UNL d   1      -1.154   1.319  -0.010  0.00  0.00     0.033 A 
ATOM      8  C   UNL d   1      -1.149  -1.465   0.006  0.00  0.00     0.054 A 
ATOM      9  O   UNL d   1       1.351  -2.724  -0.048  0.00  0.00    -0.287 OA
ATOM     10  C   UNL d   1      -2.360  -0.791   0.075  0.00  0.00     0.070 A 
ATOM     11  C   UNL d   1      -2.360   0.601   0.029  0.00  0.00     0.039 A 
ENDROOT
BRANCH   1  12
ATOM     12  C   UNL d   1       3.873   1.272  -0.232  0.00  0.00     0.194 C 
ATOM     13  O   UNL d   1       4.075   2.292  -0.872  0.00  0.00    -0.645 OA
BRANCH  12  14
ATOM     14  O   UNL d   1       4.853   0.673   0.483  0.00  0.00    -0.772 OA
ATOM     15  H   UNL d   1       4.561  -0.043   1.077  0.00  0.00     0.167 HD
ENDBRANCH  12  14
ENDBRANCH   1  12
BRANCH   2  16
ATOM     16  C   UNL d   1       1.343   2.814   0.157  0.00  0.00     0.125 C 
ATOM     17  C   UNL d   1       1.166   3.538  -1.171  0.00  0.00     0.027 C 
ENDBRANCH   2  16
BRANCH  10  18
ATOM     18  O   UNL d   1      -3.587  -1.383   0.175  0.00  0.00    -0.347 OA
BRANCH  18  19
ATOM     19  C   UNL d   1      -3.587  -2.705   0.719  0.00  0.00     0.202 C 
BRANCH  19  20
ATOM     20  C   UNL d   1      -4.975  -3.008   1.195  0.00  0.00    -0.011 C 
ATOM     21  C   UNL d   1      -5.293  -3.270   2.470  0.00  0.00     0.009 C 
ENDBRANCH  19  20
ENDBRANCH  18  19
ENDBRANCH  10  18
TORSDOF 6
