REMARK  6 active torsions:
REMARK  status: ('A' for Active; 'I' for Inactive)
REMARK    1  A    between atoms: N_4  and  C_2 
REMARK    2  A    between atoms: S_16  and  C_8 
REMARK    3  A    between atoms: C_19  and  S_16 
REMARK    4  A    between atoms: C_17  and  C_19 
REMARK    5  A    between atoms: O_20  and  C_17 
REMARK    6  A    between atoms: C_21  and  O_20 
ROOT
ATOM      1  C   UNL d   1      -0.375  -1.035   0.042  0.00  0.00     0.199 A 
ATOM      2  C   UNL d   1      -2.028  -4.194  -0.231  0.00  0.00     0.215 A 
ATOM      3  O   UNL d   1      -1.262   0.012  -0.005  0.00  0.00    -0.265 OA
ATOM      4  N   UNL d   1       0.874  -0.619   0.157  0.00  0.00    -0.275 N 
ATOM      5  HN  UNL d   1       1.707  -1.205   0.219  1.00  0.00     0.189 HD
ATOM      6  C   UNL d   1      -0.754  -2.415  -0.026  0.00  0.00     0.130 A 
ATOM      7  C   UNL d   1      -0.434   1.098   0.073  0.00  0.00     0.204 A 
ATOM      8  O   UNL d   1      -2.051  -2.836  -0.209  0.00  0.00    -0.284 OA
ATOM      9  N   UNL d   1       0.834   0.758   0.178  0.00  0.00    -0.272 N 
ATOM     10  HN  UNL d   1       1.630   1.390   0.258  1.00  0.00     0.189 HD
ATOM     11  C   UNL d   1      -0.756  -4.682  -0.063  0.00  0.00     0.066 A 
ATOM     12  C   UNL d   1       0.065  -3.535   0.069  0.00  0.00     0.046 A 
ENDROOT
BRANCH   7  13
ATOM     13  S   UNL d   1      -1.005   2.740   0.022  0.00  0.00    -0.075 SA
BRANCH  13  14
ATOM     14  C   UNL d   1       0.415   3.531  -0.800  0.00  0.00     0.194 C 
BRANCH  14  15
ATOM     15  C   UNL d   1       0.704   2.887  -2.140  0.00  0.00     0.268 C 
ATOM     16  O   UNL d   1      -0.123   2.348  -2.865  0.00  0.00    -0.264 OA
BRANCH  15  17
ATOM     17  O   UNL d   1       2.037   2.979  -2.414  0.00  0.00    -0.321 OA
BRANCH  17  18
ATOM     18  C   UNL d   1       2.499   2.152  -3.492  0.00  0.00     0.174 C 
ATOM     19  C   UNL d   1       2.838   0.778  -2.943  0.00  0.00     0.034 C 
ENDBRANCH  17  18
ENDBRANCH  15  17
ENDBRANCH  14  15
ENDBRANCH  13  14
ENDBRANCH   7  13
BRANCH   2  20
ATOM     20  N   UNL d   1      -3.280  -4.856  -0.421  0.00  0.00    -0.090 N 
ATOM     21  O   UNL d   1      -3.246  -6.093  -0.438  0.00  0.00    -0.530 OA
ATOM     22  O   UNL d   1      -4.293  -4.154  -0.546  0.00  0.00    -0.530 OA
ENDBRANCH   2  20
TORSDOF 6
