REMARK  7 active torsions:
REMARK  status: ('A' for Active; 'I' for Inactive)
REMARK    1  A    between atoms: N_4  and  C_1 
REMARK    2  A    between atoms: C_6  and  N_4 
REMARK    3  A    between atoms: C_10  and  C_6 
REMARK    4  A    between atoms: C_11  and  C_6 
REMARK    5  A    between atoms: C_8  and  N_7 
REMARK    6  A    between atoms: C_12  and  C_8 
REMARK    7  A    between atoms: C_9  and  C_12 
ROOT
ATOM      1  C   UNL d   1      -0.720  -1.795  -2.604  0.00  0.00    -0.086 C 
ATOM      2  C   UNL d   1      -0.649  -2.510  -3.563  0.00  0.00     0.015 C 
ATOM      3  C   UNL d   1      -0.738  -0.798  -1.484  0.00  0.00     0.094 C 
ENDROOT
BRANCH   3   4
ATOM      4  N   UNL d   1       0.650  -0.755  -0.956  0.00  0.00    -0.347 N 
ATOM      5  H   UNL d   1       1.269  -1.428  -1.385  0.00  0.00     0.163 HD
BRANCH   4   6
ATOM      6  C   UNL d   1       1.253   0.107  -0.088  0.00  0.00     0.168 C 
ATOM      7  S   UNL d   1       0.523   1.190   0.951  0.00  0.00    -0.041 SA
ATOM      8  N   UNL d   1       2.617   0.119  -0.104  0.00  0.00    -0.367 N 
ATOM      9  H   UNL d   1       3.009   0.842   0.490  0.00  0.00     0.161 HD
BRANCH   8  10
ATOM     10  C   UNL d   1       3.549  -0.639  -0.934  0.00  0.00     0.126 C 
BRANCH  10  11
ATOM     11  C   UNL d   1       5.004  -0.214  -0.705  0.00  0.00     0.058 C 
BRANCH  11  12
ATOM     12  C   UNL d   1       5.963  -1.015  -1.551  0.00  0.00    -0.057 A 
ATOM     13  C   UNL d   1       6.340  -0.564  -2.823  0.00  0.00     0.007 A 
ATOM     14  C   UNL d   1       7.183  -1.333  -3.627  0.00  0.00     0.001 A 
ATOM     15  C   UNL d   1       7.657  -2.561  -3.168  0.00  0.00     0.000 A 
ATOM     16  C   UNL d   1       7.299  -3.014  -1.900  0.00  0.00     0.001 A 
ATOM     17  C   UNL d   1       6.457  -2.245  -1.094  0.00  0.00     0.007 A 
ENDBRANCH  11  12
ENDBRANCH  10  11
ENDBRANCH   8  10
ENDBRANCH   4   6
ENDBRANCH   3   4
BRANCH   3  18
ATOM     18  C   UNL d   1      -1.808  -1.194  -0.429  0.00  0.00     0.040 C 
ATOM     19  C   UNL d   1      -1.719  -2.593   0.166  0.00  0.00     0.009 C 
ENDBRANCH   3  18
BRANCH   3  20
ATOM     20  C   UNL d   1      -1.167   0.569  -2.099  0.00  0.00     0.040 C 
ATOM     21  C   UNL d   1      -0.194   1.172  -3.109  0.00  0.00     0.009 C 
ENDBRANCH   3  20
TORSDOF 7
