REMARK  2 active torsions:
REMARK  status: ('A' for Active; 'I' for Inactive)
REMARK    1  A    between atoms: S_11  and  C_1 
REMARK    2  A    between atoms: C_2  and  S_11 
ROOT
ATOM      1  C   UNL d   1       2.546   0.050  -0.228  0.00  0.00     0.120 A 
ATOM      2  N   UNL d   1       1.714   1.063  -0.177  0.00  0.00    -0.342 N 
ATOM      3  HN  UNL d   1       1.988   2.045  -0.211  1.00  0.00     0.167 HD
ATOM      4  C   UNL d   1       0.405   0.604  -0.068  0.00  0.00     0.072 A 
ATOM      5  C   UNL d   1       0.277  -0.789  -0.029  0.00  0.00     0.037 A 
ATOM      6  S   UNL d   1       1.842  -1.504  -0.107  0.00  0.00    -0.063 SA
ATOM      7  C   UNL d   1      -0.789   1.359  -0.015  0.00  0.00     0.063 A 
ATOM      8  C   UNL d   1      -0.976  -1.426   0.048  0.00  0.00     0.045 A 
ATOM      9  C   UNL d   1      -2.044   0.757   0.048  0.00  0.00     0.050 A 
ATOM     10  C   UNL d   1      -2.124  -0.627   0.075  0.00  0.00     0.037 A 
ATOM     11 CL   UNL d   1      -0.614   3.060  -0.058  0.00  0.00    -0.082 Cl
ATOM     12 CL   UNL d   1      -3.670  -1.385   0.126  0.00  0.00    -0.084 Cl
ENDROOT
BRANCH   1  13
ATOM     13  S   UNL d   1       4.254   0.270  -0.541  0.00  0.00    -0.038 SA
BRANCH  13  14
ATOM     14  C   UNL d   1       4.593   1.236   0.870  0.00  0.00     0.136 A 
ATOM     15  S   UNL d   1       4.756   2.940   0.835  0.00  0.00    -0.026 SA
ATOM     16  C   UNL d   1       5.132   2.863   2.509  0.00  0.00     0.159 A 
ATOM     17  N   UNL d   1       5.403   3.972   3.222  0.00  0.00    -0.379 N 
ATOM     18  N   UNL d   1       5.145   1.642   2.996  0.00  0.00    -0.279 N 
ATOM     19  H   UNL d   1       5.669   4.816   2.731  0.00  0.00     0.158 HD
ATOM     20  H   UNL d   1       5.857   3.838   4.118  0.00  0.00     0.158 HD
ATOM     21  N   UNL d   1       4.837   0.690   2.042  0.00  0.00    -0.286 N 
ATOM     22  HN  UNL d   1       5.360   1.421   3.968  1.00  0.00     0.189 HD
ATOM     23  HN  UNL d   1       4.802  -0.313   2.224  1.00  0.00     0.188 HD
ENDBRANCH  13  14
ENDBRANCH   1  13
TORSDOF 2
