REMARK  4 active torsions:
REMARK  status: ('A' for Active; 'I' for Inactive)
REMARK    1  A    between atoms: C_2  and  C_1 
REMARK    2  A    between atoms: O_10  and  C_6 
REMARK    3  A    between atoms: C_14  and  O_10 
REMARK    4  A    between atoms: C_21  and  C_16 
ROOT
ATOM      1  N   UNL d   1      -3.584   2.494  -8.455  0.00  0.00    -0.197 NA
ATOM      2  C   UNL d   1      -3.683   3.521  -7.907  0.00  0.00     0.063 C 
ATOM      3  C   UNL d   1      -3.821   4.837  -7.214  0.00  0.00     0.162 C 
ENDROOT
BRANCH   3   4
ATOM      4  C   UNL d   1      -2.922   4.936  -5.993  0.00  0.00    -0.045 A 
ATOM      5  C   UNL d   1      -1.594   5.378  -6.108  0.00  0.00     0.011 A 
ATOM      6  C   UNL d   1      -0.729   5.325  -5.007  0.00  0.00     0.038 A 
ATOM      7  C   UNL d   1      -1.179   4.838  -3.778  0.00  0.00     0.077 A 
ATOM      8  C   UNL d   1      -2.526   4.508  -3.630  0.00  0.00     0.038 A 
ATOM      9  C   UNL d   1      -3.382   4.521  -4.735  0.00  0.00     0.011 A 
BRANCH   7  10
ATOM     10  O   UNL d   1      -0.246   4.761  -2.769  0.00  0.00    -0.294 OA
BRANCH  10  11
ATOM     11  C   UNL d   1      -0.362   3.805  -1.781  0.00  0.00     0.147 A 
ATOM     12  C   UNL d   1      -0.906   2.539  -1.980  0.00  0.00     0.057 A 
ATOM     13  C   UNL d   1      -0.983   1.659  -0.901  0.00  0.00     0.022 A 
ATOM     14  C   UNL d   1      -0.448   2.029   0.334  0.00  0.00     0.063 A 
ATOM     15  C   UNL d   1       0.117   3.292   0.427  0.00  0.00     0.106 A 
ATOM     16  N   UNL d   1       0.165   4.179  -0.594  0.00  0.00    -0.346 N 
ATOM     17  HN  UNL d   1       0.586   5.100  -0.472  1.00  0.00     0.167 HD
BRANCH  14  18
ATOM     18  C   UNL d   1      -0.459   1.100   1.508  0.00  0.00     0.418 C 
ATOM     19  F   UNL d   1       0.148   1.610   2.615  0.00  0.00    -0.166 F 
ATOM     20  F   UNL d   1       0.176  -0.075   1.244  0.00  0.00    -0.166 F 
ATOM     21  F   UNL d   1      -1.720   0.763   1.896  0.00  0.00    -0.166 F 
ENDBRANCH  14  18
ENDBRANCH  10  11
ENDBRANCH   7  10
ENDBRANCH   3   4
TORSDOF 4
