REMARK  5 active torsions:
REMARK  status: ('A' for Active; 'I' for Inactive)
REMARK    1  A    between atoms: N_2  and  S_1 
REMARK    2  A    between atoms: C_6  and  S_1 
REMARK    3  A    between atoms: C_10  and  C_3 
REMARK    4  A    between atoms: O_15  and  C_10 
REMARK    5  A    between atoms: C_20  and  O_15 
ROOT
ATOM      1  N   UNL d   1       0.296   0.819   1.349  0.00  0.00    -0.257 N 
ATOM      2  C   UNL d   1      -0.561   0.281   2.330  0.00  0.00     0.114 C 
ATOM      3  N   UNL d   1      -0.873   1.132   3.265  0.00  0.00    -0.376 N 
ATOM      4  HN  UNL d   1      -1.436   0.947   4.096  1.00  0.00     0.160 HD
ATOM      5  C   UNL d   1       0.761   2.138   1.766  0.00  0.00     0.162 C 
ATOM      6  C   UNL d   1      -0.244   2.427   2.883  0.00  0.00     0.142 C 
ENDROOT
BRANCH   1   7
ATOM      7  S   UNL d   1       0.999   0.085   0.036  0.00  0.00     0.266 S 
ATOM      8  O   UNL d   1       1.868   1.030  -0.630  0.00  0.00    -0.200 OA
ATOM      9  O   UNL d   1      -0.053  -0.609  -0.682  0.00  0.00    -0.200 OA
BRANCH   7  10
ATOM     10  C   UNL d   1       2.048  -1.153   0.762  0.00  0.00     0.080 A 
ATOM     11  C   UNL d   1       1.909  -2.487   0.363  0.00  0.00     0.027 A 
ATOM     12  C   UNL d   1       2.682  -3.472   0.976  0.00  0.00     0.025 A 
ATOM     13  C   UNL d   1       3.588  -3.119   1.976  0.00  0.00     0.034 A 
ATOM     14  C   UNL d   1       3.742  -1.785   2.357  0.00  0.00     0.025 A 
ATOM     15 CL   UNL d   1       4.527  -4.338   2.744  0.00  0.00    -0.084 Cl
ATOM     16  C   UNL d   1       2.975  -0.794   1.744  0.00  0.00     0.027 A 
ENDBRANCH   7  10
ENDBRANCH   1   7
BRANCH   2  17
ATOM     17  C   UNL d   1      -1.052  -1.152   2.347  0.00  0.00     0.252 C 
BRANCH  17  18
ATOM     18  O   UNL d   1      -0.355  -1.837   3.389  0.00  0.00    -0.342 OA
BRANCH  18  19
ATOM     19  C   UNL d   1      -0.806  -3.083   3.723  0.00  0.00     0.084 A 
ATOM     20  C   UNL d   1      -0.272  -3.645   4.879  0.00  0.00     0.124 A 
ATOM     21  N   UNL d   1      -0.584  -4.877   5.356  0.00  0.00    -0.373 N 
ATOM     22  C   UNL d   1      -1.478  -5.588   4.639  0.00  0.00     0.088 A 
ATOM     23  HN  UNL d   1      -0.166  -5.244   6.210  1.00  0.00     0.164 HD
ATOM     24  C   UNL d   1      -2.071  -5.121   3.477  0.00  0.00     0.020 A 
ATOM     25  C   UNL d   1      -1.727  -3.849   3.014  0.00  0.00     0.039 A 
ENDBRANCH  18  19
ENDBRANCH  17  18
ENDBRANCH   2  17
TORSDOF 5
