REMARK  0 active torsions:
REMARK  status: ('A' for Active; 'I' for Inactive)
ROOT
ATOM      1  N   UNL d   1       0.912   0.552   0.000  0.00  0.00    -0.116 N 
ATOM      2  C   UNL d   1       1.633  -0.604   0.000  0.00  0.00     0.720 A 
ATOM      3  C   UNL d   1       1.847   1.558   0.000  0.00  0.00     0.213 A 
ATOM      4  N   UNL d   1       1.056  -1.846   0.001  0.00  0.00    -0.130 N 
ATOM      5  HN  UNL d   1       1.644  -2.679   0.000  1.00  0.00     0.205 HD
ATOM      6  N   UNL d   1       2.926  -0.440  -0.000  0.00  0.00    -0.128 N 
ATOM      7  HN  UNL d   1       3.650  -1.158  -0.000  1.00  0.00     0.205 HD
ATOM      8  N   UNL d   1      -0.195  -1.965   0.002  0.00  0.00    -0.284 N 
ATOM      9  HN  UNL d   1      -0.620  -2.892   0.003  1.00  0.00     0.187 HD
ATOM     10  N   UNL d   1       3.087   0.917  -0.000  0.00  0.00    -0.261 N 
ATOM     11  C   UNL d   1      -0.482   0.489   0.000  0.00  0.00     0.087 A 
ATOM     12  C   UNL d   1      -1.011  -0.813   0.002  0.00  0.00     0.076 A 
ATOM     13  S   UNL d   1       1.727   3.211   0.001  0.00  0.00    -0.038 SA
ATOM     14  C   UNL d   1      -1.345   1.587  -0.000  0.00  0.00     0.033 A 
ATOM     15  C   UNL d   1      -2.400  -0.994   0.002  0.00  0.00     0.033 A 
ATOM     16  C   UNL d   1      -2.730   1.392   0.000  0.00  0.00     0.002 A 
ATOM     17  C   UNL d   1      -3.258   0.104   0.002  0.00  0.00     0.002 A 
ATOM     18  H   UNL d   1       4.002   1.355   0.000  0.00  0.00     0.190 HD
ENDROOT
TORSDOF 0
