REMARK  6 active torsions:
REMARK  status: ('A' for Active; 'I' for Inactive)
REMARK    1  A    between atoms: C_3  and  N_1 
REMARK    2  A    between atoms: C_4  and  C_2 
REMARK       I    between atoms: N_5  and  C_4 
REMARK    3  A    between atoms: N_11  and  N_5 
REMARK       I    between atoms: C_6  and  N_11 
REMARK    4  A    between atoms: C_7  and  C_6 
REMARK    5  A    between atoms: C_8  and  C_9 
REMARK    6  A    between atoms: O_16  and  C_8 
ROOT
ATOM      1  C   UNL d   1       1.723   2.802   0.177  0.00  0.00     0.272 C 
ATOM      2  N   UNL d   1       2.429   3.877   0.681  0.00  0.00    -0.263 N 
ATOM      3  O   UNL d   1       1.989   2.305  -0.913  0.00  0.00    -0.266 OA
ATOM      4  H   UNL d   1       2.278   4.321   1.583  0.00  0.00     0.190 HD
ENDROOT
BRANCH   2   5
ATOM      5  N   UNL d   1       3.439   4.424  -0.117  0.00  0.00    -0.264 N 
ATOM      6  C   UNL d   1       4.448   5.136   0.482  0.00  0.00     0.260 C 
ATOM      7  O   UNL d   1       4.506   5.365   1.686  0.00  0.00    -0.267 OA
ATOM      8  H   UNL d   1       3.431   4.153  -1.101  0.00  0.00     0.190 HD
BRANCH   6   9
ATOM      9  C   UNL d   1       5.463   5.626  -0.476  0.00  0.00     0.082 C 
ATOM     10  C   UNL d   1       6.494   6.354  -0.023  0.00  0.00     0.086 C 
BRANCH  10  11
ATOM     11  C   UNL d   1       7.476   6.867  -0.994  0.00  0.00     0.165 C 
ATOM     12  O   UNL d   1       7.411   6.677  -2.197  0.00  0.00    -0.647 OA
BRANCH  11  13
ATOM     13  O   UNL d   1       8.453   7.576  -0.404  0.00  0.00    -0.773 OA
ATOM     14  H   UNL d   1       8.396   7.656   0.566  0.00  0.00     0.167 HD
ENDBRANCH  11  13
ENDBRANCH  10  11
ENDBRANCH   6   9
ENDBRANCH   2   5
BRANCH   1  15
ATOM     15  C   UNL d   1       0.619   2.252   1.010  0.00  0.00     0.066 A 
ATOM     16  C   UNL d   1      -0.441   1.538   0.435  0.00  0.00     0.118 A 
ATOM     17  C   UNL d   1      -1.458   0.962   1.212  0.00  0.00     0.037 A 
ATOM     18  C   UNL d   1      -1.424   1.109   2.595  0.00  0.00     0.002 A 
ATOM     19  C   UNL d   1      -0.382   1.820   3.191  0.00  0.00     0.001 A 
ATOM     20  C   UNL d   1       0.637   2.381   2.409  0.00  0.00     0.020 A 
BRANCH  16  21
ATOM     21  N   UNL d   1      -0.583   1.430  -1.004  0.00  0.00    -0.115 N 
ATOM     22  O   UNL d   1      -0.864   2.471  -1.613  0.00  0.00    -0.532 OA
ATOM     23  O   UNL d   1      -0.531   0.290  -1.487  0.00  0.00    -0.532 OA
ENDBRANCH  16  21
ENDBRANCH   1  15
TORSDOF 6
