REMARK  3 active torsions:
REMARK  status: ('A' for Active; 'I' for Inactive)
REMARK    1  A    between atoms: C_2  and  C_1 
REMARK       I    between atoms: N_6  and  C_2 
REMARK    2  A    between atoms: N_8  and  C_3 
REMARK    3  A    between atoms: C_9  and  N_6 
ROOT
ATOM      1  C   UNL d   1       1.022   0.012  -0.035  0.00  0.00     0.127 C 
ATOM      2  C   UNL d   1       0.298  -0.984   0.508  0.00  0.00     0.113 C 
ATOM      3  C   UNL d   1       0.421   1.169  -0.585  0.00  0.00     0.106 C 
ATOM      4  N   UNL d   1      -0.032   2.137  -1.041  0.00  0.00    -0.191 NA
ENDROOT
BRANCH   1   5
ATOM      5  C   UNL d   1       2.524  -0.093   0.026  0.00  0.00     0.263 C 
ATOM      6  N   UNL d   1       3.228   0.927  -0.582  0.00  0.00    -0.352 N 
ATOM      7  H   UNL d   1       2.731   1.682  -1.040  0.00  0.00     0.163 HD
ATOM      8  O   UNL d   1       3.075  -1.034   0.586  0.00  0.00    -0.267 OA
BRANCH   6   9
ATOM      9  C   UNL d   1       4.687   1.034  -0.604  0.00  0.00     0.076 C 
ATOM     10  C   UNL d   1       5.286   1.167   0.794  0.00  0.00     0.032 C 
ATOM     11  C   UNL d   1       5.350  -0.092  -1.391  0.00  0.00     0.032 C 
ENDBRANCH   6   9
ENDBRANCH   1   5
BRANCH   2  12
ATOM     12  N   UNL d   1      -1.084  -1.196   0.600  0.00  0.00    -0.397 N 
ATOM     13  C   UNL d   1      -2.065  -0.739  -0.382  0.00  0.00     0.148 C 
ATOM     14  C   UNL d   1      -1.657  -1.992   1.690  0.00  0.00     0.148 C 
ENDBRANCH   2  12
TORSDOF 3
