REMARK  1 active torsions:
REMARK  status: ('A' for Active; 'I' for Inactive)
REMARK    1  A    between atoms: C_4  and  C_3 
ROOT
ATOM      1  N   UNL d   1       2.497   0.233   0.763  0.00  0.00    -0.196 NA
ATOM      2  C   UNL d   1       1.621   0.286   0.001  0.00  0.00     0.074 C 
ATOM      3  C   UNL d   1       0.476   0.346  -0.956  0.00  0.00     0.076 C 
ATOM      4  C   UNL d   1      -0.228  -1.044  -0.990  0.00  0.00     0.029 C 
ATOM      5  C   UNL d   1      -0.552   1.405  -0.450  0.00  0.00     0.029 C 
ATOM      6  C   UNL d   1      -1.305   1.013   0.823  0.00  0.00     0.002 C 
ATOM      7  C   UNL d   1      -0.971  -1.411   0.297  0.00  0.00     0.002 C 
ATOM      8  C   UNL d   1      -1.978  -0.342   0.686  0.00  0.00     0.000 C 
ENDROOT
BRANCH   3   9
ATOM      9  C   UNL d   1       1.026   0.728  -2.358  0.00  0.00    -0.035 A 
ATOM     10  C   UNL d   1       1.472  -0.254  -3.268  0.00  0.00     0.011 A 
ATOM     11  C   UNL d   1       1.968   0.092  -4.530  0.00  0.00     0.024 A 
ATOM     12  C   UNL d   1       2.041   1.427  -4.907  0.00  0.00     0.034 A 
ATOM     13  C   UNL d   1       1.633   2.420  -4.027  0.00  0.00     0.024 A 
ATOM     14 CL   UNL d   1       2.647   1.851  -6.459  0.00  0.00    -0.084 Cl
ATOM     15  C   UNL d   1       1.139   2.073  -2.763  0.00  0.00     0.011 A 
ENDBRANCH   3   9
TORSDOF 1
