REMARK  5 active torsions:
REMARK  status: ('A' for Active; 'I' for Inactive)
REMARK    1  A    between atoms: C_6  and  C_1 
REMARK    2  A    between atoms: O_10  and  C_7 
REMARK    3  A    between atoms: C_8  and  C_16 
REMARK       I    between atoms: N_9  and  C_8 
REMARK    4  A    between atoms: C_11  and  N_9 
REMARK    5  A    between atoms: C_16  and  O_10 
ROOT
ATOM      1  C   UNL d   1       1.031   1.532   3.122  0.00  0.00     0.138 A 
ATOM      2  N   UNL d   1       0.346   2.408   2.319  0.00  0.00    -0.290 N 
ATOM      3  C   UNL d   1       1.994   0.956   2.304  0.00  0.00     0.093 A 
ATOM      4  N   UNL d   1       0.827   2.447   1.057  0.00  0.00    -0.278 N 
ATOM      5  HN  UNL d   1       0.506   3.028   0.282  1.00  0.00     0.189 HD
ATOM      6  C   UNL d   1       1.811   1.557   1.054  0.00  0.00     0.159 A 
ATOM      7  C   UNL d   1      -0.793   3.254   2.592  0.00  0.00     0.178 C 
ENDROOT
BRANCH   6   8
ATOM      8  O   UNL d   1       2.412   1.391  -0.138  0.00  0.00    -0.325 OA
BRANCH   8   9
ATOM      9  C   UNL d   1       3.770   0.997  -0.077  0.00  0.00     0.280 C 
BRANCH   9  10
ATOM     10  C   UNL d   1       4.774   2.156  -0.066  0.00  0.00     0.242 C 
ATOM     11  N   UNL d   1       4.218   3.413   0.005  0.00  0.00    -0.351 N 
ATOM     12  H   UNL d   1       3.206   3.458  -0.092  0.00  0.00     0.163 HD
ATOM     13  O   UNL d   1       5.984   1.939  -0.120  0.00  0.00    -0.271 OA
BRANCH  11  14
ATOM     14  C   UNL d   1       4.970   4.676  -0.074  0.00  0.00     0.022 C 
ATOM     15  C   UNL d   1       5.664   4.812  -1.440  0.00  0.00     0.037 C 
ATOM     16  C   UNL d   1       3.976   5.840   0.098  0.00  0.00     0.037 C 
ATOM     17  C   UNL d   1       6.016   4.776   1.049  0.00  0.00     0.037 C 
ENDBRANCH  11  14
ENDBRANCH   9  10
ENDBRANCH   8   9
ENDBRANCH   6   8
BRANCH   1  18
ATOM     18  C   UNL d   1       0.757   1.264   4.549  0.00  0.00     0.434 C 
ATOM     19  F   UNL d   1      -0.233   2.012   5.083  0.00  0.00    -0.165 F 
ATOM     20  F   UNL d   1       0.413  -0.033   4.745  0.00  0.00    -0.165 F 
ATOM     21  F   UNL d   1       1.862   1.492   5.305  0.00  0.00    -0.165 F 
ENDBRANCH   1  18
TORSDOF 5
