REMARK  4 active torsions:
REMARK  status: ('A' for Active; 'I' for Inactive)
REMARK    1  A    between atoms: C_2  and  S_1 
REMARK    2  A    between atoms: C_5  and  C_9 
REMARK    3  A    between atoms: O_12  and  C_5 
REMARK    4  A    between atoms: C_9  and  C_11 
ROOT
ATOM      1  C   UNL d   1       0.415  -1.500   0.617  0.00  0.00     0.058 A 
ATOM      2  C   UNL d   1       0.746  -2.637  -0.121  0.00  0.00     0.024 A 
ATOM      3  C   UNL d   1      -0.175  -1.617   1.876  0.00  0.00     0.024 A 
ATOM      4  C   UNL d   1      -0.157  -4.042   1.650  0.00  0.00    -0.048 A 
ATOM      5  C   UNL d   1      -0.460  -2.885   2.387  0.00  0.00     0.009 A 
ATOM      6  C   UNL d   1       0.465  -3.903   0.398  0.00  0.00     0.009 A 
ENDROOT
BRANCH   4   7
ATOM      7  C   UNL d   1      -0.400  -5.400   2.274  0.00  0.00     0.148 C 
BRANCH   7   8
ATOM      8  C   UNL d   1      -0.732  -6.513   1.308  0.00  0.00     0.143 C 
ATOM      9  O   UNL d   1      -0.105  -7.559   1.231  0.00  0.00    -0.650 OA
BRANCH   8  10
ATOM     10  O   UNL d   1      -1.823  -6.272   0.543  0.00  0.00    -0.776 OA
ATOM     11  H   UNL d   1      -2.221  -5.394   0.701  0.00  0.00     0.167 HD
ENDBRANCH   8  10
ENDBRANCH   7   8
ENDBRANCH   4   7
BRANCH   1  12
ATOM     12  S   UNL d   1       0.825   0.109  -0.017  0.00  0.00     0.171 S 
ATOM     13  O   UNL d   1       1.930  -0.054  -0.943  0.00  0.00    -0.223 OA
ATOM     14  O   UNL d   1       0.926   1.012   1.113  0.00  0.00    -0.223 OA
ATOM     15  C   UNL d   1      -0.615   0.557  -0.951  0.00  0.00     0.167 C 
ENDBRANCH   1  12
TORSDOF 4
