REMARK  7 active torsions:
REMARK  status: ('A' for Active; 'I' for Inactive)
REMARK    1  A    between atoms: C_2  and  C_1 
REMARK    2  A    between atoms: N_15  and  C_1 
REMARK    3  A    between atoms: C_3  and  O_11 
REMARK    4  A    between atoms: O_10  and  N_4 
REMARK    5  A    between atoms: C_6  and  O_10 
REMARK       I    between atoms: N_9  and  C_6 
REMARK    6  A    between atoms: C_19  and  N_9 
REMARK    7  A    between atoms: O_11  and  C_20 
ROOT
ATOM      1  C   UNL d   1      -1.673   1.990  -1.212  0.00  0.00     0.387 C 
ATOM      2  N   UNL d   1      -0.900   2.836  -1.972  0.00  0.00    -0.301 N 
ATOM      3  O   UNL d   1      -2.889   2.154  -1.154  0.00  0.00    -0.236 OA
ATOM      4  H   UNL d   1      -1.474   3.546  -2.403  0.00  0.00     0.171 HD
ENDROOT
BRANCH   1   5
ATOM      5  O   UNL d   1      -1.013   0.976  -0.574  0.00  0.00    -0.179 OA
BRANCH   5   6
ATOM      6  N   UNL d   1      -1.232   1.072   0.820  0.00  0.00    -0.243 N 
ATOM      7  C   UNL d   1      -0.634   0.097   1.438  0.00  0.00     0.127 C 
ATOM      8  HN  UNL d   1      -1.780   1.802   1.275  1.00  0.00     0.196 HD
BRANCH   7   9
ATOM      9  C   UNL d   1      -0.583   0.105   2.938  0.00  0.00     0.087 A 
ATOM     10  N   UNL d   1       0.061  -0.955   3.510  0.00  0.00    -0.361 N 
ATOM     11  C   UNL d   1       0.188  -0.884   4.856  0.00  0.00     0.105 A 
ATOM     12  HN  UNL d   1       0.419  -1.740   2.965  1.00  0.00     0.165 HD
ATOM     13  C   UNL d   1      -0.312   0.174   5.600  0.00  0.00     0.104 A 
ATOM     14  N   UNL d   1      -0.973   1.211   5.036  0.00  0.00    -0.372 N 
ATOM     15  C   UNL d   1      -1.095   1.157   3.683  0.00  0.00     0.120 A 
ATOM     16  HN  UNL d   1      -1.354   1.980   5.588  1.00  0.00     0.164 HD
ENDBRANCH   7   9
BRANCH   7  17
ATOM     17  N   UNL d   1      -0.025  -0.963   0.793  0.00  0.00    -0.285 NA
ATOM     18  H   UNL d   1       0.115  -1.773   1.395  0.00  0.00     0.125 HD
ATOM     19  H   UNL d   1      -0.442  -1.185  -0.104  0.00  0.00     0.125 HD
ENDBRANCH   7  17
ENDBRANCH   5   6
ENDBRANCH   1   5
BRANCH   2  20
ATOM     20  C   UNL d   1       0.495   3.012  -2.033  0.00  0.00     0.037 A 
ATOM     21  C   UNL d   1       1.433   2.164  -1.447  0.00  0.00     0.032 A 
ATOM     22  C   UNL d   1       2.797   2.481  -1.461  0.00  0.00     0.039 A 
ATOM     23  C   UNL d   1       3.239   3.672  -2.026  0.00  0.00     0.078 A 
ATOM     24  C   UNL d   1       2.321   4.480  -2.696  0.00  0.00     0.039 A 
ATOM     25  C   UNL d   1       0.959   4.152  -2.701  0.00  0.00     0.032 A 
BRANCH  23  26
ATOM     26  O   UNL d   1       4.533   4.089  -2.049  0.00  0.00    -0.255 OA
BRANCH  26  27
ATOM     27  C   UNL d   1       5.324   3.906  -0.878  0.00  0.00     0.530 C 
ATOM     28  F   UNL d   1       4.707   3.251   0.127  0.00  0.00    -0.144 F 
ATOM     29  F   UNL d   1       6.441   3.222  -1.210  0.00  0.00    -0.144 F 
ATOM     30  F   UNL d   1       5.700   5.119  -0.411  0.00  0.00    -0.144 F 
ENDBRANCH  26  27
ENDBRANCH  23  26
ENDBRANCH   2  20
TORSDOF 7
