REMARK  2 active torsions:
REMARK  status: ('A' for Active; 'I' for Inactive)
REMARK    1  A    between atoms: C_11  and  C_8 
REMARK    2  A    between atoms: O_10  and  C_11 
ROOT
ATOM      1  C   UNL d   1      -0.180  -0.681   0.014  0.00  0.00     0.105 A 
ATOM      2  C   UNL d   1      -0.187   0.693   0.022  0.00  0.00     0.105 A 
ATOM      3  O   UNL d   1      -1.434  -1.207   0.021  0.00  0.00    -0.323 OA
ATOM      4  O   UNL d   1      -1.446   1.206   0.038  0.00  0.00    -0.323 OA
ATOM      5  C   UNL d   1      -2.230  -0.004   0.079  0.00  0.00     0.352 A 
ATOM      6  C   UNL d   1       0.995  -1.404  -0.000  0.00  0.00     0.049 A 
ATOM      7  C   UNL d   1       0.981   1.423   0.012  0.00  0.00     0.040 A 
ATOM      8  C   UNL d   1       2.211  -0.699   0.009  0.00  0.00    -0.032 A 
ATOM      9  C   UNL d   1       2.188   0.716   0.002  0.00  0.00     0.012 A 
ENDROOT
BRANCH   8  10
ATOM     10  C   UNL d   1       3.511  -1.459  -0.038  0.00  0.00     0.203 C 
BRANCH  10  11
ATOM     11  O   UNL d   1       4.545  -0.742   0.623  0.00  0.00    -0.396 OA
ATOM     12  H   UNL d   1       5.338  -1.301   0.586  0.00  0.00     0.209 HD
ENDBRANCH  10  11
ENDBRANCH   8  10
TORSDOF 2
