REMARK  6 active torsions:
REMARK  status: ('A' for Active; 'I' for Inactive)
REMARK    1  A    between atoms: N_2  and  C_1 
REMARK    2  A    between atoms: C_3  and  C_1 
REMARK    3  A    between atoms: C_4  and  C_1 
REMARK    4  A    between atoms: N_6  and  C_1 
REMARK       I    between atoms: C_5  and  N_2 
REMARK    5  A    between atoms: C_12  and  C_5 
REMARK    6  A    between atoms: C_9  and  N_6 
ROOT
ATOM      1  C   UNL d   1       0.936  -0.093   0.159  0.00  0.00     0.306 C 
ENDROOT
BRANCH   1   2
ATOM      2  N   UNL d   1       0.379   0.531   1.386  0.00  0.00    -0.315 N 
ATOM      3  C   UNL d   1       0.367   1.883   1.607  0.00  0.00     0.254 C 
ATOM      4  O   UNL d   1       0.764   2.698   0.792  0.00  0.00    -0.268 OA
ATOM      5  H   UNL d   1      -0.007  -0.091   2.085  0.00  0.00     0.165 HD
BRANCH   3   6
ATOM      6  C   UNL d   1      -0.199   2.328   2.902  0.00  0.00     0.032 A 
ATOM      7  C   UNL d   1       0.126   1.690   4.104  0.00  0.00     0.017 A 
ATOM      8  C   UNL d   1      -0.386   2.183   5.307  0.00  0.00     0.001 A 
ATOM      9  C   UNL d   1      -1.222   3.301   5.308  0.00  0.00     0.000 A 
ATOM     10  C   UNL d   1      -1.554   3.929   4.107  0.00  0.00     0.001 A 
ATOM     11  C   UNL d   1      -1.038   3.448   2.904  0.00  0.00     0.017 A 
ENDBRANCH   3   6
ENDBRANCH   1   2
BRANCH   1  12
ATOM     12  C   UNL d   1       0.522   0.601  -1.189  0.00  0.00     0.441 C 
ATOM     13  F   UNL d   1      -0.748   1.073  -1.144  0.00  0.00    -0.166 F 
ATOM     14  F   UNL d   1       1.338   1.647  -1.485  0.00  0.00    -0.166 F 
ATOM     15  F   UNL d   1       0.603  -0.230  -2.256  0.00  0.00    -0.166 F 
ENDBRANCH   1  12
BRANCH   1  16
ATOM     16  C   UNL d   1       0.385  -1.544  -0.030  0.00  0.00     0.441 C 
ATOM     17  F   UNL d   1       0.013  -2.065   1.177  0.00  0.00    -0.166 F 
ATOM     18  F   UNL d   1      -0.722  -1.618  -0.802  0.00  0.00    -0.166 F 
ATOM     19  F   UNL d   1       1.302  -2.395  -0.547  0.00  0.00    -0.166 F 
ENDBRANCH   1  16
BRANCH   1  20
ATOM     20  N   UNL d   1       2.424  -0.009   0.334  0.00  0.00    -0.349 N 
ATOM     21  H   UNL d   1       2.763   0.905   0.016  0.00  0.00     0.162 HD
BRANCH  20  22
ATOM     22  C   UNL d   1       3.226  -0.575   1.305  0.00  0.00     0.033 A 
ATOM     23  C   UNL d   1       2.781  -1.436   2.310  0.00  0.00     0.074 A 
ATOM     24  C   UNL d   1       3.677  -2.021   3.203  0.00  0.00     0.157 A 
ATOM     25  F   UNL d   1       3.204  -2.820   4.168  0.00  0.00    -0.203 F 
ATOM     26  C   UNL d   1       5.040  -1.782   3.100  0.00  0.00     0.154 A 
ATOM     27  C   UNL d   1       5.518  -0.952   2.098  0.00  0.00     0.047 A 
ATOM     28  F   UNL d   1       5.893  -2.350   3.957  0.00  0.00    -0.203 F 
ATOM     29  C   UNL d   1       4.616  -0.362   1.207  0.00  0.00     0.032 A 
ENDBRANCH  20  22
ENDBRANCH   1  20
TORSDOF 6
