REMARK  0 active torsions:
REMARK  status: ('A' for Active; 'I' for Inactive)
ROOT
ATOM      1  N   UNL d   1       1.605  -1.132   0.001  0.00  0.00    -0.345 N 
ATOM      2  HN  UNL d   1       1.966  -2.086   0.001  1.00  0.00     0.167 HD
ATOM      3  C   UNL d   1       0.296  -0.718   0.001  0.00  0.00     0.069 A 
ATOM      4  C   UNL d   1       2.280  -0.003   0.002  0.00  0.00     0.234 A 
ATOM      5  C   UNL d   1      -0.899  -1.446   0.001  0.00  0.00     0.056 A 
ATOM      6  C   UNL d   1       0.245   0.668   0.001  0.00  0.00     0.103 A 
ATOM      7  O   UNL d   1       1.528   1.134   0.002  0.00  0.00    -0.304 OA
ATOM      8  C   UNL d   1      -0.925   1.418   0.001  0.00  0.00     0.041 A 
ATOM      9  C   UNL d   1      -2.099  -0.723   0.001  0.00  0.00     0.036 A 
ATOM     10  C   UNL d   1      -2.115   0.679   0.001  0.00  0.00     0.026 A 
ATOM     11 CL   UNL d   1      -3.594  -1.580   0.002  0.00  0.00    -0.084 Cl
ENDROOT
TORSDOF 0
