REMARK  23 active torsions:
REMARK  status: ('A' for Active; 'I' for Inactive)
REMARK    1  A    between atoms: C_1  and  O_12 
REMARK    2  A    between atoms: C_2  and  O_13 
REMARK    3  A    between atoms: C_3  and  O_8 
REMARK    4  A    between atoms: C_4  and  O_14 
REMARK    5  A    between atoms: C_5  and  O_8 
REMARK    6  A    between atoms: C_11  and  C_5 
REMARK    7  A    between atoms: C_6  and  C_5 
REMARK    8  A    between atoms: C_6  and  O_17 
REMARK    9  A    between atoms: C_6  and  C_10 
REMARK   10  A    between atoms: C_9  and  C_28 
REMARK   11  A    between atoms: C_10  and  O_18 
REMARK   12  A    between atoms: C_11  and  O_19 
REMARK   13  A    between atoms: C_29  and  C_11 
REMARK   14  A    between atoms: C_20  and  O_12 
REMARK   15  A    between atoms: C_21  and  O_13 
REMARK   16  A    between atoms: C_22  and  O_14 
REMARK   17  A    between atoms: C_23  and  O_17 
REMARK   18  A    between atoms: C_24  and  O_18 
REMARK   19  A    between atoms: C_25  and  O_19 
REMARK   20  A    between atoms: C_26  and  O_30 
REMARK   21  A    between atoms: C_27  and  O_31 
REMARK   22  A    between atoms: O_30  and  C_28 
REMARK   23  A    between atoms: O_31  and  C_29 
ROOT
ATOM      1  C   UNL d   1      -9.540  -2.004   1.593  0.00  0.00     0.270 C 
ATOM      2  C   UNL d   1     -10.561  -2.936   2.118  0.00  0.00     0.094 C 
ATOM      3  N   UNL d   1     -11.418  -3.585   2.564  0.00  0.00    -0.194 NA
ENDROOT
BRANCH   1   4
ATOM      4  O   UNL d   1      -9.704  -1.767   0.173  0.00  0.00    -0.299 OA
BRANCH   4   5
ATOM      5  C   UNL d   1      -9.533  -2.843  -0.639  0.00  0.00     0.256 C 
ATOM      6  O   UNL d   1      -9.266  -3.963  -0.243  0.00  0.00    -0.266 OA
ATOM      7  C   UNL d   1      -9.686  -2.476  -2.081  0.00  0.00     0.126 C 
ENDBRANCH   4   5
ENDBRANCH   1   4
BRANCH   1   8
ATOM      8  C   UNL d   1      -8.086  -2.361   1.990  0.00  0.00     0.207 C 
BRANCH   8   9
ATOM      9  O   UNL d   1      -7.940  -2.295   3.434  0.00  0.00    -0.310 OA
BRANCH   9  10
ATOM     10  C   UNL d   1      -8.103  -3.465   4.117  0.00  0.00     0.255 C 
ATOM     11  O   UNL d   1      -8.317  -4.555   3.612  0.00  0.00    -0.266 OA
ATOM     12  C   UNL d   1      -8.014  -3.227   5.591  0.00  0.00     0.126 C 
ENDBRANCH   9  10
ENDBRANCH   8   9
BRANCH   8  13
ATOM     13  C   UNL d   1      -6.973  -1.478   1.310  0.00  0.00     0.189 C 
BRANCH  13  14
ATOM     14  O   UNL d   1      -5.646  -1.903   1.684  0.00  0.00    -0.348 OA
BRANCH  14  15
ATOM     15  C   UNL d   1      -4.962  -2.985   1.012  0.00  0.00     0.293 C 
ATOM     16  C   UNL d   1      -5.463  -4.404   1.370  0.00  0.00     0.219 C 
ATOM     17  C   UNL d   1      -4.715  -5.537   0.631  0.00  0.00     0.198 C 
ATOM     18  C   UNL d   1      -4.375  -5.218  -0.844  0.00  0.00     0.195 C 
ATOM     19  C   UNL d   1      -3.848  -3.769  -0.916  0.00  0.00     0.181 C 
ATOM     20  O   UNL d   1      -4.827  -2.828  -0.403  0.00  0.00    -0.348 OA
BRANCH  16  21
ATOM     21  O   UNL d   1      -5.469  -4.603   2.811  0.00  0.00    -0.308 OA
BRANCH  21  22
ATOM     22  C   UNL d   1      -4.289  -4.542   3.479  0.00  0.00     0.255 C 
ATOM     23  O   UNL d   1      -3.190  -4.390   2.965  0.00  0.00    -0.266 OA
ATOM     24  C   UNL d   1      -4.514  -4.594   4.956  0.00  0.00     0.126 C 
ENDBRANCH  21  22
ENDBRANCH  16  21
BRANCH  17  25
ATOM     25  O   UNL d   1      -5.381  -6.822   0.808  0.00  0.00    -0.311 OA
BRANCH  25  26
ATOM     26  C   UNL d   1      -6.581  -7.027   0.195  0.00  0.00     0.255 C 
ATOM     27  O   UNL d   1      -7.187  -6.186  -0.452  0.00  0.00    -0.266 OA
ATOM     28  C   UNL d   1      -7.043  -8.436   0.415  0.00  0.00     0.126 C 
ENDBRANCH  25  26
ENDBRANCH  17  25
BRANCH  18  29
ATOM     29  O   UNL d   1      -3.303  -6.113  -1.262  0.00  0.00    -0.311 OA
BRANCH  29  30
ATOM     30  C   UNL d   1      -3.654  -7.345  -1.726  0.00  0.00     0.255 C 
ATOM     31  O   UNL d   1      -4.793  -7.745  -1.910  0.00  0.00    -0.266 OA
ATOM     32  C   UNL d   1      -2.435  -8.181  -1.975  0.00  0.00     0.126 C 
ENDBRANCH  29  30
ENDBRANCH  18  29
BRANCH  19  33
ATOM     33  C   UNL d   1      -3.383  -3.352  -2.318  0.00  0.00     0.213 C 
BRANCH  33  34
ATOM     34  O   UNL d   1      -4.480  -3.110  -3.210  0.00  0.00    -0.319 OA
BRANCH  34  35
ATOM     35  C   UNL d   1      -4.709  -4.046  -4.165  0.00  0.00     0.254 C 
ATOM     36  O   UNL d   1      -4.142  -5.125  -4.252  0.00  0.00    -0.266 OA
ATOM     37  C   UNL d   1      -5.734  -3.548  -5.139  0.00  0.00     0.126 C 
ENDBRANCH  34  35
ENDBRANCH  33  34
ENDBRANCH  19  33
ENDBRANCH  14  15
ENDBRANCH  13  14
BRANCH  13  38
ATOM     38  C   UNL d   1      -7.065   0.063   1.654  0.00  0.00     0.188 C 
BRANCH  38  39
ATOM     39  O   UNL d   1      -8.409   0.581   1.496  0.00  0.00    -0.311 OA
BRANCH  39  40
ATOM     40  C   UNL d   1      -8.771   1.095   0.295  0.00  0.00     0.255 C 
ATOM     41  O   UNL d   1      -8.083   1.081  -0.712  0.00  0.00    -0.266 OA
ATOM     42  C   UNL d   1     -10.192   1.582   0.360  0.00  0.00     0.126 C 
ENDBRANCH  39  40
ENDBRANCH  38  39
BRANCH  38  43
ATOM     43  C   UNL d   1      -6.643   0.427   3.095  0.00  0.00     0.213 C 
BRANCH  43  44
ATOM     44  O   UNL d   1      -6.926   1.819   3.388  0.00  0.00    -0.319 OA
BRANCH  44  45
ATOM     45  C   UNL d   1      -5.966   2.727   3.080  0.00  0.00     0.254 C 
ATOM     46  O   UNL d   1      -4.896   2.465   2.549  0.00  0.00    -0.266 OA
ATOM     47  C   UNL d   1      -6.394   4.110   3.480  0.00  0.00     0.126 C 
ENDBRANCH  44  45
ENDBRANCH  43  44
ENDBRANCH  38  43
ENDBRANCH  13  38
ENDBRANCH   8  13
ENDBRANCH   1   8
TORSDOF 23
