REMARK  4 active torsions:
REMARK  status: ('A' for Active; 'I' for Inactive)
REMARK       I    between atoms: N_2  and  C_1 
REMARK       I    between atoms: N_3  and  C_1 
REMARK    1  A    between atoms: C_4  and  N_3 
REMARK    2  A    between atoms: C_16  and  N_5 
REMARK    3  A    between atoms: C_19  and  C_16 
REMARK    4  A    between atoms: C_20  and  C_19 
ROOT
ATOM      1  C   UNL d   1       1.019  -0.201   0.065  0.00  0.00     0.323 C 
ATOM      2  N   UNL d   1       0.441  -0.130  -1.193  0.00  0.00    -0.331 N 
ATOM      3  N   UNL d   1       0.611   0.749   0.970  0.00  0.00    -0.309 N 
ATOM      4  N   UNL d   1      -0.234   0.176  -4.052  0.00  0.00     0.091 N 
ATOM      5  O   UNL d   1       1.853  -1.071   0.317  0.00  0.00    -0.247 OA
ATOM      6  C   UNL d   1       0.825  -1.163  -2.167  0.00  0.00     0.158 C 
ATOM      7  C   UNL d   1      -0.687   0.713  -1.614  0.00  0.00     0.158 C 
ATOM      8  C   UNL d   1       0.947  -0.597  -3.595  0.00  0.00     0.292 C 
ATOM      9  C   UNL d   1      -0.495   1.231  -3.051  0.00  0.00     0.292 C 
ATOM     10  H   UNL d   1      -0.149   1.345   0.701  0.00  0.00     0.170 HD
ENDROOT
BRANCH   3  11
ATOM     11  C   UNL d   1       1.058   0.914   2.300  0.00  0.00     0.039 A 
ATOM     12  C   UNL d   1       2.099   0.177   2.869  0.00  0.00     0.053 A 
ATOM     13  C   UNL d   1       2.436   0.355   4.211  0.00  0.00     0.037 A 
ATOM     14 CL   UNL d   1       3.696  -0.591   4.906  0.00  0.00    -0.084 Cl
ATOM     15  C   UNL d   1       1.758   1.279   4.998  0.00  0.00     0.048 A 
ATOM     16  C   UNL d   1       0.747   2.041   4.424  0.00  0.00     0.037 A 
ATOM     17  C   UNL d   1       0.398   1.869   3.083  0.00  0.00     0.053 A 
ATOM     18 CL   UNL d   1      -0.096   3.198   5.379  0.00  0.00    -0.084 Cl
ENDBRANCH   3  11
BRANCH   4  19
ATOM     19  C   UNL d   1      -1.387  -0.719  -4.278  0.00  0.00     0.277 C 
BRANCH  19  20
ATOM     20  C   UNL d   1      -2.620   0.003  -4.844  0.00  0.00     0.068 C 
BRANCH  20  21
ATOM     21  C   UNL d   1      -3.786  -0.936  -5.032  0.00  0.00    -0.057 A 
ATOM     22  C   UNL d   1      -4.675  -1.180  -3.975  0.00  0.00     0.007 A 
ATOM     23  C   UNL d   1      -5.766  -2.030  -4.153  0.00  0.00     0.001 A 
ATOM     24  C   UNL d   1      -5.974  -2.647  -5.385  0.00  0.00     0.000 A 
ATOM     25  C   UNL d   1      -5.084  -2.425  -6.435  0.00  0.00     0.001 A 
ATOM     26  C   UNL d   1      -3.992  -1.575  -6.259  0.00  0.00     0.007 A 
ENDBRANCH  20  21
ENDBRANCH  19  20
ENDBRANCH   4  19
TORSDOF 4
