REMARK  5 active torsions:
REMARK  status: ('A' for Active; 'I' for Inactive)
REMARK    1  A    between atoms: S_4  and  C_1 
REMARK    2  A    between atoms: C_3  and  C_2 
REMARK    3  A    between atoms: C_6  and  S_4 
REMARK    4  A    between atoms: C_5  and  C_7 
REMARK    5  A    between atoms: C_8  and  C_6 
ROOT
ATOM      1  S   UNL d   1      -1.255   2.470  -0.727  0.00  0.00    -0.029 SA
ENDROOT
BRANCH   1   2
ATOM      2  C   UNL d   1      -1.379   1.559   0.799  0.00  0.00     0.092 A 
ATOM      3  C   UNL d   1      -2.406   0.659   1.077  0.00  0.00     0.081 A 
ATOM      4  C   UNL d   1      -2.358  -0.025   2.310  0.00  0.00     0.020 A 
ATOM      5  C   UNL d   1      -1.312   0.182   3.199  0.00  0.00     0.018 A 
ATOM      6  C   UNL d   1      -0.330   1.073   2.828  0.00  0.00     0.089 A 
ATOM      7  N   UNL d   1      -0.340   1.752   1.658  0.00  0.00    -0.360 N 
ATOM      8  HN  UNL d   1       0.415   2.397   1.424  1.00  0.00     0.166 HD
BRANCH   3   9
ATOM      9  C   UNL d   1      -3.546   0.335   0.156  0.00  0.00     0.420 C 
ATOM     10  F   UNL d   1      -3.633   1.044  -0.997  0.00  0.00    -0.166 F 
ATOM     11  F   UNL d   1      -3.516  -0.976  -0.227  0.00  0.00    -0.166 F 
ATOM     12  F   UNL d   1      -4.755   0.497   0.771  0.00  0.00    -0.166 F 
ENDBRANCH   3   9
ENDBRANCH   1   2
BRANCH   1  13
ATOM     13  C   UNL d   1      -0.553   3.981  -0.164  0.00  0.00     0.225 C 
ATOM     14  O   UNL d   1      -1.282   4.906   0.187  0.00  0.00    -0.279 OA
BRANCH  13  15
ATOM     15  C   UNL d   1       0.939   4.134  -0.180  0.00  0.00     0.022 A 
ATOM     16  C   UNL d   1       1.817   3.087  -0.496  0.00  0.00     0.032 A 
ATOM     17  C   UNL d   1       3.210   3.245  -0.382  0.00  0.00     0.048 A 
ATOM     18  C   UNL d   1       3.724   4.496  -0.009  0.00  0.00     0.016 A 
ATOM     19  C   UNL d   1       2.863   5.558   0.263  0.00  0.00     0.002 A 
ATOM     20  C   UNL d   1       1.479   5.375   0.189  0.00  0.00     0.016 A 
BRANCH  17  21
ATOM     21  C   UNL d   1       4.134   2.071  -0.590  0.00  0.00     0.417 C 
ATOM     22  F   UNL d   1       3.485   0.923  -0.934  0.00  0.00    -0.166 F 
ATOM     23  F   UNL d   1       5.053   2.288  -1.568  0.00  0.00    -0.166 F 
ATOM     24  F   UNL d   1       4.843   1.771   0.534  0.00  0.00    -0.166 F 
ENDBRANCH  17  21
ENDBRANCH  13  15
ENDBRANCH   1  13
TORSDOF 5
