REMARK  2 active torsions:
REMARK  status: ('A' for Active; 'I' for Inactive)
REMARK    1  A    between atoms: C_3  and  C_4 
REMARK       I    between atoms: N_5  and  C_3 
REMARK    2  A    between atoms: C_7  and  N_5 
ROOT
ATOM      1  N   UNL d   1       6.677  -2.127  -3.512  0.00  0.00    -0.197 NA
ATOM      2  C   UNL d   1       6.311  -1.426  -2.665  0.00  0.00     0.068 C 
ATOM      3  C   UNL d   1       5.800  -0.546  -1.617  0.00  0.00     0.226 C 
ENDROOT
BRANCH   3   4
ATOM      4  C   UNL d   1       4.287  -0.459  -1.557  0.00  0.00     0.231 C 
ATOM      5  N   UNL d   1       3.541  -1.186  -2.465  0.00  0.00    -0.356 N 
ATOM      6  H   UNL d   1       3.991  -1.639  -3.255  0.00  0.00     0.162 HD
ATOM      7  O   UNL d   1       3.757   0.242  -0.693  0.00  0.00    -0.273 OA
BRANCH   5   8
ATOM      8  C   UNL d   1       2.077  -1.179  -2.445  0.00  0.00     0.084 C 
ATOM      9  C   UNL d   1       1.499  -2.506  -2.963  0.00  0.00     0.025 C 
ATOM     10  C   UNL d   1       1.489  -2.632  -4.486  0.00  0.00     0.002 C 
ATOM     11  C   UNL d   1       0.835  -1.426  -5.148  0.00  0.00     0.000 C 
ATOM     12  C   UNL d   1       1.516  -0.133  -4.716  0.00  0.00     0.002 C 
ATOM     13  C   UNL d   1       1.498   0.029  -3.197  0.00  0.00     0.025 C 
ENDBRANCH   5   8
ENDBRANCH   3   4
TORSDOF 2
