REMARK  3 active torsions:
REMARK  status: ('A' for Active; 'I' for Inactive)
REMARK    1  A    between atoms: C_3  and  C_1 
REMARK    2  A    between atoms: C_2  and  N_4 
REMARK       I    between atoms: N_5  and  C_3 
REMARK    3  A    between atoms: N_4  and  N_5 
ROOT
ATOM      1  N   UNL d   1       0.621   3.575   0.265  0.00  0.00    -0.200 NA
ATOM      2  H   UNL d   1       1.198   2.841  -0.174  0.00  0.00     0.153 HD
ENDROOT
BRANCH   1   3
ATOM      3  C   UNL d   1       1.192   4.869   0.042  0.00  0.00     0.073 A 
ATOM      4  C   UNL d   1       0.532   6.081   0.335  0.00  0.00     0.073 A 
ATOM      5 CL   UNL d   1      -1.065   6.175   0.997  0.00  0.00    -0.081 Cl
ATOM      6  C   UNL d   1       1.202   7.284   0.127  0.00  0.00     0.113 A 
ATOM      7  N   UNL d   1       2.475   7.382  -0.315  0.00  0.00    -0.372 N 
ATOM      8  C   UNL d   1       3.117   6.215  -0.544  0.00  0.00     0.113 A 
ATOM      9  HN  UNL d   1       2.926   8.284  -0.467  1.00  0.00     0.164 HD
ATOM     10  C   UNL d   1       2.535   4.963  -0.376  0.00  0.00     0.073 A 
ATOM     11 CL   UNL d   1       3.481   3.555  -0.701  0.00  0.00    -0.081 Cl
ENDBRANCH   1   3
BRANCH   1  12
ATOM     12  N   UNL d   1      -0.712   3.474  -0.166  0.00  0.00    -0.281 N 
ATOM     13  C   UNL d   1      -1.144   2.314  -0.793  0.00  0.00     0.291 C 
ATOM     14  O   UNL d   1      -0.366   1.423  -1.126  0.00  0.00    -0.264 OA
ATOM     15  H   UNL d   1      -1.387   4.096   0.278  0.00  0.00     0.184 HD
BRANCH  13  16
ATOM     16  C   UNL d   1      -2.569   2.271  -1.009  0.00  0.00     0.168 A 
ATOM     17  O   UNL d   1      -3.321   3.363  -0.675  0.00  0.00    -0.233 OA
ATOM     18  N   UNL d   1      -4.649   3.125  -0.979  0.00  0.00    -0.272 N 
ATOM     19  C   UNL d   1      -4.679   1.892  -1.488  0.00  0.00     0.117 A 
ATOM     20  HN  UNL d   1      -5.437   3.757  -0.842  1.00  0.00     0.194 HD
ATOM     21  C   UNL d   1      -3.402   1.306  -1.526  0.00  0.00     0.064 A 
ENDBRANCH  13  16
ENDBRANCH   1  12
TORSDOF 3
