REMARK  4 active torsions:
REMARK  status: ('A' for Active; 'I' for Inactive)
REMARK    1  A    between atoms: C_4  and  N_1 
REMARK    2  A    between atoms: C_2  and  S_7 
REMARK    3  A    between atoms: S_7  and  C_13 
REMARK    4  A    between atoms: C_13  and  C_14 
ROOT
ATOM      1  C   UNL d   1       0.147   0.064   1.238  0.00  0.00     0.102 A 
ATOM      2  C   UNL d   1       0.612   0.909   2.252  0.00  0.00     0.036 A 
ATOM      3  C   UNL d   1      -1.030  -0.670   1.413  0.00  0.00     0.036 A 
ATOM      4  C   UNL d   1      -1.265   0.242   3.666  0.00  0.00    -0.048 A 
ATOM      5  C   UNL d   1      -1.737  -0.563   2.614  0.00  0.00     0.010 A 
ATOM      6  C   UNL d   1      -0.097   0.995   3.457  0.00  0.00     0.010 A 
ENDROOT
BRANCH   4   7
ATOM      7  C   UNL d   1      -2.010   0.369   4.985  0.00  0.00     0.118 C 
BRANCH   7   8
ATOM      8  S   UNL d   1      -2.716  -1.203   5.575  0.00  0.00    -0.118 SA
BRANCH   8   9
ATOM      9  C   UNL d   1      -3.482  -0.731   7.081  0.00  0.00     0.041 A 
ATOM     10  S   UNL d   1      -2.605  -0.147   8.428  0.00  0.00    -0.095 SA
ATOM     11  C   UNL d   1      -4.010  -0.102   9.404  0.00  0.00     0.051 A 
ATOM     12  C   UNL d   1      -5.132  -0.505   8.714  0.00  0.00     0.009 A 
ATOM     13  C   UNL d   1      -4.824  -0.865   7.367  0.00  0.00     0.026 A 
ENDBRANCH   8   9
ENDBRANCH   7   8
ENDBRANCH   4   7
BRANCH   1  14
ATOM     14  N   UNL d   1       0.895  -0.053  -0.019  0.00  0.00    -0.116 N 
ATOM     15  O   UNL d   1       1.909   0.645  -0.155  0.00  0.00    -0.532 OA
ATOM     16  O   UNL d   1       0.469  -0.846  -0.874  0.00  0.00    -0.532 OA
ENDBRANCH   1  14
TORSDOF 4
