REMARK  6 active torsions:
REMARK  status: ('A' for Active; 'I' for Inactive)
REMARK    1  A    between atoms: C_6  and  S_1 
REMARK    2  A    between atoms: C_8  and  S_1 
REMARK    3  A    between atoms: C_4  and  C_6 
REMARK    4  A    between atoms: C_11  and  C_5 
REMARK    5  A    between atoms: C_10  and  C_8 
REMARK    6  A    between atoms: C_23  and  C_15 
ROOT
ATOM      1  N   UNL d   1       1.403   1.302  -3.587  0.00  0.00    -0.352 N 
ATOM      2  HN  UNL d   1       1.708   0.442  -4.042  1.00  0.00     0.166 HD
ATOM      3  C   UNL d   1       0.717   1.355  -2.464  0.00  0.00     0.065 A 
ATOM      4  C   UNL d   1       1.653   2.579  -4.063  0.00  0.00     0.049 A 
ATOM      5  S   UNL d   1       0.365   2.940  -1.898  0.00  0.00    -0.085 SA
ATOM      6  C   UNL d   1       1.126   3.593  -3.286  0.00  0.00     0.081 A 
ENDROOT
BRANCH   4   7
ATOM      7  C   UNL d   1       2.379   2.807  -5.308  0.00  0.00    -0.009 A 
ATOM      8  C   UNL d   1       2.371   1.839  -6.315  0.00  0.00     0.014 A 
ATOM      9  C   UNL d   1       3.030   2.068  -7.533  0.00  0.00     0.013 A 
ATOM     10  C   UNL d   1       3.719   3.268  -7.787  0.00  0.00    -0.026 A 
ATOM     11  C   UNL d   1       3.733   4.220  -6.754  0.00  0.00     0.013 A 
ATOM     12  C   UNL d   1       3.087   3.992  -5.533  0.00  0.00     0.014 A 
BRANCH  10  13
ATOM     13  C   UNL d   1       4.403   3.522  -9.081  0.00  0.00    -0.026 A 
ATOM     14  C   UNL d   1       5.579   4.293  -9.152  0.00  0.00     0.012 A 
ATOM     15  C   UNL d   1       6.226   4.537 -10.368  0.00  0.00     0.001 A 
ATOM     16  C   UNL d   1       5.717   4.004 -11.547  0.00  0.00     0.000 A 
ATOM     17  C   UNL d   1       4.557   3.238 -11.510  0.00  0.00     0.001 A 
ATOM     18  C   UNL d   1       3.905   3.008 -10.293  0.00  0.00     0.012 A 
ENDBRANCH  10  13
ENDBRANCH   4   7
BRANCH   3  19
ATOM     19  C   UNL d   1       0.289   0.163  -1.692  0.00  0.00     0.205 C 
BRANCH  19  20
ATOM     20  S   UNL d   1      -1.326  -0.344  -2.260  0.00  0.00     0.156 S 
ATOM     21  O   UNL d   1      -2.235   0.786  -2.135  0.00  0.00    -0.227 OA
ATOM     22  O   UNL d   1      -1.663  -1.573  -1.556  0.00  0.00    -0.227 OA
BRANCH  20  23
ATOM     23  C   UNL d   1      -1.165  -0.716  -4.002  0.00  0.00     0.205 C 
BRANCH  23  24
ATOM     24  C   UNL d   1      -0.169  -1.788  -4.216  0.00  0.00     0.066 A 
ATOM     25  O   UNL d   1       0.912  -1.457  -4.978  0.00  0.00    -0.326 OA
ATOM     26  C   UNL d   1       1.691  -2.563  -5.075  0.00  0.00     0.142 A 
ATOM     27  C   UNL d   1       1.121  -3.612  -4.393  0.00  0.00     0.027 A 
ATOM     28  C   UNL d   1      -0.087  -3.115  -3.844  0.00  0.00     0.035 A 
ENDBRANCH  23  24
ENDBRANCH  20  23
ENDBRANCH  19  20
ENDBRANCH   3  19
TORSDOF 6
