REMARK  7 active torsions:
REMARK  status: ('A' for Active; 'I' for Inactive)
REMARK    1  A    between atoms: O_8  and  C_1 
REMARK    2  A    between atoms: C_11  and  N_2 
REMARK    3  A    between atoms: S_10  and  C_3 
REMARK    4  A    between atoms: C_9  and  O_8 
REMARK       I    between atoms: N_12  and  C_9 
REMARK    5  A    between atoms: C_20  and  S_10 
REMARK    6  A    between atoms: C_21  and  N_12 
REMARK    7  A    between atoms: C_22  and  N_12 
ROOT
ATOM      1  C   UNL d   1       0.172  -1.052   0.418  0.00  0.00     0.256 A 
ATOM      2  N   UNL d   1       1.290  -0.317   0.022  0.00  0.00    -0.255 N 
ATOM      3  C   UNL d   1       0.737   0.904  -0.374  0.00  0.00     0.169 A 
ATOM      4  N   UNL d   1      -0.911  -0.309   0.340  0.00  0.00    -0.262 N 
ATOM      5  HN  UNL d   1      -1.852  -0.594   0.614  1.00  0.00     0.190 HD
ATOM      6  N   UNL d   1      -0.561   0.907  -0.171  0.00  0.00    -0.276 N 
ATOM      7  HN  UNL d   1      -1.196   1.683  -0.362  1.00  0.00     0.189 HD
ENDROOT
BRANCH   1   8
ATOM      8  O   UNL d   1       0.096  -2.295   0.869  0.00  0.00    -0.226 OA
BRANCH   8   9
ATOM      9  C   UNL d   1       0.573  -3.301   0.100  0.00  0.00     0.370 C 
ATOM     10  N   UNL d   1       0.050  -4.544   0.477  0.00  0.00    -0.328 N 
ATOM     11  O   UNL d   1       1.384  -3.165  -0.811  0.00  0.00    -0.238 OA
BRANCH  10  12
ATOM     12  C   UNL d   1      -1.336  -4.610   0.961  0.00  0.00     0.123 C 
ATOM     13  C   UNL d   1      -1.429  -4.826   2.461  0.00  0.00     0.026 C 
ENDBRANCH  10  12
BRANCH  10  14
ATOM     14  C   UNL d   1       0.637  -5.738  -0.135  0.00  0.00     0.123 C 
ATOM     15  C   UNL d   1       0.399  -7.041   0.618  0.00  0.00     0.026 C 
ENDBRANCH  10  14
ENDBRANCH   8   9
ENDBRANCH   1   8
BRANCH   2  16
ATOM     16  C   UNL d   1       2.672  -0.647   0.153  0.00  0.00     0.045 A 
ATOM     17  C   UNL d   1       3.609  -0.186  -0.787  0.00  0.00     0.032 A 
ATOM     18  C   UNL d   1       4.976  -0.388  -0.584  0.00  0.00     0.026 A 
ATOM     19  C   UNL d   1       5.411  -1.079   0.541  0.00  0.00     0.034 A 
ATOM     20  C   UNL d   1       4.487  -1.597   1.449  0.00  0.00     0.026 A 
ATOM     21 CL   UNL d   1       7.096  -1.282   0.817  0.00  0.00    -0.084 Cl
ATOM     22  C   UNL d   1       3.116  -1.388   1.257  0.00  0.00     0.032 A 
ENDBRANCH   2  16
BRANCH   3  23
ATOM     23  S   UNL d   1       1.625   2.301  -0.910  0.00  0.00    -0.088 SA
BRANCH  23  24
ATOM     24  C   UNL d   1       0.770   3.689  -0.093  0.00  0.00     0.047 C 
ATOM     25  C   UNL d   1       1.763   4.851   0.005  0.00  0.00     0.021 C 
ATOM     26  C   UNL d   1      -0.457   4.121  -0.890  0.00  0.00     0.021 C 
ENDBRANCH  23  24
ENDBRANCH   3  23
TORSDOF 7
