REMARK  6 active torsions:
REMARK  status: ('A' for Active; 'I' for Inactive)
REMARK    1  A    between atoms: C_2  and  C_1 
REMARK    2  A    between atoms: S_17  and  C_10 
REMARK    3  A    between atoms: C_12  and  N_18 
REMARK    4  A    between atoms: C_21  and  S_17 
REMARK    5  A    between atoms: N_18  and  C_20 
REMARK    6  A    between atoms: C_20  and  C_21 
ROOT
ATOM      1  C   UNL d   1      -1.719   2.514  10.791  0.00  0.00     0.139 C 
ATOM      2  C   UNL d   1      -2.377   1.253  10.793  0.00  0.00     0.112 C 
ATOM      3  C   UNL d   1      -1.509   3.186  12.027  0.00  0.00     0.112 C 
ATOM      4  N   UNL d   1      -2.920   0.228  10.777  0.00  0.00    -0.191 NA
ATOM      5  N   UNL d   1      -1.325   3.752  13.024  0.00  0.00    -0.191 NA
ATOM      6  C   UNL d   1      -1.289   3.079   9.648  0.00  0.00     0.117 C 
ENDROOT
BRANCH   6   7
ATOM      7  N   UNL d   1      -1.355   2.624   8.347  0.00  0.00    -0.396 N 
ATOM      8  H   UNL d   1      -1.920   1.790   8.171  0.00  0.00     0.158 HD
BRANCH   7   9
ATOM      9  C   UNL d   1      -1.014   3.430   7.175  0.00  0.00     0.129 C 
BRANCH   9  10
ATOM     10  C   UNL d   1      -0.771   2.544   5.952  0.00  0.00     0.100 C 
BRANCH  10  11
ATOM     11  S   UNL d   1      -0.246   3.573   4.537  0.00  0.00    -0.111 SA
BRANCH  11  12
ATOM     12  C   UNL d   1      -0.022   2.311   3.301  0.00  0.00     0.069 A 
ATOM     13  C   UNL d   1      -0.075   2.663   1.959  0.00  0.00     0.038 A 
ATOM     14  C   UNL d   1       0.086   1.666   0.997  0.00  0.00     0.020 A 
ATOM     15  C   UNL d   1       0.309   0.346   1.397  0.00  0.00     0.063 A 
ATOM     16  C   UNL d   1       0.369   0.096   2.759  0.00  0.00     0.105 A 
ATOM     17  N   UNL d   1       0.205   1.044   3.712  0.00  0.00    -0.360 N 
ATOM     18  HN  UNL d   1       0.251   0.811   4.704  1.00  0.00     0.166 HD
BRANCH  15  19
ATOM     19  C   UNL d   1       0.464  -0.763   0.403  0.00  0.00     0.418 C 
ATOM     20  F   UNL d   1       0.678  -1.980   0.973  0.00  0.00    -0.166 F 
ATOM     21  F   UNL d   1       1.506  -0.559  -0.448  0.00  0.00    -0.166 F 
ATOM     22  F   UNL d   1      -0.638  -0.908  -0.383  0.00  0.00    -0.166 F 
ENDBRANCH  15  19
ENDBRANCH  11  12
ENDBRANCH  10  11
ENDBRANCH   9  10
ENDBRANCH   7   9
ENDBRANCH   6   7
TORSDOF 6
