REMARK  4 active torsions:
REMARK  status: ('A' for Active; 'I' for Inactive)
REMARK       I    between atoms: N_2  and  C_1 
REMARK    1  A    between atoms: C_4  and  C_1 
REMARK       I    between atoms: C_3  and  N_5 
REMARK    2  A    between atoms: C_14  and  C_3 
REMARK    3  A    between atoms: N_5  and  C_15 
REMARK    4  A    between atoms: C_19  and  C_14 
ROOT
ATOM      1  C   UNL d   1       2.385  -0.188   0.063  0.00  0.00     0.253 C 
ATOM      2  N   UNL d   1       3.207  -1.279  -0.272  0.00  0.00    -0.348 N 
ATOM      3  C   UNL d   1       4.021  -1.850   0.801  0.00  0.00     0.128 C 
ATOM      4  C   UNL d   1       3.068  -2.093  -1.481  0.00  0.00     0.128 C 
ATOM      5  O   UNL d   1       2.477   0.404   1.139  0.00  0.00    -0.267 OA
ATOM      6  C   UNL d   1       5.348  -2.419   0.310  0.00  0.00     0.045 C 
ATOM      7  C   UNL d   1       4.391  -2.645  -1.992  0.00  0.00     0.045 C 
ATOM      8  C   UNL d   1       5.191  -3.344  -0.897  0.00  0.00     0.087 C 
ENDROOT
BRANCH   8   9
ATOM      9  N   UNL d   1       4.618  -4.635  -0.528  0.00  0.00    -0.356 N 
ATOM     10  C   UNL d   1       4.815  -5.759  -1.312  0.00  0.00     0.222 C 
ATOM     11  O   UNL d   1       5.479  -5.753  -2.341  0.00  0.00    -0.273 OA
ATOM     12  H   UNL d   1       3.875  -4.666   0.159  0.00  0.00     0.162 HD
BRANCH  10  13
ATOM     13  C   UNL d   1       4.153  -7.019  -0.776  0.00  0.00     0.141 C 
BRANCH  13  14
ATOM     14  C   UNL d   1       2.815  -7.322  -1.405  0.00  0.00    -0.050 A 
ATOM     15  C   UNL d   1       2.713  -7.575  -2.781  0.00  0.00     0.007 A 
ATOM     16  C   UNL d   1       1.485  -7.915  -3.352  0.00  0.00     0.001 A 
ATOM     17  C   UNL d   1       0.346  -8.009  -2.555  0.00  0.00     0.000 A 
ATOM     18  C   UNL d   1       0.434  -7.760  -1.187  0.00  0.00     0.001 A 
ATOM     19  C   UNL d   1       1.661  -7.419  -0.613  0.00  0.00     0.007 A 
ENDBRANCH  13  14
ENDBRANCH  10  13
ENDBRANCH   8   9
BRANCH   1  20
ATOM     20  C   UNL d   1       1.387   0.337  -0.906  0.00  0.00     0.032 A 
ATOM     21  C   UNL d   1       0.467  -0.491  -1.557  0.00  0.00     0.017 A 
ATOM     22  C   UNL d   1      -0.395   0.039  -2.519  0.00  0.00     0.007 A 
ATOM     23  C   UNL d   1      -0.401   1.413  -2.789  0.00  0.00    -0.062 A 
ATOM     24  C   UNL d   1       0.458   2.253  -2.071  0.00  0.00     0.007 A 
ATOM     25  C   UNL d   1      -1.298   1.957  -3.862  0.00  0.00     0.048 C 
ATOM     26  C   UNL d   1       1.346   1.718  -1.133  0.00  0.00     0.017 A 
ENDBRANCH   1  20
TORSDOF 4
