REMARK  5 active torsions:
REMARK  status: ('A' for Active; 'I' for Inactive)
REMARK    1  A    between atoms: S_3  and  C_1 
REMARK    2  A    between atoms: C_4  and  C_1 
REMARK    3  A    between atoms: C_2  and  O_5 
REMARK    4  A    between atoms: C_12  and  S_3 
REMARK    5  A    between atoms: O_5  and  C_13 
ROOT
ATOM      1  C   UNL d   1       0.165   1.153   0.551  0.00  0.00     0.021 A 
ATOM      2  C   UNL d   1       0.614   2.436   0.215  0.00  0.00     0.019 A 
ATOM      3  C   UNL d   1      -1.012   1.013   1.294  0.00  0.00     0.019 A 
ATOM      4  C   UNL d   1      -1.342   3.421   1.250  0.00  0.00     0.078 A 
ATOM      5  C   UNL d   1      -0.133   3.565   0.573  0.00  0.00     0.038 A 
ATOM      6  C   UNL d   1      -1.756   2.144   1.639  0.00  0.00     0.038 A 
ENDROOT
BRANCH   1   7
ATOM      7  C   UNL d   1       0.980  -0.015   0.122  0.00  0.00     0.224 C 
ATOM      8  O   UNL d   1       2.195   0.080  -0.010  0.00  0.00    -0.279 OA
BRANCH   7   9
ATOM      9  S   UNL d   1       0.109  -1.479  -0.300  0.00  0.00    -0.048 SA
BRANCH   9  10
ATOM     10  C   UNL d   1       0.702  -2.712   0.844  0.00  0.00     0.008 A 
ATOM     11  C   UNL d   1       1.659  -2.483   1.839  0.00  0.00     0.021 A 
ATOM     12  C   UNL d   1       2.066  -3.519   2.689  0.00  0.00     0.025 A 
ATOM     13  C   UNL d   1       1.519  -4.792   2.550  0.00  0.00     0.034 A 
ATOM     14  C   UNL d   1       0.563  -5.037   1.570  0.00  0.00     0.025 A 
ATOM     15 CL   UNL d   1       2.027  -6.062   3.591  0.00  0.00    -0.084 Cl
ATOM     16  C   UNL d   1       0.156  -4.001   0.725  0.00  0.00     0.021 A 
ENDBRANCH   9  10
ENDBRANCH   7   9
ENDBRANCH   1   7
BRANCH   4  17
ATOM     17  O   UNL d   1      -2.168   4.430   1.640  0.00  0.00    -0.255 OA
BRANCH  17  18
ATOM     18  C   UNL d   1      -2.244   5.621   0.874  0.00  0.00     0.530 C 
ATOM     19  F   UNL d   1      -1.523   5.601  -0.267  0.00  0.00    -0.144 F 
ATOM     20  F   UNL d   1      -3.537   5.832   0.536  0.00  0.00    -0.144 F 
ATOM     21  F   UNL d   1      -1.831   6.660   1.629  0.00  0.00    -0.144 F 
ENDBRANCH  17  18
ENDBRANCH   4  17
TORSDOF 5
