REMARK  5 active torsions:
REMARK  status: ('A' for Active; 'I' for Inactive)
REMARK    1  A    between atoms: C_5  and  C_1 
REMARK    2  A    between atoms: C_11  and  C_4 
REMARK    3  A    between atoms: S_14  and  C_10 
REMARK    4  A    between atoms: C_20  and  S_14 
REMARK    5  A    between atoms: C_24  and  C_20 
ROOT
ATOM      1  C   UNL d   1       0.293  -2.742   0.096  0.00  0.00     0.050 A 
ATOM      2  N   UNL d   1      -0.097  -3.457  -0.978  0.00  0.00    -0.336 N 
ATOM      3  HN  UNL d   1      -0.630  -3.030  -1.735  1.00  0.00     0.168 HD
ATOM      4  C   UNL d   1       0.246  -4.752  -1.010  0.00  0.00     0.144 A 
ATOM      5  N   UNL d   1       0.963  -5.373  -0.060  0.00  0.00    -0.347 N 
ATOM      6  HN  UNL d   1       1.218  -6.358  -0.137  1.00  0.00     0.167 HD
ATOM      7  C   UNL d   1       0.999  -3.302   1.140  0.00  0.00     0.047 A 
ATOM      8  C   UNL d   1       1.327  -4.628   0.997  0.00  0.00     0.092 A 
ENDROOT
BRANCH   1   9
ATOM      9  C   UNL d   1      -0.061  -1.333   0.077  0.00  0.00     0.051 A 
ATOM     10  C   UNL d   1       0.633  -0.151   0.502  0.00  0.00     0.080 A 
ATOM     11  N   UNL d   1      -0.143   0.931   0.325  0.00  0.00    -0.259 N 
ATOM     12  O   UNL d   1      -1.311   0.488  -0.252  0.00  0.00    -0.241 OA
ATOM     13  HN  UNL d   1       0.089   1.894   0.570  1.00  0.00     0.195 HD
ATOM     14  C   UNL d   1      -1.264  -0.859  -0.407  0.00  0.00     0.087 A 
ATOM     15  C   UNL d   1      -2.460  -1.483  -1.010  0.00  0.00     0.080 C 
BRANCH  10  16
ATOM     16  C   UNL d   1       1.973  -0.007   1.079  0.00  0.00    -0.006 A 
ATOM     17  C   UNL d   1       2.213   0.952   2.077  0.00  0.00     0.015 A 
ATOM     18  C   UNL d   1       3.467   1.045   2.691  0.00  0.00     0.024 A 
ATOM     19  C   UNL d   1       4.487   0.177   2.314  0.00  0.00     0.034 A 
ATOM     20  C   UNL d   1       4.280  -0.753   1.298  0.00  0.00     0.024 A 
ATOM     21 CL   UNL d   1       6.012   0.248   3.106  0.00  0.00    -0.084 Cl
ATOM     22  C   UNL d   1       3.034  -0.827   0.667  0.00  0.00     0.015 A 
ENDBRANCH  10  16
ENDBRANCH   1   9
BRANCH   4  23
ATOM     23  S   UNL d   1      -0.269  -5.668  -2.436  0.00  0.00    -0.089 SA
BRANCH  23  24
ATOM     24  C   UNL d   1      -0.476  -7.306  -1.680  0.00  0.00     0.121 C 
BRANCH  24  25
ATOM     25  C   UNL d   1      -0.973  -8.320  -2.684  0.00  0.00    -0.049 A 
ATOM     26  C   UNL d   1      -0.066  -9.031  -3.482  0.00  0.00     0.008 A 
ATOM     27  C   UNL d   1      -0.521  -9.966  -4.414  0.00  0.00     0.001 A 
ATOM     28  C   UNL d   1      -1.887 -10.189  -4.568  0.00  0.00     0.000 A 
ATOM     29  C   UNL d   1      -2.799  -9.483  -3.790  0.00  0.00     0.001 A 
ATOM     30  C   UNL d   1      -2.348  -8.549  -2.853  0.00  0.00     0.008 A 
ENDBRANCH  24  25
ENDBRANCH  23  24
ENDBRANCH   4  23
TORSDOF 5
