REMARK  4 active torsions:
REMARK  status: ('A' for Active; 'I' for Inactive)
REMARK    1  A    between atoms: C_8  and  C_1 
REMARK    2  A    between atoms: C_12  and  C_7 
REMARK    3  A    between atoms: C_9  and  O_11 
REMARK    4  A    between atoms: O_11  and  C_10 
ROOT
ATOM      1  C   UNL d   1      -0.036  -1.050   0.229  0.00  0.00     0.177 A 
ATOM      2  O   UNL d   1      -0.900   0.014   0.321  0.00  0.00    -0.273 OA
ATOM      3  N   UNL d   1       1.222  -0.671   0.135  0.00  0.00    -0.277 N 
ATOM      4  HN  UNL d   1       2.039  -1.278   0.060  1.00  0.00     0.189 HD
ATOM      5  N   UNL d   1       1.219   0.709   0.156  0.00  0.00    -0.277 N 
ATOM      6  HN  UNL d   1       2.033   1.322   0.109  1.00  0.00     0.189 HD
ATOM      7  C   UNL d   1      -0.042   1.079   0.249  0.00  0.00     0.174 A 
ENDROOT
BRANCH   1   8
ATOM      8  C   UNL d   1      -0.634  -2.370   0.155  0.00  0.00     0.050 A 
ATOM      9  C   UNL d   1      -0.115  -3.400  -0.650  0.00  0.00     0.092 A 
ATOM     10  C   UNL d   1      -0.696  -4.677  -0.608  0.00  0.00     0.038 A 
ATOM     11  C   UNL d   1      -1.797  -4.934   0.211  0.00  0.00     0.003 A 
ATOM     12  C   UNL d   1      -2.327  -3.917   0.999  0.00  0.00     0.001 A 
ATOM     13  C   UNL d   1      -1.753  -2.648   0.960  0.00  0.00     0.018 A 
BRANCH   9  14
ATOM     14  O   UNL d   1       1.041  -3.325  -1.381  0.00  0.00    -0.254 OA
BRANCH  14  15
ATOM     15  C   UNL d   1       1.096  -2.375  -2.442  0.00  0.00     0.530 C 
ATOM     16  F   UNL d   1       0.074  -1.492  -2.439  0.00  0.00    -0.144 F 
ATOM     17  F   UNL d   1       2.265  -1.704  -2.372  0.00  0.00    -0.144 F 
ATOM     18  F   UNL d   1       1.068  -3.035  -3.622  0.00  0.00    -0.144 F 
ENDBRANCH  14  15
ENDBRANCH   9  14
ENDBRANCH   1   8
BRANCH   7  19
ATOM     19  C   UNL d   1      -0.623   2.417   0.269  0.00  0.00     0.017 A 
ATOM     20  C   UNL d   1      -2.005   2.631   0.410  0.00  0.00     0.017 A 
ATOM     21  C   UNL d   1      -2.528   3.929   0.433  0.00  0.00     0.025 A 
ATOM     22  C   UNL d   1      -1.675   5.023   0.311  0.00  0.00     0.034 A 
ATOM     23  C   UNL d   1      -0.304   4.832   0.163  0.00  0.00     0.025 A 
ATOM     24 CL   UNL d   1      -2.317   6.618   0.348  0.00  0.00    -0.084 Cl
ATOM     25  C   UNL d   1       0.217   3.535   0.139  0.00  0.00     0.017 A 
ENDBRANCH   7  19
TORSDOF 4
