REMARK  7 active torsions:
REMARK  status: ('A' for Active; 'I' for Inactive)
REMARK    1  A    between atoms: N_14  and  C_3 
REMARK    2  A    between atoms: C_6  and  C_4 
REMARK    3  A    between atoms: S_10  and  C_5 
REMARK    4  A    between atoms: O_17  and  C_6 
REMARK    5  A    between atoms: C_18  and  S_10 
REMARK    6  A    between atoms: C_11  and  C_12 
REMARK    7  A    between atoms: C_19  and  C_18 
ROOT
ATOM      1  N   UNL d   1      -2.164   0.270  -2.486  0.00  0.00    -0.327 N 
ATOM      2  HN  UNL d   1      -2.628  -0.038  -3.340  1.00  0.00     0.169 HD
ATOM      3  C   UNL d   1      -1.576   1.481  -2.413  0.00  0.00     0.097 A 
ATOM      4  C   UNL d   1      -0.938   1.919  -1.270  0.00  0.00     0.092 A 
ATOM      5  C   UNL d   1      -2.121  -0.520  -1.398  0.00  0.00     0.145 A 
ATOM      6  N   UNL d   1      -1.527  -0.185  -0.241  0.00  0.00    -0.346 N 
ATOM      7  HN  UNL d   1      -1.521  -0.810   0.566  1.00  0.00     0.167 HD
ATOM      8  C   UNL d   1      -0.937   1.033  -0.212  0.00  0.00     0.111 A 
ENDROOT
BRANCH   5   9
ATOM      9  S   UNL d   1      -2.815  -2.141  -1.599  0.00  0.00    -0.089 SA
BRANCH   9  10
ATOM     10  C   UNL d   1      -3.371  -2.500   0.096  0.00  0.00     0.121 C 
BRANCH  10  11
ATOM     11  C   UNL d   1      -4.122  -3.815   0.152  0.00  0.00    -0.049 A 
ATOM     12  C   UNL d   1      -3.444  -5.025   0.336  0.00  0.00     0.008 A 
ATOM     13  C   UNL d   1      -4.138  -6.244   0.350  0.00  0.00     0.008 A 
ATOM     14  C   UNL d   1      -5.534  -6.304   0.176  0.00  0.00    -0.051 A 
ATOM     15  C   UNL d   1      -6.201  -5.082  -0.009  0.00  0.00     0.008 A 
ATOM     16  C   UNL d   1      -5.509  -3.860  -0.024  0.00  0.00     0.008 A 
BRANCH  14  17
ATOM     17  C   UNL d   1      -6.263  -7.662   0.172  0.00  0.00    -0.024 C 
ATOM     18  C   UNL d   1      -7.795  -7.546  -0.005  0.00  0.00     0.019 C 
ATOM     19  C   UNL d   1      -5.736  -8.536  -0.988  0.00  0.00     0.019 C 
ATOM     20  C   UNL d   1      -6.019  -8.406   1.504  0.00  0.00     0.019 C 
ENDBRANCH  14  17
ENDBRANCH  10  11
ENDBRANCH   9  10
ENDBRANCH   5   9
BRANCH   3  21
ATOM     21  N   UNL d   1      -1.581   2.189  -3.613  0.00  0.00    -0.288 NA
ATOM     22  H   UNL d   1      -2.172   1.700  -4.281  0.00  0.00     0.125 HD
ATOM     23  H   UNL d   1      -1.835   3.166  -3.491  0.00  0.00     0.125 HD
ENDBRANCH   3  21
BRANCH   4  24
ATOM     24  C   UNL d   1      -0.269   3.220  -1.108  0.00  0.00     0.297 C 
ATOM     25  O   UNL d   1       0.645   3.403  -0.317  0.00  0.00    -0.259 OA
BRANCH  24  26
ATOM     26  O   UNL d   1      -0.869   4.174  -1.868  0.00  0.00    -0.322 OA
ATOM     27  C   UNL d   1      -0.297   5.479  -1.728  0.00  0.00     0.213 C 
ENDBRANCH  24  26
ENDBRANCH   4  24
TORSDOF 7
