REMARK  11 active torsions:
REMARK  status: ('A' for Active; 'I' for Inactive)
REMARK    1  A    between atoms: S_8  and  C_2 
REMARK    2  A    between atoms: C_10  and  C_7 
REMARK    3  A    between atoms: C_12  and  C_10 
REMARK    4  A    between atoms: C_19  and  C_12 
REMARK    5  A    between atoms: C_13  and  C_14 
REMARK    6  A    between atoms: C_14  and  C_18 
REMARK    7  A    between atoms: C_15  and  C_20 
REMARK    8  A    between atoms: C_16  and  C_15 
REMARK    9  A    between atoms: C_17  and  C_16 
REMARK   10  A    between atoms: C_18  and  C_17 
REMARK   11  A    between atoms: C_20  and  C_19 
ROOT
ATOM      1  C   UNL d   1       0.391  -2.433  -0.053  0.00  0.00     0.078 C 
ENDROOT
BRANCH   1   2
ATOM      2  C   UNL d   1      -0.040  -1.005  -0.040  0.00  0.00     0.099 A 
ATOM      3  N   UNL d   1      -0.255  -0.253  -1.100  0.00  0.00    -0.287 N 
ATOM      4  N   UNL d   1      -0.590   1.008  -0.669  0.00  0.00    -0.278 N 
ATOM      5  HN  UNL d   1      -0.186  -0.554  -2.072  1.00  0.00     0.188 HD
ATOM      6  C   UNL d   1      -0.574   1.001   0.643  0.00  0.00     0.162 A 
ATOM      7  HN  UNL d   1      -0.812   1.807  -1.263  1.00  0.00     0.189 HD
ATOM      8  N   UNL d   1      -0.241  -0.246   1.092  0.00  0.00    -0.319 N 
ATOM      9  C   UNL d   1      -0.108  -0.711   2.447  0.00  0.00     0.159 C 
BRANCH   6  10
ATOM     10  S   UNL d   1      -0.914   2.345   1.677  0.00  0.00    -0.097 SA
ATOM     11  C   UNL d   1      -1.245   3.637   0.458  0.00  0.00     0.099 C 
ENDBRANCH   6  10
ENDBRANCH   1   2
BRANCH   1  12
ATOM     12  C   UNL d   1       1.914  -2.535  -0.120  0.00  0.00     0.007 C 
BRANCH  12  13
ATOM     13  C   UNL d   1       2.394  -3.986  -0.163  0.00  0.00     0.000 C 
BRANCH  13  14
ATOM     14  C   UNL d   1       3.921  -4.037  -0.220  0.00  0.00     0.000 C 
BRANCH  14  15
ATOM     15  C   UNL d   1       4.441  -5.471  -0.262  0.00  0.00     0.000 C 
BRANCH  15  16
ATOM     16  C   UNL d   1       5.969  -5.493  -0.318  0.00  0.00     0.000 C 
BRANCH  16  17
ATOM     17  C   UNL d   1       6.496  -6.925  -0.359  0.00  0.00     0.000 C 
BRANCH  17  18
ATOM     18  C   UNL d   1       8.024  -6.955  -0.414  0.00  0.00     0.000 C 
BRANCH  18  19
ATOM     19  C   UNL d   1       8.536  -8.394  -0.457  0.00  0.00    -0.000 C 
BRANCH  19  20
ATOM     20  C   UNL d   1      10.061  -8.444  -0.513  0.00  0.00    -0.005 C 
ATOM     21  C   UNL d   1      10.561  -9.878  -0.556  0.00  0.00     0.005 C 
ENDBRANCH  19  20
ENDBRANCH  18  19
ENDBRANCH  17  18
ENDBRANCH  16  17
ENDBRANCH  15  16
ENDBRANCH  14  15
ENDBRANCH  13  14
ENDBRANCH  12  13
ENDBRANCH   1  12
TORSDOF 11
