REMARK  4 active torsions:
REMARK  status: ('A' for Active; 'I' for Inactive)
REMARK    1  A    between atoms: N_5  and  C_1 
REMARK    2  A    between atoms: C_8  and  C_14 
REMARK       I    between atoms: N_11  and  C_8 
REMARK    3  A    between atoms: C_14  and  N_9 
REMARK    4  A    between atoms: C_20  and  N_11 
ROOT
ATOM      1  N   UNL d   1       4.241  -1.132   0.018  0.00  0.00    -0.358 N 
ATOM      2  N   UNL d   1       5.379  -3.868   0.391  0.00  0.00     0.100 N 
ATOM      3  C   UNL d   1       4.451  -2.019  -1.134  0.00  0.00     0.155 C 
ATOM      4  C   UNL d   1       5.112  -1.412   1.168  0.00  0.00     0.155 C 
ATOM      5  C   UNL d   1       5.109  -2.928   1.524  0.00  0.00     0.293 C 
ATOM      6  C   UNL d   1       4.444  -3.502  -0.709  0.00  0.00     0.293 C 
ENDROOT
BRANCH   1   7
ATOM      7  C   UNL d   1       3.004  -0.573   0.191  0.00  0.00     0.148 A 
ATOM      8  N   UNL d   1       1.942  -0.926  -0.499  0.00  0.00    -0.335 N 
ATOM      9  C   UNL d   1       0.852  -0.123  -0.197  0.00  0.00     0.053 A 
ATOM     10  HN  UNL d   1       1.922  -1.693  -1.171  1.00  0.00     0.168 HD
ATOM     11  C   UNL d   1      -0.437  -0.229  -0.764  0.00  0.00     0.054 A 
ATOM     12  C   UNL d   1       1.096   0.873   0.744  0.00  0.00     0.035 A 
ATOM     13  C   UNL d   1      -1.426   0.675  -0.379  0.00  0.00     0.036 A 
ATOM     14 CL   UNL d   1      -2.998   0.555  -1.074  0.00  0.00    -0.084 Cl
ATOM     15  C   UNL d   1      -1.163   1.675   0.552  0.00  0.00     0.025 A 
ATOM     16  C   UNL d   1       0.103   1.789   1.133  0.00  0.00     0.023 A 
ATOM     17  S   UNL d   1       2.724   0.750   1.272  0.00  0.00    -0.052 SA
ENDBRANCH   1   7
BRANCH   2  18
ATOM     18  C   UNL d   1       6.810  -3.742   0.019  0.00  0.00     0.375 C 
BRANCH  18  19
ATOM     19  C   UNL d   1       7.275  -4.611  -1.150  0.00  0.00     0.250 C 
ATOM     20  N   UNL d   1       6.681  -5.855  -1.242  0.00  0.00    -0.326 N 
ATOM     21  H   UNL d   1       5.823  -5.971  -0.711  0.00  0.00     0.169 HD
ATOM     22  O   UNL d   1       8.157  -4.180  -1.895  0.00  0.00    -0.271 OA
BRANCH  20  23
ATOM     23  C   UNL d   1       7.035  -6.852  -2.180  0.00  0.00     0.034 A 
ATOM     24  C   UNL d   1       8.291  -6.894  -2.797  0.00  0.00     0.029 A 
ATOM     25  C   UNL d   1       8.593  -7.874  -3.746  0.00  0.00     0.002 A 
ATOM     26  C   UNL d   1       7.639  -8.826  -4.090  0.00  0.00     0.000 A 
ATOM     27  C   UNL d   1       6.394  -8.813  -3.463  0.00  0.00     0.002 A 
ATOM     28  C   UNL d   1       6.098  -7.840  -2.498  0.00  0.00     0.029 A 
ENDBRANCH  20  23
ENDBRANCH  18  19
ENDBRANCH   2  18
TORSDOF 4
