REMARK  4 active torsions:
REMARK  status: ('A' for Active; 'I' for Inactive)
REMARK    1  A    between atoms: C_2  and  C_1 
REMARK       I    between atoms: N_3  and  C_2 
REMARK       I    between atoms: C_5  and  N_3 
REMARK    2  A    between atoms: C_4  and  N_8 
REMARK       I    between atoms: N_8  and  C_5 
REMARK    3  A    between atoms: O_23  and  C_6 
REMARK    4  A    between atoms: O_24  and  C_7 
ROOT
ATOM      1  C   UNL d   1       0.547  -4.038  -0.375  0.00  0.00     0.244 C 
ATOM      2  N   UNL d   1       1.346  -4.379  -1.464  0.00  0.00    -0.175 NA
ATOM      3  C   UNL d   1       2.515  -5.083  -1.316  0.00  0.00     0.305 C 
ATOM      4  N   UNL d   1       2.368  -6.391  -0.940  0.00  0.00    -0.308 N 
ATOM      5  O   UNL d   1       0.217  -4.843   0.482  0.00  0.00    -0.273 OA
ATOM      6  O   UNL d   1       3.554  -4.519  -1.638  0.00  0.00    -0.253 OA
ATOM      7  H   UNL d   1       1.611  -3.553  -1.991  0.00  0.00     0.141 HD
ATOM      8  H   UNL d   1       1.408  -6.697  -0.809  0.00  0.00     0.170 HD
ENDROOT
BRANCH   1   9
ATOM      9  C   UNL d   1       0.024  -2.612  -0.395  0.00  0.00     0.096 A 
ATOM     10  C   UNL d   1       0.898  -1.575  -0.789  0.00  0.00     0.108 A 
ATOM     11  C   UNL d   1       0.434  -0.266  -0.931  0.00  0.00     0.070 A 
ATOM     12 CL   UNL d   1       1.432   0.996  -1.557  0.00  0.00    -0.081 Cl
ATOM     13  C   UNL d   1      -0.873   0.039  -0.590  0.00  0.00     0.053 A 
ATOM     14  C   UNL d   1      -1.744  -0.960  -0.132  0.00  0.00     0.070 A 
ATOM     15  C   UNL d   1      -1.320  -2.307  -0.042  0.00  0.00     0.108 A 
ATOM     16 CL   UNL d   1      -3.325  -0.359   0.242  0.00  0.00    -0.081 Cl
BRANCH  10  17
ATOM     17  O   UNL d   1       2.194  -1.870  -1.124  0.00  0.00    -0.353 OA
ATOM     18  C   UNL d   1       3.108  -1.487  -0.087  0.00  0.00     0.210 C 
ENDBRANCH  10  17
BRANCH  15  19
ATOM     19  O   UNL d   1      -2.076  -3.397   0.294  0.00  0.00    -0.353 OA
ATOM     20  C   UNL d   1      -3.385  -3.272   0.822  0.00  0.00     0.210 C 
ENDBRANCH  15  19
ENDBRANCH   1   9
BRANCH   4  21
ATOM     21  C   UNL d   1       3.371  -7.397  -0.942  0.00  0.00     0.114 A 
ATOM     22  C   UNL d   1       4.757  -7.188  -0.991  0.00  0.00     0.149 A 
ATOM     23  C   UNL d   1       5.655  -8.256  -1.052  0.00  0.00     0.087 A 
ATOM     24  F   UNL d   1       5.300  -5.967  -0.926  0.00  0.00    -0.203 F 
ATOM     25  C   UNL d   1       5.175  -9.555  -1.050  0.00  0.00     0.122 A 
ATOM     26  C   UNL d   1       3.815  -9.809  -0.974  0.00  0.00     0.087 A 
ATOM     27  F   UNL d   1       6.037 -10.579  -1.113  0.00  0.00    -0.206 F 
ATOM     28  C   UNL d   1       2.931  -8.730  -0.916  0.00  0.00     0.149 A 
ATOM     29  F   UNL d   1       1.615  -8.990  -0.872  0.00  0.00    -0.203 F 
ENDBRANCH   4  21
TORSDOF 4
