REMARK  3 active torsions:
REMARK  status: ('A' for Active; 'I' for Inactive)
REMARK    1  A    between atoms: N_5  and  S_1 
REMARK    2  A    between atoms: C_7  and  S_1 
REMARK    3  A    between atoms: C_4  and  N_5 
ROOT
ATOM      1  N   UNL d   1      18.603  -8.250   4.192  0.00  0.00    -0.310 N 
ATOM      2  H   UNL d   1      18.704  -9.086   3.620  0.00  0.00     0.172 HD
ENDROOT
BRANCH   1   3
ATOM      3  S   UNL d   1      19.738  -8.155   5.420  0.00  0.00     0.259 S 
ATOM      4  O   UNL d   1      20.235  -6.798   5.545  0.00  0.00    -0.201 OA
ATOM      5  O   UNL d   1      20.638  -9.258   5.202  0.00  0.00    -0.201 OA
BRANCH   3   6
ATOM      6  C   UNL d   1      18.826  -8.531   6.895  0.00  0.00     0.079 A 
ATOM      7  C   UNL d   1      18.238  -9.792   7.019  0.00  0.00     0.027 A 
ATOM      8  C   UNL d   1      17.546 -10.115   8.187  0.00  0.00     0.025 A 
ATOM      9  C   UNL d   1      17.466  -9.186   9.226  0.00  0.00     0.034 A 
ATOM     10  C   UNL d   1      18.092  -7.944   9.118  0.00  0.00     0.025 A 
ATOM     11 CL   UNL d   1      16.590  -9.579  10.654  0.00  0.00    -0.084 Cl
ATOM     12  C   UNL d   1      18.779  -7.612   7.949  0.00  0.00     0.027 A 
ENDBRANCH   3   6
ENDBRANCH   1   3
BRANCH   1  13
ATOM     13  C   UNL d   1      17.540  -7.279   3.903  0.00  0.00     0.102 C 
ATOM     14  C   UNL d   1      16.820  -7.559   2.495  0.00  0.00    -0.016 C 
ATOM     15  C   UNL d   1      16.354  -6.128   2.035  0.00  0.00    -0.035 C 
ATOM     16  C   UNL d   1      17.889  -7.865   1.426  0.00  0.00     0.012 C 
ATOM     17  C   UNL d   1      15.734  -8.619   2.592  0.00  0.00     0.018 C 
ATOM     18  C   UNL d   1      17.782  -5.571   2.228  0.00  0.00    -0.004 C 
ATOM     19  C   UNL d   1      15.915  -5.872   0.573  0.00  0.00     0.016 C 
ATOM     20  C   UNL d   1      15.231  -5.558   2.920  0.00  0.00     0.016 C 
ATOM     21  C   UNL d   1      18.077  -5.850   3.700  0.00  0.00     0.032 C 
ATOM     22  C   UNL d   1      18.672  -6.543   1.387  0.00  0.00     0.006 C 
ENDBRANCH   1  13
TORSDOF 3
