REMARK  5 active torsions:
REMARK  status: ('A' for Active; 'I' for Inactive)
REMARK    1  A    between atoms: C_7  and  C_2 
REMARK    2  A    between atoms: C_10  and  C_15 
REMARK    3  A    between atoms: S_20  and  C_11 
REMARK    4  A    between atoms: C_15  and  C_21 
REMARK    5  A    between atoms: C_21  and  S_20 
ROOT
ATOM      1  C   UNL d   1       3.807   0.367   0.171  0.00  0.00     0.053 A 
ATOM      2  N   UNL d   1       4.513  -0.266  -0.792  0.00  0.00    -0.336 N 
ATOM      3  HN  UNL d   1       4.051  -0.781  -1.542  1.00  0.00     0.168 HD
ATOM      4  C   UNL d   1       5.852  -0.186  -0.714  0.00  0.00     0.144 A 
ATOM      5  N   UNL d   1       6.524   0.502   0.223  0.00  0.00    -0.347 N 
ATOM      6  HN  UNL d   1       7.542   0.555   0.221  1.00  0.00     0.167 HD
ATOM      7  C   UNL d   1       4.418   1.061   1.195  0.00  0.00     0.048 A 
ATOM      8  C   UNL d   1       5.789   1.113   1.158  0.00  0.00     0.092 A 
ENDROOT
BRANCH   4   9
ATOM      9  S   UNL d   1       6.850  -1.056  -1.889  0.00  0.00    -0.086 SA
BRANCH   9  10
ATOM     10  C   UNL d   1       5.594  -2.084  -2.712  0.00  0.00     0.166 C 
BRANCH  10  11
ATOM     11  C   UNL d   1       6.237  -3.025  -3.725  0.00  0.00     0.170 C 
ATOM     12  O   UNL d   1       7.443  -3.064  -3.958  0.00  0.00    -0.291 OA
BRANCH  11  13
ATOM     13  C   UNL d   1       5.346  -3.914  -4.529  0.00  0.00     0.032 A 
ATOM     14  C   UNL d   1       5.744  -5.207  -4.915  0.00  0.00     0.049 A 
ATOM     15  C   UNL d   1       4.960  -5.950  -5.808  0.00  0.00     0.048 A 
ATOM     16 CL   UNL d   1       7.153  -5.994  -4.295  0.00  0.00    -0.083 Cl
ATOM     17  C   UNL d   1       3.772  -5.419  -6.298  0.00  0.00     0.035 A 
ATOM     18  C   UNL d   1       3.341  -4.162  -5.886  0.00  0.00     0.025 A 
ATOM     19 CL   UNL d   1       2.833  -6.315  -7.426  0.00  0.00    -0.084 Cl
ATOM     20  C   UNL d   1       4.124  -3.409  -5.006  0.00  0.00     0.018 A 
ENDBRANCH  11  13
ENDBRANCH  10  11
ENDBRANCH   9  10
ENDBRANCH   4   9
BRANCH   1  21
ATOM     21  C   UNL d   1       2.334   0.244   0.077  0.00  0.00     0.039 A 
ATOM     22  S   UNL d   1       1.685  -1.210  -0.637  0.00  0.00    -0.079 SA
ATOM     23  C   UNL d   1       0.131  -0.705  -0.334  0.00  0.00     0.057 A 
ATOM     24  C   UNL d   1       0.045   0.490   0.274  0.00  0.00     0.002 A 
ATOM     25  S   UNL d   1      -1.340  -1.426  -0.649  0.00  0.00    -0.093 SA
ATOM     26  C   UNL d   1       1.304   1.122   0.483  0.00  0.00    -0.030 A 
ATOM     27  C   UNL d   1      -1.287   0.880   0.584  0.00  0.00    -0.043 A 
ATOM     28  C   UNL d   1       1.534   2.495   1.028  0.00  0.00     0.050 C 
ATOM     29  C   UNL d   1      -1.800   2.072   1.317  0.00  0.00     0.049 C 
ATOM     30  C   UNL d   1      -2.153  -0.099   0.093  0.00  0.00     0.058 A 
ENDBRANCH   1  21
TORSDOF 5
