REMARK  6 active torsions:
REMARK  status: ('A' for Active; 'I' for Inactive)
REMARK    1  A    between atoms: C_15  and  C_1 
REMARK    2  A    between atoms: C_21  and  C_8 
REMARK    3  A    between atoms: O_22  and  C_15 
REMARK    4  A    between atoms: C_17  and  O_20 
REMARK    5  A    between atoms: O_20  and  C_21 
REMARK    6  A    between atoms: C_24  and  O_22 
ROOT
ATOM      1  C   UNL d   1       1.503   2.417   0.118  0.00  0.00     0.240 C 
ENDROOT
BRANCH   1   2
ATOM      2  O   UNL d   1       1.837   2.842  -1.206  0.00  0.00    -0.345 OA
BRANCH   2   3
ATOM      3  C   UNL d   1       2.588   3.994  -1.312  0.00  0.00     0.071 A 
ATOM      4  C   UNL d   1       2.835   4.382  -2.645  0.00  0.00     0.070 A 
ATOM      5  C   UNL d   1       3.606   5.551  -2.793  0.00  0.00     0.087 A 
ATOM      6  N   UNL d   1       4.009   6.171  -3.908  0.00  0.00    -0.239 N 
ATOM      7  C   UNL d   1       4.109   6.299  -1.650  0.00  0.00     0.085 A 
ATOM      8  O   UNL d   1       4.742   7.269  -3.485  0.00  0.00    -0.156 OA
ATOM      9  HN  UNL d   1       3.816   5.893  -4.870  1.00  0.00     0.197 HD
ATOM     10  N   UNL d   1       4.803   7.349  -2.102  0.00  0.00    -0.240 N 
ATOM     11  HN  UNL d   1       5.279   8.060  -1.546  1.00  0.00     0.197 HD
ATOM     12  C   UNL d   1       3.857   5.906  -0.326  0.00  0.00     0.036 A 
ATOM     13  C   UNL d   1       3.082   4.732  -0.198  0.00  0.00     0.039 A 
ENDBRANCH   2   3
ENDBRANCH   1   2
BRANCH   1  14
ATOM     14  C   UNL d   1       0.658   1.183   0.018  0.00  0.00     0.076 A 
ATOM     15  S   UNL d   1       1.386  -0.364  -0.040  0.00  0.00    -0.067 SA
ATOM     16  C   UNL d   1      -0.171  -1.108  -0.035  0.00  0.00     0.104 A 
ATOM     17  C   UNL d   1      -1.149  -0.121   0.005  0.00  0.00     0.029 A 
ATOM     18  N   UNL d   1      -0.657   1.180   0.045  0.00  0.00    -0.354 N 
ATOM     19  C   UNL d   1      -2.635  -0.238   0.001  0.00  0.00     0.070 C 
ATOM     20  HN  UNL d   1      -1.237   2.017   0.088  1.00  0.00     0.166 HD
BRANCH  16  21
ATOM     21  C   UNL d   1      -0.230  -2.553  -0.113  0.00  0.00     0.302 C 
ATOM     22  O   UNL d   1       0.729  -3.312  -0.200  0.00  0.00    -0.259 OA
BRANCH  21  23
ATOM     23  O   UNL d   1      -1.525  -2.970  -0.150  0.00  0.00    -0.317 OA
BRANCH  23  24
ATOM     24  C   UNL d   1      -1.748  -4.300  -0.635  0.00  0.00     0.174 C 
ATOM     25  C   UNL d   1      -1.861  -4.233  -2.147  0.00  0.00     0.034 C 
ENDBRANCH  23  24
ENDBRANCH  21  23
ENDBRANCH  16  21
ENDBRANCH   1  14
TORSDOF 6
