REMARK  7 active torsions:
REMARK  status: ('A' for Active; 'I' for Inactive)
REMARK    1  A    between atoms: C_2  and  C_1 
REMARK    2  A    between atoms: C_3  and  C_1 
REMARK    3  A    between atoms: C_5  and  C_2 
REMARK    4  A    between atoms: C_8  and  C_3 
REMARK    5  A    between atoms: N_4  and  C_10 
REMARK    6  A    between atoms: N_12  and  N_6 
REMARK    7  A    between atoms: C_24  and  N_12 
ROOT
ATOM      1  C   UNL d   1       1.178   0.128  -0.130  0.00  0.00     0.150 C 
ATOM      2  N   UNL d   1       2.481   0.166  -0.121  0.00  0.00    -0.310 N 
ATOM      3  HN  UNL d   1       3.006  -0.576  -0.583  1.00  0.00     0.181 HD
ENDROOT
BRANCH   1   4
ATOM      4  C   UNL d   1       0.299   1.163   0.474  0.00  0.00     0.286 C 
ATOM      5  O   UNL d   1      -0.401   0.836   1.428  0.00  0.00    -0.281 OA
BRANCH   4   6
ATOM      6  C   UNL d   1       0.371   2.506  -0.182  0.00  0.00     0.457 C 
ATOM      7  F   UNL d   1       1.259   2.566  -1.214  0.00  0.00    -0.163 F 
ATOM      8  F   UNL d   1      -0.818   2.936  -0.676  0.00  0.00    -0.163 F 
ATOM      9  F   UNL d   1       0.792   3.462   0.698  0.00  0.00    -0.163 F 
ENDBRANCH   4   6
ENDBRANCH   1   4
BRANCH   1  10
ATOM     10  C   UNL d   1       0.542  -1.048  -0.819  0.00  0.00     0.220 C 
ATOM     11  O   UNL d   1      -0.336  -0.771  -1.633  0.00  0.00    -0.284 OA
BRANCH  10  12
ATOM     12  C   UNL d   1       1.048  -2.364  -0.472  0.00  0.00     0.057 A 
ATOM     13  S   UNL d   1       0.679  -3.694  -1.491  0.00  0.00    -0.098 SA
ATOM     14  C   UNL d   1       1.633  -4.765  -0.560  0.00  0.00     0.050 A 
ATOM     15  C   UNL d   1       2.191  -4.142   0.532  0.00  0.00     0.009 A 
ATOM     16  C   UNL d   1       1.843  -2.761   0.591  0.00  0.00     0.023 A 
ENDBRANCH  10  12
ENDBRANCH   1  10
BRANCH   2  17
ATOM     17  N   UNL d   1       3.153   1.177   0.492  0.00  0.00    -0.205 NA
ATOM     18  H   UNL d   1       2.847   2.145   0.364  0.00  0.00     0.153 HD
BRANCH  17  19
ATOM     19  C   UNL d   1       4.566   1.137   0.339  0.00  0.00     0.027 A 
ATOM     20  C   UNL d   1       5.242  -0.019  -0.087  0.00  0.00     0.027 A 
ATOM     21  C   UNL d   1       6.634  -0.030  -0.225  0.00  0.00     0.038 A 
ATOM     22  C   UNL d   1       7.365   1.115   0.102  0.00  0.00     0.103 A 
ATOM     23  C   UNL d   1       6.715   2.258   0.583  0.00  0.00     0.038 A 
ATOM     24  C   UNL d   1       5.322   2.258   0.711  0.00  0.00     0.027 A 
BRANCH  22  25
ATOM     25  N   UNL d   1       8.822   1.119  -0.061  0.00  0.00    -0.116 N 
ATOM     26  O   UNL d   1       9.357   0.093  -0.504  0.00  0.00    -0.532 OA
ATOM     27  O   UNL d   1       9.435   2.152   0.251  0.00  0.00    -0.532 OA
ENDBRANCH  22  25
ENDBRANCH  17  19
ENDBRANCH   2  17
TORSDOF 7
