REMARK  8 active torsions:
REMARK  status: ('A' for Active; 'I' for Inactive)
REMARK    1  A    between atoms: N_3  and  S_1 
REMARK    2  A    between atoms: C_15  and  S_1 
REMARK    3  A    between atoms: S_2  and  N_13 
REMARK    4  A    between atoms: C_7  and  S_2 
REMARK    5  A    between atoms: C_4  and  N_3 
REMARK    6  A    between atoms: C_8  and  C_12 
REMARK    7  A    between atoms: C_9  and  C_11 
REMARK    8  A    between atoms: N_13  and  C_32 
ROOT
ATOM      1  N   UNL d   1      -1.047   0.124   5.566  0.00  0.00    -0.281 N 
ATOM      2  H   UNL d   1      -1.967   0.523   5.749  0.00  0.00     0.179 HD
ENDROOT
BRANCH   1   3
ATOM      3  S   UNL d   1      -0.035  -0.015   6.894  0.00  0.00     0.263 S 
ATOM      4  O   UNL d   1      -0.879   0.125   8.063  0.00  0.00    -0.200 OA
ATOM      5  O   UNL d   1       0.827  -1.162   6.725  0.00  0.00    -0.200 OA
BRANCH   3   6
ATOM      6  C   UNL d   1       0.971   1.453   6.800  0.00  0.00     0.081 A 
ATOM      7  C   UNL d   1       0.484   2.655   7.332  0.00  0.00     0.041 A 
ATOM      8  C   UNL d   1       1.284   3.807   7.315  0.00  0.00     0.050 A 
ATOM      9  C   UNL d   1       2.577   3.728   6.767  0.00  0.00     0.032 A 
ATOM     10  C   UNL d   1       3.080   2.519   6.250  0.00  0.00     0.050 A 
ATOM     11  C   UNL d   1       2.264   1.378   6.270  0.00  0.00     0.041 A 
BRANCH   8  12
ATOM     12  C   UNL d   1       0.787   5.120   7.882  0.00  0.00     0.417 C 
ATOM     13  F   UNL d   1      -0.456   5.036   8.431  0.00  0.00    -0.166 F 
ATOM     14  F   UNL d   1       1.600   5.606   8.857  0.00  0.00    -0.166 F 
ATOM     15  F   UNL d   1       0.712   6.091   6.933  0.00  0.00    -0.166 F 
ENDBRANCH   8  12
BRANCH  10  16
ATOM     16  C   UNL d   1       4.487   2.467   5.693  0.00  0.00     0.417 C 
ATOM     17  F   UNL d   1       4.866   1.229   5.283  0.00  0.00    -0.166 F 
ATOM     18  F   UNL d   1       4.642   3.288   4.619  0.00  0.00    -0.166 F 
ATOM     19  F   UNL d   1       5.417   2.864   6.607  0.00  0.00    -0.166 F 
ENDBRANCH  10  16
ENDBRANCH   3   6
ENDBRANCH   1   3
BRANCH   1  20
ATOM     20  C   UNL d   1      -0.535   0.105   4.249  0.00  0.00     0.042 A 
ATOM     21  C   UNL d   1      -0.382   1.301   3.546  0.00  0.00     0.031 A 
ATOM     22  C   UNL d   1       0.084   1.279   2.228  0.00  0.00     0.027 A 
ATOM     23  C   UNL d   1       0.369   0.054   1.618  0.00  0.00     0.075 A 
ATOM     24  C   UNL d   1       0.239  -1.143   2.333  0.00  0.00     0.027 A 
ATOM     25  C   UNL d   1      -0.216  -1.114   3.652  0.00  0.00     0.031 A 
BRANCH  23  26
ATOM     26  S   UNL d   1       1.019   0.011  -0.037  0.00  0.00     0.247 S 
ATOM     27  O   UNL d   1       1.637   1.297  -0.284  0.00  0.00    -0.205 OA
ATOM     28  O   UNL d   1       1.772  -1.214  -0.180  0.00  0.00    -0.205 OA
BRANCH  26  29
ATOM     29  N   UNL d   1      -0.380  -0.030  -0.990  0.00  0.00    -0.165 NA
ATOM     30  H   UNL d   1      -0.193   0.569  -1.794  0.00  0.00     0.147 HD
BRANCH  29  31
ATOM     31  C   UNL d   1      -0.856  -1.270  -1.378  0.00  0.00     0.110 C 
ATOM     32  N   UNL d   1      -0.593  -1.745  -2.592  0.00  0.00    -0.288 N 
ATOM     33  N   UNL d   1      -1.121  -2.983  -2.563  0.00  0.00    -0.306 N 
ATOM     34  HN  UNL d   1      -0.107  -1.283  -3.360  1.00  0.00     0.188 HD
ATOM     35  C   UNL d   1      -0.835  -3.924  -3.619  0.00  0.00     0.177 C 
ATOM     36  C   UNL d   1      -1.871  -3.222  -1.446  0.00  0.00     0.113 C 
ATOM     37  C   UNL d   1      -1.705  -2.118  -0.643  0.00  0.00     0.063 C 
ENDBRANCH  29  31
ENDBRANCH  26  29
ENDBRANCH  23  26
ENDBRANCH   1  20
TORSDOF 8
