REMARK  2 active torsions:
REMARK  status: ('A' for Active; 'I' for Inactive)
REMARK    1  A    between atoms: C_2  and  C_1 
REMARK    2  A    between atoms: O_11  and  C_1 
ROOT
ATOM      1  C   UNL d   1       0.376   1.243   0.453  0.00  0.00     0.038 A 
ATOM      2  C   UNL d   1      -0.707   1.210   1.337  0.00  0.00     0.032 A 
ATOM      3  C   UNL d   1      -1.355   2.400   1.710  0.00  0.00    -0.008 A 
ATOM      4  N   UNL d   1      -1.506   4.803   1.519  0.00  0.00    -0.365 N 
ATOM      5  HN  UNL d   1      -1.171   5.686   1.134  1.00  0.00     0.165 HD
ATOM      6  C   UNL d   1      -0.923   3.639   1.189  0.00  0.00     0.042 A 
ATOM      7  C   UNL d   1       0.790   2.463  -0.085  0.00  0.00     0.020 A 
ATOM      8  C   UNL d   1       0.141   3.643   0.297  0.00  0.00     0.031 A 
ATOM      9  C   UNL d   1      -2.550   4.768   2.376  0.00  0.00     0.088 A 
ATOM     10  C   UNL d   1      -2.443   2.405   2.595  0.00  0.00     0.015 A 
ATOM     11  C   UNL d   1      -3.052   3.608   2.934  0.00  0.00     0.018 A 
ENDROOT
BRANCH   1  12
ATOM     12  C   UNL d   1       1.022  -0.039   0.080  0.00  0.00     0.176 C 
ATOM     13  O   UNL d   1       0.410  -1.091   0.016  0.00  0.00    -0.646 OA
BRANCH  12  14
ATOM     14  O   UNL d   1       2.350   0.061  -0.134  0.00  0.00    -0.773 OA
ATOM     15  H   UNL d   1       2.751   0.911   0.125  0.00  0.00     0.167 HD
ENDBRANCH  12  14
ENDBRANCH   1  12
TORSDOF 2
