REMARK  4 active torsions:
REMARK  status: ('A' for Active; 'I' for Inactive)
REMARK    1  A    between atoms: C_8  and  N_1 
REMARK    2  A    between atoms: C_4  and  C_3 
REMARK    3  A    between atoms: O_5  and  C_6 
REMARK    4  A    between atoms: C_7  and  O_5 
ROOT
ATOM      1  C   UNL d   1      -1.005   1.231  -0.026  0.00  0.00     0.013 A 
ATOM      2  C   UNL d   1      -1.656   0.441   0.929  0.00  0.00     0.086 A 
ATOM      3  C   UNL d   1      -1.750   2.041  -0.895  0.00  0.00     0.015 A 
ATOM      4  C   UNL d   1      -3.052   0.499   1.024  0.00  0.00     0.038 A 
ATOM      5  C   UNL d   1      -3.140   2.085  -0.797  0.00  0.00     0.001 A 
ATOM      6  C   UNL d   1      -3.792   1.313   0.163  0.00  0.00     0.003 A 
ENDROOT
BRANCH   1   7
ATOM      7  C   UNL d   1       0.463   1.265  -0.150  0.00  0.00     0.102 C 
ATOM      8  N   UNL d   1       1.005   1.316  -1.326  0.00  0.00    -0.365 N 
ATOM      9  HN  UNL d   1       0.419   1.376  -2.159  1.00  0.00     0.165 HD
BRANCH   8  10
ATOM     10  C   UNL d   1       2.400   1.290  -1.448  0.00  0.00     0.032 A 
ATOM     11  C   UNL d   1       3.205   0.343  -0.804  0.00  0.00     0.031 A 
ATOM     12  C   UNL d   1       4.583   0.302  -1.040  0.00  0.00     0.026 A 
ATOM     13  C   UNL d   1       5.158   1.201  -1.934  0.00  0.00     0.034 A 
ATOM     14  C   UNL d   1       4.370   2.145  -2.587  0.00  0.00     0.026 A 
ATOM     15 CL   UNL d   1       6.848   1.131  -2.251  0.00  0.00    -0.084 Cl
ATOM     16  C   UNL d   1       2.996   2.183  -2.342  0.00  0.00     0.031 A 
ENDBRANCH   8  10
ENDBRANCH   1   7
BRANCH   2  17
ATOM     17  O   UNL d   1      -1.045  -0.370   1.845  0.00  0.00    -0.289 OA
BRANCH  17  18
ATOM     18  C   UNL d   1      -0.177  -1.343   1.282  0.00  0.00     0.505 C 
ATOM     19  F   UNL d   1       1.093  -0.999   1.619  0.00  0.00    -0.184 F 
ATOM     20  F   UNL d   1      -0.429  -2.522   1.903  0.00  0.00    -0.184 F 
ENDBRANCH  17  18
ENDBRANCH   2  17
TORSDOF 4
