REMARK  2 active torsions:
REMARK  status: ('A' for Active; 'I' for Inactive)
REMARK    1  A    between atoms: C_3  and  C_1 
REMARK    2  A    between atoms: C_6  and  C_2 
REMARK       I    between atoms: N_9  and  C_3 
ROOT
ATOM      1  C   UNL d   1      -0.853  -0.506   1.061  0.00  0.00     0.112 C 
ATOM      2  C   UNL d   1       0.333  -0.914   0.565  0.00  0.00     0.041 C 
ATOM      3  C   UNL d   1      -1.472  -1.133   2.194  0.00  0.00     0.105 C 
ATOM      4  N   UNL d   1      -1.975  -1.633   3.111  0.00  0.00    -0.191 NA
ENDROOT
BRANCH   1   5
ATOM      5  C   UNL d   1      -1.522   0.635   0.344  0.00  0.00     0.260 C 
ATOM      6  O   UNL d   1      -1.069   1.166  -0.667  0.00  0.00    -0.267 OA
ATOM      7  N   UNL d   1      -2.702   1.078   0.861  0.00  0.00    -0.365 N 
ATOM      8  H   UNL d   1      -3.140   0.710   1.694  0.00  0.00     0.159 HD
ATOM      9  H   UNL d   1      -3.161   1.852   0.394  0.00  0.00     0.159 HD
ENDBRANCH   1   5
BRANCH   2  10
ATOM     10  C   UNL d   1       1.116  -2.023   1.139  0.00  0.00    -0.013 A 
ATOM     11  C   UNL d   1       2.048  -1.841   2.174  0.00  0.00     0.044 A 
ATOM     12 CL   UNL d   1       2.348  -0.283   2.862  0.00  0.00    -0.083 Cl
ATOM     13  C   UNL d   1       2.754  -2.931   2.692  0.00  0.00     0.024 A 
ATOM     14  C   UNL d   1       2.529  -4.213   2.191  0.00  0.00     0.002 A 
ATOM     15  C   UNL d   1       1.589  -4.408   1.181  0.00  0.00     0.001 A 
ATOM     16  C   UNL d   1       0.887  -3.320   0.655  0.00  0.00     0.013 A 
ENDBRANCH   2  10
TORSDOF 2
