REMARK  2 active torsions:
REMARK  status: ('A' for Active; 'I' for Inactive)
REMARK       I    between atoms: C_2  and  N_1 
REMARK       I    between atoms: C_3  and  N_1 
REMARK       I    between atoms: N_6  and  C_2 
REMARK    1  A    between atoms: C_4  and  C_3 
REMARK    2  A    between atoms: C_10  and  N_6 
ROOT
ATOM      1  C   UNL d   1       3.148  -1.175  -2.352  0.00  0.00    -0.086 C 
ATOM      2  C   UNL d   1       3.621  -0.331  -3.063  0.00  0.00     0.015 C 
ATOM      3  C   UNL d   1       2.496  -2.216  -1.510  0.00  0.00     0.097 C 
ATOM      4  C   UNL d   1       2.733  -3.570  -2.228  0.00  0.00     0.044 C 
ATOM      5  C   UNL d   1       3.142  -2.267  -0.101  0.00  0.00     0.044 C 
ATOM      6  C   UNL d   1       2.361  -4.800  -1.402  0.00  0.00     0.004 C 
ATOM      7  C   UNL d   1       2.663  -3.474   0.710  0.00  0.00     0.004 C 
ATOM      8  C   UNL d   1       2.988  -4.773  -0.013  0.00  0.00     0.000 C 
ENDROOT
BRANCH   3   9
ATOM      9  N   UNL d   1       1.065  -1.894  -1.428  0.00  0.00    -0.323 N 
ATOM     10  C   UNL d   1       0.617  -0.727  -0.893  0.00  0.00     0.324 C 
ATOM     11  N   UNL d   1      -0.729  -0.513  -0.859  0.00  0.00    -0.275 N 
ATOM     12  O   UNL d   1       1.332   0.172  -0.450  0.00  0.00    -0.247 OA
ATOM     13  C   UNL d   1      -1.814  -1.290  -1.223  0.00  0.00     0.259 C 
ATOM     14  H   UNL d   1      -0.908   0.397  -0.458  0.00  0.00     0.173 HD
ATOM     15  O   UNL d   1      -1.768  -2.469  -1.554  0.00  0.00    -0.267 OA
ATOM     16  H   UNL d   1       0.371  -2.611  -1.618  0.00  0.00     0.166 HD
BRANCH  13  17
ATOM     17  C   UNL d   1      -3.110  -0.562  -1.069  0.00  0.00     0.034 A 
ATOM     18  C   UNL d   1      -3.215   0.780  -1.470  0.00  0.00     0.044 A 
ATOM     19  C   UNL d   1      -4.364   1.507  -1.161  0.00  0.00     0.073 A 
ATOM     20 CL   UNL d   1      -4.447   3.171  -1.592  0.00  0.00    -0.081 Cl
ATOM     21  C   UNL d   1      -5.412   0.894  -0.477  0.00  0.00     0.138 A 
ATOM     22  C   UNL d   1      -5.333  -0.452  -0.122  0.00  0.00     0.045 A 
ATOM     23  F   UNL d   1      -6.506   1.589  -0.136  0.00  0.00    -0.204 F 
ATOM     24  C   UNL d   1      -4.182  -1.188  -0.424  0.00  0.00     0.020 A 
ENDBRANCH  13  17
ENDBRANCH   3   9
TORSDOF 2
