REMARK  5 active torsions:
REMARK  status: ('A' for Active; 'I' for Inactive)
REMARK    1  A    between atoms: C_2  and  S_1 
REMARK    2  A    between atoms: N_9  and  S_1 
REMARK    3  A    between atoms: N_4  and  C_15 
REMARK    4  A    between atoms: C_14  and  N_9 
REMARK    5  A    between atoms: C_15  and  C_14 
ROOT
ATOM      1  N   UNL d   1       2.656   0.223  -0.012  0.00  0.00    -0.214 NA
ATOM      2  H   UNL d   1       2.978   0.697  -0.859  0.00  0.00     0.140 HD
ENDROOT
BRANCH   1   3
ATOM      3  S   UNL d   1       0.973   0.088  -0.097  0.00  0.00     0.248 S 
ATOM      4  O   UNL d   1       0.397   1.149   0.699  0.00  0.00    -0.205 OA
ATOM      5  O   UNL d   1       0.644  -0.080  -1.494  0.00  0.00    -0.205 OA
BRANCH   3   6
ATOM      6  C   UNL d   1       0.472  -1.415   0.706  0.00  0.00     0.115 A 
ATOM      7  S   UNL d   1       1.091  -2.871   0.054  0.00  0.00    -0.089 SA
ATOM      8  C   UNL d   1       0.196  -3.823   1.160  0.00  0.00     0.051 A 
ATOM      9  C   UNL d   1      -0.533  -3.049   2.036  0.00  0.00     0.009 A 
ATOM     10  C   UNL d   1      -0.368  -1.657   1.777  0.00  0.00     0.033 A 
ENDBRANCH   3   6
ENDBRANCH   1   3
BRANCH   1  11
ATOM     11  C   UNL d   1       3.205   0.804   1.234  0.00  0.00     0.124 C 
BRANCH  11  12
ATOM     12  C   UNL d   1       4.738   0.740   1.201  0.00  0.00     0.142 C 
BRANCH  12  13
ATOM     13  N   UNL d   1       5.368   1.363   2.348  0.00  0.00    -0.332 N 
ATOM     14  C   UNL d   1       5.603   2.732   2.448  0.00  0.00     0.318 C 
ATOM     15  N   UNL d   1       6.033   2.986   3.742  0.00  0.00    -0.341 N 
ATOM     16  O   UNL d   1       5.460   3.569   1.577  0.00  0.00    -0.247 OA
ATOM     17  C   UNL d   1       6.263   1.755   4.450  0.00  0.00     0.144 C 
ATOM     18  H   UNL d   1       6.420   3.892   3.972  0.00  0.00     0.164 HD
ATOM     19  C   UNL d   1       5.451   0.742   3.652  0.00  0.00     0.147 C 
ENDBRANCH  12  13
ENDBRANCH  11  12
ENDBRANCH   1  11
TORSDOF 5
