REMARK  3 active torsions:
REMARK  status: ('A' for Active; 'I' for Inactive)
REMARK    1  A    between atoms: C_4  and  C_1 
REMARK       I    between atoms: N_5  and  C_1 
REMARK    2  A    between atoms: C_2  and  C_3 
REMARK    3  A    between atoms: C_6  and  N_5 
ROOT
ATOM      1  C   UNL d   1       0.952   0.038  -0.131  0.00  0.00     0.257 C 
ATOM      2  N   UNL d   1       0.201  -0.337  -1.227  0.00  0.00    -0.322 N 
ATOM      3  O   UNL d   1       0.454   0.508   0.891  0.00  0.00    -0.267 OA
ATOM      4  H   UNL d   1       0.608  -1.063  -1.804  0.00  0.00     0.169 HD
ENDROOT
BRANCH   2   5
ATOM      5  C   UNL d   1      -1.198  -0.179  -1.311  0.00  0.00     0.050 A 
ATOM      6  C   UNL d   1      -1.889   1.000  -0.988  0.00  0.00     0.074 A 
ATOM      7  C   UNL d   1      -3.302   0.984  -1.045  0.00  0.00     0.018 A 
ATOM      8  C   UNL d   1      -4.002  -0.149  -1.458  0.00  0.00     0.001 A 
ATOM      9  C   UNL d   1      -3.302  -1.285  -1.841  0.00  0.00     0.002 A 
ATOM     10  C   UNL d   1      -1.909  -1.295  -1.780  0.00  0.00     0.030 A 
BRANCH   6  11
ATOM     11  C   UNL d   1      -1.240   2.333  -0.691  0.00  0.00     0.419 C 
ATOM     12  F   UNL d   1       0.085   2.438  -0.990  0.00  0.00    -0.166 F 
ATOM     13  F   UNL d   1      -1.823   3.332  -1.433  0.00  0.00    -0.166 F 
ATOM     14  F   UNL d   1      -1.390   2.735   0.602  0.00  0.00    -0.166 F 
ENDBRANCH   6  11
ENDBRANCH   2   5
BRANCH   1  15
ATOM     15  C   UNL d   1       2.443  -0.124  -0.214  0.00  0.00     0.048 A 
ATOM     16  C   UNL d   1       3.178  -0.946  -1.087  0.00  0.00     0.022 A 
ATOM     17  I   UNL d   1       2.379  -2.389  -2.399  0.00  0.00    -0.043 I 
ATOM     18  C   UNL d   1       4.585  -0.892  -1.087  0.00  0.00     0.019 A 
ATOM     19  C   UNL d   1       5.270  -0.055  -0.207  0.00  0.00     0.001 A 
ATOM     20  C   UNL d   1       4.559   0.727   0.692  0.00  0.00     0.001 A 
ATOM     21  C   UNL d   1       3.163   0.693   0.685  0.00  0.00     0.018 A 
ENDBRANCH   1  15
TORSDOF 3
