REMARK  4 active torsions:
REMARK  status: ('A' for Active; 'I' for Inactive)
REMARK    1  A    between atoms: C_4  and  C_11 
REMARK    2  A    between atoms: O_12  and  N_7 
REMARK    3  A    between atoms: C_10  and  O_12 
REMARK    4  A    between atoms: C_13  and  C_10 
ROOT
ATOM      1  C   UNL d   1      -0.707  -0.537   0.060  0.00  0.00     0.023 A 
ATOM      2  C   UNL d   1      -1.122   0.783   0.086  0.00  0.00     0.022 A 
ATOM      3  N   UNL d   1      -0.019   1.588   0.080  0.00  0.00    -0.358 N 
ATOM      4  C   UNL d   1       0.720  -0.524   0.014  0.00  0.00     0.005 A 
ATOM      5  C   UNL d   1       1.121   0.817   0.030  0.00  0.00     0.043 A 
ATOM      6  N   UNL d   1      -1.250  -2.837   0.048  0.00  0.00    -0.261 N 
ATOM      7  HN  UNL d   1      -0.258  -3.072  -0.000  1.00  0.00     0.194 HD
ATOM      8  C   UNL d   1      -1.691  -1.618   0.067  0.00  0.00     0.045 C 
ATOM      9  C   UNL d   1      -2.528   1.262   0.107  0.00  0.00     0.058 C 
ATOM     10  C   UNL d   1       1.719  -1.517  -0.043  0.00  0.00     0.014 A 
ATOM     11  C   UNL d   1       2.466   1.208  -0.005  0.00  0.00     0.030 A 
ATOM     12  C   UNL d   1      -3.161  -1.211   0.161  0.00  0.00     0.060 C 
ATOM     13  C   UNL d   1      -3.424   0.162  -0.483  0.00  0.00     0.012 C 
ATOM     14  C   UNL d   1       3.068  -1.142  -0.080  0.00  0.00     0.001 A 
ATOM     15  C   UNL d   1       3.433   0.201  -0.061  0.00  0.00     0.002 A 
ATOM     16  H   UNL d   1      -0.024   2.599   0.097  0.00  0.00     0.166 HD
ENDROOT
BRANCH   6  17
ATOM     17  O   UNL d   1      -2.275  -3.807   0.100  0.00  0.00    -0.195 OA
BRANCH  17  18
ATOM     18  C   UNL d   1      -1.706  -5.055   0.042  0.00  0.00     0.315 C 
ATOM     19  O   UNL d   1      -0.509  -5.316  -0.030  0.00  0.00    -0.257 OA
BRANCH  18  20
ATOM     20  C   UNL d   1      -2.735  -6.136   0.049  0.00  0.00     0.042 A 
ATOM     21  C   UNL d   1      -4.112  -5.904   0.188  0.00  0.00     0.034 A 
ATOM     22  C   UNL d   1      -5.026  -6.978   0.152  0.00  0.00     0.048 A 
ATOM     23  C   UNL d   1      -4.542  -8.289   0.002  0.00  0.00     0.016 A 
ATOM     24  C   UNL d   1      -3.176  -8.527  -0.122  0.00  0.00     0.002 A 
ATOM     25  C   UNL d   1      -2.280  -7.457  -0.103  0.00  0.00     0.018 A 
BRANCH  22  26
ATOM     26  C   UNL d   1      -6.517  -6.753   0.245  0.00  0.00     0.417 C 
ATOM     27  F   UNL d   1      -6.860  -5.444   0.396  0.00  0.00    -0.166 F 
ATOM     28  F   UNL d   1      -7.174  -7.185  -0.867  0.00  0.00    -0.166 F 
ATOM     29  F   UNL d   1      -7.082  -7.412   1.293  0.00  0.00    -0.166 F 
ENDBRANCH  22  26
ENDBRANCH  18  20
ENDBRANCH  17  18
ENDBRANCH   6  17
TORSDOF 4
