REMARK  6 active torsions:
REMARK  status: ('A' for Active; 'I' for Inactive)
REMARK    1  A    between atoms: C_17  and  C_3 
REMARK    2  A    between atoms: C_8  and  C_4 
REMARK    3  A    between atoms: C_16  and  C_5 
REMARK    4  A    between atoms: C_6  and  C_14 
REMARK    5  A    between atoms: C_12  and  C_8 
REMARK    6  A    between atoms: C_10  and  C_22 
ROOT
ATOM      1  C   UNL d   1      -0.456  -7.723   1.129  0.00  0.00     0.096 C 
ATOM      2  C   UNL d   1      -0.655  -7.158  -0.082  0.00  0.00     0.038 C 
ATOM      3  C   UNL d   1      -0.983  -8.988   1.506  0.00  0.00     0.103 C 
ATOM      4  N   UNL d   1      -1.409 -10.015   1.847  0.00  0.00    -0.191 NA
ENDROOT
BRANCH   1   5
ATOM      5  C   UNL d   1       0.380  -6.964   2.121  0.00  0.00     0.202 C 
ATOM      6  O   UNL d   1       1.192  -6.115   1.759  0.00  0.00    -0.286 OA
BRANCH   5   7
ATOM      7  C   UNL d   1       0.243  -7.254   3.580  0.00  0.00     0.016 A 
ATOM      8  C   UNL d   1      -0.986  -7.595   4.165  0.00  0.00     0.031 A 
ATOM      9  C   UNL d   1      -1.078  -7.889   5.536  0.00  0.00     0.048 A 
ATOM     10  C   UNL d   1       0.074  -7.789   6.329  0.00  0.00     0.016 A 
ATOM     11  C   UNL d   1       1.292  -7.408   5.762  0.00  0.00     0.002 A 
ATOM     12  C   UNL d   1       1.377  -7.140   4.394  0.00  0.00     0.015 A 
BRANCH   9  13
ATOM     13  C   UNL d   1      -2.397  -8.299   6.150  0.00  0.00     0.417 C 
ATOM     14  F   UNL d   1      -3.408  -8.389   5.242  0.00  0.00    -0.166 F 
ATOM     15  F   UNL d   1      -2.336  -9.509   6.766  0.00  0.00    -0.166 F 
ATOM     16  F   UNL d   1      -2.823  -7.415   7.093  0.00  0.00    -0.166 F 
ENDBRANCH   9  13
ENDBRANCH   5   7
ENDBRANCH   1   5
BRANCH   2  17
ATOM     17  C   UNL d   1      -1.477  -7.665  -1.204  0.00  0.00    -0.035 A 
ATOM     18  C   UNL d   1      -2.088  -6.744  -2.068  0.00  0.00     0.012 A 
ATOM     19  C   UNL d   1      -2.904  -7.173  -3.130  0.00  0.00     0.015 A 
ATOM     20  C   UNL d   1      -3.130  -8.537  -3.350  0.00  0.00    -0.002 A 
ATOM     21  C   UNL d   1      -2.503  -9.453  -2.498  0.00  0.00     0.015 A 
ATOM     22  C   UNL d   1      -1.663  -9.026  -1.467  0.00  0.00     0.012 A 
BRANCH  20  23
ATOM     23  C   UNL d   1      -3.987  -9.063  -4.421  0.00  0.00     0.084 A 
ATOM     24  N   UNL d   1      -4.690 -10.174  -4.313  0.00  0.00    -0.352 N 
ATOM     25  C   UNL d   1      -5.338 -10.480  -5.500  0.00  0.00     0.024 A 
ATOM     26  HN  UNL d   1      -4.750 -10.736  -3.464  1.00  0.00     0.166 HD
ATOM     27  C   UNL d   1      -5.081  -9.581  -6.521  0.00  0.00     0.077 A 
ATOM     28  S   UNL d   1      -4.059  -8.322  -5.970  0.00  0.00    -0.081 SA
BRANCH  25  29
ATOM     29  C   UNL d   1      -6.230 -11.713  -5.564  0.00  0.00    -0.008 C 
ATOM     30  C   UNL d   1      -6.287 -12.432  -4.198  0.00  0.00     0.021 C 
ATOM     31  C   UNL d   1      -7.665 -11.305  -5.953  0.00  0.00     0.021 C 
ATOM     32  C   UNL d   1      -5.698 -12.716  -6.606  0.00  0.00     0.021 C 
ENDBRANCH  25  29
ENDBRANCH  20  23
ENDBRANCH   2  17
TORSDOF 6
