REMARK  5 active torsions:
REMARK  status: ('A' for Active; 'I' for Inactive)
REMARK    1  A    between atoms: N_2  and  C_1 
REMARK    2  A    between atoms: N_9  and  C_3 
REMARK    3  A    between atoms: N_13  and  C_6 
REMARK    4  A    between atoms: C_14  and  N_9 
REMARK    5  A    between atoms: C_15  and  C_14 
ROOT
ATOM      1  C   UNL d   1      -0.052  -0.668  -0.059  0.00  0.00     0.184 A 
ATOM      2  C   UNL d   1       0.871   0.343  -0.271  0.00  0.00     0.139 A 
ATOM      3  N   UNL d   1       0.470   1.487  -0.859  0.00  0.00    -0.337 N 
ATOM      4  HN  UNL d   1       1.120   2.259  -1.009  1.00  0.00     0.168 HD
ATOM      5  C   UNL d   1      -1.351  -0.514  -0.520  0.00  0.00     0.116 A 
ATOM      6  N   UNL d   1      -1.746   0.621  -1.111  0.00  0.00    -0.341 N 
ATOM      7  HN  UNL d   1      -2.701   0.751  -1.444  1.00  0.00     0.167 HD
ATOM      8  C   UNL d   1      -0.815   1.576  -1.242  0.00  0.00     0.183 A 
ENDROOT
BRANCH   2   9
ATOM      9  N   UNL d   1       2.206   0.234   0.084  0.00  0.00    -0.370 N 
ATOM     10  H   UNL d   1       2.578  -0.660   0.382  0.00  0.00     0.161 HD
BRANCH   9  11
ATOM     11  C   UNL d   1       3.093   1.383   0.197  0.00  0.00     0.078 C 
ATOM     12  C   UNL d   1       4.393   1.050  -0.542  0.00  0.00     0.032 C 
BRANCH  11  13
ATOM     13  C   UNL d   1       3.409   1.653   1.679  0.00  0.00     0.020 C 
ATOM     14  C   UNL d   1       2.195   2.056   2.504  0.00  0.00     0.007 C 
ENDBRANCH  11  13
ENDBRANCH   9  11
ENDBRANCH   2   9
BRANCH   1  15
ATOM     15  N   UNL d   1       0.313  -1.863   0.637  0.00  0.00    -0.108 N 
ATOM     16  O   UNL d   1       0.796  -1.751   1.770  0.00  0.00    -0.532 OA
ATOM     17  O   UNL d   1       0.151  -2.937   0.036  0.00  0.00    -0.532 OA
ENDBRANCH   1  15
BRANCH   5  18
ATOM     18  N   UNL d   1      -2.357  -1.464  -0.358  0.00  0.00    -0.286 NA
ATOM     19  H   UNL d   1      -2.079  -2.395  -0.666  0.00  0.00     0.125 HD
ATOM     20  H   UNL d   1      -3.191  -1.138  -0.843  0.00  0.00     0.125 HD
ENDBRANCH   5  18
TORSDOF 5
