REMARK  2 active torsions:
REMARK  status: ('A' for Active; 'I' for Inactive)
REMARK    1  A    between atoms: C_6  and  N_1 
REMARK    2  A    between atoms: O_14  and  C_11 
ROOT
ATOM      1  C   UNL d   1       0.044   2.314  -0.014  0.00  0.00     0.046 A 
ATOM      2  C   UNL d   1      -0.702   3.035   0.933  0.00  0.00     0.033 A 
ATOM      3  C   UNL d   1       0.819   3.054  -0.918  0.00  0.00     0.033 A 
ATOM      4  C   UNL d   1       0.102   5.151   0.070  0.00  0.00     0.068 A 
ATOM      5  C   UNL d   1       0.849   4.452  -0.875  0.00  0.00     0.039 A 
ATOM      6  C   UNL d   1      -0.666   4.436   0.983  0.00  0.00     0.039 A 
ENDROOT
BRANCH   1   7
ATOM      7  N   UNL d   1       0.026   0.891  -0.044  0.00  0.00    -0.245 N 
ATOM      8  C   UNL d   1      -0.914   0.094   0.552  0.00  0.00     0.255 A 
ATOM      9  C   UNL d   1      -0.538  -1.302   0.297  0.00  0.00     0.080 A 
ATOM     10  O   UNL d   1      -1.933   0.367   1.165  0.00  0.00    -0.268 OA
ATOM     11  C   UNL d   1       0.579  -1.298  -0.425  0.00  0.00     0.080 A 
ATOM     12  C   UNL d   1       0.958   0.099  -0.659  0.00  0.00     0.255 A 
ATOM     13  O   UNL d   1       1.976   0.376  -1.274  0.00  0.00    -0.268 OA
ENDBRANCH   1   7
BRANCH   4  14
ATOM     14  O   UNL d   1       0.231   6.510   0.027  0.00  0.00    -0.356 OA
ATOM     15  C   UNL d   1      -0.842   7.255   0.591  0.00  0.00     0.210 C 
ENDBRANCH   4  14
TORSDOF 2
