REMARK  7 active torsions:
REMARK  status: ('A' for Active; 'I' for Inactive)
REMARK    1  A    between atoms: C_4  and  C_1 
REMARK    2  A    between atoms: N_2  and  C_7 
REMARK    3  A    between atoms: O_10  and  C_3 
REMARK    4  A    between atoms: C_6  and  O_10 
REMARK    5  A    between atoms: C_12  and  C_23 
REMARK       I    between atoms: N_13  and  C_12 
REMARK    6  A    between atoms: C_14  and  N_13 
REMARK    7  A    between atoms: C_23  and  N_15 
ROOT
ATOM      1  C   UNL d   1      -0.655  -1.724   9.535  0.00  0.00     0.250 C 
ATOM      2  N   UNL d   1      -0.440  -3.092   9.687  0.00  0.00    -0.322 N 
ATOM      3  O   UNL d   1      -1.256  -1.201   8.595  0.00  0.00    -0.271 OA
ATOM      4  H   UNL d   1      -0.163  -3.439  10.599  0.00  0.00     0.169 HD
ENDROOT
BRANCH   1   5
ATOM      5  C   UNL d   1      -0.117  -0.830  10.657  0.00  0.00     0.375 C 
BRANCH   5   6
ATOM      6  N   UNL d   1       1.308  -0.485  10.474  0.00  0.00     0.100 N 
ATOM      7  C   UNL d   1       1.619   0.156   9.166  0.00  0.00     0.293 C 
ATOM      8  C   UNL d   1       1.219   1.646   8.997  0.00  0.00     0.154 C 
ATOM      9  N   UNL d   1       1.719   2.468  10.116  0.00  0.00    -0.364 N 
ATOM     10  C   UNL d   1       1.315   1.912  11.422  0.00  0.00     0.154 C 
ATOM     11  C   UNL d   1       1.759   0.430  11.563  0.00  0.00     0.293 C 
BRANCH   9  12
ATOM     12  C   UNL d   1       3.024   2.970  10.065  0.00  0.00     0.103 A 
ATOM     13  C   UNL d   1       3.538   3.547   8.902  0.00  0.00     0.049 A 
ATOM     14  C   UNL d   1       4.824   4.099   8.895  0.00  0.00     0.021 A 
ATOM     15  C   UNL d   1       5.592   4.088  10.054  0.00  0.00     0.063 A 
ATOM     16  C   UNL d   1       5.014   3.518  11.173  0.00  0.00     0.106 A 
ATOM     17  N   UNL d   1       3.774   2.972  11.188  0.00  0.00    -0.352 N 
ATOM     18  HN  UNL d   1       3.407   2.562  12.048  1.00  0.00     0.166 HD
BRANCH  15  19
ATOM     19  C   UNL d   1       6.971   4.676  10.110  0.00  0.00     0.418 C 
ATOM     20  F   UNL d   1       7.538   4.627  11.345  0.00  0.00    -0.166 F 
ATOM     21  F   UNL d   1       6.996   5.983   9.735  0.00  0.00    -0.166 F 
ATOM     22  F   UNL d   1       7.835   4.037   9.273  0.00  0.00    -0.166 F 
ENDBRANCH  15  19
ENDBRANCH   9  12
ENDBRANCH   5   6
ENDBRANCH   1   5
BRANCH   2  23
ATOM     23  C   UNL d   1      -0.843  -4.065   8.727  0.00  0.00     0.086 A 
ATOM     24  C   UNL d   1      -1.119  -5.401   9.069  0.00  0.00     0.175 A 
ATOM     25  N   UNL d   1      -1.594  -6.319   8.185  0.00  0.00    -0.345 N 
ATOM     26  C   UNL d   1      -1.815  -5.908   6.920  0.00  0.00     0.090 A 
ATOM     27  HN  UNL d   1      -1.775  -7.282   8.468  1.00  0.00     0.167 HD
ATOM     28  C   UNL d   1      -1.518  -4.640   6.469  0.00  0.00     0.019 A 
ATOM     29  C   UNL d   1      -1.010  -3.721   7.381  0.00  0.00     0.035 A 
BRANCH  24  30
ATOM     30  O   UNL d   1      -0.915  -5.824  10.383  0.00  0.00    -0.291 OA
BRANCH  30  31
ATOM     31  C   UNL d   1      -1.807  -6.764  10.860  0.00  0.00     0.084 A 
ATOM     32  C   UNL d   1      -1.357  -7.940  11.449  0.00  0.00    -0.017 A 
ATOM     33  C   UNL d   1      -2.262  -8.862  11.996  0.00  0.00    -0.043 A 
ATOM     34  C   UNL d   1       0.055  -8.408  11.620  0.00  0.00     0.042 C 
ATOM     35  C   UNL d   1      -1.559 -10.038  12.598  0.00  0.00     0.040 C 
ATOM     36  C   UNL d   1      -3.637  -8.630  11.982  0.00  0.00    -0.055 A 
ATOM     37  C   UNL d   1      -0.099  -9.830  12.187  0.00  0.00     0.009 C 
ATOM     38  C   UNL d   1      -4.090  -7.447  11.383  0.00  0.00     0.010 A 
ATOM     39  C   UNL d   1      -4.605  -9.606  12.582  0.00  0.00     0.049 C 
ATOM     40  C   UNL d   1      -3.187  -6.521  10.839  0.00  0.00     0.038 A 
ENDBRANCH  30  31
ENDBRANCH  24  30
ENDBRANCH   2  23
TORSDOF 7
