REMARK  3 active torsions:
REMARK  status: ('A' for Active; 'I' for Inactive)
REMARK    1  A    between atoms: C_5  and  C_1 
REMARK    2  A    between atoms: C_11  and  C_4 
REMARK    3  A    between atoms: S_15  and  C_10 
ROOT
ATOM      1  C   UNL d   1      -0.033  -1.313  -0.048  0.00  0.00     0.051 A 
ATOM      2  N   UNL d   1      -1.349   0.548   0.008  0.00  0.00    -0.259 N 
ATOM      3  HN  UNL d   1      -2.157   1.170   0.008  1.00  0.00     0.195 HD
ATOM      4  C   UNL d   1      -1.368  -0.794   0.022  0.00  0.00     0.080 A 
ATOM      5  O   UNL d   1      -0.023   0.919  -0.008  0.00  0.00    -0.241 OA
ATOM      6  C   UNL d   1       0.763  -0.187  -0.025  0.00  0.00     0.087 A 
ATOM      7  C   UNL d   1       2.222   0.053  -0.026  0.00  0.00     0.080 C 
ENDROOT
BRANCH   1   8
ATOM      8  C   UNL d   1       0.485  -2.671  -0.120  0.00  0.00     0.050 A 
ATOM      9  N   UNL d   1       1.620  -2.906   0.567  0.00  0.00    -0.336 N 
ATOM     10  C   UNL d   1       2.077  -4.169   0.570  0.00  0.00     0.144 A 
ATOM     11  HN  UNL d   1       2.110  -2.160   1.060  1.00  0.00     0.168 HD
ATOM     12  N   UNL d   1       1.468  -5.202  -0.030  0.00  0.00    -0.347 N 
ATOM     13  C   UNL d   1       0.347  -4.923  -0.713  0.00  0.00     0.092 A 
ATOM     14  HN  UNL d   1       1.838  -6.150   0.030  1.00  0.00     0.167 HD
ATOM     15  C   UNL d   1      -0.176  -3.659  -0.818  0.00  0.00     0.047 A 
BRANCH  10  16
ATOM     16  S   UNL d   1       3.601  -4.446   1.438  0.00  0.00    -0.098 SA
ATOM     17  C   UNL d   1       3.844  -6.207   1.106  0.00  0.00     0.099 C 
ENDBRANCH  10  16
ENDBRANCH   1   8
BRANCH   4  18
ATOM     18  C   UNL d   1      -2.646  -1.520   0.083  0.00  0.00    -0.006 A 
ATOM     19  C   UNL d   1      -3.786  -1.012  -0.553  0.00  0.00     0.015 A 
ATOM     20  C   UNL d   1      -4.972  -1.756  -0.592  0.00  0.00     0.024 A 
ATOM     21  C   UNL d   1      -5.016  -3.022  -0.005  0.00  0.00     0.034 A 
ATOM     22  C   UNL d   1      -3.905  -3.526   0.659  0.00  0.00     0.024 A 
ATOM     23 CL   UNL d   1      -6.449  -3.967  -0.105  0.00  0.00    -0.084 Cl
ATOM     24  C   UNL d   1      -2.740  -2.759   0.736  0.00  0.00     0.015 A 
ENDBRANCH   4  18
TORSDOF 3
