REMARK  4 active torsions:
REMARK  status: ('A' for Active; 'I' for Inactive)
REMARK    1  A    between atoms: C_8  and  C_1 
REMARK    2  A    between atoms: C_9  and  C_7 
REMARK    3  A    between atoms: N_12  and  C_10 
REMARK    4  A    between atoms: O_15  and  C_13 
ROOT
ATOM      1  C   UNL d   1      -0.211  -1.076  -0.018  0.00  0.00     0.176 A 
ATOM      2  O   UNL d   1      -1.073  -0.007  -0.046  0.00  0.00    -0.273 OA
ATOM      3  N   UNL d   1       1.054  -0.699   0.002  0.00  0.00    -0.277 N 
ATOM      4  HN  UNL d   1       1.871  -1.309   0.031  1.00  0.00     0.189 HD
ATOM      5  N   UNL d   1       1.056   0.679  -0.025  0.00  0.00    -0.277 N 
ATOM      6  HN  UNL d   1       1.874   1.288  -0.023  1.00  0.00     0.189 HD
ATOM      7  C   UNL d   1      -0.207   1.055  -0.052  0.00  0.00     0.174 A 
ENDROOT
BRANCH   1   8
ATOM      8  C   UNL d   1      -0.797  -2.416   0.028  0.00  0.00     0.038 A 
ATOM      9  C   UNL d   1       0.019  -3.571  -0.012  0.00  0.00     0.020 A 
ATOM     10  C   UNL d   1      -0.591  -4.836   0.015  0.00  0.00     0.024 A 
ATOM     11  C   UNL d   1      -1.972  -4.971   0.158  0.00  0.00     0.002 A 
ATOM     12  C   UNL d   1      -2.773  -3.839   0.233  0.00  0.00     0.001 A 
ATOM     13  C   UNL d   1      -2.191  -2.573   0.162  0.00  0.00     0.017 A 
BRANCH   9  14
ATOM     14  N   UNL d   1       1.394  -3.516  -0.310  0.00  0.00    -0.302 NA
ATOM     15  H   UNL d   1       1.828  -2.616  -0.094  0.00  0.00     0.124 HD
ATOM     16  H   UNL d   1       1.933  -4.298   0.047  0.00  0.00     0.124 HD
ENDBRANCH   9  14
ENDBRANCH   1   8
BRANCH   7  17
ATOM     17  C   UNL d   1      -0.781   2.393  -0.106  0.00  0.00     0.019 A 
ATOM     18  C   UNL d   1       0.075   3.508  -0.151  0.00  0.00     0.052 A 
ATOM     19  C   UNL d   1      -0.438   4.803  -0.246  0.00  0.00     0.069 A 
ATOM     20  C   UNL d   1      -1.821   4.989  -0.278  0.00  0.00     0.037 A 
ATOM     21  C   UNL d   1      -2.686   3.897  -0.216  0.00  0.00     0.004 A 
ATOM     22  C   UNL d   1      -2.168   2.604  -0.131  0.00  0.00     0.016 A 
BRANCH  19  23
ATOM     23  O   UNL d   1       0.296   5.955  -0.324  0.00  0.00    -0.356 OA
ATOM     24  C   UNL d   1       1.712   5.819  -0.320  0.00  0.00     0.210 C 
ENDBRANCH  19  23
ENDBRANCH   7  17
TORSDOF 4
