REMARK  7 active torsions:
REMARK  status: ('A' for Active; 'I' for Inactive)
REMARK    1  A    between atoms: N_2  and  S_1 
REMARK    2  A    between atoms: C_4  and  S_1 
REMARK    3  A    between atoms: C_3  and  N_8 
REMARK    4  A    between atoms: N_11  and  C_3 
REMARK    5  A    between atoms: C_7  and  C_17 
REMARK    6  A    between atoms: N_8  and  C_18 
REMARK    7  A    between atoms: C_17  and  N_11 
ROOT
ATOM      1  C   UNL d   1       0.625  -0.734   1.540  0.00  0.00     0.079 A 
ATOM      2  C   UNL d   1       0.938  -2.070   1.813  0.00  0.00     0.027 A 
ATOM      3  C   UNL d   1       0.060   0.052   2.536  0.00  0.00     0.027 A 
ATOM      4  C   UNL d   1      -0.082  -1.887   4.031  0.00  0.00     0.034 A 
ATOM      5  C   UNL d   1      -0.279  -0.526   3.770  0.00  0.00     0.031 A 
ATOM      6  C   UNL d   1       0.581  -2.639   3.047  0.00  0.00     0.031 A 
ENDROOT
BRANCH   4   7
ATOM      7  N   UNL d   1      -0.552  -2.598   5.177  0.00  0.00    -0.333 N 
ATOM      8  H   UNL d   1      -0.290  -3.575   5.194  0.00  0.00     0.168 HD
BRANCH   7   9
ATOM      9  C   UNL d   1      -1.483  -2.243   6.153  0.00  0.00     0.172 C 
ATOM     10  S   UNL d   1      -2.039  -0.706   6.533  0.00  0.00    -0.041 SA
BRANCH   9  11
ATOM     11  N   UNL d   1      -2.019  -3.382   6.777  0.00  0.00    -0.361 N 
ATOM     12  H   UNL d   1      -1.597  -4.292   6.657  0.00  0.00     0.162 HD
BRANCH  11  13
ATOM     13  C   UNL d   1      -3.387  -3.373   7.285  0.00  0.00     0.187 C 
BRANCH  13  14
ATOM     14  C   UNL d   1      -3.851  -4.619   7.944  0.00  0.00     0.070 A 
ATOM     15  O   UNL d   1      -3.003  -5.673   8.108  0.00  0.00    -0.325 OA
ATOM     16  C   UNL d   1      -3.706  -6.630   8.780  0.00  0.00     0.142 A 
ATOM     17  C   UNL d   1      -4.989  -6.210   9.036  0.00  0.00     0.027 A 
ATOM     18  C   UNL d   1      -5.086  -4.914   8.491  0.00  0.00     0.036 A 
ENDBRANCH  13  14
ENDBRANCH  11  13
ENDBRANCH   9  11
ENDBRANCH   7   9
ENDBRANCH   4   7
BRANCH   1  19
ATOM     19  S   UNL d   1       1.049  -0.022  -0.044  0.00  0.00     0.260 S 
ATOM     20  O   UNL d   1       1.131   1.417   0.128  0.00  0.00    -0.200 OA
ATOM     21  O   UNL d   1       2.186  -0.775  -0.542  0.00  0.00    -0.200 OA
BRANCH  19  22
ATOM     22  N   UNL d   1      -0.294  -0.374  -1.050  0.00  0.00    -0.307 N 
ATOM     23  C   UNL d   1      -1.491   0.484  -0.863  0.00  0.00     0.135 C 
ATOM     24  C   UNL d   1      -2.540   0.215  -1.944  0.00  0.00     0.021 C 
ATOM     25  C   UNL d   1      -2.885  -1.265  -2.029  0.00  0.00     0.003 C 
ATOM     26  C   UNL d   1      -1.619  -2.061  -2.309  0.00  0.00     0.021 C 
ATOM     27  C   UNL d   1      -0.580  -1.821  -1.222  0.00  0.00     0.135 C 
ENDBRANCH  19  22
ENDBRANCH   1  19
TORSDOF 7
