REMARK  8 active torsions:
REMARK  status: ('A' for Active; 'I' for Inactive)
REMARK    1  A    between atoms: C_2  and  C_1 
REMARK    2  A    between atoms: C_3  and  O_9 
REMARK    3  A    between atoms: C_12  and  C_3 
REMARK    4  A    between atoms: C_4  and  C_19 
REMARK    5  A    between atoms: N_22  and  C_4 
REMARK    6  A    between atoms: O_9  and  N_5 
REMARK    7  A    between atoms: S_13  and  C_10 
REMARK    8  A    between atoms: C_19  and  S_13 
ROOT
ATOM      1  C   UNL d   1      -1.484   6.193   4.915  0.00  0.00     0.105 C 
ATOM      2  N   UNL d   1      -1.147   7.345   4.417  0.00  0.00    -0.245 N 
ATOM      3  HN  UNL d   1      -1.410   8.243   4.823  1.00  0.00     0.196 HD
ENDROOT
BRANCH   1   4
ATOM      4  C   UNL d   1      -2.343   6.212   6.186  0.00  0.00     0.158 C 
BRANCH   4   5
ATOM      5  S   UNL d   1      -2.071   4.734   7.226  0.00  0.00    -0.105 SA
BRANCH   5   6
ATOM      6  C   UNL d   1      -0.370   5.001   7.678  0.00  0.00     0.069 A 
ATOM      7  C   UNL d   1       0.452   3.915   7.950  0.00  0.00     0.038 A 
ATOM      8  C   UNL d   1       1.784   4.154   8.291  0.00  0.00     0.020 A 
ATOM      9  C   UNL d   1       2.258   5.468   8.359  0.00  0.00     0.063 A 
ATOM     10  C   UNL d   1       1.359   6.483   8.080  0.00  0.00     0.105 A 
ATOM     11  N   UNL d   1       0.064   6.276   7.753  0.00  0.00    -0.360 N 
ATOM     12  HN  UNL d   1      -0.564   7.058   7.569  1.00  0.00     0.166 HD
BRANCH   9  13
ATOM     13  C   UNL d   1       3.674   5.783   8.725  0.00  0.00     0.418 C 
ATOM     14  F   UNL d   1       3.951   7.116   8.746  0.00  0.00    -0.166 F 
ATOM     15  F   UNL d   1       4.571   5.230   7.862  0.00  0.00    -0.166 F 
ATOM     16  F   UNL d   1       4.008   5.315   9.959  0.00  0.00    -0.166 F 
ENDBRANCH   9  13
ENDBRANCH   5   6
ENDBRANCH   4   5
ENDBRANCH   1   4
BRANCH   1  17
ATOM     17  N   UNL d   1      -1.187   4.983   4.327  0.00  0.00    -0.387 N 
ATOM     18  H   UNL d   1      -1.772   4.199   4.594  0.00  0.00     0.157 HD
ATOM     19  H   UNL d   1      -0.961   5.040   3.342  0.00  0.00     0.157 HD
ENDBRANCH   1  17
BRANCH   2  20
ATOM     20  O   UNL d   1      -0.371   7.200   3.245  0.00  0.00    -0.193 OA
BRANCH  20  21
ATOM     21  C   UNL d   1      -0.058   8.433   2.734  0.00  0.00     0.315 C 
ATOM     22  O   UNL d   1      -0.424   9.524   3.155  0.00  0.00    -0.257 OA
BRANCH  21  23
ATOM     23  C   UNL d   1       0.787   8.294   1.514  0.00  0.00     0.041 A 
ATOM     24  C   UNL d   1       1.041   9.446   0.757  0.00  0.00     0.018 A 
ATOM     25  C   UNL d   1       1.828   9.379  -0.398  0.00  0.00     0.007 A 
ATOM     26  C   UNL d   1       2.378   8.161  -0.811  0.00  0.00    -0.062 A 
ATOM     27  C   UNL d   1       2.132   7.012  -0.050  0.00  0.00     0.007 A 
ATOM     28  C   UNL d   1       3.217   8.103  -2.054  0.00  0.00     0.048 C 
ATOM     29  C   UNL d   1       1.343   7.076   1.107  0.00  0.00     0.018 A 
ENDBRANCH  21  23
ENDBRANCH  20  21
ENDBRANCH   2  20
TORSDOF 8
