REMARK  3 active torsions:
REMARK  status: ('A' for Active; 'I' for Inactive)
REMARK    1  A    between atoms: C_7  and  C_1 
REMARK    2  A    between atoms: C_9  and  C_3 
REMARK    3  A    between atoms: O_11  and  C_7 
ROOT
ATOM      1  C   UNL d   1       1.395   1.056   0.072  0.00  0.00     0.066 C 
ATOM      2  C   UNL d   1       1.355  -0.292   0.026  0.00  0.00     0.024 C 
ATOM      3  C   UNL d   1       0.140   1.877  -0.090  0.00  0.00     0.161 C 
ATOM      4  C   UNL d   1      -1.079  -0.284  -0.062  0.00  0.00     0.321 C 
ATOM      5  N   UNL d   1       0.130  -0.908  -0.100  0.00  0.00    -0.312 N 
ATOM      6  N   UNL d   1      -1.048   1.060   0.074  0.00  0.00    -0.330 N 
ATOM      7  O   UNL d   1      -2.134  -0.905  -0.111  0.00  0.00    -0.247 OA
ATOM      8  C   UNL d   1       2.517  -1.251   0.057  0.00  0.00     0.069 C 
ATOM      9  H   UNL d   1       0.073  -1.920  -0.150  0.00  0.00     0.170 HD
ATOM     10  H   UNL d   1      -1.953   1.511   0.085  0.00  0.00     0.165 HD
ENDROOT
BRANCH   3  11
ATOM     11  C   UNL d   1      -0.012   3.090   0.815  0.00  0.00    -0.031 A 
ATOM     12  C   UNL d   1      -0.201   4.364   0.253  0.00  0.00     0.009 A 
ATOM     13  C   UNL d   1      -0.421   5.477   1.066  0.00  0.00     0.001 A 
ATOM     14  C   UNL d   1      -0.458   5.330   2.450  0.00  0.00     0.000 A 
ATOM     15  C   UNL d   1      -0.265   4.074   3.023  0.00  0.00     0.001 A 
ATOM     16  C   UNL d   1      -0.042   2.959   2.212  0.00  0.00     0.009 A 
ENDBRANCH   3  11
BRANCH   1  17
ATOM     17  C   UNL d   1       2.680   1.780   0.229  0.00  0.00     0.293 C 
ATOM     18  O   UNL d   1       3.605   1.391   0.927  0.00  0.00    -0.259 OA
BRANCH  17  19
ATOM     19  O   UNL d   1       2.676   2.915  -0.511  0.00  0.00    -0.323 OA
ATOM     20  C   UNL d   1       3.839   3.733  -0.343  0.00  0.00     0.213 C 
ENDBRANCH  17  19
ENDBRANCH   1  17
TORSDOF 3
