REMARK  2 active torsions:
REMARK  status: ('A' for Active; 'I' for Inactive)
REMARK    1  A    between atoms: O_9  and  C_1 
REMARK    2  A    between atoms: C_7  and  C_2 
ROOT
ATOM      1  C   UNL d   1       1.988  -0.276  -0.016  0.00  0.00     0.152 A 
ATOM      2  C   UNL d   1       1.500  -1.532  -0.009  0.00  0.00     0.123 A 
ATOM      3  C   UNL d   1       1.010   0.852  -0.011  0.00  0.00     0.220 A 
ATOM      4  O   UNL d   1       0.156  -1.866  -0.008  0.00  0.00    -0.306 OA
ATOM      5  C   UNL d   1      -0.416   0.489  -0.004  0.00  0.00     0.051 A 
ATOM      6  C   UNL d   1      -0.768  -0.856  -0.006  0.00  0.00     0.090 A 
ATOM      7  O   UNL d   1       1.358   2.027  -0.014  0.00  0.00    -0.284 OA
ATOM      8  C   UNL d   1      -1.407   1.477   0.005  0.00  0.00     0.018 A 
ATOM      9  C   UNL d   1      -2.114  -1.226  -0.002  0.00  0.00     0.038 A 
ATOM     10  C   UNL d   1      -2.753   1.107   0.012  0.00  0.00     0.001 A 
ATOM     11  C   UNL d   1      -3.106  -0.243   0.007  0.00  0.00     0.003 A 
ENDROOT
BRANCH   2  12
ATOM     12  C   UNL d   1       2.366  -2.718   0.001  0.00  0.00     0.001 A 
ATOM     13  C   UNL d   1       2.789  -3.275   1.214  0.00  0.00     0.015 A 
ATOM     14  C   UNL d   1       3.576  -4.429   1.222  0.00  0.00     0.007 A 
ATOM     15  C   UNL d   1       3.951  -5.042   0.020  0.00  0.00    -0.062 A 
ATOM     16  C   UNL d   1       3.547  -4.468  -1.192  0.00  0.00     0.007 A 
ATOM     17  C   UNL d   1       4.754  -6.310   0.043  0.00  0.00     0.048 C 
ATOM     18  C   UNL d   1       2.761  -3.313  -1.202  0.00  0.00     0.015 A 
ENDBRANCH   2  12
BRANCH   1  19
ATOM     19  O   UNL d   1       3.336   0.040  -0.025  0.00  0.00    -0.355 OA
ATOM     20  H   UNL d   1       3.856  -0.780  -0.058  0.00  0.00     0.218 HD
ENDBRANCH   1  19
TORSDOF 2
