REMARK  6 active torsions:
REMARK  status: ('A' for Active; 'I' for Inactive)
REMARK    1  A    between atoms: C_8  and  N_1 
REMARK    2  A    between atoms: C_12  and  C_2 
REMARK    3  A    between atoms: S_11  and  C_5 
REMARK    4  A    between atoms: C_25  and  S_11 
REMARK    5  A    between atoms: C_16  and  C_17 
REMARK    6  A    between atoms: C_27  and  C_25 
ROOT
ATOM      1  N   UNL d   1      -0.371  -1.290  -0.008  0.00  0.00    -0.275 N 
ATOM      2  C   UNL d   1       0.890  -0.662  -0.024  0.00  0.00     0.139 A 
ATOM      3  N   UNL d   1       0.710   0.649  -0.021  0.00  0.00    -0.282 N 
ATOM      4  HN  UNL d   1       1.451   1.348   0.037  1.00  0.00     0.188 HD
ATOM      5  C   UNL d   1      -1.268  -0.225  -0.118  0.00  0.00     0.168 A 
ATOM      6  N   UNL d   1      -0.624   0.918  -0.107  0.00  0.00    -0.278 N 
ATOM      7  HN  UNL d   1      -1.047   1.844  -0.155  1.00  0.00     0.189 HD
ENDROOT
BRANCH   2   8
ATOM      8  C   UNL d   1       2.228  -1.280  -0.104  0.00  0.00     0.010 A 
ATOM      9  C   UNL d   1       2.501  -2.402  -0.893  0.00  0.00     0.016 A 
ATOM     10  C   UNL d   1       3.771  -2.999  -0.888  0.00  0.00     0.009 A 
ATOM     11  C   UNL d   1       4.837  -2.463  -0.146  0.00  0.00    -0.051 A 
ATOM     12  C   UNL d   1       4.575  -1.291   0.581  0.00  0.00     0.009 A 
ATOM     13  C   UNL d   1       3.294  -0.713   0.604  0.00  0.00     0.016 A 
BRANCH  11  14
ATOM     14  C   UNL d   1       6.213  -3.157  -0.146  0.00  0.00    -0.024 C 
ATOM     15  C   UNL d   1       7.287  -2.402   0.670  0.00  0.00     0.019 C 
ATOM     16  C   UNL d   1       6.080  -4.569   0.467  0.00  0.00     0.019 C 
ATOM     17  C   UNL d   1       6.749  -3.290  -1.588  0.00  0.00     0.019 C 
ENDBRANCH  11  14
ENDBRANCH   2   8
BRANCH   1  18
ATOM     18  C   UNL d   1      -0.643  -2.695   0.081  0.00  0.00     0.046 A 
ATOM     19  C   UNL d   1       0.213  -3.536   0.816  0.00  0.00     0.069 A 
ATOM     20  C   UNL d   1      -0.006  -4.899   0.767  0.00  0.00     0.107 A 
ATOM     21  O   UNL d   1       0.772  -5.850   1.351  0.00  0.00    -0.323 OA
ATOM     22  C   UNL d   1      -1.060  -5.441   0.076  0.00  0.00     0.105 A 
ATOM     23  C   UNL d   1       0.074  -7.051   0.961  0.00  0.00     0.352 A 
ATOM     24  O   UNL d   1      -1.088  -6.798   0.144  0.00  0.00    -0.323 OA
ATOM     25  C   UNL d   1      -1.952  -4.650  -0.610  0.00  0.00     0.042 A 
ATOM     26  C   UNL d   1      -1.731  -3.266  -0.618  0.00  0.00     0.033 A 
ENDBRANCH   1  18
BRANCH   5  27
ATOM     27  S   UNL d   1      -3.006  -0.323  -0.046  0.00  0.00    -0.087 SA
BRANCH  27  28
ATOM     28  C   UNL d   1      -3.498   1.183  -0.948  0.00  0.00     0.121 C 
BRANCH  28  29
ATOM     29  C   UNL d   1      -5.006   1.330  -0.995  0.00  0.00    -0.048 A 
ATOM     30  C   UNL d   1      -5.678   2.055   0.007  0.00  0.00     0.011 A 
ATOM     31  C   UNL d   1      -7.069   2.176  -0.016  0.00  0.00     0.043 A 
ATOM     32  C   UNL d   1      -7.798   1.575  -1.034  0.00  0.00     0.116 A 
ATOM     33  C   UNL d   1      -7.156   0.854  -2.035  0.00  0.00     0.043 A 
ATOM     34  F   UNL d   1      -9.132   1.689  -1.051  0.00  0.00    -0.206 F 
ATOM     35  C   UNL d   1      -5.765   0.731  -2.015  0.00  0.00     0.011 A 
ENDBRANCH  28  29
ENDBRANCH  27  28
ENDBRANCH   5  27
TORSDOF 6
