REMARK  1 active torsions:
REMARK  status: ('A' for Active; 'I' for Inactive)
REMARK    1  A    between atoms: O_13  and  C_5 
ROOT
ATOM      1  C   UNL d   1       0.003  -0.756  -0.002  0.00  0.00     0.030 A 
ATOM      2  C   UNL d   1       0.051   0.658  -0.004  0.00  0.00     0.084 A 
ATOM      3  N   UNL d   1       1.220   1.336  -0.007  0.00  0.00    -0.357 N 
ATOM      4  HN  UNL d   1       1.220   2.356  -0.009  1.00  0.00     0.166 HD
ATOM      5  C   UNL d   1       1.243  -1.426  -0.001  0.00  0.00     0.080 A 
ATOM      6  C   UNL d   1      -1.164   1.350  -0.003  0.00  0.00     0.146 A 
ATOM      7  C   UNL d   1       2.439  -0.723  -0.004  0.00  0.00     0.062 A 
ATOM      8  C   UNL d   1      -2.401   0.711  -0.001  0.00  0.00     0.086 A 
ATOM      9  C   UNL d   1      -1.255  -1.405   0.001  0.00  0.00     0.059 A 
ATOM     10  C   UNL d   1       2.390   0.657  -0.007  0.00  0.00     0.008 A 
ATOM     11  C   UNL d   1      -2.433  -0.667   0.001  0.00  0.00     0.120 A 
ATOM     12  F   UNL d   1      -1.166   2.694  -0.004  0.00  0.00    -0.204 F 
ATOM     13  F   UNL d   1      -3.609  -1.306   0.002  0.00  0.00    -0.206 F 
ATOM     14  C   UNL d   1       3.650   1.469  -0.011  0.00  0.00     0.068 C 
ENDROOT
BRANCH   5  15
ATOM     15  O   UNL d   1       1.378  -2.789   0.001  0.00  0.00    -0.360 OA
ATOM     16  H   UNL d   1       0.512  -3.220   0.001  0.00  0.00     0.217 HD
ENDBRANCH   5  15
TORSDOF 1
