REMARK  7 active torsions:
REMARK  status: ('A' for Active; 'I' for Inactive)
REMARK    1  A    between atoms: C_8  and  N_1 
REMARK    2  A    between atoms: C_11  and  C_4 
REMARK    3  A    between atoms: C_12  and  C_6 
REMARK    4  A    between atoms: C_9  and  C_8 
REMARK    5  A    between atoms: C_10  and  C_9 
REMARK    6  A    between atoms: O_18  and  C_10 
REMARK    7  A    between atoms: C_19  and  C_11 
ROOT
ATOM      1  N   UNL d   1      -0.718   1.179   0.051  0.00  0.00    -0.256 N 
ATOM      2  N   UNL d   1      -1.446   0.004   0.053  0.00  0.00    -0.295 N 
ATOM      3  HN  UNL d   1      -2.465   0.016   0.016  1.00  0.00     0.187 HD
ATOM      4  C   UNL d   1       1.386  -0.071   0.024  0.00  0.00     0.018 A 
ATOM      5  C   UNL d   1       0.674   1.234  -0.011  0.00  0.00     0.268 A 
ATOM      6  C   UNL d   1      -0.790  -1.113   0.102  0.00  0.00     0.059 A 
ATOM      7  C   UNL d   1       0.683  -1.205   0.114  0.00  0.00     0.045 A 
ATOM      8  O   UNL d   1       1.315   2.281  -0.073  0.00  0.00    -0.266 OA
ENDROOT
BRANCH   4   9
ATOM      9  C   UNL d   1       2.887  -0.056  -0.082  0.00  0.00     0.083 C 
BRANCH   9  10
ATOM     10  C   UNL d   1       3.327  -0.164  -1.525  0.00  0.00    -0.054 A 
ATOM     11  C   UNL d   1       3.495   0.992  -2.299  0.00  0.00     0.007 A 
ATOM     12  C   UNL d   1       3.761   0.894  -3.664  0.00  0.00     0.001 A 
ATOM     13  C   UNL d   1       3.863  -0.357  -4.269  0.00  0.00     0.000 A 
ATOM     14  C   UNL d   1       3.720  -1.514  -3.505  0.00  0.00     0.001 A 
ATOM     15  C   UNL d   1       3.458  -1.420  -2.138  0.00  0.00     0.007 A 
ENDBRANCH   9  10
ENDBRANCH   4   9
BRANCH   1  16
ATOM     16  C   UNL d   1      -1.472   2.431  -0.040  0.00  0.00     0.163 C 
BRANCH  16  17
ATOM     17  C   UNL d   1      -2.827   2.376   0.654  0.00  0.00     0.132 C 
BRANCH  17  18
ATOM     18  C   UNL d   1      -3.508   3.715   0.611  0.00  0.00     0.141 C 
ATOM     19  O   UNL d   1      -3.072   4.719   0.068  0.00  0.00    -0.650 OA
BRANCH  18  20
ATOM     20  O   UNL d   1      -4.701   3.704   1.251  0.00  0.00    -0.776 OA
ATOM     21  H   UNL d   1      -4.930   2.835   1.634  0.00  0.00     0.167 HD
ENDBRANCH  18  20
ENDBRANCH  17  18
ENDBRANCH  16  17
ENDBRANCH   1  16
BRANCH   6  22
ATOM     22  C   UNL d   1      -1.533  -2.407   0.114  0.00  0.00    -0.008 A 
ATOM     23  C   UNL d   1      -2.731  -2.512  -0.609  0.00  0.00     0.017 A 
ATOM     24  C   UNL d   1      -3.437  -3.718  -0.623  0.00  0.00     0.043 A 
ATOM     25  C   UNL d   1      -2.950  -4.809   0.089  0.00  0.00     0.116 A 
ATOM     26  C   UNL d   1      -1.773  -4.717   0.821  0.00  0.00     0.043 A 
ATOM     27  F   UNL d   1      -3.627  -5.964   0.075  0.00  0.00    -0.206 F 
ATOM     28  C   UNL d   1      -1.065  -3.513   0.841  0.00  0.00     0.017 A 
ENDBRANCH   6  22
TORSDOF 7
