REMARK  8 active torsions:
REMARK  status: ('A' for Active; 'I' for Inactive)
REMARK    1  A    between atoms: C_8  and  N_2 
REMARK    2  A    between atoms: N_6  and  O_14 
REMARK    3  A    between atoms: C_10  and  C_8 
REMARK    4  A    between atoms: C_13  and  C_9 
REMARK    5  A    between atoms: N_22  and  C_9 
REMARK    6  A    between atoms: C_11  and  C_10 
REMARK    7  A    between atoms: O_14  and  C_11 
REMARK    8  A    between atoms: C_15  and  C_16 
ROOT
ATOM      1  N   UNL d   1       1.789  -4.688   0.199  0.00  0.00    -0.246 N 
ATOM      2  HN  UNL d   1       2.767  -4.845   0.445  1.00  0.00     0.196 HD
ATOM      3  C   UNL d   1       0.938  -5.647  -0.013  0.00  0.00     0.109 C 
ENDROOT
BRANCH   1   4
ATOM      4  O   UNL d   1       1.217  -3.399   0.052  0.00  0.00    -0.198 OA
BRANCH   4   5
ATOM      5  C   UNL d   1       1.894  -2.528   0.858  0.00  0.00     0.282 C 
ATOM      6  O   UNL d   1       2.558  -2.842   1.848  0.00  0.00    -0.263 OA
BRANCH   5   7
ATOM      7  C   UNL d   1       1.784  -1.080   0.445  0.00  0.00     0.133 C 
BRANCH   7   8
ATOM      8  C   UNL d   1       1.279  -0.763  -0.955  0.00  0.00     0.144 C 
BRANCH   8   9
ATOM      9  N   UNL d   1      -0.132  -0.950  -1.232  0.00  0.00    -0.290 N 
ATOM     10  C   UNL d   1      -1.194  -0.938  -0.346  0.00  0.00     0.372 A 
ATOM     11  O   UNL d   1      -2.423  -0.978  -1.021  0.00  0.00    -0.259 OA
ATOM     12  O   UNL d   1      -1.121  -0.910   0.874  0.00  0.00    -0.237 OA
ATOM     13  C   UNL d   1      -2.038  -0.932  -2.348  0.00  0.00     0.107 A 
ATOM     14  C   UNL d   1      -2.895  -0.893  -3.427  0.00  0.00     0.040 A 
ATOM     15  C   UNL d   1      -0.667  -0.895  -2.503  0.00  0.00     0.073 A 
ATOM     16  C   UNL d   1      -2.322  -0.804  -4.698  0.00  0.00     0.003 A 
ATOM     17  C   UNL d   1      -0.926  -0.754  -4.858  0.00  0.00     0.002 A 
ATOM     18  C   UNL d   1      -0.075  -0.796  -3.746  0.00  0.00     0.033 A 
ENDBRANCH   8   9
ENDBRANCH   7   8
ENDBRANCH   5   7
ENDBRANCH   4   5
ENDBRANCH   1   4
BRANCH   3  19
ATOM     19  C   UNL d   1       1.464  -7.057   0.013  0.00  0.00     0.004 A 
ATOM     20  C   UNL d   1       2.572  -7.397   0.792  0.00  0.00     0.015 A 
ATOM     21  C   UNL d   1       3.135  -8.681   0.700  0.00  0.00     0.009 A 
ATOM     22  C   UNL d   1       2.621  -9.651  -0.186  0.00  0.00    -0.051 A 
ATOM     23  C   UNL d   1       1.472  -9.301  -0.915  0.00  0.00     0.009 A 
ATOM     24  C   UNL d   1       0.897  -8.025  -0.816  0.00  0.00     0.015 A 
BRANCH  22  25
ATOM     25  C   UNL d   1       3.345 -11.000  -0.379  0.00  0.00    -0.024 C 
ATOM     26  C   UNL d   1       2.692 -11.907  -1.450  0.00  0.00     0.019 C 
ATOM     27  C   UNL d   1       4.799 -10.746  -0.839  0.00  0.00     0.019 C 
ATOM     28  C   UNL d   1       3.373 -11.801   0.939  0.00  0.00     0.019 C 
ENDBRANCH  22  25
ENDBRANCH   3  19
BRANCH   3  29
ATOM     29  N   UNL d   1      -0.399  -5.445  -0.262  0.00  0.00    -0.286 NA
ATOM     30  H   UNL d   1      -0.699  -4.514   0.008  0.00  0.00     0.125 HD
ATOM     31  H   UNL d   1      -1.015  -6.159   0.115  0.00  0.00     0.125 HD
ENDBRANCH   3  29
TORSDOF 8
