REMARK  2 active torsions:
REMARK  status: ('A' for Active; 'I' for Inactive)
REMARK    1  A    between atoms: C_2  and  C_1 
REMARK       I    between atoms: N_3  and  C_1 
REMARK       I    between atoms: C_5  and  N_4 
REMARK    2  A    between atoms: C_14  and  C_5 
ROOT
ATOM      1  C   UNL d   1       0.671  -0.232   0.126  0.00  0.00     0.257 C 
ATOM      2  N   UNL d   1       0.375   0.407  -1.096  0.00  0.00    -0.345 N 
ATOM      3  N   UNL d   1      -0.357   1.665  -3.588  0.00  0.00    -0.349 N 
ATOM      4  C   UNL d   1      -1.080   1.720  -4.772  0.00  0.00     0.224 C 
ATOM      5  O   UNL d   1       0.033  -0.048   1.150  0.00  0.00    -0.267 OA
ATOM      6  C   UNL d   1       0.918  -0.023  -2.389  0.00  0.00     0.146 C 
ATOM      7  C   UNL d   1      -0.875   1.188  -1.176  0.00  0.00     0.146 C 
ATOM      8  C   UNL d   1       0.973   1.098  -3.417  0.00  0.00     0.145 C 
ATOM      9  C   UNL d   1      -0.907   2.216  -2.337  0.00  0.00     0.145 C 
ATOM     10  O   UNL d   1      -2.203   2.225  -4.805  0.00  0.00    -0.273 OA
ENDROOT
BRANCH   1  11
ATOM     11  C   UNL d   1       1.854  -1.135   0.192  0.00  0.00     0.075 C 
ATOM     12  C   UNL d   1       2.978  -0.764   0.947  0.00  0.00     0.051 C 
ATOM     13 CL   UNL d   1       3.017   0.635   1.962  0.00  0.00    -0.083 Cl
ATOM     14  C   UNL d   1       4.149  -1.538   0.899  0.00  0.00     0.025 C 
ATOM     15  C   UNL d   1       4.221  -2.656   0.072  0.00  0.00     0.003 C 
ATOM     16  C   UNL d   1       3.089  -3.064  -0.627  0.00  0.00     0.025 C 
ATOM     17  C   UNL d   1       1.893  -2.345  -0.516  0.00  0.00     0.051 C 
ATOM     18 CL   UNL d   1       0.494  -3.051  -1.249  0.00  0.00    -0.083 Cl
ENDBRANCH   1  11
BRANCH   4  19
ATOM     19  C   UNL d   1      -0.455   1.095  -6.040  0.00  0.00     0.078 C 
ATOM     20  C   UNL d   1      -0.924   1.765  -7.339  0.00  0.00     0.014 C 
ATOM     21  C   UNL d   1      -2.334   1.380  -7.771  0.00  0.00     0.001 C 
ATOM     22  C   UNL d   1      -2.551  -0.127  -7.798  0.00  0.00     0.000 C 
ATOM     23  C   UNL d   1      -2.078  -0.826  -6.527  0.00  0.00     0.001 C 
ATOM     24  C   UNL d   1      -0.665  -0.423  -6.106  0.00  0.00     0.014 C 
ENDBRANCH   4  19
TORSDOF 2
