REMARK  6 active torsions:
REMARK  status: ('A' for Active; 'I' for Inactive)
REMARK    1  A    between atoms: S_2  and  C_1 
REMARK    2  A    between atoms: C_20  and  S_2 
REMARK    3  A    between atoms: N_7  and  C_4 
REMARK    4  A    between atoms: C_5  and  C_10 
REMARK    5  A    between atoms: C_6  and  C_11 
REMARK       I    between atoms: C_8  and  N_7 
REMARK       I    between atoms: N_15  and  C_8 
REMARK    6  A    between atoms: C_14  and  N_15 
ROOT
ATOM      1  N   UNL d   1      -0.454   1.863   0.397  0.00  0.00    -0.303 N 
ATOM      2  C   UNL d   1       0.226   3.041   0.276  0.00  0.00     0.325 C 
ATOM      3  N   UNL d   1       1.585   2.999   0.170  0.00  0.00    -0.309 N 
ATOM      4  O   UNL d   1      -0.438   4.080   0.235  0.00  0.00    -0.247 OA
ATOM      5  H   UNL d   1      -1.453   2.018   0.322  0.00  0.00     0.171 HD
ATOM      6  H   UNL d   1       1.955   2.174  -0.281  0.00  0.00     0.170 HD
ENDROOT
BRANCH   3   7
ATOM      7  C   UNL d   1       2.460   4.071   0.430  0.00  0.00     0.037 A 
ATOM      8  C   UNL d   1       2.124   5.092   1.323  0.00  0.00     0.045 A 
ATOM      9  C   UNL d   1       3.065   6.064   1.696  0.00  0.00     0.050 A 
ATOM     10  C   UNL d   1       4.330   6.054   1.090  0.00  0.00     0.032 A 
ATOM     11  C   UNL d   1       4.678   5.050   0.172  0.00  0.00     0.050 A 
ATOM     12  C   UNL d   1       3.739   4.047  -0.133  0.00  0.00     0.045 A 
BRANCH   9  13
ATOM     13  C   UNL d   1       2.721   7.061   2.778  0.00  0.00     0.417 C 
ATOM     14  F   UNL d   1       3.804   7.752   3.232  0.00  0.00    -0.166 F 
ATOM     15  F   UNL d   1       1.820   7.995   2.376  0.00  0.00    -0.166 F 
ATOM     16  F   UNL d   1       2.183   6.462   3.878  0.00  0.00    -0.166 F 
ENDBRANCH   9  13
BRANCH  11  17
ATOM     17  C   UNL d   1       6.048   5.021  -0.465  0.00  0.00     0.417 C 
ATOM     18  F   UNL d   1       6.897   5.964   0.030  0.00  0.00    -0.166 F 
ATOM     19  F   UNL d   1       6.675   3.826  -0.289  0.00  0.00    -0.166 F 
ATOM     20  F   UNL d   1       6.001   5.227  -1.809  0.00  0.00    -0.166 F 
ENDBRANCH  11  17
ENDBRANCH   3   7
BRANCH   1  21
ATOM     21  C   UNL d   1      -0.085   0.685   1.024  0.00  0.00     0.079 A 
ATOM     22  C   UNL d   1      -0.963  -0.303   1.421  0.00  0.00     0.061 A 
ATOM     23  C   UNL d   1      -0.315  -1.325   2.180  0.00  0.00     0.068 A 
ATOM     24  C   UNL d   1       1.047  -1.127   2.248  0.00  0.00     0.075 A 
ATOM     25  S   UNL d   1       1.513   0.318   1.462  0.00  0.00    -0.083 SA
BRANCH  23  26
ATOM     26  S   UNL d   1      -1.146  -2.653   2.930  0.00  0.00     0.179 S 
ATOM     27  O   UNL d   1      -2.270  -2.894   2.049  0.00  0.00    -0.222 OA
ATOM     28  O   UNL d   1      -0.112  -3.643   3.153  0.00  0.00    -0.222 OA
BRANCH  26  29
ATOM     29  C   UNL d   1      -1.747  -2.023   4.506  0.00  0.00     0.105 C 
ATOM     30  C   UNL d   1      -2.438  -3.148   5.274  0.00  0.00     0.026 C 
ATOM     31  C   UNL d   1      -0.638  -1.408   5.353  0.00  0.00     0.026 C 
ENDBRANCH  26  29
ENDBRANCH  23  26
ENDBRANCH   1  21
TORSDOF 6
