REMARK  3 active torsions:
REMARK  status: ('A' for Active; 'I' for Inactive)
REMARK    1  A    between atoms: C_3  and  S_1 
REMARK    2  A    between atoms: O_4  and  S_1 
REMARK    3  A    between atoms: C_2  and  O_4 
ROOT
ATOM      1  S   UNL d   1       0.925   0.179   0.031  0.00  0.00     0.306 S 
ATOM      2  O   UNL d   1       2.361   0.354   0.122  0.00  0.00    -0.193 OA
ATOM      3  O   UNL d   1       0.154   0.756  -1.057  0.00  0.00    -0.193 OA
ENDROOT
BRANCH   1   4
ATOM      4  C   UNL d   1       0.239   0.883   1.514  0.00  0.00     0.125 A 
ATOM      5  C   UNL d   1       1.007   0.926   2.674  0.00  0.00     0.143 A 
ATOM      6  C   UNL d   1       0.559   1.627   3.792  0.00  0.00     0.086 A 
ATOM      7  F   UNL d   1       2.185   0.296   2.759  0.00  0.00    -0.204 F 
ATOM      8  C   UNL d   1      -0.670   2.272   3.740  0.00  0.00     0.119 A 
ATOM      9  C   UNL d   1      -1.462   2.218   2.597  0.00  0.00     0.044 A 
ATOM     10  F   UNL d   1      -1.097   2.964   4.804  0.00  0.00    -0.206 F 
ATOM     11  C   UNL d   1      -1.006   1.527   1.472  0.00  0.00     0.032 A 
ENDBRANCH   1   4
BRANCH   1  12
ATOM     12  O   UNL d   1       0.552  -1.409   0.141  0.00  0.00    -0.225 OA
BRANCH  12  13
ATOM     13  C   UNL d   1       0.979  -2.326  -0.784  0.00  0.00     0.137 A 
ATOM     14  C   UNL d   1       0.719  -3.643  -0.778  0.00  0.00    -0.045 A 
ATOM     15  C   UNL d   1       1.383  -4.402  -1.892  0.00  0.00     0.044 A 
ATOM     16  C   UNL d   1      -0.142  -4.388   0.182  0.00  0.00     0.046 C 
ATOM     17  C   UNL d   1       2.111  -3.352  -2.717  0.00  0.00     0.090 A 
ATOM     18  C   UNL d   1       1.808  -2.078  -1.989  0.00  0.00     0.184 A 
ATOM     19  O   UNL d   1       2.176  -0.980  -2.375  0.00  0.00    -0.290 OA
ENDBRANCH  12  13
ENDBRANCH   1  12
TORSDOF 3
