REMARK  3 active torsions:
REMARK  status: ('A' for Active; 'I' for Inactive)
REMARK    1  A    between atoms: C_9  and  C_6 
REMARK    2  A    between atoms: O_16  and  C_7 
REMARK    3  A    between atoms: O_17  and  C_11 
ROOT
ATOM      1  C   UNL d   1      -5.309  -0.367   1.342  0.00  0.00     0.124 A 
ATOM      2  C   UNL d   1      -4.058   0.284   1.240  0.00  0.00     0.080 A 
ATOM      3  C   UNL d   1      -3.660   0.895   0.030  0.00  0.00    -0.009 A 
ATOM      4  C   UNL d   1      -6.182  -0.335   0.237  0.00  0.00     0.103 A 
ATOM      5  C   UNL d   1      -4.543   0.929  -1.049  0.00  0.00     0.016 A 
ATOM      6  C   UNL d   1      -5.793   0.327  -0.937  0.00  0.00     0.040 A 
ATOM      7 CL   UNL d   1      -2.995   0.442   2.615  0.00  0.00    -0.080 Cl
ENDROOT
BRANCH   3   8
ATOM      8  C   UNL d   1      -2.314   1.458  -0.153  0.00  0.00     0.048 C 
ATOM      9  C   UNL d   1      -1.310   0.747  -0.670  0.00  0.00     0.104 A 
ATOM     10  C   UNL d   1      -1.321  -0.658  -1.211  0.00  0.00     0.274 A 
ATOM     11  N   UNL d   1      -0.012   1.183  -0.768  0.00  0.00    -0.329 N 
ATOM     12  N   UNL d   1      -0.019  -0.899  -1.564  0.00  0.00    -0.298 N 
ATOM     13  O   UNL d   1      -2.259  -1.422  -1.315  0.00  0.00    -0.266 OA
ATOM     14  C   UNL d   1       0.777   0.177  -1.291  0.00  0.00     0.179 A 
ATOM     15  H   UNL d   1       0.297  -1.774  -1.954  0.00  0.00     0.171 HD
ATOM     16  S   UNL d   1       2.406   0.260  -1.527  0.00  0.00    -0.040 SA
ATOM     17  H   UNL d   1       0.336   2.079  -0.453  0.00  0.00     0.168 HD
ENDBRANCH   3   8
BRANCH   1  18
ATOM     18  O   UNL d   1      -5.765  -0.918   2.515  0.00  0.00    -0.351 OA
ATOM     19  C   UNL d   1      -4.912  -1.897   3.111  0.00  0.00     0.210 C 
ENDBRANCH   1  18
BRANCH   4  20
ATOM     20  O   UNL d   1      -7.443  -0.860   0.120  0.00  0.00    -0.353 OA
ATOM     21  C   UNL d   1      -7.895  -1.790   1.089  0.00  0.00     0.210 C 
ENDBRANCH   4  20
TORSDOF 3
