REMARK  6 active torsions:
REMARK  status: ('A' for Active; 'I' for Inactive)
REMARK    1  A    between atoms: C_4  and  C_1 
REMARK    2  A    between atoms: C_5  and  C_1 
REMARK    3  A    between atoms: O_12  and  N_2 
REMARK    4  A    between atoms: O_10  and  C_11 
REMARK    5  A    between atoms: C_18  and  O_10 
REMARK    6  A    between atoms: C_19  and  C_18 
ROOT
ATOM      1  C   UNL d   1       2.501  -0.050   0.028  0.00  0.00     0.074 C 
ATOM      2  N   UNL d   1       3.231   0.011   1.110  0.00  0.00    -0.268 N 
ATOM      3  HN  UNL d   1       4.249  -0.036   1.095  1.00  0.00     0.194 HD
ENDROOT
BRANCH   1   4
ATOM      4  C   UNL d   1       3.265  -0.070  -1.273  0.00  0.00    -0.007 A 
ATOM      5  C   UNL d   1       2.787  -0.720  -2.415  0.00  0.00     0.014 A 
ATOM      6  C   UNL d   1       3.519  -0.675  -3.611  0.00  0.00     0.007 A 
ATOM      7  C   UNL d   1       4.745  -0.004  -3.671  0.00  0.00    -0.062 A 
ATOM      8  C   UNL d   1       5.238   0.618  -2.518  0.00  0.00     0.007 A 
ATOM      9  C   UNL d   1       5.519   0.027  -4.957  0.00  0.00     0.048 C 
ATOM     10  C   UNL d   1       4.505   0.585  -1.332  0.00  0.00     0.014 A 
ENDBRANCH   1   4
BRANCH   1  11
ATOM     11  C   UNL d   1       0.997  -0.087  -0.012  0.00  0.00    -0.007 A 
ATOM     12  C   UNL d   1       0.294   0.596  -1.016  0.00  0.00     0.016 A 
ATOM     13  C   UNL d   1      -1.102   0.524  -1.091  0.00  0.00     0.037 A 
ATOM     14  C   UNL d   1      -1.819  -0.196  -0.136  0.00  0.00     0.068 A 
ATOM     15  C   UNL d   1      -1.131  -0.838   0.893  0.00  0.00     0.037 A 
ATOM     16  C   UNL d   1       0.266  -0.812   0.937  0.00  0.00     0.016 A 
BRANCH  14  17
ATOM     17  O   UNL d   1      -3.180  -0.295  -0.082  0.00  0.00    -0.351 OA
BRANCH  17  18
ATOM     18  C   UNL d   1      -3.855  -0.280  -1.341  0.00  0.00     0.179 C 
BRANCH  18  19
ATOM     19  C   UNL d   1      -5.361  -0.454  -1.099  0.00  0.00     0.002 C 
ATOM     20  C   UNL d   1      -5.920   0.703  -0.268  0.00  0.00     0.011 C 
ATOM     21  C   UNL d   1      -6.101  -0.554  -2.431  0.00  0.00     0.011 C 
ENDBRANCH  18  19
ENDBRANCH  17  18
ENDBRANCH  14  17
ENDBRANCH   1  11
BRANCH   2  22
ATOM     22  O   UNL d   1       2.495   0.145   2.289  0.00  0.00    -0.289 OA
ATOM     23  H   UNL d   1       3.185   0.061   2.971  0.00  0.00     0.244 HD
ENDBRANCH   2  22
TORSDOF 6
