REMARK  5 active torsions:
REMARK  status: ('A' for Active; 'I' for Inactive)
REMARK    1  A    between atoms: S_2  and  C_1 
REMARK    2  A    between atoms: C_17  and  S_2 
REMARK    3  A    between atoms: N_5  and  C_4 
REMARK       I    between atoms: C_9  and  N_5 
REMARK    4  A    between atoms: N_6  and  C_10 
REMARK       I    between atoms: N_13  and  C_9 
REMARK    5  A    between atoms: C_19  and  N_13 
ROOT
ATOM      1  N   UNL d   1       0.098   2.335  -0.155  0.00  0.00    -0.301 N 
ATOM      2  C   UNL d   1      -0.934   3.117  -0.651  0.00  0.00     0.325 C 
ATOM      3  N   UNL d   1      -0.476   4.403  -0.942  0.00  0.00    -0.309 N 
ATOM      4  O   UNL d   1      -2.069   2.722  -0.878  0.00  0.00    -0.247 OA
ATOM      5  H   UNL d   1       1.022   2.739  -0.153  0.00  0.00     0.171 HD
ATOM      6  H   UNL d   1       0.518   4.497  -1.088  0.00  0.00     0.170 HD
ENDROOT
BRANCH   1   7
ATOM      7  C   UNL d   1       0.080   0.952  -0.177  0.00  0.00     0.101 C 
ATOM      8  C   UNL d   1      -0.863  -0.062  -0.076  0.00  0.00     0.089 C 
ATOM      9  C   UNL d   1      -0.296  -1.316  -0.480  0.00  0.00     0.090 C 
ATOM     10 CL   UNL d   1      -2.448   0.150   0.529  0.00  0.00    -0.080 Cl
ATOM     11  C   UNL d   1       1.075  -1.211  -0.659  0.00  0.00     0.077 C 
ATOM     12  S   UNL d   1       1.662   0.356  -0.386  0.00  0.00    -0.081 SA
BRANCH   9  13
ATOM     13  S   UNL d   1      -1.002  -2.869  -0.791  0.00  0.00     0.181 S 
ATOM     14  O   UNL d   1      -0.959  -2.948  -2.241  0.00  0.00    -0.222 OA
ATOM     15  O   UNL d   1      -0.167  -3.740   0.018  0.00  0.00    -0.222 OA
BRANCH  13  16
ATOM     16  C   UNL d   1      -2.683  -3.087  -0.255  0.00  0.00     0.105 C 
ATOM     17  C   UNL d   1      -3.701  -2.398  -1.157  0.00  0.00     0.026 C 
ATOM     18  C   UNL d   1      -3.008  -4.592  -0.249  0.00  0.00     0.026 C 
ENDBRANCH  13  16
ENDBRANCH   9  13
ENDBRANCH   1   7
BRANCH   3  19
ATOM     19  C   UNL d   1      -1.274   5.458  -1.443  0.00  0.00     0.038 A 
ATOM     20  C   UNL d   1      -0.651   6.465  -2.191  0.00  0.00     0.065 A 
ATOM     21  C   UNL d   1      -1.424   7.502  -2.742  0.00  0.00     0.105 A 
ATOM     22  C   UNL d   1      -2.803   7.568  -2.520  0.00  0.00     0.036 A 
ATOM     23  C   UNL d   1      -3.410   6.587  -1.740  0.00  0.00     0.005 A 
ATOM     24  C   UNL d   1      -2.650   5.540  -1.209  0.00  0.00     0.030 A 
BRANCH  21  25
ATOM     25  N   UNL d   1      -0.786   8.518  -3.582  0.00  0.00    -0.116 N 
ATOM     26  O   UNL d   1       0.453   8.595  -3.548  0.00  0.00    -0.532 OA
ATOM     27  O   UNL d   1      -1.515   9.239  -4.278  0.00  0.00    -0.532 OA
ENDBRANCH  21  25
ENDBRANCH   3  19
TORSDOF 5
