REMARK  5 active torsions:
REMARK  status: ('A' for Active; 'I' for Inactive)
REMARK    1  A    between atoms: C_5  and  C_1 
REMARK    2  A    between atoms: C_7  and  C_1 
REMARK    3  A    between atoms: C_2  and  C_5 
REMARK    4  A    between atoms: O_14  and  C_7 
REMARK    5  A    between atoms: N_13  and  C_9 
ROOT
ATOM      1  C   UNL d   1       0.896   0.049  -0.094  0.00  0.00     0.113 C 
ATOM      2  C   UNL d   1       2.261   0.025  -0.184  0.00  0.00     0.021 C 
ATOM      3  C   UNL d   1       3.134  -0.975   0.562  0.00  0.00     0.069 C 
ENDROOT
BRANCH   1   4
ATOM      4  C   UNL d   1       0.094  -0.881   0.773  0.00  0.00     0.218 C 
ATOM      5  O   UNL d   1       0.478  -2.016   1.058  0.00  0.00    -0.285 OA
BRANCH   4   6
ATOM      6  C   UNL d   1      -1.220  -0.429   1.250  0.00  0.00     0.108 C 
ATOM      7  N   UNL d   1      -1.719   0.807   1.087  0.00  0.00    -0.257 N 
ATOM      8  O   UNL d   1      -3.041   0.748   1.492  0.00  0.00    -0.242 OA
ATOM      9  HN  UNL d   1      -1.224   1.626   0.734  1.00  0.00     0.195 HD
ATOM     10  C   UNL d   1      -3.308  -0.490   1.983  0.00  0.00     0.074 C 
ATOM     11  C   UNL d   1      -2.165  -1.244   1.934  0.00  0.00     0.070 C 
ATOM     12  C   UNL d   1      -4.696  -0.759   2.395  0.00  0.00     0.079 C 
ENDBRANCH   4   6
ENDBRANCH   1   4
BRANCH   1  13
ATOM     13  C   UNL d   1       0.181   1.016  -0.973  0.00  0.00     0.299 C 
ATOM     14  O   UNL d   1       0.527   2.180  -1.147  0.00  0.00    -0.259 OA
BRANCH  13  15
ATOM     15  O   UNL d   1      -0.867   0.396  -1.582  0.00  0.00    -0.322 OA
ATOM     16  C   UNL d   1      -1.753   1.278  -2.283  0.00  0.00     0.213 C 
ENDBRANCH  13  15
ENDBRANCH   1  13
BRANCH   2  17
ATOM     17  N   UNL d   1       2.990   0.906  -1.008  0.00  0.00    -0.397 N 
ATOM     18  C   UNL d   1       4.407   1.213  -0.938  0.00  0.00     0.146 C 
ATOM     19  H   UNL d   1       2.438   1.712  -1.326  0.00  0.00     0.158 HD
ENDBRANCH   2  17
TORSDOF 5
