REMARK  6 active torsions:
REMARK  status: ('A' for Active; 'I' for Inactive)
REMARK    1  A    between atoms: N_4  and  S_1 
REMARK    2  A    between atoms: C_6  and  C_2 
REMARK    3  A    between atoms: C_3  and  N_4 
REMARK    4  A    between atoms: O_14  and  C_6 
REMARK    5  A    between atoms: O_15  and  C_8 
REMARK    6  A    between atoms: O_16  and  C_9 
ROOT
ATOM      1  C   UNL d   1       2.225  -0.270   3.070  0.00  0.00     0.064 A 
ATOM      2  C   UNL d   1       0.903   0.043   2.722  0.00  0.00     0.041 A 
ATOM      3  C   UNL d   1       2.475  -0.969   4.258  0.00  0.00     0.059 A 
ATOM      4  C   UNL d   1      -0.140  -0.265   3.610  0.00  0.00     0.065 A 
ATOM      5  C   UNL d   1       1.428  -1.341   5.107  0.00  0.00     0.102 A 
ATOM      6  C   UNL d   1       0.111  -0.951   4.809  0.00  0.00     0.103 A 
ENDROOT
BRANCH   2   7
ATOM      7  N   UNL d   1       0.560   0.700   1.484  0.00  0.00    -0.185 NA
ATOM      8  H   UNL d   1       1.176   0.411   0.707  0.00  0.00     0.146 HD
BRANCH   7   9
ATOM      9  S   UNL d   1       0.580   2.398   1.472  0.00  0.00     0.210 S 
ATOM     10  O   UNL d   1       0.940   2.784   0.127  0.00  0.00    -0.211 OA
ATOM     11  O   UNL d   1       1.310   2.881   2.622  0.00  0.00    -0.211 OA
ATOM     12  C   UNL d   1      -1.145   2.780   1.680  0.00  0.00     0.180 C 
ENDBRANCH   7   9
ENDBRANCH   2   7
BRANCH   1  13
ATOM     13  C   UNL d   1       3.351   0.056   2.163  0.00  0.00     0.294 C 
ATOM     14  O   UNL d   1       3.223   0.151   0.953  0.00  0.00    -0.259 OA
BRANCH  13  15
ATOM     15  O   UNL d   1       4.489   0.216   2.880  0.00  0.00    -0.322 OA
ATOM     16  C   UNL d   1       5.661   0.537   2.129  0.00  0.00     0.213 C 
ENDBRANCH  13  15
ENDBRANCH   1  13
BRANCH   6  17
ATOM     17  O   UNL d   1      -0.851  -1.261   5.731  0.00  0.00    -0.353 OA
ATOM     18  C   UNL d   1      -2.184  -0.831   5.500  0.00  0.00     0.210 C 
ENDBRANCH   6  17
BRANCH   5  19
ATOM     19  O   UNL d   1       1.851  -2.042   6.208  0.00  0.00    -0.353 OA
ATOM     20  C   UNL d   1       0.968  -3.044   6.702  0.00  0.00     0.210 C 
ENDBRANCH   5  19
TORSDOF 6
