REMARK  3 active torsions:
REMARK  status: ('A' for Active; 'I' for Inactive)
REMARK    1  A    between atoms: C_8  and  C_3 
REMARK    2  A    between atoms: O_12  and  C_11 
REMARK    3  A    between atoms: C_13  and  O_12 
ROOT
ATOM      1  N   UNL d   1      -2.192   0.279   0.248  0.00  0.00    -0.308 N 
ATOM      2  HN  UNL d   1      -3.144   0.108   0.573  1.00  0.00     0.170 HD
ATOM      3  C   UNL d   1      -1.860   1.449  -0.207  0.00  0.00     0.119 A 
ATOM      4  C   UNL d   1      -1.255  -0.729   0.289  0.00  0.00     0.259 A 
ATOM      5  N   UNL d   1      -0.607   1.779  -0.672  0.00  0.00    -0.341 N 
ATOM      6  C   UNL d   1       0.140  -0.446  -0.128  0.00  0.00     0.059 A 
ATOM      7  C   UNL d   1       0.431   0.849  -0.569  0.00  0.00     0.049 A 
ATOM      8  O   UNL d   1      -1.524  -1.859   0.683  0.00  0.00    -0.267 OA
ATOM      9  C   UNL d   1       1.134  -1.428  -0.078  0.00  0.00     0.019 A 
ATOM     10  C   UNL d   1       1.730   1.150  -0.980  0.00  0.00     0.030 A 
ATOM     11  C   UNL d   1       2.431  -1.115  -0.483  0.00  0.00     0.001 A 
ATOM     12  C   UNL d   1       2.728   0.172  -0.932  0.00  0.00     0.002 A 
ATOM     13  H   UNL d   1      -0.342   2.751  -0.760  0.00  0.00     0.167 HD
ENDROOT
BRANCH   3  14
ATOM     14  C   UNL d   1      -2.903   2.523  -0.172  0.00  0.00     0.011 A 
ATOM     15  C   UNL d   1      -3.877   2.484   0.830  0.00  0.00     0.052 A 
ATOM     16  C   UNL d   1      -4.733   3.570   1.018  0.00  0.00     0.077 A 
ATOM     17  C   UNL d   1      -4.708   4.631   0.109  0.00  0.00     0.037 A 
ATOM     18  C   UNL d   1      -3.790   4.638  -0.942  0.00  0.00     0.004 A 
ATOM     19  C   UNL d   1      -2.871   3.595  -1.072  0.00  0.00     0.015 A 
BRANCH  16  20
ATOM     20  O   UNL d   1      -5.648   3.669   2.043  0.00  0.00    -0.311 OA
BRANCH  20  21
ATOM     21  C   UNL d   1      -5.368   3.107   3.271  0.00  0.00     0.076 A 
ATOM     22  C   UNL d   1      -4.087   2.982   3.817  0.00  0.00     0.037 A 
ATOM     23  C   UNL d   1      -3.905   2.340   5.043  0.00  0.00     0.003 A 
ATOM     24  C   UNL d   1      -5.008   1.883   5.760  0.00  0.00     0.000 A 
ATOM     25  C   UNL d   1      -6.294   2.075   5.256  0.00  0.00     0.003 A 
ATOM     26  C   UNL d   1      -6.475   2.684   4.013  0.00  0.00     0.037 A 
ENDBRANCH  20  21
ENDBRANCH  16  20
ENDBRANCH   3  14
TORSDOF 3
