REMARK  2 active torsions:
REMARK  status: ('A' for Active; 'I' for Inactive)
REMARK    1  A    between atoms: N_4  and  C_1 
REMARK    2  A    between atoms: O_11  and  C_2 
ROOT
ATOM      1  C   UNL d   1      -2.788  -0.710  -0.003  0.00  0.00     0.187 A 
ATOM      2  C   UNL d   1      -2.446   0.598  -0.001  0.00  0.00     0.114 A 
ATOM      3  C   UNL d   1      -1.764  -1.787   0.001  0.00  0.00     0.218 A 
ATOM      4  C   UNL d   1      -1.017   0.992   0.001  0.00  0.00     0.012 A 
ATOM      5  C   UNL d   1      -0.343  -1.365   0.001  0.00  0.00     0.029 A 
ATOM      6  C   UNL d   1      -0.018  -0.000   0.000  0.00  0.00     0.001 A 
ATOM      7  O   UNL d   1      -2.010  -2.986   0.006  0.00  0.00    -0.285 OA
ATOM      8  C   UNL d   1       1.351   0.372  -0.000  0.00  0.00    -0.024 A 
ATOM      9  C   UNL d   1      -0.635   2.344   0.001  0.00  0.00     0.015 A 
ATOM     10  C   UNL d   1       0.660  -2.345   0.001  0.00  0.00     0.016 A 
ATOM     11  C   UNL d   1       0.710   2.710   0.000  0.00  0.00     0.002 A 
ATOM     12  C   UNL d   1       2.001  -1.972  -0.000  0.00  0.00     0.002 A 
ATOM     13  C   UNL d   1       2.343  -0.621  -0.001  0.00  0.00     0.012 A 
ATOM     14  C   UNL d   1       1.697   1.729  -0.001  0.00  0.00     0.012 A 
ENDROOT
BRANCH   1  15
ATOM     15  N   UNL d   1      -4.202  -1.071  -0.009  0.00  0.00    -0.108 N 
ATOM     16  O   UNL d   1      -4.526  -2.261  -0.010  0.00  0.00    -0.532 OA
ATOM     17  O   UNL d   1      -5.032  -0.143  -0.013  0.00  0.00    -0.532 OA
ENDBRANCH   1  15
BRANCH   2  18
ATOM     18  O   UNL d   1      -3.315   1.678  -0.002  0.00  0.00    -0.357 OA
ATOM     19  H   UNL d   1      -4.247   1.365  -0.002  0.00  0.00     0.217 HD
ENDBRANCH   2  18
TORSDOF 2
