REMARK  3 active torsions:
REMARK  status: ('A' for Active; 'I' for Inactive)
REMARK    1  A    between atoms: N_2  and  S_1 
REMARK    2  A    between atoms: C_10  and  S_1 
REMARK       I    between atoms: C_5  and  N_2 
REMARK    3  A    between atoms: C_4  and  C_5 
ROOT
ATOM      1  N   UNL d   1       0.647  -1.436  -0.221  0.00  0.00    -0.277 N 
ATOM      2  HN  UNL d   1       0.334  -1.955   0.599  1.00  0.00     0.179 HD
ATOM      3  C   UNL d   1       0.728  -2.087  -1.463  0.00  0.00     0.286 C 
ATOM      4  O   UNL d   1       1.550  -1.754  -2.311  0.00  0.00    -0.265 OA
ENDROOT
BRANCH   1   5
ATOM      5  S   UNL d   1       1.024   0.043  -0.080  0.00  0.00     0.055 S 
ATOM      6  O   UNL d   1       0.716   1.066  -1.061  0.00  0.00    -0.245 OA
ATOM      7  C   UNL d   1       2.762   0.151   0.275  0.00  0.00     0.142 C 
BRANCH   5   8
ATOM      8  C   UNL d   1       0.288   0.581   1.458  0.00  0.00     0.038 A 
ATOM      9  C   UNL d   1       0.184  -0.315   2.526  0.00  0.00     0.022 A 
ATOM     10  C   UNL d   1      -0.438   0.092   3.707  0.00  0.00     0.008 A 
ATOM     11  C   UNL d   1      -0.958   1.388   3.826  0.00  0.00    -0.062 A 
ATOM     12  C   UNL d   1      -0.838   2.278   2.750  0.00  0.00     0.008 A 
ATOM     13  C   UNL d   1      -1.658   1.796   5.089  0.00  0.00     0.048 C 
ATOM     14  C   UNL d   1      -0.220   1.877   1.565  0.00  0.00     0.022 A 
ENDBRANCH   5   8
ENDBRANCH   1   5
BRANCH   3  15
ATOM     15  C   UNL d   1      -0.117  -3.261  -1.666  0.00  0.00     0.145 A 
ATOM     16  O   UNL d   1      -0.925  -3.707  -0.650  0.00  0.00    -0.304 OA
ATOM     17  C   UNL d   1      -1.537  -4.841  -1.082  0.00  0.00     0.086 A 
ATOM     18  C   UNL d   1      -2.415  -5.618  -0.331  0.00  0.00     0.038 A 
ATOM     19  C   UNL d   1      -1.154  -5.133  -2.384  0.00  0.00     0.001 A 
ATOM     20  C   UNL d   1      -2.915  -6.768  -0.951  0.00  0.00     0.003 A 
ATOM     21  C   UNL d   1      -2.553  -7.098  -2.259  0.00  0.00     0.001 A 
ATOM     22  C   UNL d   1      -1.676  -6.286  -2.995  0.00  0.00     0.014 A 
ATOM     23  C   UNL d   1      -0.253  -4.101  -2.760  0.00  0.00     0.057 A 
ENDBRANCH   3  15
TORSDOF 3
