REMARK  3 active torsions:
REMARK  status: ('A' for Active; 'I' for Inactive)
REMARK    1  A    between atoms: N_11  and  C_13 
REMARK    2  A    between atoms: N_20  and  C_12 
REMARK    3  A    between atoms: C_25  and  N_20 
ROOT
ATOM      1  C   UNL d   1       0.012  -0.731  -0.062  0.00  0.00     0.135 C 
ATOM      2  C   UNL d   1       0.001   0.626  -0.011  0.00  0.00     0.128 C 
ATOM      3  N   UNL d   1       1.258  -1.384   0.003  0.00  0.00    -0.288 N 
ATOM      4  N   UNL d   1       2.439   0.660  -0.012  0.00  0.00    -0.270 N 
ATOM      5  N   UNL d   1      -1.211  -1.434  -0.151  0.00  0.00    -0.303 N 
ATOM      6  C   UNL d   1       2.489  -0.715  -0.060  0.00  0.00     0.332 C 
ATOM      7  C   UNL d   1       1.274   1.383   0.101  0.00  0.00     0.269 C 
ATOM      8  C   UNL d   1      -2.454   0.585  -0.375  0.00  0.00     0.099 C 
ATOM      9  C   UNL d   1      -2.457  -0.826   0.008  0.00  0.00     0.264 C 
ATOM     10  C   UNL d   1      -1.269   1.398  -0.128  0.00  0.00     0.208 C 
ATOM     11  C   UNL d   1      -3.438   1.032  -1.175  0.00  0.00     0.109 C 
ATOM     12  O   UNL d   1       3.555  -1.319  -0.133  0.00  0.00    -0.246 OA
ATOM     13  O   UNL d   1       1.291   2.598   0.271  0.00  0.00    -0.267 OA
ATOM     14  O   UNL d   1      -3.501  -1.425   0.258  0.00  0.00    -0.267 OA
ATOM     15  O   UNL d   1      -1.355   2.617  -0.073  0.00  0.00    -0.286 OA
ATOM     16  C   UNL d   1       1.416  -2.823   0.172  0.00  0.00     0.163 C 
ATOM     17  C   UNL d   1       3.682   1.411   0.025  0.00  0.00     0.164 C 
ATOM     18  C   UNL d   1      -1.359  -2.817  -0.579  0.00  0.00     0.161 C 
ENDROOT
BRANCH  11  19
ATOM     19  N   UNL d   1      -4.548   0.325  -1.574  0.00  0.00    -0.365 N 
ATOM     20  H   UNL d   1      -4.720  -0.540  -1.053  0.00  0.00     0.165 HD
BRANCH  19  21
ATOM     21  C   UNL d   1      -5.494   0.643  -2.554  0.00  0.00     0.034 A 
ATOM     22  C   UNL d   1      -5.230   1.509  -3.619  0.00  0.00     0.065 A 
ATOM     23  C   UNL d   1      -6.254   1.843  -4.518  0.00  0.00     0.105 A 
ATOM     24  C   UNL d   1      -7.550   1.340  -4.351  0.00  0.00     0.036 A 
ATOM     25  C   UNL d   1      -7.815   0.480  -3.289  0.00  0.00     0.005 A 
ATOM     26  C   UNL d   1      -6.792   0.132  -2.406  0.00  0.00     0.029 A 
BRANCH  23  27
ATOM     27  N   UNL d   1      -5.963   2.732  -5.649  0.00  0.00    -0.116 N 
ATOM     28  O   UNL d   1      -4.794   3.118  -5.795  0.00  0.00    -0.532 OA
ATOM     29  O   UNL d   1      -6.902   3.037  -6.397  0.00  0.00    -0.532 OA
ENDBRANCH  23  27
ENDBRANCH  19  21
ENDBRANCH  11  19
TORSDOF 3
