REMARK  6 active torsions:
REMARK  status: ('A' for Active; 'I' for Inactive)
REMARK    1  A    between atoms: S_2  and  N_1 
REMARK    2  A    between atoms: C_7  and  S_2 
REMARK    3  A    between atoms: S_19  and  C_5 
REMARK    4  A    between atoms: C_18  and  C_8 
REMARK    5  A    between atoms: C_9  and  C_11 
REMARK    6  A    between atoms: C_10  and  C_12 
ROOT
ATOM      1  S   UNL d   1       2.298  -1.690   0.029  0.00  0.00     0.283 S 
ATOM      2  O   UNL d   1       2.274  -2.310   1.343  0.00  0.00    -0.198 OA
ATOM      3  O   UNL d   1       2.327  -2.458  -1.202  0.00  0.00    -0.198 OA
ENDROOT
BRANCH   1   4
ATOM      4  N   UNL d   1       0.890  -0.696  -0.057  0.00  0.00    -0.170 N 
ATOM      5  N   UNL d   1       0.936   0.669  -0.110  0.00  0.00    -0.283 N 
ATOM      6  C   UNL d   1      -0.345   1.055  -0.033  0.00  0.00     0.062 A 
ATOM      7  HN  UNL d   1       1.762   1.262  -0.190  1.00  0.00     0.188 HD
ATOM      8  C   UNL d   1      -1.213  -0.067   0.006  0.00  0.00     0.071 A 
ATOM      9  C   UNL d   1      -0.405  -1.181  -0.019  0.00  0.00     0.107 A 
BRANCH   6  10
ATOM     10  C   UNL d   1      -0.717   2.468   0.012  0.00  0.00    -0.008 A 
ATOM     11  C   UNL d   1       0.072   3.432  -0.637  0.00  0.00     0.017 A 
ATOM     12  C   UNL d   1      -0.274   4.784  -0.584  0.00  0.00     0.043 A 
ATOM     13  C   UNL d   1      -1.404   5.174   0.124  0.00  0.00     0.116 A 
ATOM     14  C   UNL d   1      -2.197   4.238   0.777  0.00  0.00     0.043 A 
ATOM     15  F   UNL d   1      -1.731   6.471   0.183  0.00  0.00    -0.206 F 
ATOM     16  C   UNL d   1      -1.856   2.885   0.720  0.00  0.00     0.017 A 
ENDBRANCH   6  10
BRANCH   9  17
ATOM     17  S   UNL d   1      -0.814  -2.872   0.004  0.00  0.00    -0.114 SA
ATOM     18  C   UNL d   1      -2.619  -2.862   0.070  0.00  0.00     0.097 C 
ENDBRANCH   9  17
ENDBRANCH   1   4
BRANCH   1  19
ATOM     19  C   UNL d   1       3.674  -0.557  -0.001  0.00  0.00     0.083 A 
ATOM     20  C   UNL d   1       4.125   0.010   1.197  0.00  0.00     0.041 A 
ATOM     21  C   UNL d   1       5.263   0.831   1.202  0.00  0.00     0.050 A 
ATOM     22  C   UNL d   1       5.937   1.066  -0.011  0.00  0.00     0.032 A 
ATOM     23  C   UNL d   1       5.501   0.483  -1.216  0.00  0.00     0.050 A 
ATOM     24  C   UNL d   1       4.356  -0.329  -1.202  0.00  0.00     0.041 A 
BRANCH  21  25
ATOM     25  C   UNL d   1       5.791   1.435   2.484  0.00  0.00     0.417 C 
ATOM     26  F   UNL d   1       5.073   1.087   3.586  0.00  0.00    -0.166 F 
ATOM     27  F   UNL d   1       7.075   1.060   2.739  0.00  0.00    -0.166 F 
ATOM     28  F   UNL d   1       5.798   2.796   2.452  0.00  0.00    -0.166 F 
ENDBRANCH  21  25
BRANCH  23  29
ATOM     29  C   UNL d   1       6.287   0.709  -2.488  0.00  0.00     0.417 C 
ATOM     30  F   UNL d   1       5.779   0.051  -3.566  0.00  0.00    -0.166 F 
ATOM     31  F   UNL d   1       6.340   2.022  -2.839  0.00  0.00    -0.166 F 
ATOM     32  F   UNL d   1       7.580   0.299  -2.373  0.00  0.00    -0.166 F 
ENDBRANCH  23  29
ENDBRANCH   1  19
TORSDOF 6
