REMARK  7 active torsions:
REMARK  status: ('A' for Active; 'I' for Inactive)
REMARK    1  A    between atoms: C_8  and  C_7 
REMARK    2  A    between atoms: O_17  and  C_10 
REMARK    3  A    between atoms: O_18  and  C_11 
REMARK    4  A    between atoms: O_19  and  C_13 
REMARK    5  A    between atoms: C_21  and  O_17 
REMARK    6  A    between atoms: C_20  and  O_18 
REMARK    7  A    between atoms: C_22  and  O_19 
ROOT
ATOM      1  C   UNL d   1       3.292   1.387   0.002  0.00  0.00     0.001 A 
ATOM      2  C   UNL d   1       3.933   3.393   1.197  0.00  0.00     0.077 A 
ATOM      3  C   UNL d   1       3.097   2.267   1.072  0.00  0.00     0.081 A 
ATOM      4  C   UNL d   1       4.957   3.665   0.281  0.00  0.00     0.104 A 
ATOM      5  C   UNL d   1       4.346   1.645  -0.896  0.00  0.00     0.054 A 
ATOM      6  C   UNL d   1       5.195   2.747  -0.748  0.00  0.00     0.103 A 
ENDROOT
BRANCH   1   7
ATOM      7  C   UNL d   1       2.505   0.188  -0.308  0.00  0.00     0.037 C 
ATOM      8  C   UNL d   1       2.841  -1.086  -0.019  0.00  0.00     0.101 C 
ATOM      9  C   UNL d   1       2.052  -2.149  -0.686  0.00  0.00     0.265 C 
ATOM     10  C   UNL d   1       4.000  -1.470   0.824  0.00  0.00     0.265 C 
ATOM     11  N   UNL d   1       2.615  -3.394  -0.647  0.00  0.00    -0.275 N 
ATOM     12  O   UNL d   1       0.996  -1.945  -1.273  0.00  0.00    -0.267 OA
ATOM     13  C   UNL d   1       3.778  -3.742  -0.033  0.00  0.00     0.329 C 
ATOM     14  H   UNL d   1       2.140  -4.125  -1.161  0.00  0.00     0.173 HD
ATOM     15  N   UNL d   1       4.397  -2.770   0.694  0.00  0.00    -0.275 N 
ATOM     16  O   UNL d   1       4.242  -4.872  -0.124  0.00  0.00    -0.246 OA
ATOM     17  H   UNL d   1       5.213  -3.046   1.219  0.00  0.00     0.173 HD
ATOM     18  O   UNL d   1       4.571  -0.717   1.605  0.00  0.00    -0.267 OA
ENDBRANCH   1   7
BRANCH   3  19
ATOM     19  O   UNL d   1       2.192   2.186   2.095  0.00  0.00    -0.351 OA
BRANCH  19  20
ATOM     20  C   UNL d   1       0.962   1.505   1.880  0.00  0.00     0.171 C 
ATOM     21  C   UNL d   1      -0.020   2.008   2.926  0.00  0.00     0.034 C 
ENDBRANCH  19  20
ENDBRANCH   3  19
BRANCH   6  22
ATOM     22  O   UNL d   1       6.182   2.806  -1.699  0.00  0.00    -0.349 OA
BRANCH  22  23
ATOM     23  C   UNL d   1       7.407   3.429  -1.307  0.00  0.00     0.171 C 
ATOM     24  C   UNL d   1       8.537   2.814  -2.113  0.00  0.00     0.034 C 
ENDBRANCH  22  23
ENDBRANCH   6  22
BRANCH   4  25
ATOM     25  O   UNL d   1       5.729   4.792   0.309  0.00  0.00    -0.349 OA
BRANCH  25  26
ATOM     26  C   UNL d   1       5.484   5.769   1.316  0.00  0.00     0.171 C 
ATOM     27  C   UNL d   1       6.450   6.916   1.073  0.00  0.00     0.034 C 
ENDBRANCH  25  26
ENDBRANCH   4  25
TORSDOF 7
