REMARK  5 active torsions:
REMARK  status: ('A' for Active; 'I' for Inactive)
REMARK    1  A    between atoms: N_6  and  S_1 
REMARK    2  A    between atoms: O_7  and  S_1 
REMARK    3  A    between atoms: S_2  and  N_3 
REMARK    4  A    between atoms: C_10  and  S_2 
REMARK       I    between atoms: N_3  and  C_5 
REMARK       I    between atoms: C_5  and  N_6 
REMARK    5  A    between atoms: C_8  and  O_7 
ROOT
ATOM      1  N   UNL d   1       1.832  -2.825  -0.436  0.00  0.00    -0.264 N 
ATOM      2  HN  UNL d   1       2.049  -3.821  -0.464  1.00  0.00     0.180 HD
ATOM      3  C   UNL d   1       1.020  -2.322   0.568  0.00  0.00     0.342 C 
ATOM      4  N   UNL d   1       1.720  -1.824   1.642  0.00  0.00    -0.212 N 
ATOM      5  O   UNL d   1      -0.195  -2.328   0.497  0.00  0.00    -0.245 OA
ATOM      6  H   UNL d   1       2.724  -1.898   1.623  0.00  0.00     0.185 HD
ENDROOT
BRANCH   1   7
ATOM      7  S   UNL d   1       2.405  -1.885  -1.505  0.00  0.00     0.056 S 
ATOM      8  O   UNL d   1       3.368  -0.849  -1.184  0.00  0.00    -0.245 OA
ATOM      9  C   UNL d   1       3.146  -2.883  -2.772  0.00  0.00     0.142 C 
BRANCH   7  10
ATOM     10  C   UNL d   1       1.039  -1.097  -2.332  0.00  0.00     0.038 A 
ATOM     11  C   UNL d   1       0.974   0.297  -2.368  0.00  0.00     0.022 A 
ATOM     12  C   UNL d   1      -0.128   0.918  -2.956  0.00  0.00     0.008 A 
ATOM     13  C   UNL d   1      -1.164   0.154  -3.510  0.00  0.00    -0.062 A 
ATOM     14  C   UNL d   1      -1.077  -1.244  -3.482  0.00  0.00     0.008 A 
ATOM     15  C   UNL d   1      -2.381   0.839  -4.061  0.00  0.00     0.048 C 
ATOM     16  C   UNL d   1       0.023  -1.873  -2.894  0.00  0.00     0.022 A 
ENDBRANCH   7  10
ENDBRANCH   1   7
BRANCH   4  17
ATOM     17  S   UNL d   1       0.975  -1.440   3.057  0.00  0.00     0.370 S 
ATOM     18  O   UNL d   1       0.256  -2.620   3.481  0.00  0.00    -0.175 OA
ATOM     19  O   UNL d   1       0.343  -0.154   2.864  0.00  0.00    -0.175 OA
BRANCH  17  20
ATOM     20  O   UNL d   1       2.241  -1.248   4.059  0.00  0.00    -0.215 OA
BRANCH  20  21
ATOM     21  C   UNL d   1       2.220  -0.556   5.246  0.00  0.00     0.112 A 
ATOM     22  C   UNL d   1       1.153  -0.336   6.129  0.00  0.00     0.070 A 
ATOM     23  C   UNL d   1       1.373   0.349   7.336  0.00  0.00     0.050 A 
ATOM     24 CL   UNL d   1      -0.457  -0.906   5.905  0.00  0.00    -0.081 Cl
ATOM     25  C   UNL d   1       2.646   0.799   7.673  0.00  0.00     0.035 A 
ATOM     26  C   UNL d   1       3.713   0.580   6.814  0.00  0.00     0.026 A 
ATOM     27 CL   UNL d   1       2.901   1.610   9.168  0.00  0.00    -0.084 Cl
ATOM     28  C   UNL d   1       3.498  -0.094   5.609  0.00  0.00     0.041 A 
ENDBRANCH  20  21
ENDBRANCH  17  20
ENDBRANCH   4  17
TORSDOF 5
