REMARK  5 active torsions:
REMARK  status: ('A' for Active; 'I' for Inactive)
REMARK    1  A    between atoms: C_6  and  C_1 
REMARK    2  A    between atoms: O_10  and  C_7 
REMARK    3  A    between atoms: C_8  and  C_11 
REMARK       I    between atoms: N_9  and  C_8 
REMARK    4  A    between atoms: C_13  and  N_9 
REMARK    5  A    between atoms: C_11  and  O_10 
ROOT
ATOM      1  O   UNL d   1       3.074   0.875  -1.421  0.00  0.00    -0.325 OA
ENDROOT
BRANCH   1   2
ATOM      2  C   UNL d   1       3.689  -0.113  -2.104  0.00  0.00     0.159 A 
ATOM      3  C   UNL d   1       5.028  -0.519  -2.167  0.00  0.00     0.093 A 
ATOM      4  C   UNL d   1       5.051  -1.548  -3.099  0.00  0.00     0.138 A 
ATOM      5  N   UNL d   1       3.749  -1.704  -3.499  0.00  0.00    -0.290 N 
ATOM      6  N   UNL d   1       2.909  -0.820  -2.914  0.00  0.00    -0.278 N 
ATOM      7  C   UNL d   1       3.153  -2.630  -4.437  0.00  0.00     0.178 C 
ATOM      8  HN  UNL d   1       1.905  -0.719  -3.060  1.00  0.00     0.189 HD
BRANCH   4   9
ATOM      9  C   UNL d   1       6.214  -2.313  -3.598  0.00  0.00     0.434 C 
ATOM     10  F   UNL d   1       5.912  -3.269  -4.507  0.00  0.00    -0.165 F 
ATOM     11  F   UNL d   1       7.119  -1.495  -4.193  0.00  0.00    -0.165 F 
ATOM     12  F   UNL d   1       6.863  -2.941  -2.585  0.00  0.00    -0.165 F 
ENDBRANCH   4   9
ENDBRANCH   1   2
BRANCH   1  13
ATOM     13  C   UNL d   1       3.635   1.149  -0.153  0.00  0.00     0.280 C 
BRANCH  13  14
ATOM     14  C   UNL d   1       4.702   2.256  -0.138  0.00  0.00     0.248 C 
ATOM     15  N   UNL d   1       4.287   3.598  -0.159  0.00  0.00    -0.321 N 
ATOM     16  C   UNL d   1       2.870   3.978  -0.176  0.00  0.00     0.159 C 
ATOM     17  O   UNL d   1       5.881   1.888  -0.052  0.00  0.00    -0.271 OA
BRANCH  15  18
ATOM     18  C   UNL d   1       5.239   4.694  -0.134  0.00  0.00     0.036 A 
ATOM     19  C   UNL d   1       6.557   4.547  -0.592  0.00  0.00     0.029 A 
ATOM     20  C   UNL d   1       7.459   5.620  -0.598  0.00  0.00     0.002 A 
ATOM     21  C   UNL d   1       7.062   6.871  -0.142  0.00  0.00     0.000 A 
ATOM     22  C   UNL d   1       5.765   7.046   0.323  0.00  0.00     0.002 A 
ATOM     23  C   UNL d   1       4.865   5.972   0.324  0.00  0.00     0.029 A 
ENDBRANCH  15  18
ENDBRANCH  13  14
ENDBRANCH   1  13
TORSDOF 5
