REMARK  4 active torsions:
REMARK  status: ('A' for Active; 'I' for Inactive)
REMARK    1  A    between atoms: C_2  and  N_6 
REMARK    2  A    between atoms: C_5  and  C_8 
REMARK       I    between atoms: C_7  and  N_10 
REMARK    3  A    between atoms: C_16  and  C_7 
REMARK    4  A    between atoms: N_10  and  C_15 
ROOT
ATOM      1  N   UNL d   1      -2.421  -6.529   1.128  0.00  0.00    -0.218 N 
ATOM      2  C   UNL d   1      -1.960  -3.720   0.819  0.00  0.00     0.081 C 
ATOM      3  C   UNL d   1      -2.404  -5.726   2.335  0.00  0.00     0.142 C 
ATOM      4  C   UNL d   1      -2.993  -5.906  -0.052  0.00  0.00     0.142 C 
ATOM      5  C   UNL d   1      -2.202  -4.641  -0.387  0.00  0.00     0.034 C 
ATOM      6  C   UNL d   1      -1.543  -4.484   2.086  0.00  0.00     0.034 C 
ENDROOT
BRANCH   1   7
ATOM      7  C   UNL d   1      -1.844  -7.773   1.083  0.00  0.00     0.680 A 
ATOM      8  N   UNL d   1      -1.755  -8.412  -0.093  0.00  0.00    -0.186 N 
ATOM      9  C   UNL d   1      -1.201  -9.654  -0.130  0.00  0.00     0.133 A 
ATOM     10  HN  UNL d   1      -2.098  -7.973  -0.948  1.00  0.00     0.184 HD
ATOM     11  C   UNL d   1      -0.735 -10.276   1.010  0.00  0.00     0.052 A 
ATOM     12  C   UNL d   1      -0.854  -9.555   2.167  0.00  0.00     0.108 A 
ATOM     13  N   UNL d   1      -1.386  -8.321   2.220  0.00  0.00    -0.202 N 
ATOM     14  HN  UNL d   1      -1.442  -7.814   3.103  1.00  0.00     0.183 HD
BRANCH   9  15
ATOM     15  C   UNL d   1      -1.081 -10.378  -1.458  0.00  0.00     0.433 C 
ATOM     16  F   UNL d   1      -1.552  -9.681  -2.530  0.00  0.00    -0.165 F 
ATOM     17  F   UNL d   1       0.215 -10.691  -1.761  0.00  0.00    -0.165 F 
ATOM     18  F   UNL d   1      -1.749 -11.569  -1.465  0.00  0.00    -0.165 F 
ENDBRANCH   9  15
ENDBRANCH   1   7
BRANCH   2  19
ATOM     19  C   UNL d   1      -3.157  -2.819   1.111  0.00  0.00     0.222 C 
ATOM     20  N   UNL d   1      -2.808  -1.631   1.724  0.00  0.00    -0.355 N 
ATOM     21  H   UNL d   1      -1.826  -1.472   1.922  0.00  0.00     0.162 HD
ATOM     22  O   UNL d   1      -4.315  -3.125   0.856  0.00  0.00    -0.273 OA
BRANCH  20  23
ATOM     23  C   UNL d   1      -3.741  -0.583   2.107  0.00  0.00     0.099 C 
ATOM     24  C   UNL d   1      -4.737  -0.991   3.187  0.00  0.00     0.165 C 
ATOM     25  S   UNL d   1      -5.842   0.402   3.252  0.00  0.00     0.146 S 
ATOM     26  O   UNL d   1      -5.265   1.388   4.143  0.00  0.00    -0.228 OA
ATOM     27  O   UNL d   1      -7.201  -0.070   3.404  0.00  0.00    -0.228 OA
ATOM     28  C   UNL d   1      -5.585   0.957   1.572  0.00  0.00     0.142 C 
ATOM     29  C   UNL d   1      -4.579  -0.013   0.953  0.00  0.00     0.041 C 
ENDBRANCH  20  23
ENDBRANCH   2  19
TORSDOF 4
