REMARK  1 active torsions:
REMARK  status: ('A' for Active; 'I' for Inactive)
REMARK    1  A    between atoms: C_7  and  C_6 
ROOT
ATOM      1  C   UNL d   1      -2.540  -0.707   0.014  0.00  0.00     0.058 A 
ATOM      2  S   UNL d   1      -2.583   1.037   0.071  0.00  0.00    -0.085 SA
ATOM      3  C   UNL d   1      -0.154  -0.087  -0.003  0.00  0.00     0.038 A 
ATOM      4  C   UNL d   1      -0.820   1.145   0.028  0.00  0.00     0.022 A 
ATOM      5  C   UNL d   1      -1.126  -1.218  -0.034  0.00  0.00     0.201 A 
ATOM      6  C   UNL d   1      -3.694  -1.391   0.010  0.00  0.00     0.042 C 
ATOM      7  C   UNL d   1       1.248  -0.129  -0.009  0.00  0.00    -0.045 A 
ATOM      8  C   UNL d   1      -0.130   2.350   0.029  0.00  0.00     0.043 A 
ATOM      9  C   UNL d   1       1.941   1.100  -0.007  0.00  0.00     0.031 A 
ATOM     10  C   UNL d   1       1.258   2.321   0.007  0.00  0.00     0.035 A 
ATOM     11  O   UNL d   1      -0.809  -2.390  -0.103  0.00  0.00    -0.286 OA
ATOM     12 CL   UNL d   1       2.140   3.796   0.001  0.00  0.00    -0.084 Cl
ATOM     13  C   UNL d   1       2.078  -1.379  -0.009  0.00  0.00     0.049 C 
ENDROOT
BRANCH   6  14
ATOM     14  C   UNL d   1      -3.829  -2.798  -0.079  0.00  0.00     0.007 A 
ATOM     15  C   UNL d   1      -3.918  -3.587  -1.213  0.00  0.00     0.038 A 
ATOM     16  C   UNL d   1      -4.240  -4.931  -0.901  0.00  0.00     0.018 A 
ATOM     17 BR   UNL d   1      -4.497  -6.232  -2.242  0.00  0.00    -0.051 Br
ATOM     18  C   UNL d   1      -4.373  -5.160   0.444  0.00  0.00     0.069 A 
ATOM     19  S   UNL d   1      -4.105  -3.729   1.343  0.00  0.00    -0.101 SA
ENDBRANCH   6  14
TORSDOF 1
