REMARK  6 active torsions:
REMARK  status: ('A' for Active; 'I' for Inactive)
REMARK    1  A    between atoms: S_8  and  C_3 
REMARK    2  A    between atoms: S_9  and  C_4 
REMARK    3  A    between atoms: C_10  and  S_8 
REMARK    4  A    between atoms: C_11  and  S_9 
REMARK    5  A    between atoms: C_14  and  C_10 
REMARK    6  A    between atoms: C_15  and  C_11 
ROOT
ATOM      1  N   UNL d   1       1.518  -0.594   0.016  0.00  0.00    -0.324 N 
ATOM      2  HN  UNL d   1       2.454  -0.995   0.052  1.00  0.00     0.169 HD
ATOM      3  C   UNL d   1       1.198   0.758   0.111  0.00  0.00     0.152 A 
ATOM      4  C   UNL d   1       0.391  -1.258  -0.127  0.00  0.00     0.130 A 
ATOM      5  N   UNL d   1      -0.076   1.148   0.056  0.00  0.00    -0.305 N 
ATOM      6  HN  UNL d   1      -0.425   2.104   0.127  1.00  0.00     0.176 HD
ATOM      7  S   UNL d   1      -0.984  -0.232  -0.150  0.00  0.00     0.013 SA
ENDROOT
BRANCH   3   8
ATOM      8  S   UNL d   1       2.424   1.984   0.356  0.00  0.00    -0.089 SA
BRANCH   8   9
ATOM      9  C   UNL d   1       3.740   1.374  -0.728  0.00  0.00     0.121 C 
BRANCH   9  10
ATOM     10  C   UNL d   1       4.845   2.400  -0.864  0.00  0.00    -0.048 A 
ATOM     11  C   UNL d   1       5.845   2.503   0.116  0.00  0.00     0.009 A 
ATOM     12  C   UNL d   1       6.842   3.477   0.015  0.00  0.00     0.024 A 
ATOM     13  C   UNL d   1       6.847   4.354  -1.067  0.00  0.00     0.034 A 
ATOM     14  C   UNL d   1       5.862   4.268  -2.047  0.00  0.00     0.024 A 
ATOM     15 CL   UNL d   1       8.072   5.556  -1.188  0.00  0.00    -0.084 Cl
ATOM     16  C   UNL d   1       4.861   3.296  -1.945  0.00  0.00     0.009 A 
ENDBRANCH   9  10
ENDBRANCH   8   9
ENDBRANCH   3   8
BRANCH   4  17
ATOM     17  S   UNL d   1       0.279  -2.983  -0.322  0.00  0.00    -0.099 SA
BRANCH  17  18
ATOM     18  C   UNL d   1       1.672  -3.556   0.689  0.00  0.00     0.120 C 
BRANCH  18  19
ATOM     19  C   UNL d   1       1.680  -5.067   0.765  0.00  0.00    -0.048 A 
ATOM     20  C   UNL d   1       2.285  -5.827  -0.249  0.00  0.00     0.009 A 
ATOM     21  C   UNL d   1       2.245  -7.223  -0.212  0.00  0.00     0.024 A 
ATOM     22  C   UNL d   1       1.598  -7.870   0.838  0.00  0.00     0.034 A 
ATOM     23  C   UNL d   1       0.994  -7.133   1.853  0.00  0.00     0.024 A 
ATOM     24 CL   UNL d   1       1.535  -9.590   0.874  0.00  0.00    -0.084 Cl
ATOM     25  C   UNL d   1       1.032  -5.736   1.817  0.00  0.00     0.009 A 
ENDBRANCH  18  19
ENDBRANCH  17  18
ENDBRANCH   4  17
TORSDOF 6
