REMARK  6 active torsions:
REMARK  status: ('A' for Active; 'I' for Inactive)
REMARK    1  A    between atoms: C_10  and  C_1 
REMARK    2  A    between atoms: N_11  and  C_1 
REMARK    3  A    between atoms: C_2  and  C_7 
REMARK    4  A    between atoms: O_14  and  N_5 
REMARK    5  A    between atoms: O_12  and  C_10 
REMARK    6  A    between atoms: C_13  and  O_12 
ROOT
ATOM      1  C   UNL d   1      -3.950  -1.839   3.930  0.00  0.00    -0.035 A 
ATOM      2  C   UNL d   1      -2.811  -1.083   4.261  0.00  0.00     0.012 A 
ATOM      3  C   UNL d   1      -4.144  -2.190   2.585  0.00  0.00     0.012 A 
ATOM      4  C   UNL d   1      -2.154  -0.977   1.931  0.00  0.00     0.069 A 
ATOM      5  C   UNL d   1      -3.249  -1.773   1.597  0.00  0.00     0.037 A 
ATOM      6  C   UNL d   1      -1.920  -0.661   3.267  0.00  0.00     0.037 A 
ENDROOT
BRANCH   4   7
ATOM      7  O   UNL d   1      -1.263  -0.462   1.028  0.00  0.00    -0.344 OA
BRANCH   7   8
ATOM      8  C   UNL d   1      -1.790  -0.303  -0.289  0.00  0.00     0.247 C 
BRANCH   8   9
ATOM      9  C   UNL d   1      -0.979   0.730  -1.069  0.00  0.00     0.099 C 
ATOM     10  N   UNL d   1      -1.009   0.661  -2.368  0.00  0.00    -0.260 N 
ATOM     11  HN  UNL d   1      -1.526  -0.040  -2.899  1.00  0.00     0.195 HD
BRANCH  10  12
ATOM     12  O   UNL d   1      -0.234   1.681  -2.941  0.00  0.00    -0.289 OA
ATOM     13  H   UNL d   1      -0.428   1.575  -3.891  0.00  0.00     0.244 HD
ENDBRANCH  10  12
BRANCH   9  14
ATOM     14  N   UNL d   1      -0.295   1.693  -0.369  0.00  0.00    -0.289 NA
ATOM     15  H   UNL d   1       0.407   2.148  -0.942  0.00  0.00     0.125 HD
ATOM     16  H   UNL d   1       0.025   1.400   0.549  0.00  0.00     0.125 HD
ENDBRANCH   9  14
ENDBRANCH   8   9
ENDBRANCH   7   8
ENDBRANCH   4   7
BRANCH   1  17
ATOM     17  C   UNL d   1      -4.956  -2.296   4.965  0.00  0.00     0.141 C 
ATOM     18  S   UNL d   1      -5.716  -0.906   5.867  0.00  0.00    -0.148 SA
ATOM     19  C   UNL d   1      -5.747  -1.715   7.484  0.00  0.00     0.085 C 
ATOM     20  C   UNL d   1      -4.453  -2.488   7.626  0.00  0.00     0.085 C 
ATOM     21  S   UNL d   1      -4.244  -3.495   6.137  0.00  0.00    -0.148 SA
ENDBRANCH   1  17
TORSDOF 6
