REMARK  4 active torsions:
REMARK  status: ('A' for Active; 'I' for Inactive)
REMARK    1  A    between atoms: S_5  and  C_1 
REMARK    2  A    between atoms: C_11  and  S_5 
REMARK    3  A    between atoms: C_7  and  C_11 
REMARK       I    between atoms: N_9  and  C_7 
REMARK    4  A    between atoms: C_12  and  N_9 
ROOT
ATOM      1  C   UNL d   1       2.630   4.298  -0.171  0.00  0.00     0.231 C 
ATOM      2  N   UNL d   1       1.693   5.265   0.154  0.00  0.00    -0.327 N 
ATOM      3  O   UNL d   1       3.795   4.524  -0.505  0.00  0.00    -0.272 OA
ATOM      4  H   UNL d   1       0.798   4.924   0.484  0.00  0.00     0.169 HD
ENDROOT
BRANCH   1   5
ATOM      5  C   UNL d   1       2.180   2.860   0.019  0.00  0.00     0.185 C 
BRANCH   5   6
ATOM      6  S   UNL d   1       0.500   2.538  -0.600  0.00  0.00    -0.084 SA
BRANCH   6   7
ATOM      7  C   UNL d   1       0.454   0.820  -0.355  0.00  0.00     0.146 A 
ATOM      8  N   UNL d   1      -0.535  -0.000  -0.831  0.00  0.00    -0.341 N 
ATOM      9  C   UNL d   1      -0.240  -1.274  -0.413  0.00  0.00     0.109 A 
ATOM     10  C   UNL d   1      -1.687   0.347  -1.626  0.00  0.00     0.158 C 
ATOM     11  C   UNL d   1       0.942  -1.161   0.280  0.00  0.00     0.107 A 
ATOM     12  N   UNL d   1       1.359   0.143   0.314  0.00  0.00    -0.345 N 
ATOM     13  HN  UNL d   1       2.197   0.511   0.765  1.00  0.00     0.167 HD
ENDBRANCH   6   7
ENDBRANCH   5   6
ENDBRANCH   1   5
BRANCH   2  14
ATOM     14  C   UNL d   1       1.853   6.666   0.064  0.00  0.00     0.034 A 
ATOM     15  C   UNL d   1       2.985   7.284  -0.477  0.00  0.00     0.031 A 
ATOM     16  C   UNL d   1       3.077   8.679  -0.554  0.00  0.00     0.026 A 
ATOM     17  C   UNL d   1       2.032   9.468  -0.085  0.00  0.00     0.034 A 
ATOM     18  C   UNL d   1       0.898   8.870   0.460  0.00  0.00     0.026 A 
ATOM     19 CL   UNL d   1       2.142  11.181  -0.184  0.00  0.00    -0.084 Cl
ATOM     20  C   UNL d   1       0.807   7.475   0.530  0.00  0.00     0.031 A 
ENDBRANCH   2  14
TORSDOF 4
