REMARK  7 active torsions:
REMARK  status: ('A' for Active; 'I' for Inactive)
REMARK    1  A    between atoms: C_2  and  C_1 
REMARK    2  A    between atoms: C_3  and  C_1 
REMARK    3  A    between atoms: C_5  and  C_2 
REMARK    4  A    between atoms: C_14  and  C_5 
REMARK    5  A    between atoms: O_13  and  C_15 
REMARK    6  A    between atoms: C_16  and  C_14 
REMARK    7  A    between atoms: C_15  and  C_16 
ROOT
ATOM      1  C   UNL d   1       1.034  -0.008  -0.082  0.00  0.00     0.166 C 
ATOM      2  O   UNL d   1       0.855   0.099  -1.294  0.00  0.00    -0.292 OA
ENDROOT
BRANCH   1   3
ATOM      3  C   UNL d   1       0.366  -1.095   0.724  0.00  0.00     0.162 C 
BRANCH   3   4
ATOM      4  C   UNL d   1       1.351  -1.996   1.429  0.00  0.00     0.134 C 
ATOM      5  O   UNL d   1       2.445  -2.265   0.930  0.00  0.00    -0.298 OA
BRANCH   4   6
ATOM      6  C   UNL d   1       0.909  -2.614   2.740  0.00  0.00     0.081 C 
BRANCH   6   7
ATOM      7  C   UNL d   1       2.098  -2.917   3.655  0.00  0.00     0.033 C 
BRANCH   7   8
ATOM      8  C   UNL d   1       2.902  -1.675   4.024  0.00  0.00     0.164 C 
BRANCH   8   9
ATOM      9  O   UNL d   1       2.046  -0.710   4.624  0.00  0.00    -0.401 OA
ATOM     10  H   UNL d   1       2.625  -0.002   4.960  0.00  0.00     0.209 HD
ENDBRANCH   8   9
ENDBRANCH   7   8
ENDBRANCH   6   7
ENDBRANCH   4   6
ENDBRANCH   3   4
ENDBRANCH   1   3
BRANCH   1  11
ATOM     11  C   UNL d   1       1.904   0.981   0.618  0.00  0.00     0.010 A 
ATOM     12  C   UNL d   1       2.971   1.552  -0.092  0.00  0.00     0.018 A 
ATOM     13  C   UNL d   1       3.797   2.494   0.525  0.00  0.00     0.043 A 
ATOM     14  C   UNL d   1       3.546   2.869   1.840  0.00  0.00     0.116 A 
ATOM     15  C   UNL d   1       2.486   2.316   2.550  0.00  0.00     0.043 A 
ATOM     16  F   UNL d   1       4.332   3.776   2.433  0.00  0.00    -0.206 F 
ATOM     17  C   UNL d   1       1.661   1.369   1.940  0.00  0.00     0.018 A 
ENDBRANCH   1  11
TORSDOF 7
