REMARK  3 active torsions:
REMARK  status: ('A' for Active; 'I' for Inactive)
REMARK    1  A    between atoms: C_2  and  C_1 
REMARK    2  A    between atoms: C_6  and  C_2 
REMARK    3  A    between atoms: C_9  and  C_5 
ROOT
ATOM      1  C   UNL d   1       0.620   0.945   0.009  0.00  0.00     0.081 C 
ATOM      2  N   UNL d   1       1.157  -0.241  -0.022  0.00  0.00    -0.321 N 
ATOM      3  HN  UNL d   1       2.145  -0.465  -0.138  1.00  0.00     0.180 HD
ATOM      4  C   UNL d   1      -0.875   1.000   0.098  0.00  0.00     0.088 C 
ATOM      5  N   UNL d   1       0.135  -1.114   0.130  0.00  0.00    -0.239 NA
ATOM      6  C   UNL d   1      -1.162  -0.489  -0.139  0.00  0.00     0.126 C 
ATOM      7  H   UNL d   1       0.277  -1.986  -0.385  0.00  0.00     0.146 HD
ENDROOT
BRANCH   1   8
ATOM      8  C   UNL d   1       1.425   2.208  -0.105  0.00  0.00     0.206 C 
ATOM      9  O   UNL d   1       0.940   3.140  -0.736  0.00  0.00    -0.285 OA
BRANCH   8  10
ATOM     10  C   UNL d   1       2.781   2.284   0.494  0.00  0.00     0.017 A 
ATOM     11  C   UNL d   1       3.705   3.193  -0.040  0.00  0.00     0.028 A 
ATOM     12  C   UNL d   1       5.020   3.254   0.454  0.00  0.00    -0.025 A 
ATOM     13  C   UNL d   1       5.971   4.134  -0.088  0.00  0.00     0.012 A 
ATOM     14  C   UNL d   1       5.401   2.400   1.515  0.00  0.00    -0.026 A 
ATOM     15  C   UNL d   1       7.278   4.165   0.404  0.00  0.00     0.001 A 
ATOM     16  C   UNL d   1       7.651   3.321   1.445  0.00  0.00     0.001 A 
ATOM     17  C   UNL d   1       6.717   2.444   1.999  0.00  0.00     0.012 A 
ATOM     18  C   UNL d   1       4.458   1.518   2.062  0.00  0.00     0.013 A 
ATOM     19  C   UNL d   1       3.157   1.461   1.558  0.00  0.00     0.016 A 
ENDBRANCH   8  10
ENDBRANCH   1   8
BRANCH   4  20
ATOM     20  C   UNL d   1      -1.391   1.536   1.417  0.00  0.00    -0.047 A 
ATOM     21  C   UNL d   1      -2.199   2.685   1.425  0.00  0.00     0.009 A 
ATOM     22  C   UNL d   1      -2.735   3.170   2.621  0.00  0.00     0.024 A 
ATOM     23  C   UNL d   1      -2.463   2.515   3.819  0.00  0.00     0.034 A 
ATOM     24  C   UNL d   1      -1.647   1.387   3.833  0.00  0.00     0.024 A 
ATOM     25 CL   UNL d   1      -3.144   3.096   5.287  0.00  0.00    -0.084 Cl
ATOM     26  C   UNL d   1      -1.111   0.902   2.638  0.00  0.00     0.009 A 
ENDBRANCH   4  20
TORSDOF 3
