REMARK  2 active torsions:
REMARK  status: ('A' for Active; 'I' for Inactive)
REMARK    1  A    between atoms: C_5  and  C_3 
REMARK    2  A    between atoms: C_11  and  N_4 
ROOT
ATOM      1  N   UNL d   1       1.236  -0.680  -0.024  0.00  0.00    -0.288 N 
ATOM      2  HN  UNL d   1       2.106  -1.212  -0.022  1.00  0.00     0.188 HD
ATOM      3  C   UNL d   1       1.247   0.624  -0.102  0.00  0.00     0.125 C 
ATOM      4  N   UNL d   1       0.019  -1.318   0.056  0.00  0.00    -0.267 N 
ATOM      5  C   UNL d   1      -0.031   1.440   0.009  0.00  0.00     0.203 C 
ATOM      6  C   UNL d   1      -1.297   0.696  -0.021  0.00  0.00     0.076 C 
ATOM      7  C   UNL d   1      -1.176  -0.631   0.014  0.00  0.00     0.120 C 
ATOM      8  O   UNL d   1      -0.044   2.647   0.201  0.00  0.00    -0.286 OA
ENDROOT
BRANCH   3   9
ATOM      9  C   UNL d   1       2.531   1.342  -0.292  0.00  0.00     0.067 A 
ATOM     10  N   UNL d   1       2.471   2.524  -0.935  0.00  0.00    -0.344 N 
ATOM     11  C   UNL d   1       3.628   3.177  -1.106  0.00  0.00     0.077 A 
ATOM     12  HN  UNL d   1       1.587   2.903  -1.276  1.00  0.00     0.167 HD
ATOM     13  C   UNL d   1       3.571   4.550  -1.697  0.00  0.00     0.089 C 
ATOM     14  N   UNL d   1       4.831   2.701  -0.736  0.00  0.00    -0.356 N 
ATOM     15  C   UNL d   1       4.845   1.501  -0.127  0.00  0.00     0.091 A 
ATOM     16  HN  UNL d   1       5.689   3.224  -0.909  1.00  0.00     0.166 HD
ATOM     17  C   UNL d   1       3.712   0.771   0.136  0.00  0.00     0.049 A 
ENDBRANCH   3   9
BRANCH   4  18
ATOM     18  C   UNL d   1       0.092  -2.742   0.176  0.00  0.00     0.056 A 
ATOM     19  C   UNL d   1       1.191  -3.344   0.822  0.00  0.00     0.034 A 
ATOM     20  C   UNL d   1       1.270  -4.730   0.977  0.00  0.00     0.044 A 
ATOM     21  C   UNL d   1       0.258  -5.532   0.472  0.00  0.00     0.116 A 
ATOM     22  C   UNL d   1      -0.833  -4.976  -0.180  0.00  0.00     0.044 A 
ATOM     23  F   UNL d   1       0.336  -6.862   0.611  0.00  0.00    -0.206 F 
ATOM     24  C   UNL d   1      -0.916  -3.588  -0.326  0.00  0.00     0.034 A 
ENDBRANCH   4  18
TORSDOF 2
