REMARK  5 active torsions:
REMARK  status: ('A' for Active; 'I' for Inactive)
REMARK    1  A    between atoms: N_7  and  C_1 
REMARK    2  A    between atoms: C_3  and  C_2 
REMARK    3  A    between atoms: C_6  and  C_9 
REMARK    4  A    between atoms: C_8  and  C_15 
REMARK       I    between atoms: N_10  and  C_8 
REMARK    5  A    between atoms: C_16  and  N_10 
ROOT
ATOM      1  N   UNL d   1       0.411   2.669  -0.236  0.00  0.00    -0.218 N 
ATOM      2  C   UNL d   1      -0.014   5.511   0.103  0.00  0.00     0.081 C 
ATOM      3  C   UNL d   1      -0.060   3.448  -1.379  0.00  0.00     0.142 C 
ATOM      4  C   UNL d   1       0.039   3.166   1.089  0.00  0.00     0.142 C 
ATOM      5  C   UNL d   1       0.391   4.902  -1.242  0.00  0.00     0.034 C 
ATOM      6  C   UNL d   1       0.517   4.616   1.235  0.00  0.00     0.034 C 
ENDROOT
BRANCH   2   7
ATOM      7  C   UNL d   1      -1.522   5.751   0.269  0.00  0.00     0.226 C 
ATOM      8  N   UNL d   1      -2.096   6.520  -0.728  0.00  0.00    -0.327 N 
ATOM      9  H   UNL d   1      -1.520   6.770  -1.520  0.00  0.00     0.169 HD
ATOM     10  O   UNL d   1      -2.117   5.329   1.257  0.00  0.00    -0.273 OA
BRANCH   8  11
ATOM     11  C   UNL d   1      -3.413   7.036  -0.737  0.00  0.00     0.035 A 
ATOM     12  C   UNL d   1      -4.303   6.926   0.336  0.00  0.00     0.047 A 
ATOM     13  C   UNL d   1      -5.584   7.524   0.326  0.00  0.00     0.067 A 
ATOM     14  C   UNL d   1      -5.963   8.246  -0.813  0.00  0.00     0.026 A 
ATOM     15  C   UNL d   1      -5.091   8.334  -1.906  0.00  0.00     0.022 A 
ATOM     16 BR   UNL d   1      -7.611   9.167  -0.983  0.00  0.00    -0.050 Br
ATOM     17  C   UNL d   1      -3.829   7.735  -1.870  0.00  0.00     0.031 A 
BRANCH  13  18
ATOM     18  C   UNL d   1      -6.426   7.319   1.561  0.00  0.00     0.418 C 
ATOM     19  F   UNL d   1      -7.619   7.966   1.598  0.00  0.00    -0.166 F 
ATOM     20  F   UNL d   1      -6.722   6.002   1.757  0.00  0.00    -0.166 F 
ATOM     21  F   UNL d   1      -5.771   7.716   2.692  0.00  0.00    -0.166 F 
ENDBRANCH  13  18
ENDBRANCH   8  11
ENDBRANCH   2   7
BRANCH   1  22
ATOM     22  C   UNL d   1       0.272   1.289  -0.394  0.00  0.00     0.680 A 
ATOM     23  N   UNL d   1       0.217   0.791  -1.639  0.00  0.00    -0.186 N 
ATOM     24  C   UNL d   1       0.145  -0.553  -1.812  0.00  0.00     0.133 A 
ATOM     25  HN  UNL d   1       0.230   1.416  -2.445  1.00  0.00     0.184 HD
ATOM     26  C   UNL d   1       0.119  -1.421  -0.741  0.00  0.00     0.052 A 
ATOM     27  C   UNL d   1       0.171  -0.837   0.496  0.00  0.00     0.108 A 
ATOM     28  N   UNL d   1       0.248   0.492   0.686  0.00  0.00    -0.202 N 
ATOM     29  HN  UNL d   1       0.288   0.885   1.626  1.00  0.00     0.183 HD
BRANCH  24  30
ATOM     30  C   UNL d   1       0.108  -1.106  -3.223  0.00  0.00     0.433 C 
ATOM     31  F   UNL d   1       0.117  -0.155  -4.200  0.00  0.00    -0.165 F 
ATOM     32  F   UNL d   1       1.167  -1.925  -3.491  0.00  0.00    -0.165 F 
ATOM     33  F   UNL d   1      -1.004  -1.863  -3.456  0.00  0.00    -0.165 F 
ENDBRANCH  24  30
ENDBRANCH   1  22
TORSDOF 5
