REMARK  3 active torsions:
REMARK  status: ('A' for Active; 'I' for Inactive)
REMARK    1  A    between atoms: S_3  and  C_1 
REMARK    2  A    between atoms: C_9  and  S_3 
REMARK    3  A    between atoms: C_14  and  C_9 
ROOT
ATOM      1  C   UNL d   1      -0.767   1.302  -0.124  0.00  0.00     0.103 A 
ATOM      2  C   UNL d   1      -0.981   0.296   0.727  0.00  0.00     0.126 A 
ATOM      3  C   UNL d   1      -0.185  -0.966   0.604  0.00  0.00     0.284 A 
ATOM      4  C   UNL d   1       0.175   1.048  -1.220  0.00  0.00     0.132 A 
ATOM      5  N   UNL d   1       0.872  -0.027  -1.384  0.00  0.00    -0.306 N 
ATOM      6  HN  UNL d   1       1.522  -0.127  -2.164  1.00  0.00     0.186 HD
ATOM      7  N   UNL d   1       0.701  -1.027  -0.465  0.00  0.00    -0.261 N 
ATOM      8  O   UNL d   1      -0.304  -1.873   1.426  0.00  0.00    -0.265 OA
ATOM      9 CL   UNL d   1      -2.118   0.322   2.032  0.00  0.00    -0.077 Cl
ATOM     10  C   UNL d   1       1.517  -2.216  -0.637  0.00  0.00     0.181 C 
ENDROOT
BRANCH   1  11
ATOM     11  S   UNL d   1      -1.588   2.817  -0.057  0.00  0.00     0.182 S 
ATOM     12  O   UNL d   1      -1.070   3.650  -1.131  0.00  0.00    -0.222 OA
ATOM     13  O   UNL d   1      -3.015   2.565   0.022  0.00  0.00    -0.222 OA
BRANCH  11  14
ATOM     14  C   UNL d   1      -1.018   3.536   1.488  0.00  0.00     0.184 C 
BRANCH  14  15
ATOM     15  C   UNL d   1      -1.689   4.868   1.707  0.00  0.00    -0.044 A 
ATOM     16  C   UNL d   1      -2.909   4.944   2.397  0.00  0.00     0.008 A 
ATOM     17  C   UNL d   1      -3.531   6.176   2.605  0.00  0.00     0.001 A 
ATOM     18  C   UNL d   1      -2.943   7.344   2.125  0.00  0.00     0.000 A 
ATOM     19  C   UNL d   1      -1.734   7.282   1.436  0.00  0.00     0.001 A 
ATOM     20  C   UNL d   1      -1.109   6.051   1.227  0.00  0.00     0.008 A 
ENDBRANCH  14  15
ENDBRANCH  11  14
ENDBRANCH   1  11
TORSDOF 3
