REMARK  3 active torsions:
REMARK  status: ('A' for Active; 'I' for Inactive)
REMARK    1  A    between atoms: C_4  and  C_1 
REMARK    2  A    between atoms: N_2  and  C_3 
REMARK    3  A    between atoms: O_10  and  C_4 
ROOT
ATOM      1  C   UNL d   1       1.422  -0.286   0.161  0.00  0.00     0.064 A 
ATOM      2  C   UNL d   1       0.524  -1.363   0.025  0.00  0.00     0.055 A 
ATOM      3  C   UNL d   1       0.919   1.030   0.160  0.00  0.00     0.020 A 
ATOM      4  C   UNL d   1      -0.852  -1.091  -0.118  0.00  0.00     0.031 A 
ATOM      5  C   UNL d   1      -0.446   1.282   0.024  0.00  0.00     0.001 A 
ATOM      6  C   UNL d   1      -1.331   0.220  -0.113  0.00  0.00     0.002 A 
ENDROOT
BRANCH   2   7
ATOM      7  N   UNL d   1       0.925  -2.729   0.036  0.00  0.00    -0.332 N 
ATOM      8  C   UNL d   1       1.992  -3.290   0.706  0.00  0.00     0.096 A 
ATOM      9  C   UNL d   1       2.091  -4.621   0.363  0.00  0.00     0.019 A 
ATOM     10  C   UNL d   1       1.027  -4.909  -0.512  0.00  0.00     0.019 A 
ATOM     11  C   UNL d   1       0.308  -3.745  -0.671  0.00  0.00     0.096 A 
ENDBRANCH   2   7
BRANCH   1  12
ATOM     12  C   UNL d   1       2.905  -0.366   0.243  0.00  0.00     0.178 C 
ATOM     13  O   UNL d   1       3.547   0.323   1.014  0.00  0.00    -0.646 OA
BRANCH  12  14
ATOM     14  O   UNL d   1       3.477  -1.159  -0.683  0.00  0.00    -0.773 OA
ATOM     15  H   UNL d   1       2.871  -1.671  -1.250  0.00  0.00     0.167 HD
ENDBRANCH  12  14
ENDBRANCH   1  12
TORSDOF 3
