REMARK  4 active torsions:
REMARK  status: ('A' for Active; 'I' for Inactive)
REMARK    1  A    between atoms: C_7  and  C_3 
REMARK    2  A    between atoms: O_14  and  C_9 
REMARK    3  A    between atoms: O_16  and  C_11 
REMARK    4  A    between atoms: C_18  and  O_14 
ROOT
ATOM      1  N   UNL d   1       2.212  -0.235   0.106  0.00  0.00    -0.332 N 
ATOM      2  C   UNL d   1       1.344   0.813  -0.000  0.00  0.00     0.255 C 
ATOM      3  C   UNL d   1       1.847  -1.578  -0.236  0.00  0.00     0.219 C 
ATOM      4  N   UNL d   1       0.522  -1.860   0.280  0.00  0.00    -0.364 N 
ATOM      5  C   UNL d   1      -0.094   0.470  -0.048  0.00  0.00     0.058 A 
ATOM      6  C   UNL d   1      -0.448  -0.881   0.063  0.00  0.00     0.045 A 
ATOM      7  O   UNL d   1       1.735   1.968  -0.038  0.00  0.00    -0.268 OA
ATOM      8  C   UNL d   1      -1.064   1.472  -0.136  0.00  0.00     0.019 A 
ATOM      9  C   UNL d   1      -1.806  -1.209   0.117  0.00  0.00     0.030 A 
ATOM     10  C   UNL d   1      -2.413   1.126  -0.105  0.00  0.00     0.001 A 
ATOM     11  C   UNL d   1      -2.783  -0.213   0.019  0.00  0.00     0.002 A 
ATOM     12  H   UNL d   1       3.188   0.021   0.075  0.00  0.00     0.165 HD
ATOM     13  H   UNL d   1       0.218  -2.812   0.117  0.00  0.00     0.162 HD
ENDROOT
BRANCH   3  14
ATOM     14  C   UNL d   1       2.808  -2.562   0.394  0.00  0.00    -0.013 A 
ATOM     15  C   UNL d   1       2.927  -2.584   1.796  0.00  0.00     0.050 A 
ATOM     16  C   UNL d   1       3.754  -3.494   2.452  0.00  0.00     0.102 A 
ATOM     17  C   UNL d   1       4.483  -4.401   1.677  0.00  0.00     0.099 A 
ATOM     18  C   UNL d   1       4.391  -4.393   0.280  0.00  0.00     0.040 A 
ATOM     19  C   UNL d   1       3.554  -3.474  -0.362  0.00  0.00     0.014 A 
BRANCH  16  20
ATOM     20  O   UNL d   1       3.891  -3.560   3.816  0.00  0.00    -0.349 OA
BRANCH  20  21
ATOM     21  C   UNL d   1       3.122  -2.622   4.572  0.00  0.00     0.171 C 
ATOM     22  C   UNL d   1       3.389  -2.830   6.048  0.00  0.00     0.034 C 
ENDBRANCH  20  21
ENDBRANCH  16  20
BRANCH  17  23
ATOM     23  O   UNL d   1       5.293  -5.313   2.298  0.00  0.00    -0.358 OA
ATOM     24  H   UNL d   1       5.707  -5.881   1.630  0.00  0.00     0.217 HD
ENDBRANCH  17  23
ENDBRANCH   3  14
TORSDOF 4
