REMARK  8 active torsions:
REMARK  status: ('A' for Active; 'I' for Inactive)
REMARK    1  A    between atoms: N_4  and  C_1 
REMARK    2  A    between atoms: C_3  and  C_2 
REMARK       I    between atoms: N_7  and  C_3 
REMARK    3  A    between atoms: O_21  and  C_5 
REMARK    4  A    between atoms: C_8  and  C_6 
REMARK    5  A    between atoms: C_9  and  N_7 
REMARK       I    between atoms: N_11  and  C_8 
REMARK    6  A    between atoms: C_22  and  N_11 
REMARK    7  A    between atoms: O_24  and  C_12 
REMARK    8  A    between atoms: C_15  and  C_22 
ROOT
ATOM      1  C   UNL d   1      -2.050  -2.062   0.884  0.00  0.00     0.261 C 
ATOM      2  N   UNL d   1      -3.379  -1.829   0.631  0.00  0.00    -0.322 N 
ATOM      3  O   UNL d   1      -1.216  -1.167   0.911  0.00  0.00    -0.267 OA
ATOM      4  H   UNL d   1      -3.975  -2.596   0.931  0.00  0.00     0.169 HD
ENDROOT
BRANCH   2   5
ATOM      5  C   UNL d   1      -4.087  -0.607   0.312  0.00  0.00     0.050 A 
ATOM      6  C   UNL d   1      -3.703   0.664  -0.212  0.00  0.00     0.058 A 
ATOM      7  C   UNL d   1      -4.724   1.680  -0.303  0.00  0.00     0.019 A 
ATOM      8  C   UNL d   1      -6.066   1.461  -0.027  0.00  0.00     0.001 A 
ATOM      9  C   UNL d   1      -6.452   0.209   0.389  0.00  0.00     0.002 A 
ATOM     10  C   UNL d   1      -5.481  -0.781   0.571  0.00  0.00     0.030 A 
BRANCH   6  11
ATOM     11  C   UNL d   1      -2.463   1.212  -0.900  0.00  0.00     0.253 C 
ATOM     12  N   UNL d   1      -1.193   0.850  -0.569  0.00  0.00    -0.356 N 
ATOM     13  H   UNL d   1      -1.034   0.067   0.061  0.00  0.00     0.162 HD
ATOM     14  O   UNL d   1      -2.626   2.088  -1.764  0.00  0.00    -0.268 OA
BRANCH  12  15
ATOM     15  C   UNL d   1      -0.059   1.491  -1.203  0.00  0.00     0.127 C 
BRANCH  15  16
ATOM     16  C   UNL d   1       1.151   1.455  -0.325  0.00  0.00     0.003 A 
ATOM     17  C   UNL d   1       1.164   2.174   1.001  0.00  0.00     0.007 A 
ATOM     18  C   UNL d   1       1.993   2.699  -0.138  0.00  0.00     0.007 A 
ENDBRANCH  15  16
ENDBRANCH  12  15
ENDBRANCH   6  11
ENDBRANCH   2   5
BRANCH   1  19
ATOM     19  C   UNL d   1      -1.586  -3.449   1.306  0.00  0.00     0.101 C 
ATOM     20  C   UNL d   1      -2.332  -4.442   1.978  0.00  0.00     0.119 C 
ATOM     21  C   UNL d   1      -1.625  -5.469   2.658  0.00  0.00     0.137 C 
ATOM     22  C   UNL d   1      -0.230  -5.518   2.707  0.00  0.00     0.042 C 
ATOM     23  C   UNL d   1       0.475  -4.654   1.898  0.00  0.00     0.040 C 
ATOM     24  C   UNL d   1      -0.211  -3.721   1.114  0.00  0.00     0.086 C 
BRANCH  20  25
ATOM     25  O   UNL d   1      -3.706  -4.386   1.914  0.00  0.00    -0.352 OA
ATOM     26  C   UNL d   1      -4.282  -5.575   1.340  0.00  0.00     0.210 C 
ENDBRANCH  20  25
BRANCH  21  27
ATOM     27  N   UNL d   1      -2.282  -6.603   3.283  0.00  0.00    -0.113 N 
ATOM     28  O   UNL d   1      -3.010  -6.379   4.264  0.00  0.00    -0.532 OA
ATOM     29  O   UNL d   1      -2.063  -7.713   2.789  0.00  0.00    -0.532 OA
ENDBRANCH  21  27
BRANCH  24  30
ATOM     30  O   UNL d   1       0.451  -3.145   0.050  0.00  0.00    -0.355 OA
ATOM     31  C   UNL d   1       1.007  -4.151  -0.813  0.00  0.00     0.210 C 
ENDBRANCH  24  30
ENDBRANCH   1  19
TORSDOF 8
