REMARK  12 active torsions:
REMARK  status: ('A' for Active; 'I' for Inactive)
REMARK    1  A    between atoms: S_10  and  C_1 
REMARK    2  A    between atoms: N_12  and  C_8 
REMARK    3  A    between atoms: N_11  and  C_9 
REMARK    4  A    between atoms: C_15  and  S_10 
REMARK    5  A    between atoms: C_24  and  N_11 
REMARK    6  A    between atoms: C_25  and  N_12 
REMARK    7  A    between atoms: C_13  and  S_17 
REMARK    8  A    between atoms: C_14  and  S_16 
REMARK    9  A    between atoms: S_16  and  C_32 
REMARK   10  A    between atoms: S_17  and  C_33 
REMARK   11  A    between atoms: C_33  and  C_24 
REMARK   12  A    between atoms: C_32  and  C_25 
ROOT
ATOM      1  C   UNL d   1      -1.256  -0.120  -0.059  0.00  0.00     0.153 A 
ATOM      2  N   UNL d   1      -0.532  -1.224  -0.219  0.00  0.00    -0.313 N 
ATOM      3  HN  UNL d   1      -0.953  -2.133  -0.410  1.00  0.00     0.170 HD
ATOM      4  N   UNL d   1      -0.775   1.108   0.101  0.00  0.00    -0.313 N 
ATOM      5  HN  UNL d   1      -1.373   1.930   0.174  1.00  0.00     0.170 HD
ATOM      6  N   UNL d   1       1.347   0.122   0.113  0.00  0.00    -0.309 N 
ATOM      7  HN  UNL d   1       2.355   0.212   0.242  1.00  0.00     0.171 HD
ATOM      8  C   UNL d   1       0.543   1.176   0.159  0.00  0.00     0.161 A 
ATOM      9  C   UNL d   1       0.775  -1.052  -0.110  0.00  0.00     0.161 A 
ENDROOT
BRANCH   8  10
ATOM     10  N   UNL d   1       1.079   2.453   0.223  0.00  0.00    -0.263 NA
ATOM     11  H   UNL d   1       0.355   3.125   0.002  0.00  0.00     0.130 HD
BRANCH  10  12
ATOM     12  C   UNL d   1       2.367   2.639  -0.433  0.00  0.00     0.105 C 
BRANCH  12  13
ATOM     13  C   UNL d   1       2.540   4.065  -0.989  0.00  0.00     0.089 C 
BRANCH  13  14
ATOM     14  S   UNL d   1       2.380   5.347   0.306  0.00  0.00    -0.159 SA
BRANCH  14  15
ATOM     15  C   UNL d   1       2.704   6.907  -0.635  0.00  0.00    -0.003 C 
ATOM     16  C   UNL d   1       1.638   7.133  -1.713  0.00  0.00     0.026 C 
ATOM     17  C   UNL d   1       2.624   8.046   0.396  0.00  0.00     0.026 C 
ATOM     18  C   UNL d   1       4.105   6.895  -1.258  0.00  0.00     0.026 C 
ENDBRANCH  14  15
ENDBRANCH  13  14
ENDBRANCH  12  13
ENDBRANCH  10  12
ENDBRANCH   8  10
BRANCH   9  19
ATOM     19  N   UNL d   1       1.647  -2.116  -0.262  0.00  0.00    -0.263 NA
ATOM     20  H   UNL d   1       2.337  -2.079   0.483  0.00  0.00     0.130 HD
BRANCH  19  21
ATOM     21  C   UNL d   1       1.092  -3.422  -0.570  0.00  0.00     0.105 C 
BRANCH  21  22
ATOM     22  C   UNL d   1       2.168  -4.515  -0.467  0.00  0.00     0.089 C 
BRANCH  22  23
ATOM     23  S   UNL d   1       2.546  -4.884   1.288  0.00  0.00    -0.159 SA
BRANCH  23  24
ATOM     24  C   UNL d   1       3.745  -6.290   1.146  0.00  0.00    -0.003 C 
ATOM     25  C   UNL d   1       5.049  -5.811   0.499  0.00  0.00     0.026 C 
ATOM     26  C   UNL d   1       4.035  -6.758   2.583  0.00  0.00     0.026 C 
ATOM     27  C   UNL d   1       3.152  -7.464   0.357  0.00  0.00     0.026 C 
ENDBRANCH  23  24
ENDBRANCH  22  23
ENDBRANCH  21  22
ENDBRANCH  19  21
ENDBRANCH   9  19
BRANCH   1  28
ATOM     28  S   UNL d   1      -3.025  -0.292  -0.168  0.00  0.00    -0.054 SA
BRANCH  28  29
ATOM     29  C   UNL d   1      -3.495  -0.268   1.553  0.00  0.00     0.008 A 
ATOM     30  C   UNL d   1      -4.391   0.709   2.008  0.00  0.00     0.021 A 
ATOM     31  C   UNL d   1      -4.825   0.712   3.338  0.00  0.00     0.025 A 
ATOM     32  C   UNL d   1      -4.368  -0.269   4.216  0.00  0.00     0.034 A 
ATOM     33  C   UNL d   1      -3.483  -1.250   3.775  0.00  0.00     0.025 A 
ATOM     34 CL   UNL d   1      -4.912  -0.276   5.849  0.00  0.00    -0.084 Cl
ATOM     35  C   UNL d   1      -3.050  -1.252   2.445  0.00  0.00     0.021 A 
ENDBRANCH  28  29
ENDBRANCH   1  28
TORSDOF 12
