REMARK  3 active torsions:
REMARK  status: ('A' for Active; 'I' for Inactive)
REMARK    1  A    between atoms: C_7  and  N_1 
REMARK    2  A    between atoms: C_11  and  C_8 
REMARK    3  A    between atoms: O_21  and  C_13 
ROOT
ATOM      1  N   UNL d   1      -1.181   1.123  -0.013  0.00  0.00    -0.220 N 
ATOM      2  C   UNL d   1       0.051  -0.764   0.080  0.00  0.00     0.058 A 
ATOM      3  C   UNL d   1      -1.343  -0.262   0.124  0.00  0.00     0.279 A 
ATOM      4  N   UNL d   1       0.149   1.530  -0.120  0.00  0.00    -0.294 N 
ATOM      5  HN  UNL d   1       0.488   2.486  -0.230  1.00  0.00     0.187 HD
ATOM      6  C   UNL d   1       0.876   0.446  -0.052  0.00  0.00     0.038 A 
ATOM      7  C   UNL d   1       0.318  -2.072   0.148  0.00  0.00     0.030 C 
ATOM      8  O   UNL d   1      -2.335  -0.959   0.244  0.00  0.00    -0.265 OA
ATOM      9  C   UNL d   1       2.368   0.467  -0.079  0.00  0.00     0.071 C 
ENDROOT
BRANCH   7  10
ATOM     10  C   UNL d   1       1.639  -2.688   0.106  0.00  0.00    -0.035 A 
ATOM     11  C   UNL d   1       2.316  -2.963   1.299  0.00  0.00     0.014 A 
ATOM     12  C   UNL d   1       3.562  -3.588   1.265  0.00  0.00     0.037 A 
ATOM     13  C   UNL d   1       4.124  -3.939   0.043  0.00  0.00     0.065 A 
ATOM     14  C   UNL d   1       3.465  -3.666  -1.152  0.00  0.00     0.037 A 
ATOM     15  C   UNL d   1       2.218  -3.039  -1.119  0.00  0.00     0.014 A 
BRANCH  13  16
ATOM     16  O   UNL d   1       5.334  -4.566   0.059  0.00  0.00    -0.361 OA
ATOM     17  H   UNL d   1       5.570  -4.816  -0.849  0.00  0.00     0.217 HD
ENDBRANCH  13  16
ENDBRANCH   7  10
BRANCH   1  18
ATOM     18  C   UNL d   1      -2.193   2.114  -0.009  0.00  0.00     0.061 A 
ATOM     19  C   UNL d   1      -3.530   1.800   0.270  0.00  0.00     0.055 A 
ATOM     20  C   UNL d   1      -4.504   2.801   0.286  0.00  0.00     0.036 A 
ATOM     21 CL   UNL d   1      -6.136   2.397   0.662  0.00  0.00    -0.084 Cl
ATOM     22  C   UNL d   1      -4.171   4.124   0.010  0.00  0.00     0.024 A 
ATOM     23  C   UNL d   1      -2.849   4.451  -0.277  0.00  0.00     0.004 A 
ATOM     24  C   UNL d   1      -1.869   3.454  -0.280  0.00  0.00     0.032 A 
ENDBRANCH   1  18
TORSDOF 3
