REMARK  5 active torsions:
REMARK  status: ('A' for Active; 'I' for Inactive)
REMARK    1  A    between atoms: S_8  and  C_2 
REMARK    2  A    between atoms: C_6  and  C_4 
REMARK    3  A    between atoms: O_11  and  C_6 
REMARK    4  A    between atoms: O_12  and  C_7 
REMARK    5  A    between atoms: C_16  and  O_11 
ROOT
ATOM      1  C   UNL d   1       0.122  -0.747  -0.020  0.00  0.00     0.002 A 
ATOM      2  C   UNL d   1       1.235  -1.571   0.054  0.00  0.00     0.051 A 
ATOM      3  C   UNL d   1       0.502   0.656   0.025  0.00  0.00    -0.024 A 
ATOM      4  C   UNL d   1       1.879   0.834   0.007  0.00  0.00     0.088 A 
ATOM      5  S   UNL d   1       2.685  -0.665   0.140  0.00  0.00    -0.076 SA
ATOM      6  C   UNL d   1      -1.329  -1.155  -0.131  0.00  0.00     0.153 C 
ATOM      7  C   UNL d   1      -0.516   1.765  -0.012  0.00  0.00     0.041 C 
ATOM      8  C   UNL d   1      -1.914   1.269   0.358  0.00  0.00     0.007 C 
ATOM      9  C   UNL d   1      -2.266   0.021  -0.446  0.00  0.00     0.037 C 
ENDROOT
BRANCH   4  10
ATOM     10  C   UNL d   1       2.612   2.082  -0.160  0.00  0.00     0.300 C 
ATOM     11  O   UNL d   1       2.094   3.183  -0.324  0.00  0.00    -0.259 OA
BRANCH  10  12
ATOM     12  O   UNL d   1       3.958   1.864  -0.222  0.00  0.00    -0.317 OA
BRANCH  12  13
ATOM     13  C   UNL d   1       4.740   2.918  -0.796  0.00  0.00     0.174 C 
ATOM     14  C   UNL d   1       4.778   2.721  -2.301  0.00  0.00     0.034 C 
ENDBRANCH  12  13
ENDBRANCH  10  12
ENDBRANCH   4  10
BRANCH   2  15
ATOM     15  S   UNL d   1       1.374  -3.327  -0.014  0.00  0.00    -0.126 SA
ATOM     16  C   UNL d   1       0.034  -3.918   1.030  0.00  0.00     0.096 C 
ENDBRANCH   2  15
BRANCH   6  17
ATOM     17  O   UNL d   1      -1.538  -2.132  -1.150  0.00  0.00    -0.391 OA
ATOM     18  H   UNL d   1      -0.974  -1.882  -1.901  0.00  0.00     0.210 HD
ENDBRANCH   6  17
TORSDOF 5
