REMARK  6 active torsions:
REMARK  status: ('A' for Active; 'I' for Inactive)
REMARK    1  A    between atoms: C_3  and  S_1 
REMARK    2  A    between atoms: C_9  and  S_1 
REMARK    3  A    between atoms: C_5  and  C_2 
REMARK    4  A    between atoms: C_4  and  N_10 
REMARK    5  A    between atoms: O_17  and  C_5 
REMARK    6  A    between atoms: N_10  and  C_6 
ROOT
ATOM      1  C   UNL d   1       0.261  -0.513  -1.627  0.00  0.00     0.155 C 
ATOM      2  C   UNL d   1      -0.481  -1.632  -1.574  0.00  0.00     0.123 C 
ATOM      3  C   UNL d   1       0.769   0.121  -0.474  0.00  0.00     0.113 C 
ATOM      4  N   UNL d   1       1.132   0.618   0.510  0.00  0.00    -0.191 NA
ENDROOT
BRANCH   1   5
ATOM      5  S   UNL d   1       0.739   0.128  -3.179  0.00  0.00     0.194 S 
ATOM      6  O   UNL d   1       0.615  -0.921  -4.178  0.00  0.00    -0.221 OA
ATOM      7  O   UNL d   1       2.020   0.791  -3.030  0.00  0.00    -0.221 OA
BRANCH   5   8
ATOM      8  C   UNL d   1      -0.496   1.411  -3.594  0.00  0.00     0.058 C 
ATOM      9  C   UNL d   1      -0.554   2.502  -2.516  0.00  0.00     0.031 C 
ATOM     10  C   UNL d   1      -0.068   2.069  -4.923  0.00  0.00     0.031 C 
ATOM     11  C   UNL d   1      -1.888   0.793  -3.784  0.00  0.00     0.031 C 
ENDBRANCH   5   8
ENDBRANCH   1   5
BRANCH   2  12
ATOM     12  N   UNL d   1      -0.961  -2.335  -0.476  0.00  0.00    -0.363 N 
ATOM     13  H   UNL d   1      -0.831  -1.870   0.429  0.00  0.00     0.165 HD
BRANCH  12  14
ATOM     14  C   UNL d   1      -1.626  -3.529  -0.481  0.00  0.00     0.055 A 
ATOM     15  C   UNL d   1      -2.432  -3.994   0.552  0.00  0.00     0.106 A 
ATOM     16  S   UNL d   1      -3.095  -5.543   0.168  0.00  0.00    -0.094 SA
ATOM     17  C   UNL d   1      -2.316  -5.592  -1.342  0.00  0.00     0.053 A 
ATOM     18  C   UNL d   1      -1.557  -4.467  -1.561  0.00  0.00     0.038 A 
BRANCH  15  19
ATOM     19  C   UNL d   1      -2.832  -3.414   1.824  0.00  0.00     0.302 C 
ATOM     20  O   UNL d   1      -3.633  -3.898   2.616  0.00  0.00    -0.259 OA
BRANCH  19  21
ATOM     21  O   UNL d   1      -2.205  -2.213   2.030  0.00  0.00    -0.322 OA
ATOM     22  C   UNL d   1      -2.601  -1.552   3.237  0.00  0.00     0.213 C 
ENDBRANCH  19  21
ENDBRANCH  15  19
ENDBRANCH  12  14
ENDBRANCH   2  12
TORSDOF 6
