REMARK  4 active torsions:
REMARK  status: ('A' for Active; 'I' for Inactive)
REMARK    1  A    between atoms: S_8  and  C_2 
REMARK    2  A    between atoms: C_11  and  S_8 
REMARK    3  A    between atoms: C_12  and  C_11 
REMARK    4  A    between atoms: O_20  and  C_13 
ROOT
ATOM      1  C   UNL d   1       2.812   0.226   0.188  0.00  0.00     0.135 C 
ATOM      2  C   UNL d   1       2.124   0.251   1.347  0.00  0.00     0.066 C 
ATOM      3  C   UNL d   1       2.311  -0.497  -1.018  0.00  0.00     0.265 C 
ATOM      4  S   UNL d   1       0.571  -0.536   1.517  0.00  0.00    -0.090 SA
ATOM      5  N   UNL d   1       1.012  -0.918  -1.052  0.00  0.00    -0.338 N 
ATOM      6  C   UNL d   1      -0.039  -0.391  -0.204  0.00  0.00     0.087 C 
ATOM      7  C   UNL d   1       4.052   0.898   0.022  0.00  0.00     0.107 C 
ATOM      8  N   UNL d   1       5.069   1.455  -0.066  0.00  0.00    -0.191 NA
ATOM      9  O   UNL d   1       3.027  -0.706  -1.994  0.00  0.00    -0.267 OA
ATOM     10  C   UNL d   1      -1.314  -1.256  -0.344  0.00  0.00     0.043 C 
ATOM     11  C   UNL d   1      -0.366   1.066  -0.610  0.00  0.00     0.043 C 
ATOM     12  C   UNL d   1      -2.536  -0.666   0.371  0.00  0.00     0.003 C 
ATOM     13  C   UNL d   1      -1.582   1.653   0.102  0.00  0.00     0.003 C 
ATOM     14  C   UNL d   1      -2.809   0.767  -0.072  0.00  0.00     0.000 C 
ATOM     15  H   UNL d   1       0.752  -1.298  -1.956  0.00  0.00     0.164 HD
ENDROOT
BRANCH   2  16
ATOM     16  S   UNL d   1       2.606   1.193   2.751  0.00  0.00    -0.117 SA
BRANCH  16  17
ATOM     17  C   UNL d   1       4.053   0.289   3.387  0.00  0.00     0.118 C 
BRANCH  17  18
ATOM     18  C   UNL d   1       4.460   0.819   4.744  0.00  0.00    -0.048 A 
ATOM     19  C   UNL d   1       3.995   0.218   5.921  0.00  0.00     0.011 A 
ATOM     20  C   UNL d   1       4.354   0.726   7.179  0.00  0.00     0.037 A 
ATOM     21  C   UNL d   1       5.178   1.845   7.280  0.00  0.00     0.068 A 
ATOM     22  C   UNL d   1       5.638   2.454   6.106  0.00  0.00     0.037 A 
ATOM     23  C   UNL d   1       5.284   1.949   4.851  0.00  0.00     0.011 A 
BRANCH  21  24
ATOM     24  O   UNL d   1       5.596   2.441   8.434  0.00  0.00    -0.356 OA
ATOM     25  C   UNL d   1       5.194   1.831   9.654  0.00  0.00     0.210 C 
ENDBRANCH  21  24
ENDBRANCH  17  18
ENDBRANCH  16  17
ENDBRANCH   2  16
TORSDOF 4
