REMARK  6 active torsions:
REMARK  status: ('A' for Active; 'I' for Inactive)
REMARK    1  A    between atoms: C_2  and  S_1 
REMARK    2  A    between atoms: N_5  and  S_1 
REMARK    3  A    between atoms: C_10  and  C_4 
REMARK       I    between atoms: C_6  and  N_9 
REMARK    4  A    between atoms: O_13  and  C_6 
REMARK    5  A    between atoms: O_22  and  C_10 
REMARK    6  A    between atoms: C_18  and  O_13 
ROOT
ATOM      1  N   UNL d   1       0.608   1.359   0.738  0.00  0.00    -0.204 NA
ATOM      2  C   UNL d   1      -1.007   5.107   0.942  0.00  0.00     0.363 C 
ATOM      3  N   UNL d   1      -0.306   4.126   1.633  0.00  0.00    -0.327 N 
ATOM      4  C   UNL d   1       1.081   2.649   0.134  0.00  0.00     0.127 C 
ATOM      5  C   UNL d   1       1.040   3.785   1.165  0.00  0.00     0.143 C 
ATOM      6  O   UNL d   1      -0.573   5.612  -0.086  0.00  0.00    -0.238 OA
ATOM      7  C   UNL d   1      -1.168   1.867   2.392  0.00  0.00     0.035 C 
ATOM      8  C   UNL d   1      -0.871   1.396   0.973  0.00  0.00     0.109 C 
ATOM      9  C   UNL d   1      -0.847   3.330   2.729  0.00  0.00     0.129 C 
ENDROOT
BRANCH   1  10
ATOM     10  S   UNL d   1       1.118  -0.039  -0.112  0.00  0.00     0.259 S 
ATOM     11  O   UNL d   1       0.551  -1.203   0.536  0.00  0.00    -0.204 OA
ATOM     12  O   UNL d   1       0.954   0.205  -1.528  0.00  0.00    -0.204 OA
BRANCH  10  13
ATOM     13  C   UNL d   1       2.876  -0.267   0.114  0.00  0.00     0.146 A 
ATOM     14  N   UNL d   1       3.591  -1.286  -0.504  0.00  0.00    -0.336 N 
ATOM     15  C   UNL d   1       4.934  -1.236  -0.140  0.00  0.00     0.111 A 
ATOM     16  C   UNL d   1       3.042  -2.298  -1.391  0.00  0.00     0.157 C 
ATOM     17  C   UNL d   1       5.055  -0.172   0.743  0.00  0.00     0.039 A 
ATOM     18  C   UNL d   1       3.784   0.417   0.907  0.00  0.00     0.046 A 
BRANCH  15  19
ATOM     19  C   UNL d   1       5.971  -2.143  -0.604  0.00  0.00     0.309 C 
ATOM     20  O   UNL d   1       5.816  -3.068  -1.397  0.00  0.00    -0.258 OA
BRANCH  19  21
ATOM     21  O   UNL d   1       7.162  -1.827  -0.019  0.00  0.00    -0.321 OA
ATOM     22  C   UNL d   1       8.252  -2.667  -0.406  0.00  0.00     0.213 C 
ENDBRANCH  19  21
ENDBRANCH  15  19
ENDBRANCH  10  13
ENDBRANCH   1  10
BRANCH   2  23
ATOM     23  O   UNL d   1      -2.194   5.453   1.516  0.00  0.00    -0.294 OA
BRANCH  23  24
ATOM     24  C   UNL d   1      -3.042   6.461   0.882  0.00  0.00     0.061 C 
ATOM     25  C   UNL d   1      -3.465   6.011  -0.524  0.00  0.00     0.046 C 
ATOM     26  C   UNL d   1      -4.299   6.576   1.766  0.00  0.00     0.046 C 
ATOM     27  C   UNL d   1      -2.371   7.843   0.845  0.00  0.00     0.046 C 
ENDBRANCH  23  24
ENDBRANCH   2  23
TORSDOF 6
