REMARK  10 active torsions:
REMARK  status: ('A' for Active; 'I' for Inactive)
REMARK    1  A    between atoms: S_4  and  C_1 
REMARK    2  A    between atoms: S_5  and  C_3 
REMARK    3  A    between atoms: C_8  and  S_4 
REMARK    4  A    between atoms: C_9  and  S_5 
REMARK    5  A    between atoms: N_15  and  C_8 
REMARK    6  A    between atoms: N_16  and  C_9 
REMARK    7  A    between atoms: C_19  and  N_15 
REMARK    8  A    between atoms: C_20  and  N_15 
REMARK    9  A    between atoms: C_17  and  N_16 
REMARK   10  A    between atoms: C_18  and  N_16 
ROOT
ATOM      1  C   UNL d   1       0.183  -1.518   0.007  0.00  0.00     0.088 A 
ATOM      2  C   UNL d   1       1.298  -0.818   0.439  0.00  0.00     0.104 A 
ATOM      3  C   UNL d   1       1.260   0.535  -0.032  0.00  0.00     0.105 A 
ATOM      4  N   UNL d   1       0.163   0.901  -0.693  0.00  0.00    -0.318 N 
ATOM      5  HN  UNL d   1      -0.026   1.832  -1.064  1.00  0.00     0.175 HD
ATOM      6  S   UNL d   1      -0.846  -0.414  -0.809  0.00  0.00    -0.005 SA
ATOM      7  C   UNL d   1       2.322  -1.393   1.244  0.00  0.00     0.104 C 
ATOM      8  N   UNL d   1       3.134  -1.876   1.921  0.00  0.00    -0.191 NA
ENDROOT
BRANCH   1   9
ATOM      9  S   UNL d   1      -0.243  -3.200   0.311  0.00  0.00    -0.050 SA
BRANCH   9  10
ATOM     10  C   UNL d   1       0.381  -4.074  -1.107  0.00  0.00     0.142 C 
ATOM     11  S   UNL d   1       1.143  -3.381  -2.435  0.00  0.00    -0.052 SA
BRANCH  10  12
ATOM     12  N   UNL d   1       0.071  -5.447  -1.026  0.00  0.00    -0.367 N 
BRANCH  12  13
ATOM     13  C   UNL d   1      -0.512  -6.116  -2.201  0.00  0.00     0.120 C 
ATOM     14  C   UNL d   1      -1.351  -7.345  -1.873  0.00  0.00     0.026 C 
ENDBRANCH  12  13
BRANCH  12  15
ATOM     15  C   UNL d   1       0.850  -6.273  -0.084  0.00  0.00     0.120 C 
ATOM     16  C   UNL d   1       2.131  -6.850  -0.680  0.00  0.00     0.026 C 
ENDBRANCH  12  15
ENDBRANCH  10  12
ENDBRANCH   9  10
ENDBRANCH   1   9
BRANCH   3  17
ATOM     17  S   UNL d   1       2.512   1.748   0.276  0.00  0.00    -0.041 SA
BRANCH  17  18
ATOM     18  C   UNL d   1       3.553   1.572  -1.141  0.00  0.00     0.142 C 
ATOM     19  S   UNL d   1       4.292   0.126  -1.573  0.00  0.00    -0.052 SA
BRANCH  18  20
ATOM     20  N   UNL d   1       3.697   2.768  -1.857  0.00  0.00    -0.367 N 
BRANCH  20  21
ATOM     21  C   UNL d   1       3.467   2.728  -3.308  0.00  0.00     0.120 C 
ATOM     22  C   UNL d   1       2.992   4.048  -3.894  0.00  0.00     0.026 C 
ENDBRANCH  20  21
BRANCH  20  23
ATOM     23  C   UNL d   1       4.626   3.786  -1.333  0.00  0.00     0.120 C 
ATOM     24  C   UNL d   1       6.061   3.645  -1.836  0.00  0.00     0.026 C 
ENDBRANCH  20  23
ENDBRANCH  18  20
ENDBRANCH  17  18
ENDBRANCH   3  17
TORSDOF 10
