REMARK  4 active torsions:
REMARK  status: ('A' for Active; 'I' for Inactive)
REMARK    1  A    between atoms: C_4  and  C_1 
REMARK    2  A    between atoms: C_6  and  C_4 
REMARK       I    between atoms: N_8  and  C_6 
REMARK    3  A    between atoms: C_13  and  N_8 
REMARK    4  A    between atoms: C_14  and  N_8 
ROOT
ATOM      1  C   UNL d   1       1.448  -3.669   0.135  0.00  0.00    -0.009 C 
ATOM      2  C   UNL d   1       1.140  -4.460  -0.948  0.00  0.00     0.083 C 
ATOM      3  S   UNL d   1       0.677  -6.030  -0.551  0.00  0.00    -0.077 SA
ATOM      4  C   UNL d   1       1.121  -4.359   1.371  0.00  0.00    -0.010 A 
ATOM      5  C   UNL d   1       0.780  -5.697   1.133  0.00  0.00     0.017 A 
ATOM      6 CL   UNL d   1       1.232  -4.026  -2.614  0.00  0.00    -0.076 Cl
ATOM      7  C   UNL d   1       1.138  -3.920   2.721  0.00  0.00     0.013 A 
ATOM      8  C   UNL d   1       0.554  -6.606   2.186  0.00  0.00     0.020 A 
ATOM      9  C   UNL d   1       0.858  -4.807   3.767  0.00  0.00     0.001 A 
ATOM     10  C   UNL d   1       0.596  -6.143   3.502  0.00  0.00     0.001 A 
ENDROOT
BRANCH   1  11
ATOM     11  C   UNL d   1       2.093  -2.308   0.039  0.00  0.00     0.144 C 
BRANCH  11  12
ATOM     12  C   UNL d   1       3.604  -2.425  -0.219  0.00  0.00     0.224 C 
ATOM     13  N   UNL d   1       4.343  -1.256  -0.347  0.00  0.00    -0.353 N 
ATOM     14  O   UNL d   1       4.156  -3.532  -0.306  0.00  0.00    -0.273 OA
BRANCH  13  15
ATOM     15  C   UNL d   1       5.794  -1.371  -0.528  0.00  0.00     0.121 C 
ATOM     16  C   UNL d   1       6.191  -1.361  -1.998  0.00  0.00     0.026 C 
ENDBRANCH  13  15
BRANCH  13  17
ATOM     17  C   UNL d   1       3.783   0.093  -0.313  0.00  0.00     0.121 C 
ATOM     18  C   UNL d   1       3.858   0.702   1.079  0.00  0.00     0.026 C 
ENDBRANCH  13  17
ENDBRANCH  11  12
ENDBRANCH   1  11
TORSDOF 4
