REMARK  5 active torsions:
REMARK  status: ('A' for Active; 'I' for Inactive)
REMARK    1  A    between atoms: C_5  and  S_1 
REMARK    2  A    between atoms: N_8  and  S_1 
REMARK    3  A    between atoms: C_4  and  C_17 
REMARK    4  A    between atoms: C_18  and  N_8 
REMARK    5  A    between atoms: C_17  and  C_18 
ROOT
ATOM      1  S   UNL d   1       0.986  -0.005  -0.154  0.00  0.00     0.258 S 
ATOM      2  O   UNL d   1       0.811   0.905  -1.262  0.00  0.00    -0.201 OA
ATOM      3  O   UNL d   1       0.444  -1.344  -0.177  0.00  0.00    -0.201 OA
ENDROOT
BRANCH   1   4
ATOM      4  C   UNL d   1       0.382   0.818   1.303  0.00  0.00     0.079 A 
ATOM      5  C   UNL d   1       0.781   2.136   1.553  0.00  0.00     0.027 A 
ATOM      6  C   UNL d   1       0.281   2.804   2.672  0.00  0.00     0.025 A 
ATOM      7  C   UNL d   1      -0.618   2.158   3.522  0.00  0.00     0.034 A 
ATOM      8  C   UNL d   1      -1.012   0.843   3.274  0.00  0.00     0.025 A 
ATOM      9 CL   UNL d   1      -1.257   2.998   4.881  0.00  0.00    -0.084 Cl
ATOM     10  C   UNL d   1      -0.511   0.165   2.159  0.00  0.00     0.027 A 
ENDBRANCH   1   4
BRANCH   1  11
ATOM     11  N   UNL d   1       2.638  -0.101   0.112  0.00  0.00    -0.315 N 
ATOM     12  H   UNL d   1       3.160   0.613  -0.394  0.00  0.00     0.172 HD
BRANCH  11  13
ATOM     13  C   UNL d   1       3.221  -0.641   1.341  0.00  0.00     0.133 C 
BRANCH  13  14
ATOM     14  C   UNL d   1       2.820  -2.086   1.626  0.00  0.00     0.028 C 
BRANCH  14  15
ATOM     15  C   UNL d   1       3.459  -2.594   2.889  0.00  0.00     0.029 A 
ATOM     16  C   UNL d   1       3.118  -3.952   3.458  0.00  0.00     0.117 A 
ATOM     17 CL   UNL d   1       4.423  -4.860   4.213  0.00  0.00    -0.101 Cl
ATOM     18 CL   UNL d   1       1.916  -4.967   2.682  0.00  0.00    -0.101 Cl
ATOM     19  C   UNL d   1       2.644  -2.703   4.152  0.00  0.00     0.050 A 
ENDBRANCH  14  15
ENDBRANCH  13  14
ENDBRANCH  11  13
ENDBRANCH   1  11
TORSDOF 5
