REMARK  5 active torsions:
REMARK  status: ('A' for Active; 'I' for Inactive)
REMARK    1  A    between atoms: C_10  and  C_1 
REMARK    2  A    between atoms: C_6  and  C_2 
REMARK    3  A    between atoms: C_18  and  N_3 
REMARK    4  A    between atoms: C_16  and  C_9 
REMARK    5  A    between atoms: C_15  and  C_17 
ROOT
ATOM      1  N   UNL d   1      -0.178  -3.814   0.072  0.00  0.00    -0.318 N 
ATOM      2  HN  UNL d   1       0.837  -3.914   0.075  1.00  0.00     0.169 HD
ATOM      3  C   UNL d   1      -0.886  -2.716  -0.048  0.00  0.00     0.186 A 
ATOM      4  C   UNL d   1      -1.133  -4.798   0.193  0.00  0.00     0.138 A 
ATOM      5  N   UNL d   1      -2.388  -4.347   0.058  0.00  0.00    -0.242 N 
ATOM      6  HN  UNL d   1      -3.255  -4.885   0.064  1.00  0.00     0.196 HD
ATOM      7  O   UNL d   1      -2.232  -2.972  -0.091  0.00  0.00    -0.217 OA
ENDROOT
BRANCH   3   8
ATOM      8  C   UNL d   1      -0.317  -1.345  -0.068  0.00  0.00     0.068 A 
ATOM      9  C   UNL d   1       1.011  -0.947  -0.038  0.00  0.00     0.156 A 
ATOM     10  N   UNL d   1       0.991   0.443  -0.036  0.00  0.00    -0.251 N 
ATOM     11  N   UNL d   1      -0.285   0.914   0.066  0.00  0.00    -0.303 N 
ATOM     12  C   UNL d   1      -1.061  -0.162  -0.028  0.00  0.00     0.126 A 
ATOM     13  HN  UNL d   1      -0.580   1.882   0.189  1.00  0.00     0.186 HD
BRANCH   9  14
ATOM     14  C   UNL d   1       2.265  -1.712   0.084  0.00  0.00     0.435 C 
ATOM     15  F   UNL d   1       2.100  -2.998   0.473  0.00  0.00    -0.165 F 
ATOM     16  F   UNL d   1       2.939  -1.766  -1.091  0.00  0.00    -0.165 F 
ATOM     17  F   UNL d   1       3.101  -1.167   1.004  0.00  0.00    -0.165 F 
ENDBRANCH   9  14
BRANCH  10  18
ATOM     18  C   UNL d   1       2.051   1.395  -0.093  0.00  0.00     0.057 A 
ATOM     19  C   UNL d   1       3.232   1.155  -0.803  0.00  0.00     0.031 A 
ATOM     20  C   UNL d   1       4.263   2.099  -0.796  0.00  0.00     0.002 A 
ATOM     21  C   UNL d   1       4.119   3.294  -0.095  0.00  0.00     0.000 A 
ATOM     22  C   UNL d   1       2.928   3.563   0.575  0.00  0.00     0.002 A 
ATOM     23  C   UNL d   1       1.891   2.626   0.565  0.00  0.00     0.031 A 
ENDBRANCH  10  18
ENDBRANCH   3   8
BRANCH   4  24
ATOM     24  C   UNL d   1      -0.786  -6.179   0.515  0.00  0.00     0.010 A 
ATOM     25  C   UNL d   1       0.551  -6.543   0.742  0.00  0.00     0.016 A 
ATOM     26  C   UNL d   1       0.883  -7.853   1.105  0.00  0.00     0.017 A 
ATOM     27  C   UNL d   1      -0.113  -8.828   1.248  0.00  0.00     0.048 A 
ATOM     28  C   UNL d   1      -1.447  -8.470   1.010  0.00  0.00     0.017 A 
ATOM     29  C   UNL d   1      -1.780  -7.163   0.646  0.00  0.00     0.016 A 
BRANCH  27  30
ATOM     30  C   UNL d   1       0.220 -10.243   1.664  0.00  0.00     0.417 C 
ATOM     31  F   UNL d   1       1.552 -10.459   1.853  0.00  0.00    -0.166 F 
ATOM     32  F   UNL d   1      -0.384 -10.597   2.832  0.00  0.00    -0.166 F 
ATOM     33  F   UNL d   1      -0.180 -11.163   0.743  0.00  0.00    -0.166 F 
ENDBRANCH  27  30
ENDBRANCH   4  24
TORSDOF 5
