REMARK  3 active torsions:
REMARK  status: ('A' for Active; 'I' for Inactive)
REMARK    1  A    between atoms: C_6  and  C_1 
REMARK    2  A    between atoms: C_11  and  C_3 
REMARK    3  A    between atoms: C_12  and  C_5 
REMARK       I    between atoms: N_10  and  C_6 
ROOT
ATOM      1  C   UNL d   1       2.114   0.015   0.031  0.00  0.00     0.080 A 
ATOM      2  S   UNL d   1       0.785   1.092   0.047  0.00  0.00    -0.072 SA
ATOM      3  C   UNL d   1       1.697  -1.315   0.022  0.00  0.00    -0.028 A 
ATOM      4  C   UNL d   1      -0.354  -0.171   0.004  0.00  0.00     0.092 A 
ATOM      5  C   UNL d   1       0.244  -1.422  -0.018  0.00  0.00    -0.023 A 
ATOM      6  C   UNL d   1      -1.763   0.085  -0.000  0.00  0.00     0.107 C 
ATOM      7  N   UNL d   1      -2.906   0.278   0.001  0.00  0.00    -0.191 NA
ENDROOT
BRANCH   5   8
ATOM      8  C   UNL d   1      -0.518  -2.726  -0.073  0.00  0.00     0.037 C 
ATOM      9  C   UNL d   1      -0.875  -3.256   1.308  0.00  0.00     0.010 C 
ENDBRANCH   5   8
BRANCH   1  10
ATOM     10  C   UNL d   1       3.479   0.532   0.012  0.00  0.00     0.256 C 
ATOM     11  O   UNL d   1       4.463  -0.102  -0.360  0.00  0.00    -0.267 OA
ATOM     12  N   UNL d   1       3.659   1.808   0.472  0.00  0.00    -0.365 N 
ATOM     13  H   UNL d   1       2.900   2.350   0.859  0.00  0.00     0.159 HD
ATOM     14  H   UNL d   1       4.602   2.167   0.507  0.00  0.00     0.159 HD
ENDBRANCH   1  10
BRANCH   3  15
ATOM     15  C   UNL d   1       2.635  -2.499   0.079  0.00  0.00     0.036 C 
ATOM     16  C   UNL d   1       3.050  -3.003  -1.294  0.00  0.00     0.010 C 
ENDBRANCH   3  15
TORSDOF 3
