REMARK  2 active torsions:
REMARK  status: ('A' for Active; 'I' for Inactive)
REMARK    1  A    between atoms: C_2  and  C_1 
REMARK       I    between atoms: N_3  and  C_1 
REMARK    2  A    between atoms: C_7  and  N_3 
ROOT
ATOM      1  C   UNL d   1       1.002   0.298  -0.411  0.00  0.00     0.262 C 
ATOM      2  N   UNL d   1       0.209  -0.836  -0.507  0.00  0.00    -0.323 N 
ATOM      3  O   UNL d   1       0.581   1.447  -0.328  0.00  0.00    -0.267 OA
ATOM      4  H   UNL d   1       0.658  -1.735  -0.374  0.00  0.00     0.169 HD
ENDROOT
BRANCH   2   5
ATOM      5  C   UNL d   1      -1.198  -0.859  -0.642  0.00  0.00     0.037 A 
ATOM      6  C   UNL d   1      -1.955   0.267  -0.976  0.00  0.00     0.069 A 
ATOM      7  C   UNL d   1      -3.346   0.189  -1.037  0.00  0.00     0.104 A 
ATOM      8  O   UNL d   1      -4.012   1.351  -1.331  0.00  0.00    -0.346 OA
ATOM      9  C   UNL d   1      -3.995  -1.024  -0.802  0.00  0.00     0.102 A 
ATOM     10  C   UNL d   1      -5.377   1.272  -0.915  0.00  0.00     0.202 C 
ATOM     11  C   UNL d   1      -6.005  -0.023  -1.402  0.00  0.00     0.202 C 
ATOM     12  O   UNL d   1      -5.358  -1.167  -0.830  0.00  0.00    -0.346 OA
ATOM     13  C   UNL d   1      -3.248  -2.160  -0.501  0.00  0.00     0.042 A 
ATOM     14  C   UNL d   1      -1.852  -2.080  -0.431  0.00  0.00     0.032 A 
ENDBRANCH   2   5
BRANCH   1  15
ATOM     15  C   UNL d   1       2.471   0.086  -0.374  0.00  0.00     0.109 A 
ATOM     16  C   UNL d   1       3.326   1.138  -0.716  0.00  0.00     0.135 A 
ATOM     17  F   UNL d   1       2.852   2.327  -1.116  0.00  0.00    -0.205 F 
ATOM     18  C   UNL d   1       4.712   0.983  -0.684  0.00  0.00     0.043 A 
ATOM     19  C   UNL d   1       5.269  -0.237  -0.305  0.00  0.00     0.006 A 
ATOM     20  C   UNL d   1       4.431  -1.295   0.038  0.00  0.00     0.043 A 
ATOM     21  C   UNL d   1       3.045  -1.129   0.002  0.00  0.00     0.135 A 
ATOM     22  F   UNL d   1       2.278  -2.177   0.342  0.00  0.00    -0.205 F 
ENDBRANCH   1  15
TORSDOF 2
