REMARK  3 active torsions:
REMARK  status: ('A' for Active; 'I' for Inactive)
REMARK    1  A    between atoms: O_14  and  C_4 
REMARK    2  A    between atoms: C_10  and  C_5 
REMARK    3  A    between atoms: S_11  and  C_6 
ROOT
ATOM      1  C   UNL d   1      -0.747   1.261  -0.052  0.00  0.00     0.112 A 
ATOM      2  N   UNL d   1      -0.659  -1.167  -0.089  0.00  0.00    -0.335 N 
ATOM      3  HN  UNL d   1      -1.153  -2.059  -0.124  1.00  0.00     0.168 HD
ATOM      4  C   UNL d   1      -1.323   0.003  -0.088  0.00  0.00     0.163 A 
ATOM      5  C   UNL d   1       0.694  -1.111  -0.041  0.00  0.00     0.045 A 
ATOM      6  C   UNL d   1       0.649   1.314  -0.029  0.00  0.00     0.027 A 
ATOM      7  C   UNL d   1       1.368   0.111  -0.024  0.00  0.00     0.050 A 
ATOM      8  C   UNL d   1      -1.572   2.423  -0.014  0.00  0.00     0.105 C 
ATOM      9  N   UNL d   1      -2.223   3.384  -0.003  0.00  0.00    -0.191 NA
ENDROOT
BRANCH   4  10
ATOM     10  O   UNL d   1      -2.671  -0.167  -0.096  0.00  0.00    -0.345 OA
ATOM     11  H   UNL d   1      -2.735  -1.140  -0.067  0.00  0.00     0.219 HD
ENDBRANCH   4  10
BRANCH   6  12
ATOM     12  S   UNL d   1       1.616   2.816   0.144  0.00  0.00    -0.133 SA
ATOM     13  C   UNL d   1       1.309   3.629  -1.450  0.00  0.00     0.095 C 
ENDBRANCH   6  12
BRANCH   5  14
ATOM     14  C   UNL d   1       1.395  -2.412   0.014  0.00  0.00    -0.009 A 
ATOM     15  C   UNL d   1       2.614  -2.569   0.702  0.00  0.00     0.015 A 
ATOM     16  C   UNL d   1       3.282  -3.799   0.735  0.00  0.00     0.024 A 
ATOM     17  C   UNL d   1       2.736  -4.900   0.086  0.00  0.00     0.034 A 
ATOM     18  C   UNL d   1       1.524  -4.784  -0.587  0.00  0.00     0.024 A 
ATOM     19 CL   UNL d   1       3.562  -6.408   0.117  0.00  0.00    -0.084 Cl
ATOM     20  C   UNL d   1       0.860  -3.552  -0.617  0.00  0.00     0.015 A 
ENDBRANCH   5  14
TORSDOF 3
