REMARK  8 active torsions:
REMARK  status: ('A' for Active; 'I' for Inactive)
REMARK    1  A    between atoms: C_4  and  N_1 
REMARK    2  A    between atoms: C_6  and  C_9 
REMARK       I    between atoms: C_10  and  N_22 
REMARK    3  A    between atoms: O_14  and  C_10 
REMARK    4  A    between atoms: N_23  and  C_11 
REMARK    5  A    between atoms: C_21  and  O_14 
REMARK    6  A    between atoms: N_22  and  C_26 
REMARK    7  A    between atoms: C_30  and  N_23 
REMARK    8  A    between atoms: C_26  and  C_30 
ROOT
ATOM      1  C   UNL d   1       2.743  -1.638  -0.142  0.00  0.00     0.072 A 
ATOM      2  C   UNL d   1       3.069  -2.626  -1.093  0.00  0.00     0.048 A 
ATOM      3  C   UNL d   1       4.225  -3.403  -0.970  0.00  0.00     0.050 A 
ATOM      4  C   UNL d   1       3.535  -1.465   1.015  0.00  0.00     0.055 A 
ATOM      5  C   UNL d   1       5.052  -3.187   0.134  0.00  0.00     0.018 A 
ATOM      6  C   UNL d   1       4.710  -2.238   1.106  0.00  0.00     0.032 A 
ENDROOT
BRANCH   4   7
ATOM      7  N   UNL d   1       3.257  -0.609   2.082  0.00  0.00    -0.387 N 
ATOM      8  H   UNL d   1       3.939  -0.618   2.833  0.00  0.00     0.159 HD
BRANCH   7   9
ATOM      9  C   UNL d   1       1.895  -0.264   2.485  0.00  0.00     0.139 C 
BRANCH   9  10
ATOM     10  C   UNL d   1       1.581  -0.696   3.927  0.00  0.00     0.144 C 
BRANCH  10  11
ATOM     11  N   UNL d   1       0.261  -0.344   4.440  0.00  0.00    -0.335 N 
ATOM     12  C   UNL d   1      -0.763   0.215   3.741  0.00  0.00     0.361 C 
ATOM     13  O   UNL d   1      -0.747   0.506   2.553  0.00  0.00    -0.238 OA
ATOM     14  H   UNL d   1       0.031  -0.597   5.391  0.00  0.00     0.164 HD
BRANCH  12  15
ATOM     15  O   UNL d   1      -1.813   0.398   4.577  0.00  0.00    -0.294 OA
BRANCH  15  16
ATOM     16  C   UNL d   1      -3.065   0.930   4.065  0.00  0.00     0.061 C 
ATOM     17  C   UNL d   1      -3.645   0.008   2.981  0.00  0.00     0.046 C 
ATOM     18  C   UNL d   1      -4.014   0.955   5.275  0.00  0.00     0.046 C 
ATOM     19  C   UNL d   1      -2.892   2.367   3.554  0.00  0.00     0.046 C 
ENDBRANCH  15  16
ENDBRANCH  12  15
ENDBRANCH  10  11
ENDBRANCH   9  10
ENDBRANCH   7   9
ENDBRANCH   4   7
BRANCH   1  20
ATOM     20  N   UNL d   1       1.661  -0.788  -0.466  0.00  0.00    -0.249 N 
ATOM     21  C   UNL d   1       0.406  -1.260  -0.753  0.00  0.00     0.232 A 
ATOM     22  C   UNL d   1      -0.434  -0.135  -1.278  0.00  0.00     0.123 A 
ATOM     23  O   UNL d   1      -0.013  -2.400  -0.612  0.00  0.00    -0.273 OA
ATOM     24  C   UNL d   1       0.545   1.029  -1.433  0.00  0.00     0.050 A 
ATOM     25  C   UNL d   1       1.850   0.514  -0.859  0.00  0.00     0.240 A 
ATOM     26  C   UNL d   1       0.075   2.316  -0.760  0.00  0.00     0.020 C 
ATOM     27  C   UNL d   1       0.710   1.464  -2.895  0.00  0.00     0.020 C 
ATOM     28  O   UNL d   1       2.897   1.153  -0.878  0.00  0.00    -0.272 OA
ATOM     29  C   UNL d   1      -0.870   2.954  -1.774  0.00  0.00     0.001 C 
ATOM     30  C   UNL d   1      -0.429   2.448  -3.146  0.00  0.00     0.001 C 
ENDBRANCH   1  20
BRANCH   3  31
ATOM     31  C   UNL d   1       4.592  -4.419  -2.020  0.00  0.00     0.417 C 
ATOM     32  F   UNL d   1       3.700  -4.489  -3.049  0.00  0.00    -0.166 F 
ATOM     33  F   UNL d   1       5.799  -4.160  -2.595  0.00  0.00    -0.166 F 
ATOM     34  F   UNL d   1       4.681  -5.682  -1.518  0.00  0.00    -0.166 F 
ENDBRANCH   3  31
TORSDOF 8
