REMARK  5 active torsions:
REMARK  status: ('A' for Active; 'I' for Inactive)
REMARK    1  A    between atoms: N_4  and  C_1 
REMARK    2  A    between atoms: C_2  and  C_3 
REMARK       I    between atoms: N_6  and  C_2 
REMARK    3  A    between atoms: O_22  and  C_5 
REMARK       I    between atoms: C_8  and  N_6 
REMARK    4  A    between atoms: C_7  and  N_9 
REMARK       I    between atoms: N_9  and  C_8 
REMARK    5  A    between atoms: O_26  and  C_15 
ROOT
ATOM      1  C   UNL d   1      -1.614  -2.650   0.898  0.00  0.00     0.244 C 
ATOM      2  N   UNL d   1      -1.066  -3.745   1.545  0.00  0.00    -0.175 NA
ATOM      3  C   UNL d   1      -1.526  -5.020   1.367  0.00  0.00     0.305 C 
ATOM      4  N   UNL d   1      -2.875  -5.212   1.551  0.00  0.00    -0.308 N 
ATOM      5  O   UNL d   1      -2.833  -2.525   0.811  0.00  0.00    -0.273 OA
ATOM      6  O   UNL d   1      -0.713  -5.871   1.013  0.00  0.00    -0.253 OA
ATOM      7  H   UNL d   1      -0.055  -3.780   1.503  0.00  0.00     0.141 HD
ATOM      8  H   UNL d   1      -3.445  -4.378   1.405  0.00  0.00     0.170 HD
ENDROOT
BRANCH   1   9
ATOM      9  C   UNL d   1      -0.650  -1.567   0.430  0.00  0.00     0.096 C 
ATOM     10  C   UNL d   1       0.745  -1.611   0.686  0.00  0.00     0.119 C 
ATOM     11  C   UNL d   1       1.530  -0.471   0.439  0.00  0.00     0.137 C 
ATOM     12  C   UNL d   1       1.008   0.662  -0.184  0.00  0.00     0.042 C 
ATOM     13  C   UNL d   1      -0.329   0.661  -0.555  0.00  0.00     0.040 C 
ATOM     14  C   UNL d   1      -1.147  -0.444  -0.274  0.00  0.00     0.086 C 
BRANCH  10  15
ATOM     15  O   UNL d   1       1.288  -2.772   1.193  0.00  0.00    -0.352 OA
ATOM     16  C   UNL d   1       2.315  -3.340   0.362  0.00  0.00     0.210 C 
ENDBRANCH  10  15
BRANCH  11  17
ATOM     17  N   UNL d   1       2.917  -0.406   0.873  0.00  0.00    -0.113 N 
ATOM     18  O   UNL d   1       3.159  -0.660   2.068  0.00  0.00    -0.532 OA
ATOM     19  O   UNL d   1       3.754  -0.083   0.019  0.00  0.00    -0.532 OA
ENDBRANCH  11  17
BRANCH  14  20
ATOM     20  O   UNL d   1      -2.461  -0.346  -0.655  0.00  0.00    -0.355 OA
ATOM     21  C   UNL d   1      -2.615  -0.442  -2.074  0.00  0.00     0.210 C 
ENDBRANCH  14  20
ENDBRANCH   1   9
BRANCH   4  22
ATOM     22  C   UNL d   1      -3.491  -6.473   1.345  0.00  0.00     0.114 C 
ATOM     23  C   UNL d   1      -2.859  -7.693   1.623  0.00  0.00     0.149 C 
ATOM     24  C   UNL d   1      -3.391  -8.901   1.183  0.00  0.00     0.087 C 
ATOM     25  F   UNL d   1      -1.744  -7.739   2.367  0.00  0.00    -0.203 F 
ATOM     26  C   UNL d   1      -4.598  -8.895   0.501  0.00  0.00     0.122 C 
ATOM     27  C   UNL d   1      -5.313  -7.718   0.324  0.00  0.00     0.087 C 
ATOM     28  F   UNL d   1      -5.083 -10.044   0.013  0.00  0.00    -0.206 F 
ATOM     29  C   UNL d   1      -4.762  -6.517   0.765  0.00  0.00     0.149 C 
ATOM     30  F   UNL d   1      -5.445  -5.380   0.560  0.00  0.00    -0.203 F 
ENDBRANCH   4  22
TORSDOF 5
