REMARK  1 active torsions:
REMARK  status: ('A' for Active; 'I' for Inactive)
REMARK    1  A    between atoms: C_12  and  N_4 
ROOT
ATOM      1  C   UNL d   1      -0.344   0.564   0.083  0.00  0.00     0.139 A 
ATOM      2  C   UNL d   1       0.673   1.599   0.070  0.00  0.00     0.296 A 
ATOM      3  C   UNL d   1      -0.022  -0.797   0.012  0.00  0.00     0.053 A 
ATOM      4  N   UNL d   1       1.989   1.064  -0.042  0.00  0.00    -0.219 N 
ATOM      5  N   UNL d   1       2.281  -0.314  -0.134  0.00  0.00    -0.294 N 
ATOM      6  HN  UNL d   1       3.251  -0.611  -0.244  1.00  0.00     0.187 HD
ATOM      7  N   UNL d   1      -1.665   0.759   0.162  0.00  0.00    -0.255 N 
ATOM      8  HN  UNL d   1      -2.157   1.650   0.225  1.00  0.00     0.195 HD
ATOM      9  C   UNL d   1       1.343  -1.215  -0.082  0.00  0.00     0.037 A 
ATOM     10  O   UNL d   1      -2.221  -0.509   0.138  0.00  0.00    -0.241 OA
ATOM     11  C   UNL d   1      -1.230  -1.447   0.051  0.00  0.00     0.087 A 
ATOM     12  O   UNL d   1       0.376   2.788   0.122  0.00  0.00    -0.264 OA
ATOM     13  C   UNL d   1       1.725  -2.667  -0.100  0.00  0.00     0.070 C 
ATOM     14  C   UNL d   1      -1.701  -2.842   0.017  0.00  0.00     0.080 C 
ENDROOT
BRANCH   4  15
ATOM     15  C   UNL d   1       3.161   1.889  -0.003  0.00  0.00     0.060 A 
ATOM     16  C   UNL d   1       3.162   3.142   0.624  0.00  0.00     0.032 A 
ATOM     17  C   UNL d   1       4.321   3.921   0.687  0.00  0.00     0.009 A 
ATOM     18  C   UNL d   1       5.509   3.476   0.107  0.00  0.00    -0.062 A 
ATOM     19  C   UNL d   1       5.524   2.232  -0.528  0.00  0.00     0.009 A 
ATOM     20  C   UNL d   1       6.742   4.324   0.199  0.00  0.00     0.048 C 
ATOM     21  C   UNL d   1       4.368   1.443  -0.568  0.00  0.00     0.032 A 
ENDBRANCH   4  15
TORSDOF 1
