REMARK  7 active torsions:
REMARK  status: ('A' for Active; 'I' for Inactive)
REMARK    1  A    between atoms: C_4  and  C_1 
REMARK    2  A    between atoms: C_5  and  C_1 
REMARK    3  A    between atoms: O_10  and  C_3 
REMARK    4  A    between atoms: O_17  and  C_4 
REMARK    5  A    between atoms: N_7  and  C_5 
REMARK    6  A    between atoms: C_11  and  O_10 
REMARK    7  A    between atoms: C_19  and  O_17 
ROOT
ATOM      1  C   UNL d   1       1.057   0.082   0.002  0.00  0.00     0.131 C 
ATOM      2  C   UNL d   1       0.358   0.119   1.169  0.00  0.00     0.092 A 
ATOM      3  C   UNL d   1       0.993   0.167   2.533  0.00  0.00     0.107 A 
ATOM      4  N   UNL d   1      -1.044   0.068   1.213  0.00  0.00    -0.362 N 
ATOM      5  C   UNL d   1       0.235   0.130   3.651  0.00  0.00     0.041 A 
ATOM      6  C   UNL d   1      -1.778  -0.012   2.370  0.00  0.00     0.088 A 
ATOM      7  C   UNL d   1      -1.204   0.006   3.580  0.00  0.00     0.020 A 
ATOM      8  H   UNL d   1      -1.542  -0.018   0.323  0.00  0.00     0.165 HD
ENDROOT
BRANCH   1   9
ATOM      9  C   UNL d   1       0.370  -0.113  -1.297  0.00  0.00     0.305 C 
ATOM     10  O   UNL d   1      -0.845  -0.158  -1.441  0.00  0.00    -0.258 OA
BRANCH   9  11
ATOM     11  O   UNL d   1       1.285  -0.338  -2.272  0.00  0.00    -0.317 OA
BRANCH  11  12
ATOM     12  C   UNL d   1       0.788  -0.929  -3.482  0.00  0.00     0.174 C 
ATOM     13  C   UNL d   1       0.826  -2.438  -3.324  0.00  0.00     0.034 C 
ENDBRANCH  11  12
ENDBRANCH   9  11
ENDBRANCH   1   9
BRANCH   1  14
ATOM     14  C   UNL d   1       2.577   0.082   0.002  0.00  0.00    -0.028 C 
BRANCH  14  15
ATOM     15  N   UNL d   1       3.838   0.082   0.002  0.00  0.00    -0.365 N 
ATOM     16  HN2 UNL d   1       2.818   0.082   0.002  1.00  0.00     0.165 HD
ATOM     17  HN1 UNL d   1       4.858   0.082   0.002  1.00  0.00     0.165 HD
ENDBRANCH  14  15
ENDBRANCH   1  14
BRANCH   3  18
ATOM     18  O   UNL d   1       2.390   0.356   2.603  0.00  0.00    -0.277 OA
BRANCH  18  19
ATOM     19  C   UNL d   1       3.112  -0.519   3.378  0.00  0.00     0.260 C 
ATOM     20  O   UNL d   1       2.680  -1.505   3.962  0.00  0.00    -0.265 OA
ATOM     21  C   UNL d   1       4.565  -0.137   3.363  0.00  0.00     0.126 C 
ENDBRANCH  18  19
ENDBRANCH   3  18
TORSDOF 7
