REMARK  3 active torsions:
REMARK  status: ('A' for Active; 'I' for Inactive)
REMARK    1  A    between atoms: C_2  and  C_1 
REMARK       I    between atoms: N_5  and  C_2 
REMARK    2  A    between atoms: C_6  and  N_5 
REMARK    3  A    between atoms: N_13  and  C_7 
ROOT
ATOM      1  C   UNL d   1       1.014  -0.058   0.141  0.00  0.00     0.127 C 
ATOM      2  C   UNL d   1       0.487  -1.113   0.796  0.00  0.00     0.113 C 
ATOM      3  C   UNL d   1       0.232   1.009  -0.369  0.00  0.00     0.106 C 
ATOM      4  N   UNL d   1      -0.325   1.926  -0.809  0.00  0.00    -0.191 NA
ENDROOT
BRANCH   1   5
ATOM      5  C   UNL d   1       2.521   0.007   0.053  0.00  0.00     0.268 C 
ATOM      6  N   UNL d   1       3.050   1.067  -0.676  0.00  0.00    -0.320 N 
ATOM      7  H   UNL d   1       2.432   1.827  -0.940  0.00  0.00     0.169 HD
ATOM      8  O   UNL d   1       3.201  -0.808   0.673  0.00  0.00    -0.266 OA
BRANCH   6   9
ATOM      9  C   UNL d   1       4.438   1.313  -0.861  0.00  0.00     0.077 A 
ATOM     10  C   UNL d   1       5.441   0.331  -0.795  0.00  0.00     0.184 A 
ATOM     11  C   UNL d   1       6.787   0.680  -0.861  0.00  0.00     0.195 A 
ATOM     12  F   UNL d   1       5.139  -0.975  -0.767  0.00  0.00    -0.200 F 
ATOM     13  F   UNL d   1       7.732  -0.268  -0.774  0.00  0.00    -0.199 F 
ATOM     14  C   UNL d   1       7.151   2.006  -1.035  0.00  0.00     0.158 A 
ATOM     15  C   UNL d   1       6.178   2.987  -1.192  0.00  0.00     0.048 A 
ATOM     16  F   UNL d   1       8.444   2.351  -1.074  0.00  0.00    -0.203 F 
ATOM     17  C   UNL d   1       4.824   2.640  -1.120  0.00  0.00     0.036 A 
ENDBRANCH   6   9
ENDBRANCH   1   5
BRANCH   2  18
ATOM     18  N   UNL d   1      -0.819  -1.507   1.105  0.00  0.00    -0.397 N 
ATOM     19  C   UNL d   1      -1.973  -1.301   0.225  0.00  0.00     0.148 C 
ATOM     20  C   UNL d   1      -1.057  -2.549   2.117  0.00  0.00     0.148 C 
ENDBRANCH   2  18
TORSDOF 3
