REMARK  3 active torsions:
REMARK  status: ('A' for Active; 'I' for Inactive)
REMARK    1  A    between atoms: C_2  and  C_1 
REMARK       I    between atoms: N_4  and  C_1 
REMARK    2  A    between atoms: C_12  and  N_4 
REMARK    3  A    between atoms: C_5  and  C_12 
ROOT
ATOM      1  C   UNL d   1       0.851  -0.081  -0.007  0.00  0.00     0.258 C 
ATOM      2  N   UNL d   1       0.220   0.589  -1.036  0.00  0.00    -0.356 N 
ATOM      3  O   UNL d   1       0.224  -0.519   0.956  0.00  0.00    -0.267 OA
ATOM      4  H   UNL d   1       0.781   0.916  -1.810  0.00  0.00     0.162 HD
ENDROOT
BRANCH   1   5
ATOM      5  C   UNL d   1       2.292  -0.258  -0.139  0.00  0.00     0.072 A 
ATOM      6  S   UNL d   1       3.161   0.189  -1.547  0.00  0.00    -0.097 SA
ATOM      7  C   UNL d   1       4.638  -0.390  -0.906  0.00  0.00     0.050 A 
ATOM      8  C   UNL d   1       4.487  -0.896   0.365  0.00  0.00     0.009 A 
ATOM      9  C   UNL d   1       3.135  -0.819   0.805  0.00  0.00     0.025 A 
ENDBRANCH   1   5
BRANCH   2  10
ATOM     10  C   UNL d   1      -1.218   0.669  -1.127  0.00  0.00     0.127 C 
BRANCH  10  11
ATOM     11  C   UNL d   1      -1.659   2.090  -1.280  0.00  0.00     0.003 A 
ATOM     12  C   UNL d   1      -1.388   3.123  -0.213  0.00  0.00     0.007 A 
ATOM     13  C   UNL d   1      -2.784   2.608  -0.415  0.00  0.00     0.007 A 
ENDBRANCH  10  11
ENDBRANCH   2  10
TORSDOF 3
