REMARK  6 active torsions:
REMARK  status: ('A' for Active; 'I' for Inactive)
REMARK    1  A    between atoms: C_2  and  C_1 
REMARK    2  A    between atoms: O_7  and  C_1 
REMARK    3  A    between atoms: O_4  and  C_2 
REMARK    4  A    between atoms: N_5  and  C_3 
REMARK    5  A    between atoms: C_6  and  O_4 
REMARK       I    between atoms: C_8  and  N_5 
REMARK    6  A    between atoms: C_11  and  O_7 
ROOT
ATOM      1  C   UNL d   1      -2.011  -1.036  -2.562  0.00  0.00     0.069 A 
ATOM      2  C   UNL d   1      -1.367  -0.404  -1.484  0.00  0.00     0.097 A 
ATOM      3  C   UNL d   1      -3.135  -1.845  -2.305  0.00  0.00     0.039 A 
ATOM      4  C   UNL d   1      -1.904  -0.528  -0.199  0.00  0.00     0.040 A 
ATOM      5  C   UNL d   1      -3.668  -1.966  -1.016  0.00  0.00    -0.060 A 
ATOM      6  C   UNL d   1      -3.054  -1.289   0.035  0.00  0.00     0.009 A 
ATOM      7  C   UNL d   1      -4.858  -2.841  -0.760  0.00  0.00     0.048 C 
ENDROOT
BRANCH   2   8
ATOM      8  O   UNL d   1      -0.176   0.217  -1.744  0.00  0.00    -0.328 OA
BRANCH   8   9
ATOM      9  C   UNL d   1       0.521   1.026  -0.796  0.00  0.00     0.148 C 
ATOM     10  C   UNL d   1      -0.301   2.270  -0.396  0.00  0.00     0.057 C 
ATOM     11  C   UNL d   1       1.761   1.546  -1.550  0.00  0.00     0.057 C 
BRANCH   9  12
ATOM     12  C   UNL d   1       1.080   0.271   0.437  0.00  0.00     0.294 C 
ATOM     13  O   UNL d   1       1.199   0.765   1.554  0.00  0.00    -0.262 OA
BRANCH  12  14
ATOM     14  O   UNL d   1       1.439  -1.007   0.114  0.00  0.00    -0.309 OA
BRANCH  14  15
ATOM     15  C   UNL d   1       2.009  -1.896   1.112  0.00  0.00     0.060 C 
ATOM     16  C   UNL d   1       1.091  -2.057   2.332  0.00  0.00     0.045 C 
ATOM     17  C   UNL d   1       2.140  -3.259   0.413  0.00  0.00     0.045 C 
ATOM     18  C   UNL d   1       3.411  -1.417   1.507  0.00  0.00     0.045 C 
ENDBRANCH  14  15
ENDBRANCH  12  14
ENDBRANCH   9  12
ENDBRANCH   8   9
ENDBRANCH   2   8
BRANCH   1  19
ATOM     19  N   UNL d   1      -1.602  -0.972  -3.920  0.00  0.00    -0.325 N 
ATOM     20  C   UNL d   1      -0.904   0.047  -4.547  0.00  0.00     0.218 C 
ATOM     21  O   UNL d   1      -0.616   1.149  -4.096  0.00  0.00    -0.274 OA
ATOM     22  C   UNL d   1      -0.529  -0.311  -5.966  0.00  0.00     0.117 C 
ATOM     23  H   UNL d   1      -2.036  -1.646  -4.534  0.00  0.00     0.169 HD
ENDBRANCH   1  19
TORSDOF 6
