REMARK  6 active torsions:
REMARK  status: ('A' for Active; 'I' for Inactive)
REMARK    1  A    between atoms: C_2  and  S_1 
REMARK    2  A    between atoms: N_5  and  S_1 
REMARK    3  A    between atoms: C_8  and  C_4 
REMARK    4  A    between atoms: O_19  and  C_8 
REMARK    5  A    between atoms: C_15  and  N_11 
REMARK    6  A    between atoms: C_21  and  C_15 
ROOT
ATOM      1  N   UNL d   1       0.511   0.878   1.266  0.00  0.00    -0.203 NA
ATOM      2  N   UNL d   1      -0.640   3.688   2.299  0.00  0.00     0.093 N 
ATOM      3  C   UNL d   1       0.840   2.254   0.749  0.00  0.00     0.138 C 
ATOM      4  C   UNL d   1       0.700   3.368   1.794  0.00  0.00     0.288 C 
ATOM      5  C   UNL d   1      -1.353   1.278   2.944  0.00  0.00     0.046 C 
ATOM      6  C   UNL d   1      -0.941   0.726   1.586  0.00  0.00     0.109 C 
ATOM      7  C   UNL d   1      -1.062   2.734   3.319  0.00  0.00     0.274 C 
ENDROOT
BRANCH   1   8
ATOM      8  S   UNL d   1       0.987  -0.334   0.117  0.00  0.00     0.259 S 
ATOM      9  O   UNL d   1       0.619  -1.635   0.628  0.00  0.00    -0.204 OA
ATOM     10  O   UNL d   1       0.573   0.113  -1.196  0.00  0.00    -0.204 OA
BRANCH   8  11
ATOM     11  C   UNL d   1       2.762  -0.403   0.042  0.00  0.00     0.146 A 
ATOM     12  N   UNL d   1       3.452  -1.137  -0.912  0.00  0.00    -0.336 N 
ATOM     13  C   UNL d   1       4.822  -0.958  -0.761  0.00  0.00     0.111 A 
ATOM     14  C   UNL d   1       2.860  -2.001  -1.919  0.00  0.00     0.157 C 
ATOM     15  C   UNL d   1       4.989  -0.160   0.360  0.00  0.00     0.039 A 
ATOM     16  C   UNL d   1       3.718   0.167   0.867  0.00  0.00     0.046 A 
BRANCH  13  17
ATOM     17  C   UNL d   1       5.846  -1.525  -1.623  0.00  0.00     0.309 C 
ATOM     18  O   UNL d   1       5.653  -2.236  -2.598  0.00  0.00    -0.258 OA
BRANCH  17  19
ATOM     19  O   UNL d   1       7.077  -1.139  -1.182  0.00  0.00    -0.321 OA
ATOM     20  C   UNL d   1       8.166  -1.637  -1.958  0.00  0.00     0.213 C 
ENDBRANCH  17  19
ENDBRANCH  13  17
ENDBRANCH   8  11
ENDBRANCH   1   8
BRANCH   2  21
ATOM     21  C   UNL d   1      -1.675   3.971   1.302  0.00  0.00     0.311 C 
BRANCH  21  22
ATOM     22  C   UNL d   1      -1.367   5.096   0.338  0.00  0.00    -0.030 A 
ATOM     23  C   UNL d   1      -1.216   4.837  -1.035  0.00  0.00     0.009 A 
ATOM     24  C   UNL d   1      -1.017   5.880  -1.940  0.00  0.00     0.001 A 
ATOM     25  C   UNL d   1      -0.973   7.195  -1.485  0.00  0.00     0.000 A 
ATOM     26  C   UNL d   1      -1.110   7.466  -0.124  0.00  0.00     0.001 A 
ATOM     27  C   UNL d   1      -1.299   6.422   0.784  0.00  0.00     0.009 A 
ENDBRANCH  21  22
ENDBRANCH   2  21
TORSDOF 6
