REMARK  2 active torsions:
REMARK  status: ('A' for Active; 'I' for Inactive)
REMARK    1  A    between atoms: C_6  and  C_4 
REMARK    2  A    between atoms: C_12  and  C_6 
ROOT
ATOM      1  C   UNL d   1       1.184   0.883   0.004  0.00  0.00    -0.042 A 
ATOM      2  C   UNL d   1       0.712  -0.449   0.010  0.00  0.00    -0.019 A 
ATOM      3  C   UNL d   1      -0.734  -0.433  -0.017  0.00  0.00    -0.019 A 
ATOM      4  C   UNL d   1       3.441   0.097   0.081  0.00  0.00     0.015 A 
ATOM      5  C   UNL d   1      -1.172   0.908  -0.026  0.00  0.00    -0.043 A 
ATOM      6  C   UNL d   1       0.016   1.850  -0.024  0.00  0.00     0.078 A 
ATOM      7  C   UNL d   1       2.540   1.170   0.038  0.00  0.00     0.024 A 
ATOM      8  C   UNL d   1       1.596  -1.511   0.070  0.00  0.00     0.014 A 
ATOM      9  C   UNL d   1       2.966  -1.233   0.126  0.00  0.00     0.016 A 
ATOM     10  C   UNL d   1      -1.647  -1.474  -0.019  0.00  0.00     0.013 A 
ATOM     11  C   UNL d   1      -2.520   1.226  -0.023  0.00  0.00     0.008 A 
ATOM     12  C   UNL d   1      -3.008  -1.162  -0.018  0.00  0.00     0.001 A 
ATOM     13  C   UNL d   1      -3.442   0.174  -0.017  0.00  0.00     0.001 A 
ENDROOT
BRANCH   4  14
ATOM     14  C   UNL d   1       4.899   0.397   0.121  0.00  0.00     0.192 C 
ATOM     15  O   UNL d   1       5.287   1.431   0.660  0.00  0.00    -0.287 OA
BRANCH  14  16
ATOM     16  C   UNL d   1       5.900  -0.532  -0.475  0.00  0.00     0.015 A 
ATOM     17  C   UNL d   1       7.170  -0.614   0.108  0.00  0.00     0.015 A 
ATOM     18  C   UNL d   1       8.123  -1.492  -0.411  0.00  0.00     0.001 A 
ATOM     19  C   UNL d   1       7.813  -2.286  -1.515  0.00  0.00     0.000 A 
ATOM     20  C   UNL d   1       6.559  -2.189  -2.117  0.00  0.00     0.001 A 
ATOM     21  C   UNL d   1       5.608  -1.302  -1.608  0.00  0.00     0.015 A 
ENDBRANCH  14  16
ENDBRANCH   4  14
TORSDOF 2
