REMARK  6 active torsions:
REMARK  status: ('A' for Active; 'I' for Inactive)
REMARK    1  A    between atoms: N_2  and  C_1 
REMARK    2  A    between atoms: C_3  and  N_5 
REMARK    3  A    between atoms: N_6  and  C_3 
REMARK    4  A    between atoms: N_5  and  C_4 
REMARK    5  A    between atoms: C_8  and  N_6 
REMARK    6  A    between atoms: O_22  and  C_17 
ROOT
ATOM      1  N   UNL d   1       1.637  -2.611  -0.475  0.00  0.00    -0.331 N 
ATOM      2  H   UNL d   1       1.564  -3.414  -1.093  0.00  0.00     0.168 HD
ENDROOT
BRANCH   1   3
ATOM      3  C   UNL d   1       2.886  -2.078  -0.416  0.00  0.00     0.176 C 
ATOM      4  S   UNL d   1       3.246  -0.441  -0.302  0.00  0.00    -0.041 SA
BRANCH   3   5
ATOM      5  N   UNL d   1       3.963  -2.909  -0.516  0.00  0.00    -0.331 N 
ATOM      6  H   UNL d   1       4.817  -2.361  -0.556  0.00  0.00     0.168 HD
BRANCH   5   7
ATOM      7  C   UNL d   1       4.163  -4.305  -0.385  0.00  0.00     0.073 A 
ATOM      8  C   UNL d   1       3.186  -5.297  -0.222  0.00  0.00     0.145 A 
ATOM      9  C   UNL d   1       3.535  -6.633  -0.015  0.00  0.00     0.086 A 
ATOM     10  F   UNL d   1       1.877  -5.021  -0.276  0.00  0.00    -0.204 F 
ATOM     11  C   UNL d   1       4.872  -6.995   0.021  0.00  0.00     0.119 A 
ATOM     12  C   UNL d   1       5.866  -6.046  -0.163  0.00  0.00     0.044 A 
ATOM     13  F   UNL d   1       5.210  -8.273   0.234  0.00  0.00    -0.206 F 
ATOM     14  C   UNL d   1       5.511  -4.710  -0.369  0.00  0.00     0.036 A 
ENDBRANCH   5   7
ENDBRANCH   3   5
ENDBRANCH   1   3
BRANCH   1  15
ATOM     15  C   UNL d   1       0.421  -2.071   0.020  0.00  0.00     0.067 A 
ATOM     16  C   UNL d   1      -0.805  -2.284  -0.623  0.00  0.00     0.132 A 
ATOM     17  C   UNL d   1      -2.028  -1.917  -0.044  0.00  0.00     0.075 A 
ATOM     18  C   UNL d   1      -2.042  -1.304   1.206  0.00  0.00     0.070 A 
ATOM     19  C   UNL d   1      -0.831  -1.044   1.849  0.00  0.00     0.039 A 
ATOM     20  C   UNL d   1       0.387  -1.429   1.264  0.00  0.00     0.035 A 
BRANCH  16  21
ATOM     21  N   UNL d   1      -0.840  -2.796  -1.972  0.00  0.00    -0.113 N 
ATOM     22  O   UNL d   1      -0.284  -2.128  -2.850  0.00  0.00    -0.532 OA
ATOM     23  O   UNL d   1      -1.429  -3.872  -2.153  0.00  0.00    -0.532 OA
ENDBRANCH  16  21
BRANCH  18  24
ATOM     24  O   UNL d   1      -3.289  -1.026   1.690  0.00  0.00    -0.356 OA
ATOM     25  C   UNL d   1      -3.368  -0.303   2.913  0.00  0.00     0.210 C 
ENDBRANCH  18  24
ENDBRANCH   1  15
TORSDOF 6
