REMARK  3 active torsions:
REMARK  status: ('A' for Active; 'I' for Inactive)
REMARK    1  A    between atoms: C_2  and  C_1 
REMARK       I    between atoms: N_5  and  C_1 
REMARK    2  A    between atoms: C_13  and  N_5 
REMARK    3  A    between atoms: C_6  and  C_8 
ROOT
ATOM      1  C   UNL d   1      -3.292   0.907   0.387  0.00  0.00    -0.007 A 
ATOM      2  C   UNL d   1      -1.151   0.908  -0.809  0.00  0.00     0.035 A 
ATOM      3  C   UNL d   1      -1.890   0.991   0.369  0.00  0.00     0.043 A 
ATOM      4  C   UNL d   1      -3.946   0.843  -0.853  0.00  0.00     0.014 A 
ATOM      5  C   UNL d   1      -3.221   0.844  -2.051  0.00  0.00     0.003 A 
ATOM      6  C   UNL d   1      -1.825   0.876  -2.029  0.00  0.00     0.029 A 
ENDROOT
BRANCH   2   7
ATOM      7  N   UNL d   1       0.256   0.836  -0.804  0.00  0.00    -0.323 N 
ATOM      8  C   UNL d   1       1.042   0.457   0.271  0.00  0.00     0.257 C 
ATOM      9  O   UNL d   1       0.619   0.094   1.368  0.00  0.00    -0.267 OA
ATOM     10  H   UNL d   1       0.709   0.915  -1.707  0.00  0.00     0.169 HD
BRANCH   8  11
ATOM     11  C   UNL d   1       2.522   0.509   0.089  0.00  0.00     0.054 A 
ATOM     12  C   UNL d   1       3.202   0.415  -1.133  0.00  0.00     0.049 A 
ATOM     13 CL   UNL d   1       2.429   0.111  -2.652  0.00  0.00    -0.083 Cl
ATOM     14  C   UNL d   1       4.598   0.537  -1.167  0.00  0.00     0.025 A 
ATOM     15  C   UNL d   1       5.324   0.738   0.007  0.00  0.00     0.002 A 
ATOM     16  C   UNL d   1       4.663   0.799   1.228  0.00  0.00     0.001 A 
ATOM     17  C   UNL d   1       3.274   0.680   1.268  0.00  0.00     0.019 A 
ENDBRANCH   8  11
ENDBRANCH   2   7
BRANCH   1  18
ATOM     18  C   UNL d   1      -4.017   0.852   1.673  0.00  0.00     0.045 A 
ATOM     19  N   UNL d   1      -5.282   1.326   1.680  0.00  0.00    -0.345 N 
ATOM     20  C   UNL d   1      -5.943   1.289   2.854  0.00  0.00     0.077 A 
ATOM     21  HN  UNL d   1      -5.718   1.694   0.834  1.00  0.00     0.167 HD
ATOM     22  C   UNL d   1      -7.344   1.810   2.889  0.00  0.00     0.089 C 
ATOM     23  N   UNL d   1      -5.444   0.811   4.009  0.00  0.00    -0.356 N 
ATOM     24  C   UNL d   1      -4.192   0.336   3.960  0.00  0.00     0.091 A 
ATOM     25  HN  UNL d   1      -5.988   0.811   4.872  1.00  0.00     0.166 HD
ATOM     26  C   UNL d   1      -3.435   0.326   2.816  0.00  0.00     0.047 A 
ENDBRANCH   1  18
TORSDOF 3
