REMARK  4 active torsions:
REMARK  status: ('A' for Active; 'I' for Inactive)
REMARK    1  A    between atoms: C_2  and  C_1 
REMARK       I    between atoms: N_6  and  C_1 
REMARK       I    between atoms: C_3  and  N_5 
REMARK       I    between atoms: N_7  and  C_3 
REMARK    2  A    between atoms: N_5  and  C_4 
REMARK    3  A    between atoms: C_12  and  N_6 
REMARK    4  A    between atoms: C_11  and  N_7 
ROOT
ATOM      1  C   UNL d   1       0.666  -0.456  -1.735  0.00  0.00     0.058 A 
ATOM      2  C   UNL d   1       1.485  -0.915  -2.787  0.00  0.00     0.052 A 
ATOM      3  C   UNL d   1      -0.407   0.401  -2.002  0.00  0.00     0.019 A 
ATOM      4  C   UNL d   1       1.197  -0.539  -4.101  0.00  0.00     0.030 A 
ATOM      5  C   UNL d   1      -0.681   0.777  -3.319  0.00  0.00     0.001 A 
ATOM      6  C   UNL d   1       0.108   0.294  -4.365  0.00  0.00     0.002 A 
ENDROOT
BRANCH   2   7
ATOM      7  N   UNL d   1       2.556  -1.799  -2.512  0.00  0.00    -0.308 N 
ATOM      8  C   UNL d   1       3.866  -1.483  -2.869  0.00  0.00     0.325 C 
ATOM      9  N   UNL d   1       4.736  -2.286  -2.144  0.00  0.00    -0.309 N 
ATOM     10  O   UNL d   1       4.175  -0.565  -3.610  0.00  0.00    -0.247 OA
ATOM     11  H   UNL d   1       4.328  -3.112  -1.733  0.00  0.00     0.170 HD
ATOM     12  H   UNL d   1       2.505  -2.214  -1.593  0.00  0.00     0.170 HD
BRANCH   9  13
ATOM     13  C   UNL d   1       6.127  -2.143  -1.992  0.00  0.00     0.036 A 
ATOM     14  C   UNL d   1       6.884  -1.143  -2.604  0.00  0.00     0.031 A 
ATOM     15  C   UNL d   1       8.271  -1.095  -2.420  0.00  0.00     0.026 A 
ATOM     16  C   UNL d   1       8.900  -2.034  -1.607  0.00  0.00     0.034 A 
ATOM     17  C   UNL d   1       8.152  -3.015  -0.964  0.00  0.00     0.026 A 
ATOM     18 CL   UNL d   1      10.606  -1.990  -1.402  0.00  0.00    -0.084 Cl
ATOM     19  C   UNL d   1       6.769  -3.069  -1.157  0.00  0.00     0.031 A 
ENDBRANCH   9  13
ENDBRANCH   2   7
BRANCH   1  20
ATOM     20  C   UNL d   1       0.896  -0.890  -0.331  0.00  0.00     0.254 C 
ATOM     21  N   UNL d   1       2.209  -0.845   0.099  0.00  0.00    -0.351 N 
ATOM     22  H   UNL d   1       2.866  -0.324  -0.474  0.00  0.00     0.163 HD
ATOM     23  O   UNL d   1      -0.038  -1.301   0.340  0.00  0.00    -0.268 OA
BRANCH  21  24
ATOM     24  C   UNL d   1       2.737  -1.472   1.313  0.00  0.00     0.094 C 
ATOM     25  C   UNL d   1       2.880  -2.992   1.178  0.00  0.00     0.036 C 
ATOM     26  C   UNL d   1       1.687  -3.667   1.825  0.00  0.00     0.076 C 
ATOM     27  S   UNL d   1       1.441  -2.719   3.336  0.00  0.00    -0.167 SA
ATOM     28  C   UNL d   1       1.996  -1.143   2.619  0.00  0.00     0.099 C 
ENDBRANCH  21  24
ENDBRANCH   1  20
TORSDOF 4
