REMARK  2 active torsions:
REMARK  status: ('A' for Active; 'I' for Inactive)
REMARK    1  A    between atoms: N_6  and  C_1 
REMARK    2  A    between atoms: S_14  and  C_5 
ROOT
ATOM      1  C   UNL d   1       1.775   0.768   0.012  0.00  0.00     0.152 A 
ATOM      2  C   UNL d   1       0.056  -0.817   0.039  0.00  0.00     0.043 A 
ATOM      3  C   UNL d   1       0.402   0.598   0.029  0.00  0.00    -0.002 A 
ATOM      4  S   UNL d   1       2.621  -0.702   0.076  0.00  0.00    -0.058 SA
ATOM      5  C   UNL d   1       1.179  -1.628   0.050  0.00  0.00     0.057 A 
ATOM      6  C   UNL d   1      -1.342  -1.259   0.002  0.00  0.00     0.162 C 
ATOM      7  C   UNL d   1      -0.665   1.674  -0.015  0.00  0.00     0.052 C 
ATOM      8  C   UNL d   1      -2.079   1.145   0.351  0.00  0.00    -0.037 C 
ATOM      9  C   UNL d   1      -2.347  -0.189  -0.380  0.00  0.00     0.093 C 
ATOM     10  O   UNL d   1      -1.713  -2.402   0.240  0.00  0.00    -0.292 OA
ATOM     11  C   UNL d   1      -3.145   2.163  -0.096  0.00  0.00     0.015 C 
ATOM     12  C   UNL d   1      -2.205   0.965   1.879  0.00  0.00     0.015 C 
ENDROOT
BRANCH   1  13
ATOM     13  N   UNL d   1       2.529   2.006  -0.081  0.00  0.00    -0.108 N 
ATOM     14  O   UNL d   1       1.874   3.050  -0.207  0.00  0.00    -0.531 OA
ATOM     15  O   UNL d   1       3.764   1.947  -0.038  0.00  0.00    -0.531 OA
ENDBRANCH   1  13
BRANCH   5  16
ATOM     16  S   UNL d   1       1.291  -3.380  -0.094  0.00  0.00    -0.126 SA
ATOM     17  C   UNL d   1       0.758  -3.933   1.541  0.00  0.00     0.096 C 
ENDBRANCH   5  16
TORSDOF 2
