REMARK  5 active torsions:
REMARK  status: ('A' for Active; 'I' for Inactive)
REMARK    1  A    between atoms: N_2  and  S_1 
REMARK    2  A    between atoms: C_4  and  S_1 
REMARK    3  A    between atoms: N_6  and  C_3 
REMARK    4  A    between atoms: C_10  and  N_6 
REMARK    5  A    between atoms: N_11  and  C_15 
ROOT
ATOM      1  C   UNL d   1      -2.749  -9.905   0.606  0.00  0.00    -0.086 C 
ATOM      2  C   UNL d   1      -3.431 -10.777   0.142  0.00  0.00     0.015 C 
ATOM      3  C   UNL d   1      -1.876  -8.796   1.122  0.00  0.00     0.095 C 
ATOM      4  C   UNL d   1      -1.838  -8.898   2.652  0.00  0.00     0.044 C 
ATOM      5  C   UNL d   1      -0.478  -9.053   0.521  0.00  0.00     0.044 C 
ATOM      6  C   UNL d   1      -0.786  -7.997   3.280  0.00  0.00     0.004 C 
ATOM      7  C   UNL d   1       0.731  -8.442   1.228  0.00  0.00     0.004 C 
ATOM      8  C   UNL d   1       0.615  -8.243   2.734  0.00  0.00     0.000 C 
ENDROOT
BRANCH   3   9
ATOM      9  N   UNL d   1      -2.589  -7.567   0.680  0.00  0.00    -0.347 N 
ATOM     10  H   UNL d   1      -3.583  -7.743   0.564  0.00  0.00     0.163 HD
BRANCH   9  11
ATOM     11  C   UNL d   1      -2.411  -6.219   0.682  0.00  0.00     0.173 C 
ATOM     12  N   UNL d   1      -1.135  -5.747   0.771  0.00  0.00    -0.333 N 
ATOM     13  H   UNL d   1      -0.467  -6.435   0.480  0.00  0.00     0.168 HD
ATOM     14  S   UNL d   1      -3.824  -5.345   0.462  0.00  0.00    -0.041 SA
BRANCH  12  15
ATOM     15  C   UNL d   1      -0.635  -4.416   0.775  0.00  0.00     0.034 A 
ATOM     16  C   UNL d   1      -1.336  -3.301   1.243  0.00  0.00     0.031 A 
ATOM     17  C   UNL d   1      -0.814  -2.007   1.097  0.00  0.00     0.027 A 
ATOM     18  C   UNL d   1       0.424  -1.822   0.477  0.00  0.00     0.079 A 
ATOM     19  C   UNL d   1       1.189  -2.931   0.112  0.00  0.00     0.027 A 
ATOM     20  C   UNL d   1       0.660  -4.219   0.269  0.00  0.00     0.031 A 
BRANCH  18  21
ATOM     21  S   UNL d   1       1.047  -0.165   0.214  0.00  0.00     0.260 S 
ATOM     22  O   UNL d   1       0.424   0.687   1.204  0.00  0.00    -0.200 OA
ATOM     23  O   UNL d   1       2.488  -0.259   0.110  0.00  0.00    -0.200 OA
BRANCH  21  24
ATOM     24  N   UNL d   1       0.423   0.269  -1.333  0.00  0.00    -0.307 N 
ATOM     25  C   UNL d   1       1.061  -0.424  -2.483  0.00  0.00     0.135 C 
ATOM     26  C   UNL d   1       0.559   0.122  -3.817  0.00  0.00     0.021 C 
ATOM     27  C   UNL d   1      -0.960   0.066  -3.889  0.00  0.00     0.003 C 
ATOM     28  C   UNL d   1      -1.539   0.891  -2.750  0.00  0.00     0.021 C 
ATOM     29  C   UNL d   1      -1.060   0.370  -1.399  0.00  0.00     0.135 C 
ENDBRANCH  21  24
ENDBRANCH  18  21
ENDBRANCH  12  15
ENDBRANCH   9  11
ENDBRANCH   3   9
TORSDOF 5
