REMARK  13 active torsions:
REMARK  status: ('A' for Active; 'I' for Inactive)
REMARK    1  A    between atoms: C_13  and  C_1 
REMARK    2  A    between atoms: C_14  and  C_2 
REMARK    3  A    between atoms: C_6  and  C_3 
REMARK    4  A    between atoms: C_5  and  C_4 
REMARK    5  A    between atoms: N_21  and  C_11 
REMARK    6  A    between atoms: C_12  and  N_22 
REMARK    7  A    between atoms: O_23  and  C_13 
REMARK    8  A    between atoms: O_24  and  C_14 
REMARK    9  A    between atoms: N_22  and  N_21 
REMARK   10  A    between atoms: C_33  and  O_23 
REMARK   11  A    between atoms: C_34  and  O_24 
REMARK   12  A    between atoms: C_38  and  C_33 
REMARK   13  A    between atoms: C_37  and  C_34 
ROOT
ATOM      1  N   UNL d   1       0.176   2.711  -0.063  0.00  0.00    -0.118 N 
ATOM      2  H   UNL d   1       1.115   3.099   0.021  0.00  0.00     0.206 HD
ENDROOT
BRANCH   1   3
ATOM      3  C   UNL d   1       0.233   1.329   0.158  0.00  0.00     0.697 A 
ATOM      4  N   UNL d   1       1.440   0.758   0.142  0.00  0.00    -0.199 N 
ATOM      5  C   UNL d   1       1.492  -0.578   0.345  0.00  0.00     0.126 A 
ATOM      6  HN  UNL d   1       2.286   1.306  -0.015  1.00  0.00     0.183 HD
ATOM      7  C   UNL d   1       0.391  -1.384   0.566  0.00  0.00     0.087 A 
ATOM      8  C   UNL d   1      -0.828  -0.732   0.537  0.00  0.00     0.150 A 
ATOM      9  N   UNL d   1      -0.899   0.631   0.352  0.00  0.00    -0.184 N 
ATOM     10  HN  UNL d   1      -1.801   1.106   0.364  1.00  0.00     0.184 HD
BRANCH   7  11
ATOM     11  C   UNL d   1       0.656  -2.825   0.701  0.00  0.00     0.297 C 
ATOM     12  O   UNL d   1       1.502  -3.378   0.016  0.00  0.00    -0.259 OA
BRANCH  11  13
ATOM     13  O   UNL d   1      -0.072  -3.390   1.687  0.00  0.00    -0.313 OA
BRANCH  13  14
ATOM     14  C   UNL d   1       0.040  -4.827   1.796  0.00  0.00     0.217 C 
BRANCH  14  15
ATOM     15  C   UNL d   1       0.173  -5.259   3.241  0.00  0.00    -0.034 A 
ATOM     16  C   UNL d   1      -0.467  -4.552   4.270  0.00  0.00     0.011 A 
ATOM     17  C   UNL d   1      -0.345  -4.972   5.604  0.00  0.00     0.024 A 
ATOM     18  C   UNL d   1       0.397  -6.115   5.901  0.00  0.00     0.034 A 
ATOM     19  C   UNL d   1       1.003  -6.848   4.885  0.00  0.00     0.024 A 
ATOM     20 CL   UNL d   1       0.546  -6.622   7.538  0.00  0.00    -0.084 Cl
ATOM     21  C   UNL d   1       0.886  -6.422   3.562  0.00  0.00     0.011 A 
ENDBRANCH  14  15
ENDBRANCH  13  14
ENDBRANCH  11  13
ENDBRANCH   7  11
BRANCH   8  22
ATOM     22  C   UNL d   1      -2.166  -1.433   0.644  0.00  0.00     0.434 C 
ATOM     23  F   UNL d   1      -2.137  -2.792   0.610  0.00  0.00    -0.165 F 
ATOM     24  F   UNL d   1      -2.831  -1.106   1.791  0.00  0.00    -0.165 F 
ATOM     25  F   UNL d   1      -3.008  -1.088  -0.377  0.00  0.00    -0.165 F 
ENDBRANCH   8  22
ENDBRANCH   1   3
BRANCH   1  26
ATOM     26  N   UNL d   1      -0.854   3.503   0.405  0.00  0.00    -0.118 N 
ATOM     27  H   UNL d   1      -1.792   3.119   0.290  0.00  0.00     0.206 HD
BRANCH  26  28
ATOM     28  C   UNL d   1      -0.910   4.876   0.121  0.00  0.00     0.697 A 
ATOM     29  N   UNL d   1       0.224   5.556  -0.116  0.00  0.00    -0.184 N 
ATOM     30  C   UNL d   1       0.157   6.882  -0.478  0.00  0.00     0.150 A 
ATOM     31  HN  UNL d   1       1.129   5.092  -0.028  1.00  0.00     0.184 HD
ATOM     32  C   UNL d   1      -1.060   7.532  -0.575  0.00  0.00     0.087 A 
ATOM     33  C   UNL d   1      -2.166   6.747  -0.291  0.00  0.00     0.126 A 
ATOM     34  N   UNL d   1      -2.117   5.443   0.062  0.00  0.00    -0.199 N 
ATOM     35  HN  UNL d   1      -2.965   4.917   0.273  1.00  0.00     0.183 HD
BRANCH  30  36
ATOM     36  C   UNL d   1       1.490   7.528  -0.789  0.00  0.00     0.434 C 
ATOM     37  F   UNL d   1       1.441   8.678  -1.514  0.00  0.00    -0.165 F 
ATOM     38  F   UNL d   1       2.199   7.823   0.338  0.00  0.00    -0.165 F 
ATOM     39  F   UNL d   1       2.299   6.706  -1.523  0.00  0.00    -0.165 F 
ENDBRANCH  30  36
BRANCH  32  40
ATOM     40  C   UNL d   1      -1.339   8.891  -1.058  0.00  0.00     0.297 C 
ATOM     41  O   UNL d   1      -2.300   9.118  -1.778  0.00  0.00    -0.259 OA
BRANCH  40  42
ATOM     42  O   UNL d   1      -0.470   9.805  -0.589  0.00  0.00    -0.313 OA
BRANCH  42  43
ATOM     43  C   UNL d   1      -0.607  11.127  -1.149  0.00  0.00     0.217 C 
BRANCH  43  44
ATOM     44  C   UNL d   1      -0.662  12.135  -0.033  0.00  0.00    -0.034 A 
ATOM     45  C   UNL d   1       0.506  12.757   0.430  0.00  0.00     0.011 A 
ATOM     46  C   UNL d   1       0.450  13.666   1.490  0.00  0.00     0.024 A 
ATOM     47  C   UNL d   1      -0.774  13.957   2.090  0.00  0.00     0.034 A 
ATOM     48  C   UNL d   1      -1.944  13.357   1.632  0.00  0.00     0.024 A 
ATOM     49 CL   UNL d   1      -0.837  15.056   3.412  0.00  0.00    -0.084 Cl
ATOM     50  C   UNL d   1      -1.889  12.447   0.573  0.00  0.00     0.011 A 
ENDBRANCH  43  44
ENDBRANCH  42  43
ENDBRANCH  40  42
ENDBRANCH  32  40
ENDBRANCH  26  28
ENDBRANCH   1  26
TORSDOF 13
