REMARK  4 active torsions:
REMARK  status: ('A' for Active; 'I' for Inactive)
REMARK    1  A    between atoms: C_6  and  C_1 
REMARK    2  A    between atoms: N_7  and  C_2 
REMARK    3  A    between atoms: C_11  and  C_4 
REMARK       I    between atoms: N_15  and  C_6 
REMARK       I    between atoms: C_9  and  N_7 
REMARK    4  A    between atoms: C_12  and  C_9 
ROOT
ATOM      1  N   UNL d   1       4.595   3.230   2.063  0.00  0.00    -0.197 NA
ATOM      2  C   UNL d   1       4.606   2.895   0.956  0.00  0.00     0.068 C 
ATOM      3  C   UNL d   1       4.617   2.497  -0.451  0.00  0.00     0.226 C 
ENDROOT
BRANCH   3   4
ATOM      4  C   UNL d   1       3.601   1.413  -0.720  0.00  0.00     0.235 C 
ATOM      5  N   UNL d   1       2.291   1.742  -0.423  0.00  0.00    -0.325 N 
ATOM      6  H   UNL d   1       2.017   2.721  -0.345  0.00  0.00     0.169 HD
ATOM      7  O   UNL d   1       3.955   0.355  -1.242  0.00  0.00    -0.272 OA
BRANCH   5   8
ATOM      8  C   UNL d   1       1.242   0.820  -0.454  0.00  0.00     0.058 A 
ATOM      9  C   UNL d   1      -0.078   1.202  -0.626  0.00  0.00     0.099 A 
ATOM     10  S   UNL d   1      -1.130  -0.145  -0.584  0.00  0.00    -0.086 SA
ATOM     11  C   UNL d   1       0.147  -1.264  -0.324  0.00  0.00    -0.007 A 
ATOM     12  C   UNL d   1       1.360  -0.598  -0.302  0.00  0.00     0.046 A 
BRANCH   9  13
ATOM     13  C   UNL d   1      -0.582   2.542  -0.877  0.00  0.00     0.258 C 
ATOM     14  O   UNL d   1       0.129   3.546  -0.868  0.00  0.00    -0.267 OA
ATOM     15  N   UNL d   1      -1.914   2.659  -1.167  0.00  0.00    -0.365 N 
ATOM     16  H   UNL d   1      -2.506   1.843  -1.247  0.00  0.00     0.159 HD
ATOM     17  H   UNL d   1      -2.278   3.563  -1.431  0.00  0.00     0.159 HD
ENDBRANCH   9  13
BRANCH  11  18
ATOM     18  C   UNL d   1      -0.146  -2.760  -0.154  0.00  0.00    -0.018 C 
ATOM     19  C   UNL d   1      -0.766  -3.332  -1.444  0.00  0.00     0.020 C 
ATOM     20  C   UNL d   1       1.143  -3.556   0.141  0.00  0.00     0.020 C 
ATOM     21  C   UNL d   1      -1.113  -2.987   1.028  0.00  0.00     0.020 C 
ENDBRANCH  11  18
ENDBRANCH   5   8
ENDBRANCH   3   4
TORSDOF 4
