REMARK  7 active torsions:
REMARK  status: ('A' for Active; 'I' for Inactive)
REMARK    1  A    between atoms: N_4  and  C_2 
REMARK    2  A    between atoms: S_18  and  C_11 
REMARK    3  A    between atoms: C_13  and  O_19 
REMARK    4  A    between atoms: C_17  and  C_13 
REMARK    5  A    between atoms: C_22  and  S_18 
REMARK    6  A    between atoms: O_19  and  C_23 
REMARK    7  A    between atoms: C_23  and  C_22 
ROOT
ATOM      1  C   UNL d   1      -1.878  -0.621  -1.173  0.00  0.00     0.119 A 
ATOM      2  C   UNL d   1      -1.319  -1.420  -0.155  0.00  0.00     0.133 A 
ATOM      3  C   UNL d   1      -1.794   0.844  -1.103  0.00  0.00     0.104 A 
ATOM      4  N   UNL d   1      -2.528  -0.929  -2.303  0.00  0.00    -0.237 N 
ATOM      5  HN  UNL d   1      -2.756  -1.866  -2.637  1.00  0.00     0.197 HD
ATOM      6  C   UNL d   1      -0.680  -0.743   0.908  0.00  0.00     0.040 A 
ATOM      7  N   UNL d   1      -2.379   1.342  -2.202  0.00  0.00    -0.238 N 
ATOM      8  HN  UNL d   1      -2.473   2.327  -2.451  1.00  0.00     0.197 HD
ATOM      9  O   UNL d   1      -2.828   0.261  -2.926  0.00  0.00    -0.156 OA
ATOM     10  C   UNL d   1      -1.171   1.514  -0.019  0.00  0.00     0.031 A 
ATOM     11  C   UNL d   1      -0.608   0.673   0.964  0.00  0.00     0.023 A 
ENDROOT
BRANCH  10  12
ATOM     12  S   UNL d   1      -0.999   3.271   0.037  0.00  0.00    -0.125 SA
BRANCH  12  13
ATOM     13  C   UNL d   1      -2.759   3.797   0.021  0.00  0.00     0.106 C 
BRANCH  13  14
ATOM     14  C   UNL d   1      -2.872   5.324   0.032  0.00  0.00     0.189 C 
BRANCH  14  15
ATOM     15  O   UNL d   1      -2.293   5.897   1.215  0.00  0.00    -0.317 OA
BRANCH  15  16
ATOM     16  C   UNL d   1      -3.043   5.814   2.340  0.00  0.00     0.293 C 
ATOM     17  O   UNL d   1      -4.175   5.361   2.410  0.00  0.00    -0.259 OA
BRANCH  16  18
ATOM     18  C   UNL d   1      -2.273   6.310   3.512  0.00  0.00     0.039 A 
ATOM     19  C   UNL d   1      -2.897   6.305   4.766  0.00  0.00     0.017 A 
ATOM     20  C   UNL d   1      -2.197   6.718   5.901  0.00  0.00     0.001 A 
ATOM     21  C   UNL d   1      -0.872   7.139   5.789  0.00  0.00     0.000 A 
ATOM     22  C   UNL d   1      -0.246   7.154   4.543  0.00  0.00     0.001 A 
ATOM     23  C   UNL d   1      -0.943   6.742   3.405  0.00  0.00     0.017 A 
ENDBRANCH  16  18
ENDBRANCH  15  16
ENDBRANCH  14  15
ENDBRANCH  13  14
ENDBRANCH  12  13
ENDBRANCH  10  12
BRANCH   2  24
ATOM     24  N   UNL d   1      -1.384  -2.868  -0.204  0.00  0.00    -0.113 N 
ATOM     25  O   UNL d   1      -1.950  -3.414  -1.156  0.00  0.00    -0.532 OA
ATOM     26  O   UNL d   1      -0.855  -3.481   0.736  0.00  0.00    -0.532 OA
ENDBRANCH   2  24
TORSDOF 7
