REMARK  8 active torsions:
REMARK  status: ('A' for Active; 'I' for Inactive)
REMARK    1  A    between atoms: C_8  and  C_1 
REMARK    2  A    between atoms: S_12  and  C_2 
REMARK    3  A    between atoms: C_5  and  C_11 
REMARK    4  A    between atoms: O_23  and  C_5 
REMARK    5  A    between atoms: N_6  and  O_23 
REMARK    6  A    between atoms: C_25  and  S_12 
REMARK    7  A    between atoms: C_15  and  C_13 
REMARK    8  A    between atoms: C_27  and  C_25 
ROOT
ATOM      1  C   UNL d   1      -0.035 -12.229  -1.878  0.00  0.00     0.144 A 
ATOM      2  N   UNL d   1       0.278 -11.015  -1.390  0.00  0.00    -0.336 N 
ATOM      3  HN  UNL d   1       0.611 -10.885  -0.435  1.00  0.00     0.168 HD
ATOM      4  N   UNL d   1      -0.474 -12.463  -3.127  0.00  0.00    -0.347 N 
ATOM      5  HN  UNL d   1      -0.693 -13.406  -3.450  1.00  0.00     0.167 HD
ATOM      6  C   UNL d   1       0.124  -9.982  -2.242  0.00  0.00     0.052 A 
ATOM      7  C   UNL d   1      -0.612 -11.390  -3.932  0.00  0.00     0.092 A 
ATOM      8  C   UNL d   1      -0.322 -10.110  -3.539  0.00  0.00     0.048 A 
ENDROOT
BRANCH   6   9
ATOM      9  C   UNL d   1       0.442  -8.643  -1.693  0.00  0.00     0.144 C 
ATOM     10  N   UNL d   1       0.286  -7.578  -2.413  0.00  0.00    -0.266 N 
ATOM     11  HN  UNL d   1      -0.042  -7.581  -3.378  1.00  0.00     0.194 HD
BRANCH  10  12
ATOM     12  O   UNL d   1       0.627  -6.412  -1.692  0.00  0.00    -0.195 OA
BRANCH  12  13
ATOM     13  C   UNL d   1       0.521  -5.333  -2.536  0.00  0.00     0.315 C 
ATOM     14  O   UNL d   1       0.224  -5.346  -3.721  0.00  0.00    -0.257 OA
BRANCH  13  15
ATOM     15  C   UNL d   1       0.888  -4.072  -1.840  0.00  0.00     0.041 A 
ATOM     16  C   UNL d   1       1.414  -3.030  -2.618  0.00  0.00     0.018 A 
ATOM     17  C   UNL d   1       1.754  -1.807  -2.033  0.00  0.00     0.017 A 
ATOM     18  C   UNL d   1       1.562  -1.599  -0.659  0.00  0.00     0.048 A 
ATOM     19  C   UNL d   1       1.020  -2.642   0.113  0.00  0.00     0.017 A 
ATOM     20  C   UNL d   1       0.686  -3.873  -0.471  0.00  0.00     0.018 A 
BRANCH  18  21
ATOM     21  C   UNL d   1       1.943  -0.272  -0.042  0.00  0.00     0.417 C 
ATOM     22  F   UNL d   1       1.665  -0.190   1.289  0.00  0.00    -0.166 F 
ATOM     23  F   UNL d   1       1.300   0.779  -0.623  0.00  0.00    -0.166 F 
ATOM     24  F   UNL d   1       3.273  -0.008  -0.163  0.00  0.00    -0.166 F 
ENDBRANCH  18  21
ENDBRANCH  13  15
ENDBRANCH  12  13
ENDBRANCH  10  12
ENDBRANCH   6   9
BRANCH   1  25
ATOM     25  S   UNL d   1       0.066 -13.589  -0.739  0.00  0.00    -0.089 SA
BRANCH  25  26
ATOM     26  C   UNL d   1       0.287 -14.982  -1.892  0.00  0.00     0.121 C 
BRANCH  26  27
ATOM     27  C   UNL d   1       0.385 -16.300  -1.151  0.00  0.00    -0.048 A 
ATOM     28  C   UNL d   1      -0.758 -17.090  -0.942  0.00  0.00     0.009 A 
ATOM     29  C   UNL d   1      -0.671 -18.300  -0.245  0.00  0.00     0.024 A 
ATOM     30  C   UNL d   1       0.558 -18.727   0.252  0.00  0.00     0.034 A 
ATOM     31  C   UNL d   1       1.700 -17.954   0.060  0.00  0.00     0.024 A 
ATOM     32 CL   UNL d   1       0.664 -20.214   1.111  0.00  0.00    -0.084 Cl
ATOM     33  C   UNL d   1       1.614 -16.744  -0.637  0.00  0.00     0.009 A 
ENDBRANCH  26  27
ENDBRANCH  25  26
ENDBRANCH   1  25
TORSDOF 8
