REMARK  3 active torsions:
REMARK  status: ('A' for Active; 'I' for Inactive)
REMARK       I    between atoms: C_2  and  N_1 
REMARK    1  A    between atoms: C_9  and  C_2 
REMARK       I    between atoms: C_3  and  N_4 
REMARK    2  A    between atoms: C_10  and  C_3 
REMARK    3  A    between atoms: N_4  and  C_11 
ROOT
ATOM      1  N   UNL d   1       1.385  -0.046   0.209  0.00  0.00    -0.352 N 
ATOM      2  C   UNL d   1       2.460  -0.040   1.101  0.00  0.00     0.224 C 
ATOM      3  C   UNL d   1       0.702  -1.232  -0.294  0.00  0.00     0.127 C 
ATOM      4  C   UNL d   1       0.786   1.222  -0.199  0.00  0.00     0.127 C 
ATOM      5  O   UNL d   1       2.937   1.032   1.500  0.00  0.00    -0.273 OA
ATOM      6  C   UNL d   1      -1.473   0.080  -0.242  0.00  0.00     0.087 C 
ATOM      7  C   UNL d   1      -0.664   1.287   0.269  0.00  0.00     0.045 C 
ATOM      8  C   UNL d   1      -0.763  -1.227   0.149  0.00  0.00     0.045 C 
ENDROOT
BRANCH   6   9
ATOM      9  N   UNL d   1      -1.708   0.138  -1.688  0.00  0.00    -0.356 N 
ATOM     10  C   UNL d   1      -2.486   1.127  -2.255  0.00  0.00     0.222 C 
ATOM     11  O   UNL d   1      -3.024   2.005  -1.583  0.00  0.00    -0.273 OA
ATOM     12  H   UNL d   1      -1.571  -0.703  -2.234  0.00  0.00     0.162 HD
BRANCH  10  13
ATOM     13  C   UNL d   1      -2.666   1.008  -3.773  0.00  0.00     0.078 C 
ATOM     14  C   UNL d   1      -1.337   0.933  -4.541  0.00  0.00     0.014 C 
ATOM     15  C   UNL d   1      -0.600   2.270  -4.588  0.00  0.00     0.001 C 
ATOM     16  C   UNL d   1      -1.484   3.391  -5.126  0.00  0.00     0.000 C 
ATOM     17  C   UNL d   1      -2.801   3.490  -4.364  0.00  0.00     0.001 C 
ATOM     18  C   UNL d   1      -3.537   2.149  -4.324  0.00  0.00     0.014 C 
ENDBRANCH  10  13
ENDBRANCH   6   9
BRANCH   2  19
ATOM     19  C   UNL d   1       3.038  -1.404   1.566  0.00  0.00     0.078 C 
ATOM     20  C   UNL d   1       2.179  -2.295   2.507  0.00  0.00     0.014 C 
ATOM     21  C   UNL d   1       3.461  -2.642   3.281  0.00  0.00     0.002 C 
ATOM     22  C   UNL d   1       4.077  -1.351   2.728  0.00  0.00     0.014 C 
ENDBRANCH   2  19
TORSDOF 3
