REMARK  2 active torsions:
REMARK  status: ('A' for Active; 'I' for Inactive)
REMARK    1  A    between atoms: C_12  and  N_4 
REMARK    2  A    between atoms: C_15  and  C_11 
ROOT
ATOM      1  C   UNL d   1       0.236  -0.745  -0.065  0.00  0.00     0.123 A 
ATOM      2  C   UNL d   1       1.543  -1.171  -0.100  0.00  0.00     0.141 A 
ATOM      3  C   UNL d   1       0.290   0.640   0.076  0.00  0.00     0.141 A 
ATOM      4  N   UNL d   1       2.315  -0.005   0.007  0.00  0.00    -0.238 N 
ATOM      5  N   UNL d   1       1.530   1.099   0.208  0.00  0.00    -0.276 N 
ATOM      6  HN  UNL d   1       1.828   2.053   0.412  1.00  0.00     0.189 HD
ATOM      7  C   UNL d   1      -1.003  -1.470  -0.105  0.00  0.00     0.264 A 
ATOM      8  N   UNL d   1      -2.130  -0.677  -0.090  0.00  0.00    -0.308 N 
ATOM      9  HN  UNL d   1      -3.052  -1.110  -0.143  1.00  0.00     0.170 HD
ATOM     10  N   UNL d   1      -0.854   1.338   0.094  0.00  0.00    -0.326 N 
ATOM     11  C   UNL d   1      -2.031   0.620  -0.010  0.00  0.00     0.120 A 
ATOM     12  O   UNL d   1      -1.045  -2.696  -0.133  0.00  0.00    -0.267 OA
ATOM     13  N   UNL d   1       2.033  -2.439  -0.162  0.00  0.00    -0.383 N 
ATOM     14  H   UNL d   1      -0.848   2.340   0.228  0.00  0.00     0.169 HD
ATOM     15  H   UNL d   1       1.371  -3.214  -0.053  0.00  0.00     0.157 HD
ATOM     16  H   UNL d   1       2.946  -2.663   0.230  0.00  0.00     0.157 HD
ENDROOT
BRANCH   4  17
ATOM     17  C   UNL d   1       3.730   0.124  -0.056  0.00  0.00     0.058 A 
ATOM     18  C   UNL d   1       4.500  -0.769  -0.814  0.00  0.00     0.031 A 
ATOM     19  C   UNL d   1       5.891  -0.649  -0.837  0.00  0.00     0.002 A 
ATOM     20  C   UNL d   1       6.517   0.353  -0.100  0.00  0.00     0.000 A 
ATOM     21  C   UNL d   1       5.754   1.259   0.638  0.00  0.00     0.002 A 
ATOM     22  C   UNL d   1       4.361   1.161   0.646  0.00  0.00     0.031 A 
ENDBRANCH   4  17
BRANCH  11  23
ATOM     23  C   UNL d   1      -3.324   1.378  -0.046  0.00  0.00     0.008 A 
ATOM     24  C   UNL d   1      -4.466   0.812   0.535  0.00  0.00     0.015 A 
ATOM     25  C   UNL d   1      -5.692   1.474   0.461  0.00  0.00     0.001 A 
ATOM     26  C   UNL d   1      -5.782   2.697  -0.203  0.00  0.00     0.000 A 
ATOM     27  C   UNL d   1      -4.648   3.263  -0.786  0.00  0.00     0.001 A 
ATOM     28  C   UNL d   1      -3.416   2.607  -0.708  0.00  0.00     0.015 A 
ENDBRANCH  11  23
TORSDOF 2
