REMARK  3 active torsions:
REMARK  status: ('A' for Active; 'I' for Inactive)
REMARK    1  A    between atoms: C_2  and  S_1 
REMARK    2  A    between atoms: N_3  and  S_1 
REMARK    3  A    between atoms: N_13  and  C_10 
ROOT
ATOM      1  S   UNL d   1       1.077   0.043   0.007  0.00  0.00     0.268 S 
ATOM      2  O   UNL d   1       0.526   0.156  -1.327  0.00  0.00    -0.200 OA
ATOM      3  O   UNL d   1       2.500   0.054   0.260  0.00  0.00    -0.200 OA
ENDROOT
BRANCH   1   4
ATOM      4  C   UNL d   1       0.549  -1.466   0.605  0.00  0.00     0.135 A 
ATOM      5  C   UNL d   1       0.738  -1.956   1.876  0.00  0.00     0.098 A 
ATOM      6  O   UNL d   1       0.172  -3.191   1.958  0.00  0.00    -0.241 OA
ATOM      7  C   UNL d   1       1.393  -1.469   3.102  0.00  0.00     0.081 C 
ATOM      8  N   UNL d   1      -0.374  -3.533   0.737  0.00  0.00    -0.264 N 
ATOM      9  C   UNL d   1      -0.131  -2.498  -0.081  0.00  0.00     0.054 A 
ATOM     10  HN  UNL d   1      -0.863  -4.398   0.505  1.00  0.00     0.194 HD
ATOM     11  C   UNL d   1      -0.568  -2.579  -1.495  0.00  0.00     0.072 C 
ENDBRANCH   1   4
BRANCH   1  12
ATOM     12  N   UNL d   1       0.300   1.030   1.026  0.00  0.00    -0.277 N 
ATOM     13  C   UNL d   1       0.521   2.289   0.873  0.00  0.00     0.188 C 
ATOM     14  HN  UNL d   1      -0.328   0.676   1.748  1.00  0.00     0.179 HD
BRANCH  13  15
ATOM     15  N   UNL d   1      -0.023   3.308   1.623  0.00  0.00    -0.385 N 
ATOM     16  C   UNL d   1      -1.003   3.051   2.669  0.00  0.00     0.149 C 
ATOM     17  C   UNL d   1       0.183   4.709   1.290  0.00  0.00     0.149 C 
ENDBRANCH  13  15
ENDBRANCH   1  12
TORSDOF 3
