REMARK  5 active torsions:
REMARK  status: ('A' for Active; 'I' for Inactive)
REMARK    1  A    between atoms: C_9  and  C_14 
REMARK    2  A    between atoms: O_16  and  C_9 
REMARK    3  A    between atoms: O_13  and  C_12 
REMARK    4  A    between atoms: C_14  and  O_13 
REMARK    5  A    between atoms: C_18  and  O_16 
ROOT
ATOM      1  C   UNL d   1       0.382   0.806  -0.053  0.00  0.00     0.092 A 
ATOM      2  C   UNL d   1      -0.538  -1.483  -0.011  0.00  0.00    -0.043 A 
ATOM      3  O   UNL d   1      -0.926   1.333  -0.046  0.00  0.00    -0.275 OA
ATOM      4  C   UNL d   1      -2.028   0.503  -0.013  0.00  0.00     0.288 A 
ATOM      5  C   UNL d   1       0.616  -0.574  -0.022  0.00  0.00     0.004 A 
ATOM      6  C   UNL d   1      -1.769  -0.946  -0.002  0.00  0.00     0.090 A 
ATOM      7  C   UNL d   1       1.413   1.749  -0.078  0.00  0.00     0.075 A 
ATOM      8  C   UNL d   1       1.951  -0.991   0.004  0.00  0.00     0.017 A 
ATOM      9  O   UNL d   1      -3.176   0.931   0.004  0.00  0.00    -0.260 OA
ATOM     10  C   UNL d   1       2.731   1.310  -0.072  0.00  0.00     0.072 A 
ATOM     11  C   UNL d   1       2.994  -0.058  -0.013  0.00  0.00     0.038 A 
ATOM     12  C   UNL d   1      -0.394  -2.977  -0.014  0.00  0.00     0.049 C 
ENDROOT
BRANCH  10  13
ATOM     13  O   UNL d   1       3.838   2.103  -0.065  0.00  0.00    -0.341 OA
BRANCH  13  14
ATOM     14  C   UNL d   1       3.712   3.377  -0.686  0.00  0.00     0.286 C 
BRANCH  14  15
ATOM     15  C   UNL d   1       5.013   4.145  -0.532  0.00  0.00     0.283 C 
ATOM     16  O   UNL d   1       6.017   3.755   0.049  0.00  0.00    -0.263 OA
BRANCH  15  17
ATOM     17  O   UNL d   1       4.853   5.394  -1.064  0.00  0.00    -0.320 OA
BRANCH  17  18
ATOM     18  C   UNL d   1       5.797   6.373  -0.608  0.00  0.00     0.174 C 
ATOM     19  C   UNL d   1       5.240   7.001   0.657  0.00  0.00     0.034 C 
ENDBRANCH  17  18
ENDBRANCH  15  17
ENDBRANCH  14  15
ENDBRANCH  13  14
ENDBRANCH  10  13
TORSDOF 5
