REMARK  5 active torsions:
REMARK  status: ('A' for Active; 'I' for Inactive)
REMARK    1  A    between atoms: S_2  and  C_1 
REMARK    2  A    between atoms: C_4  and  C_1 
REMARK    3  A    between atoms: S_10  and  C_3 
REMARK    4  A    between atoms: S_11  and  C_3 
REMARK    5  A    between atoms: N_5  and  C_4 
ROOT
ATOM      1  C   UNL d   1       0.951   0.026   0.083  0.00  0.00     0.144 C 
ATOM      2  C   UNL d   1       0.237  -0.961  -0.515  0.00  0.00     0.067 C 
ENDROOT
BRANCH   1   3
ATOM      3  S   UNL d   1       0.253   1.417   0.854  0.00  0.00     0.182 S 
ATOM      4  O   UNL d   1       1.318   2.246   1.394  0.00  0.00    -0.222 OA
ATOM      5  O   UNL d   1      -0.732   2.036  -0.014  0.00  0.00    -0.222 OA
ATOM      6  C   UNL d   1      -0.602   0.772   2.270  0.00  0.00     0.168 C 
ENDBRANCH   1   3
BRANCH   1   7
ATOM      7  C   UNL d   1       2.471   0.026   0.083  0.00  0.00    -0.023 C 
BRANCH   7   8
ATOM      8  N   UNL d   1       3.732   0.026   0.083  0.00  0.00    -0.365 N 
ATOM      9  HN2 UNL d   1       2.712   0.026   0.083  1.00  0.00     0.165 HD
ATOM     10  HN1 UNL d   1       4.752   0.026   0.083  1.00  0.00     0.165 HD
ENDBRANCH   7   8
ENDBRANCH   1   7
BRANCH   2  11
ATOM     11  S   UNL d   1       1.109  -2.385  -1.113  0.00  0.00    -0.125 SA
ATOM     12  C   UNL d   1       0.124  -3.009  -2.489  0.00  0.00     0.096 C 
ENDBRANCH   2  11
BRANCH   2  13
ATOM     13  S   UNL d   1      -1.515  -1.041  -0.518  0.00  0.00    -0.125 SA
ATOM     14  C   UNL d   1      -1.927  -0.149  -2.040  0.00  0.00     0.096 C 
ENDBRANCH   2  13
TORSDOF 5
