REMARK  4 active torsions:
REMARK  status: ('A' for Active; 'I' for Inactive)
REMARK    1  A    between atoms: C_11  and  C_1 
REMARK    2  A    between atoms: C_2  and  N_12 
REMARK    3  A    between atoms: C_15  and  N_3 
REMARK       I    between atoms: N_12  and  C_11 
REMARK    4  A    between atoms: O_27  and  C_16 
ROOT
ATOM      1  C   UNL d   1      -0.699   2.506  -0.174  0.00  0.00     0.260 C 
ATOM      2  N   UNL d   1      -0.292   3.351   0.804  0.00  0.00    -0.310 N 
ATOM      3  O   UNL d   1      -1.433   2.824  -1.112  0.00  0.00    -0.267 OA
ATOM      4  H   UNL d   1       0.051   2.984   1.680  0.00  0.00     0.170 HD
ENDROOT
BRANCH   1   5
ATOM      5  C   UNL d   1      -0.263   1.126  -0.018  0.00  0.00     0.073 A 
ATOM      6  C   UNL d   1       0.961   0.631   0.427  0.00  0.00     0.048 A 
ATOM      7  N   UNL d   1       0.897  -0.755   0.288  0.00  0.00    -0.260 N 
ATOM      8  C   UNL d   1       2.205   1.375   0.779  0.00  0.00     0.071 C 
ATOM      9  N   UNL d   1      -0.270  -1.139  -0.280  0.00  0.00    -0.304 N 
ATOM     10  C   UNL d   1      -0.972  -0.020  -0.433  0.00  0.00     0.126 A 
ATOM     11  HN  UNL d   1      -0.551  -2.085  -0.536  1.00  0.00     0.186 HD
BRANCH   7  12
ATOM     12  C   UNL d   1       1.906  -1.726   0.552  0.00  0.00     0.056 A 
ATOM     13  C   UNL d   1       2.820  -1.566   1.603  0.00  0.00     0.034 A 
ATOM     14  C   UNL d   1       3.882  -2.462   1.747  0.00  0.00     0.044 A 
ATOM     15  C   UNL d   1       4.023  -3.512   0.848  0.00  0.00     0.116 A 
ATOM     16  C   UNL d   1       3.092  -3.718  -0.163  0.00  0.00     0.044 A 
ATOM     17  F   UNL d   1       5.075  -4.334   0.955  0.00  0.00    -0.206 F 
ATOM     18  C   UNL d   1       2.015  -2.838  -0.300  0.00  0.00     0.034 A 
ENDBRANCH   7  12
ENDBRANCH   1   5
BRANCH   2  19
ATOM     19  C   UNL d   1      -0.299   4.727   0.763  0.00  0.00     0.115 C 
ATOM     20  N   UNL d   1      -0.125   5.365   1.937  0.00  0.00    -0.286 N 
ATOM     21  N   UNL d   1       0.048   6.646   1.525  0.00  0.00    -0.298 N 
ATOM     22  HN  UNL d   1      -0.125   4.986   2.884  1.00  0.00     0.188 HD
ATOM     23  C   UNL d   1      -0.974   7.604   1.920  0.00  0.00     0.177 C 
ATOM     24  C   UNL d   1       0.599   6.573   0.258  0.00  0.00     0.046 C 
ATOM     25  C   UNL d   1      -0.275   5.661  -0.358  0.00  0.00     0.163 C 
ATOM     26  C   UNL d   1       1.885   6.805  -0.255  0.00  0.00     0.028 C 
ATOM     27  C   UNL d   1      -0.094   5.554  -1.753  0.00  0.00     0.063 C 
ATOM     28  C   UNL d   1       1.232   5.462  -2.184  0.00  0.00     0.033 C 
ATOM     29  C   UNL d   1       2.216   6.107  -1.433  0.00  0.00     0.004 C 
BRANCH  27  30
ATOM     30  O   UNL d   1      -0.857   6.267  -2.703  0.00  0.00    -0.359 OA
ATOM     31  C   UNL d   1      -1.403   7.514  -2.255  0.00  0.00     0.209 C 
ENDBRANCH  27  30
ENDBRANCH   2  19
TORSDOF 4
