REMARK  4 active torsions:
REMARK  status: ('A' for Active; 'I' for Inactive)
REMARK       I    between atoms: C_2  and  N_1 
REMARK       I    between atoms: C_3  and  N_1 
REMARK       I    between atoms: N_8  and  C_2 
REMARK    1  A    between atoms: C_12  and  C_3 
REMARK    2  A    between atoms: C_4  and  C_9 
REMARK    3  A    between atoms: C_7  and  C_14 
REMARK    4  A    between atoms: C_26  and  N_8 
ROOT
ATOM      1  N   UNL d   1       1.309  -0.001   0.180  0.00  0.00    -0.275 N 
ATOM      2  C   UNL d   1       0.485  -0.915   0.794  0.00  0.00     0.327 C 
ATOM      3  C   UNL d   1       2.676   0.169   0.299  0.00  0.00     0.259 C 
ATOM      4  N   UNL d   1       1.091  -1.763   1.682  0.00  0.00    -0.309 N 
ATOM      5  O   UNL d   1      -0.706  -0.885   0.493  0.00  0.00    -0.247 OA
ATOM      6  O   UNL d   1       3.403  -0.555   0.971  0.00  0.00    -0.267 OA
ATOM      7  H   UNL d   1       0.795   0.560  -0.482  0.00  0.00     0.173 HD
ATOM      8  H   UNL d   1       2.077  -1.576   1.858  0.00  0.00     0.170 HD
ENDROOT
BRANCH   4   9
ATOM      9  C   UNL d   1       0.519  -2.875   2.328  0.00  0.00     0.036 A 
ATOM     10  C   UNL d   1      -0.766  -3.342   2.060  0.00  0.00     0.030 A 
ATOM     11  C   UNL d   1      -1.249  -4.502   2.677  0.00  0.00     0.016 A 
ATOM     12  C   UNL d   1      -0.461  -5.219   3.585  0.00  0.00    -0.001 A 
ATOM     13  C   UNL d   1       0.818  -4.726   3.878  0.00  0.00     0.016 A 
ATOM     14  C   UNL d   1       1.305  -3.569   3.252  0.00  0.00     0.030 A 
BRANCH  12  15
ATOM     15  C   UNL d   1      -0.967  -6.450   4.175  0.00  0.00     0.102 A 
ATOM     16  O   UNL d   1      -0.153  -7.114   5.057  0.00  0.00    -0.304 OA
ATOM     17  C   UNL d   1      -0.874  -8.212   5.411  0.00  0.00     0.233 A 
ATOM     18  N   UNL d   1      -2.056  -8.313   4.851  0.00  0.00    -0.354 N 
ATOM     19  C   UNL d   1      -2.123  -7.194   4.059  0.00  0.00     0.127 A 
ATOM     20  HN  UNL d   1      -2.755  -9.046   4.974  1.00  0.00     0.166 HD
ENDBRANCH  12  15
ENDBRANCH   4   9
BRANCH   3  21
ATOM     21  C   UNL d   1       3.247   1.306  -0.472  0.00  0.00     0.032 A 
ATOM     22  C   UNL d   1       2.520   2.488  -0.675  0.00  0.00     0.018 A 
ATOM     23  C   UNL d   1       3.097   3.555  -1.367  0.00  0.00     0.017 A 
ATOM     24  C   UNL d   1       4.408   3.462  -1.859  0.00  0.00     0.048 A 
ATOM     25  C   UNL d   1       5.127   2.273  -1.656  0.00  0.00     0.017 A 
ATOM     26  C   UNL d   1       4.552   1.203  -0.963  0.00  0.00     0.018 A 
BRANCH  24  27
ATOM     27  C   UNL d   1       5.056   4.628  -2.571  0.00  0.00     0.417 C 
ATOM     28  F   UNL d   1       4.243   5.716  -2.678  0.00  0.00    -0.166 F 
ATOM     29  F   UNL d   1       6.179   5.061  -1.937  0.00  0.00    -0.166 F 
ATOM     30  F   UNL d   1       5.434   4.317  -3.840  0.00  0.00    -0.166 F 
ENDBRANCH  24  27
ENDBRANCH   3  21
TORSDOF 4
