REMARK  0 active torsions:
REMARK  status: ('A' for Active; 'I' for Inactive)
ROOT
ATOM      1  N   UNL d   1       0.897   0.518   0.000  0.00  0.00    -0.090 N 
ATOM      2  C   UNL d   1       1.639  -0.614   0.001  0.00  0.00     0.722 A 
ATOM      3  C   UNL d   1       1.781   1.558   0.000  0.00  0.00     0.360 A 
ATOM      4  N   UNL d   1       1.070  -1.861   0.001  0.00  0.00    -0.130 N 
ATOM      5  HN  UNL d   1       1.663  -2.691   0.001  1.00  0.00     0.205 HD
ATOM      6  N   UNL d   1       2.928  -0.413   0.001  0.00  0.00    -0.126 N 
ATOM      7  HN  UNL d   1       3.674  -1.108   0.001  1.00  0.00     0.206 HD
ATOM      8  N   UNL d   1      -0.185  -1.986   0.001  0.00  0.00    -0.284 N 
ATOM      9  HN  UNL d   1      -0.605  -2.916   0.001  1.00  0.00     0.187 HD
ATOM     10  C   UNL d   1      -0.484   0.460   0.000  0.00  0.00     0.090 A 
ATOM     11  C   UNL d   1      -1.012  -0.837   0.001  0.00  0.00     0.077 A 
ATOM     12  N   UNL d   1       3.042   0.957   0.001  0.00  0.00    -0.236 N 
ATOM     13  C   UNL d   1      -1.317   1.578  -0.000  0.00  0.00     0.034 A 
ATOM     14  C   UNL d   1      -2.400  -0.999   0.001  0.00  0.00     0.040 A 
ATOM     15  O   UNL d   1       1.572   2.760   0.000  0.00  0.00    -0.244 OA
ATOM     16  C   UNL d   1      -2.702   1.400   0.000  0.00  0.00     0.009 A 
ATOM     17  C   UNL d   1      -3.255   0.113   0.001  0.00  0.00    -0.060 A 
ATOM     18  C   UNL d   1      -4.742  -0.090   0.002  0.00  0.00     0.048 C 
ATOM     19  H   UNL d   1       3.934   1.435   0.001  0.00  0.00     0.192 HD
ENDROOT
TORSDOF 0
