REMARK  12 active torsions:
REMARK  status: ('A' for Active; 'I' for Inactive)
REMARK       I    between atoms: N_2  and  C_1 
REMARK    1  A    between atoms: O_6  and  C_1 
REMARK    2  A    between atoms: C_4  and  N_2 
REMARK    3  A    between atoms: O_7  and  C_3 
REMARK    4  A    between atoms: C_4  and  C_3 
REMARK    5  A    between atoms: C_9  and  C_4 
REMARK    6  A    between atoms: C_5  and  C_13 
REMARK    7  A    between atoms: O_17  and  C_5 
REMARK    8  A    between atoms: C_12  and  O_6 
REMARK    9  A    between atoms: C_14  and  O_7 
REMARK   10  A    between atoms: C_18  and  C_9 
REMARK   11  A    between atoms: C_13  and  C_15 
REMARK   12  A    between atoms: C_16  and  C_14 
ROOT
ATOM      1  C   UNL d   1       1.024  -1.544   2.544  0.00  0.00     0.190 C 
ENDROOT
BRANCH   1   2
ATOM      2  C   UNL d   1       2.255  -0.908   3.220  0.00  0.00     0.074 C 
BRANCH   2   3
ATOM      3  C   UNL d   1       3.268  -0.091   2.444  0.00  0.00    -0.056 A 
ATOM      4  C   UNL d   1       3.205   0.163   1.070  0.00  0.00     0.007 A 
ATOM      5  C   UNL d   1       4.256   0.816   0.418  0.00  0.00     0.001 A 
ATOM      6  C   UNL d   1       5.373   1.246   1.132  0.00  0.00     0.000 A 
ATOM      7  C   UNL d   1       5.425   1.055   2.507  0.00  0.00     0.001 A 
ATOM      8  C   UNL d   1       4.379   0.398   3.157  0.00  0.00     0.007 A 
ENDBRANCH   2   3
ENDBRANCH   1   2
BRANCH   1   9
ATOM      9  N   UNL d   1       1.273  -2.313   1.312  0.00  0.00    -0.323 N 
ATOM     10  C   UNL d   1       2.018  -3.413   1.018  0.00  0.00     0.362 C 
ATOM     11  O   UNL d   1       2.015  -3.832  -0.130  0.00  0.00    -0.238 OA
ATOM     12  H   UNL d   1       0.685  -2.072   0.521  0.00  0.00     0.165 HD
BRANCH  10  13
ATOM     13  O   UNL d   1       2.710  -3.964   2.050  0.00  0.00    -0.294 OA
BRANCH  13  14
ATOM     14  C   UNL d   1       3.610  -5.094   1.772  0.00  0.00     0.061 C 
ATOM     15  C   UNL d   1       4.809  -4.640   0.925  0.00  0.00     0.046 C 
ATOM     16  C   UNL d   1       4.131  -5.564   3.141  0.00  0.00     0.046 C 
ATOM     17  C   UNL d   1       2.919  -6.301   1.110  0.00  0.00     0.046 C 
ENDBRANCH  13  14
ENDBRANCH  10  13
ENDBRANCH   1   9
BRANCH   1  18
ATOM     18  C   UNL d   1      -0.119  -0.535   2.238  0.00  0.00     0.282 C 
ATOM     19  O   UNL d   1      -1.104  -0.844   1.574  0.00  0.00    -0.263 OA
BRANCH  18  20
ATOM     20  O   UNL d   1       0.084   0.701   2.764  0.00  0.00    -0.315 OA
BRANCH  20  21
ATOM     21  C   UNL d   1      -0.920   1.692   2.471  0.00  0.00     0.217 C 
BRANCH  21  22
ATOM     22  C   UNL d   1      -0.961   2.705   3.597  0.00  0.00    -0.034 A 
ATOM     23  C   UNL d   1       0.184   3.433   3.947  0.00  0.00     0.010 A 
ATOM     24  C   UNL d   1       0.140   4.390   4.963  0.00  0.00     0.008 A 
ATOM     25  C   UNL d   1      -1.052   4.640   5.659  0.00  0.00    -0.048 A 
ATOM     26  C   UNL d   1      -2.201   3.920   5.305  0.00  0.00     0.008 A 
ATOM     27  C   UNL d   1      -2.155   2.965   4.284  0.00  0.00     0.010 A 
BRANCH  25  28
ATOM     28  C   UNL d   1      -1.113   5.701   6.736  0.00  0.00     0.148 C 
BRANCH  28  29
ATOM     29  C   UNL d   1      -0.138   5.534   7.878  0.00  0.00     0.143 C 
ATOM     30  O   UNL d   1       0.357   6.487   8.474  0.00  0.00    -0.650 OA
BRANCH  29  31
ATOM     31  O   UNL d   1       0.084   4.262   8.269  0.00  0.00    -0.776 OA
ATOM     32  H   UNL d   1      -0.375   3.598   7.720  0.00  0.00     0.167 HD
ENDBRANCH  29  31
ENDBRANCH  28  29
ENDBRANCH  25  28
ENDBRANCH  21  22
ENDBRANCH  20  21
ENDBRANCH  18  20
ENDBRANCH   1  18
TORSDOF 12
