REMARK  5 active torsions:
REMARK  status: ('A' for Active; 'I' for Inactive)
REMARK    1  A    between atoms: C_17  and  N_1 
REMARK    2  A    between atoms: C_4  and  C_6 
REMARK    3  A    between atoms: C_8  and  N_16 
REMARK    4  A    between atoms: N_16  and  C_19 
REMARK    5  A    between atoms: C_19  and  C_17 
ROOT
ATOM      1  N   UNL d   1       3.590  -3.997   0.297  0.00  0.00    -0.277 NA
ATOM      2  H   UNL d   1       4.197  -3.802   1.091  0.00  0.00     0.129 HD
ENDROOT
BRANCH   1   3
ATOM      3  C   UNL d   1       3.204  -5.349   0.305  0.00  0.00     0.095 A 
ATOM      4  C   UNL d   1       4.138  -6.381   0.376  0.00  0.00     0.086 A 
ATOM      5  C   UNL d   1       3.670  -7.711   0.342  0.00  0.00     0.021 A 
ATOM      6  C   UNL d   1       2.314  -7.981   0.242  0.00  0.00     0.018 A 
ATOM      7  C   UNL d   1       1.462  -6.904   0.171  0.00  0.00     0.089 A 
ATOM      8  N   UNL d   1       1.880  -5.622   0.195  0.00  0.00    -0.356 N 
ATOM      9  HN  UNL d   1       1.204  -4.861   0.130  1.00  0.00     0.166 HD
BRANCH   4  10
ATOM     10  C   UNL d   1       5.620  -6.170   0.468  0.00  0.00     0.420 C 
ATOM     11  F   UNL d   1       6.035  -4.881   0.611  0.00  0.00    -0.166 F 
ATOM     12  F   UNL d   1       6.154  -6.831   1.539  0.00  0.00    -0.166 F 
ATOM     13  F   UNL d   1       6.285  -6.662  -0.617  0.00  0.00    -0.166 F 
ENDBRANCH   4  10
ENDBRANCH   1   3
BRANCH   1  14
ATOM     14  C   UNL d   1       2.457  -3.060   0.210  0.00  0.00     0.114 C 
BRANCH  14  15
ATOM     15  C   UNL d   1       2.916  -1.595   0.234  0.00  0.00     0.149 C 
BRANCH  15  16
ATOM     16  N   UNL d   1       1.783  -0.678   0.162  0.00  0.00    -0.287 N 
ATOM     17  C   UNL d   1       1.235  -0.252  -1.013  0.00  0.00     0.235 A 
ATOM     18  C   UNL d   1       0.010   0.585  -0.714  0.00  0.00     0.050 A 
ATOM     19  O   UNL d   1       1.642  -0.524  -2.134  0.00  0.00    -0.272 OA
ATOM     20  C   UNL d   1       0.092   1.972  -1.354  0.00  0.00     0.020 C 
ATOM     21  C   UNL d   1      -1.246  -0.010  -1.359  0.00  0.00     0.020 C 
ATOM     22  C   UNL d   1      -0.055   0.618   0.815  0.00  0.00     0.122 A 
ATOM     23  C   UNL d   1      -1.355   2.429  -1.504  0.00  0.00     0.001 C 
ATOM     24  C   UNL d   1      -2.207   1.164  -1.531  0.00  0.00     0.001 C 
ATOM     25  C   UNL d   1       1.058  -0.294   1.250  0.00  0.00     0.227 A 
ATOM     26  O   UNL d   1       1.261  -0.627   2.408  0.00  0.00    -0.273 OA
ENDBRANCH  15  16
ENDBRANCH  14  15
ENDBRANCH   1  14
TORSDOF 5
