REMARK  5 active torsions:
REMARK  status: ('A' for Active; 'I' for Inactive)
REMARK    1  A    between atoms: C_3  and  C_1 
REMARK    2  A    between atoms: C_13  and  C_2 
REMARK    3  A    between atoms: C_14  and  C_8 
REMARK    4  A    between atoms: O_16  and  C_13 
REMARK    5  A    between atoms: C_20  and  O_16 
ROOT
ATOM      1  C   UNL d   1      -0.046  -1.332   0.056  0.00  0.00     0.057 A 
ATOM      2  C   UNL d   1      -1.367  -0.798   0.052  0.00  0.00     0.144 A 
ATOM      3  N   UNL d   1      -1.329   0.544   0.133  0.00  0.00    -0.254 N 
ATOM      4  HN  UNL d   1      -2.126   1.181   0.135  1.00  0.00     0.195 HD
ATOM      5  O   UNL d   1       0.006   0.889   0.213  0.00  0.00    -0.241 OA
ATOM      6  C   UNL d   1       0.770  -0.231   0.159  0.00  0.00     0.087 A 
ATOM      7  C   UNL d   1       2.233  -0.029   0.166  0.00  0.00     0.080 C 
ENDROOT
BRANCH   1   8
ATOM      8  C   UNL d   1       0.360  -2.728  -0.087  0.00  0.00     0.055 A 
ATOM      9  N   UNL d   1       1.522  -3.136   0.546  0.00  0.00    -0.349 N 
ATOM     10  C   UNL d   1       1.750  -4.417   0.313  0.00  0.00     0.084 A 
ATOM     11  HN  UNL d   1       2.119  -2.533   1.113  1.00  0.00     0.166 HD
ATOM     12  S   UNL d   1       0.576  -5.180  -0.697  0.00  0.00    -0.081 SA
ATOM     13  C   UNL d   1      -0.265  -3.701  -0.836  0.00  0.00     0.082 A 
BRANCH  10  14
ATOM     14  C   UNL d   1       2.872  -5.186   0.883  0.00  0.00    -0.002 A 
ATOM     15  C   UNL d   1       3.462  -4.753   2.082  0.00  0.00     0.014 A 
ATOM     16  C   UNL d   1       4.513  -5.465   2.666  0.00  0.00     0.001 A 
ATOM     17  C   UNL d   1       5.000  -6.617   2.054  0.00  0.00     0.000 A 
ATOM     18  C   UNL d   1       4.441  -7.056   0.858  0.00  0.00     0.001 A 
ATOM     19  C   UNL d   1       3.387  -6.344   0.276  0.00  0.00     0.014 A 
ENDBRANCH  10  14
ENDBRANCH   1   8
BRANCH   2  20
ATOM     20  C   UNL d   1      -2.636  -1.514  -0.052  0.00  0.00     0.312 C 
ATOM     21  O   UNL d   1      -2.787  -2.683   0.289  0.00  0.00    -0.258 OA
BRANCH  20  22
ATOM     22  O   UNL d   1      -3.602  -0.782  -0.687  0.00  0.00    -0.317 OA
BRANCH  22  23
ATOM     23  C   UNL d   1      -4.731  -1.531  -1.157  0.00  0.00     0.175 C 
ATOM     24  C   UNL d   1      -4.401  -2.120  -2.518  0.00  0.00     0.034 C 
ENDBRANCH  22  23
ENDBRANCH  20  22
ENDBRANCH   2  20
TORSDOF 5
