REMARK  3 active torsions:
REMARK  status: ('A' for Active; 'I' for Inactive)
REMARK    1  A    between atoms: C_2  and  C_1 
REMARK       I    between atoms: N_3  and  C_1 
REMARK    2  A    between atoms: C_4  and  N_3 
REMARK    3  A    between atoms: C_11  and  C_5 
ROOT
ATOM      1  C   UNL d   1       0.874  -0.786  -0.199  0.00  0.00     0.255 C 
ATOM      2  N   UNL d   1       0.288   0.231  -0.934  0.00  0.00    -0.352 N 
ATOM      3  O   UNL d   1       0.223  -1.551   0.498  0.00  0.00    -0.268 OA
ATOM      4  H   UNL d   1       0.874   0.743  -1.585  0.00  0.00     0.163 HD
ENDROOT
BRANCH   2   5
ATOM      5  C   UNL d   1      -1.163   0.447  -1.058  0.00  0.00     0.089 C 
ATOM      6  C   UNL d   1      -1.838   0.868   0.285  0.00  0.00     0.012 C 
ATOM      7  C   UNL d   1      -3.373   0.744   0.183  0.00  0.00     0.007 C 
ATOM      8  C   UNL d   1      -3.817  -0.624  -0.304  0.00  0.00     0.005 C 
ATOM      9  C   UNL d   1      -3.318  -0.876  -1.719  0.00  0.00    -0.017 C 
ATOM     10  C   UNL d   1      -1.793  -0.758  -1.798  0.00  0.00     0.029 C 
ATOM     11  C   UNL d   1      -3.777  -2.260  -2.188  0.00  0.00     0.010 C 
BRANCH   6  12
ATOM     12  C   UNL d   1      -1.458   2.328   0.729  0.00  0.00    -0.017 C 
ATOM     13  C   UNL d   1      -2.185   2.755   2.015  0.00  0.00     0.010 C 
ATOM     14  C   UNL d   1       0.043   2.543   0.951  0.00  0.00     0.010 C 
ENDBRANCH   6  12
ENDBRANCH   2   5
BRANCH   1  15
ATOM     15  C   UNL d   1       2.357  -0.972  -0.323  0.00  0.00     0.075 A 
ATOM     16  C   UNL d   1       3.099  -1.420   0.787  0.00  0.00     0.051 A 
ATOM     17 CL   UNL d   1       2.473  -1.474   2.402  0.00  0.00    -0.083 Cl
ATOM     18  C   UNL d   1       4.449  -1.795   0.653  0.00  0.00     0.025 A 
ATOM     19  C   UNL d   1       5.087  -1.707  -0.578  0.00  0.00     0.003 A 
ATOM     20  C   UNL d   1       4.389  -1.204  -1.670  0.00  0.00     0.025 A 
ATOM     21  C   UNL d   1       3.038  -0.833  -1.550  0.00  0.00     0.051 A 
ATOM     22 CL   UNL d   1       2.316  -0.222  -3.001  0.00  0.00    -0.083 Cl
ENDBRANCH   1  15
TORSDOF 3
