REMARK  2 active torsions:
REMARK  status: ('A' for Active; 'I' for Inactive)
REMARK    1  A    between atoms: C_6  and  C_1 
REMARK    2  A    between atoms: O_11  and  C_7 
ROOT
ATOM      1  C   UNL d   1      -0.416  -1.137   0.005  0.00  0.00     0.138 A 
ATOM      2  N   UNL d   1       0.877  -0.673  -0.002  0.00  0.00    -0.290 N 
ATOM      3  C   UNL d   1      -1.218  -0.004   0.003  0.00  0.00     0.093 A 
ATOM      4  N   UNL d   1       0.948   0.677  -0.005  0.00  0.00    -0.278 N 
ATOM      5  HN  UNL d   1       1.782   1.263  -0.009  1.00  0.00     0.189 HD
ATOM      6  C   UNL d   1      -0.318   1.058  -0.003  0.00  0.00     0.157 A 
ATOM      7  C   UNL d   1       2.138  -1.378  -0.007  0.00  0.00     0.178 C 
ENDROOT
BRANCH   1   8
ATOM      8  C   UNL d   1      -0.832  -2.553   0.013  0.00  0.00     0.434 C 
ATOM      9  F   UNL d   1       0.187  -3.443   0.016  0.00  0.00    -0.165 F 
ATOM     10  F   UNL d   1      -1.590  -2.832   1.104  0.00  0.00    -0.165 F 
ATOM     11  F   UNL d   1      -1.595  -2.843  -1.072  0.00  0.00    -0.165 F 
ENDBRANCH   1   8
BRANCH   6  12
ATOM     12  O   UNL d   1      -0.552   2.370  -0.006  0.00  0.00    -0.345 OA
ATOM     13  H   UNL d   1      -1.506   2.531  -0.004  0.00  0.00     0.219 HD
ENDBRANCH   6  12
TORSDOF 2
