REMARK  8 active torsions:
REMARK  status: ('A' for Active; 'I' for Inactive)
REMARK       I    between atoms: N_7  and  C_1 
REMARK       I    between atoms: N_10  and  C_1 
REMARK    1  A    between atoms: C_9  and  C_2 
REMARK    2  A    between atoms: C_4  and  C_14 
REMARK    3  A    between atoms: C_12  and  N_7 
REMARK    4  A    between atoms: N_11  and  C_9 
REMARK    5  A    between atoms: C_15  and  N_10 
REMARK    6  A    between atoms: S_13  and  C_16 
REMARK    7  A    between atoms: C_14  and  S_13 
REMARK    8  A    between atoms: C_16  and  C_15 
ROOT
ATOM      1  C   UNL d   1       5.433   1.570   0.054  0.00  0.00     0.134 C 
ENDROOT
BRANCH   1   2
ATOM      2  N   UNL d   1       4.938   1.633   1.418  0.00  0.00    -0.342 N 
ATOM      3  C   UNL d   1       5.457   0.807   2.393  0.00  0.00     0.320 C 
ATOM      4  N   UNL d   1       5.057   1.202   3.650  0.00  0.00    -0.309 N 
ATOM      5  O   UNL d   1       6.175  -0.148   2.115  0.00  0.00    -0.247 OA
ATOM      6  H   UNL d   1       4.575   2.084   3.709  0.00  0.00     0.170 HD
ATOM      7  H   UNL d   1       4.542   2.512   1.711  0.00  0.00     0.164 HD
BRANCH   4   8
ATOM      8  C   UNL d   1       5.254   0.524   4.871  0.00  0.00     0.036 A 
ATOM      9  C   UNL d   1       5.819  -0.748   4.970  0.00  0.00     0.029 A 
ATOM     10  C   UNL d   1       5.885  -1.399   6.206  0.00  0.00     0.002 A 
ATOM     11  C   UNL d   1       5.401  -0.778   7.354  0.00  0.00     0.000 A 
ATOM     12  C   UNL d   1       4.871   0.507   7.273  0.00  0.00     0.002 A 
ATOM     13  C   UNL d   1       4.800   1.156   6.037  0.00  0.00     0.029 A 
ENDBRANCH   4   8
ENDBRANCH   1   2
BRANCH   1  14
ATOM     14  C   UNL d   1       4.993   0.328  -0.725  0.00  0.00     0.094 C 
BRANCH  14  15
ATOM     15  S   UNL d   1       5.585   0.380  -2.459  0.00  0.00    -0.161 SA
BRANCH  15  16
ATOM     16  C   UNL d   1       7.382   0.237  -2.171  0.00  0.00     0.139 C 
BRANCH  16  17
ATOM     17  C   UNL d   1       8.146   0.312  -3.443  0.00  0.00     0.062 A 
ATOM     18  O   UNL d   1       9.001   1.371  -3.577  0.00  0.00    -0.317 OA
ATOM     19  C   UNL d   1       9.610   1.248  -4.790  0.00  0.00     0.081 A 
ATOM     20  C   UNL d   1       9.162   0.110  -5.429  0.00  0.00     0.037 A 
ATOM     21  C   UNL d   1       8.216  -0.490  -4.563  0.00  0.00     0.036 A 
BRANCH  19  22
ATOM     22  C   UNL d   1      10.569   2.326  -5.175  0.00  0.00     0.335 C 
BRANCH  22  23
ATOM     23  N   UNL d   1      10.198   2.985  -6.444  0.00  0.00     0.086 N 
ATOM     24  C   UNL d   1       8.926   3.703  -6.317  0.00  0.00     0.309 C 
ATOM     25  C   UNL d   1      11.250   3.917  -6.854  0.00  0.00     0.309 C 
ENDBRANCH  22  23
ENDBRANCH  19  22
ENDBRANCH  16  17
ENDBRANCH  15  16
ENDBRANCH  14  15
ENDBRANCH   1  14
TORSDOF 8
