REMARK  2 active torsions:
REMARK  status: ('A' for Active; 'I' for Inactive)
REMARK    1  A    between atoms: N_2  and  C_1 
REMARK       I    between atoms: C_3  and  N_2 
REMARK    2  A    between atoms: C_4  and  C_3 
ROOT
ATOM      1  C   UNL d   1       0.030   0.414   0.391  0.00  0.00     0.070 A 
ATOM      2  C   UNL d   1      -1.183  -0.184   0.008  0.00  0.00     0.039 A 
ATOM      3  C   UNL d   1       1.117  -0.426   0.693  0.00  0.00     0.039 A 
ATOM      4  C   UNL d   1      -1.276  -1.580  -0.115  0.00  0.00     0.028 A 
ATOM      5  C   UNL d   1       1.020  -1.815   0.567  0.00  0.00     0.028 A 
ATOM      6  C   UNL d   1      -0.168  -2.401   0.128  0.00  0.00    -0.059 A 
ATOM      7 BR   UNL d   1       2.749   0.282   1.375  0.00  0.00    -0.049 Br
ATOM      8 BR   UNL d   1      -2.713   0.794  -0.569  0.00  0.00    -0.049 Br
ATOM      9  C   UNL d   1      -0.271  -3.887  -0.054  0.00  0.00     0.048 C 
ENDROOT
BRANCH   1  10
ATOM     10  N   UNL d   1       0.262   1.808   0.339  0.00  0.00    -0.320 N 
ATOM     11  C   UNL d   1      -0.530   2.770   0.946  0.00  0.00     0.263 C 
ATOM     12  O   UNL d   1      -1.389   2.500   1.776  0.00  0.00    -0.267 OA
ATOM     13  H   UNL d   1       1.208   2.107   0.145  0.00  0.00     0.169 HD
BRANCH  11  14
ATOM     14  C   UNL d   1      -0.220   4.147   0.559  0.00  0.00     0.072 A 
ATOM     15  S   UNL d   1       0.861   4.527  -0.719  0.00  0.00    -0.097 SA
ATOM     16  C   UNL d   1       0.516   6.198  -0.613  0.00  0.00     0.050 A 
ATOM     17  C   UNL d   1      -0.361   6.478   0.410  0.00  0.00     0.009 A 
ATOM     18  C   UNL d   1      -0.771   5.298   1.097  0.00  0.00     0.025 A 
ENDBRANCH  11  14
ENDBRANCH   1  10
TORSDOF 2
