REMARK  7 active torsions:
REMARK  status: ('A' for Active; 'I' for Inactive)
REMARK    1  A    between atoms: N_4  and  C_1 
REMARK    2  A    between atoms: C_2  and  C_3 
REMARK       I    between atoms: N_7  and  C_2 
REMARK    3  A    between atoms: O_19  and  C_5 
REMARK    4  A    between atoms: C_6  and  N_9 
REMARK       I    between atoms: C_8  and  N_7 
REMARK       I    between atoms: N_9  and  C_8 
REMARK    5  A    between atoms: C_20  and  C_10 
REMARK    6  A    between atoms: C_21  and  C_11 
REMARK    7  A    between atoms: O_22  and  C_13 
ROOT
ATOM      1  C   UNL d   1      -5.238  -1.552   3.050  0.00  0.00     0.264 C 
ATOM      2  N   UNL d   1      -4.687  -1.130   1.855  0.00  0.00    -0.279 N 
ATOM      3  C   UNL d   1      -3.339  -0.962   1.598  0.00  0.00     0.305 C 
ATOM      4  N   UNL d   1      -3.137  -0.121   0.498  0.00  0.00    -0.209 NA
ATOM      5  O   UNL d   1      -6.257  -0.967   3.423  0.00  0.00    -0.267 OA
ATOM      6  O   UNL d   1      -2.452  -1.542   2.209  0.00  0.00    -0.253 OA
ATOM      7  H   UNL d   1      -5.280  -0.443   1.419  0.00  0.00     0.173 HD
ATOM      8  H   UNL d   1      -3.615   0.758   0.650  0.00  0.00     0.138 HD
ENDROOT
BRANCH   1   9
ATOM      9  C   UNL d   1      -4.684  -2.695   3.847  0.00  0.00     0.101 C 
ATOM     10  C   UNL d   1      -4.260  -3.892   3.225  0.00  0.00     0.119 C 
ATOM     11  C   UNL d   1      -4.172  -5.052   4.009  0.00  0.00     0.137 C 
ATOM     12  C   UNL d   1      -4.333  -5.022   5.396  0.00  0.00     0.042 C 
ATOM     13  C   UNL d   1      -4.613  -3.812   6.026  0.00  0.00     0.040 C 
ATOM     14  C   UNL d   1      -4.804  -2.649   5.268  0.00  0.00     0.086 C 
BRANCH  10  15
ATOM     15  O   UNL d   1      -3.998  -3.919   1.877  0.00  0.00    -0.352 OA
ATOM     16  C   UNL d   1      -2.650  -4.343   1.585  0.00  0.00     0.210 C 
ENDBRANCH  10  15
BRANCH  11  17
ATOM     17  N   UNL d   1      -3.994  -6.363   3.397  0.00  0.00    -0.113 N 
ATOM     18  O   UNL d   1      -4.730  -6.659   2.447  0.00  0.00    -0.532 OA
ATOM     19  O   UNL d   1      -3.135  -7.102   3.894  0.00  0.00    -0.532 OA
ENDBRANCH  11  17
BRANCH  14  20
ATOM     20  O   UNL d   1      -5.160  -1.446   5.827  0.00  0.00    -0.355 OA
ATOM     21  C   UNL d   1      -4.982  -1.207   7.218  0.00  0.00     0.210 C 
ENDBRANCH  14  20
ENDBRANCH   1   9
BRANCH   4  22
ATOM     22  C   UNL d   1      -1.808   0.053   0.038  0.00  0.00     0.030 C 
ATOM     23  C   UNL d   1      -1.419  -0.583  -1.168  0.00  0.00    -0.033 C 
ATOM     24  C   UNL d   1      -0.052  -0.556  -1.513  0.00  0.00     0.009 C 
ATOM     25  C   UNL d   1       0.887   0.067  -0.701  0.00  0.00     0.001 C 
ATOM     26  C   UNL d   1       0.475   0.741   0.444  0.00  0.00     0.009 C 
ATOM     27  C   UNL d   1      -0.882   0.807   0.810  0.00  0.00    -0.033 C 
BRANCH  23  28
ATOM     28  C   UNL d   1      -2.316  -1.318  -2.165  0.00  0.00     0.012 C 
ATOM     29  C   UNL d   1      -2.235  -2.832  -1.963  0.00  0.00     0.015 C 
ATOM     30  C   UNL d   1      -3.776  -0.879  -2.287  0.00  0.00     0.015 C 
ENDBRANCH  23  28
BRANCH  27  31
ATOM     31  C   UNL d   1      -1.287   1.694   1.994  0.00  0.00     0.012 C 
ATOM     32  C   UNL d   1      -1.274   0.975   3.348  0.00  0.00     0.015 C 
ATOM     33  C   UNL d   1      -0.425   2.966   2.110  0.00  0.00     0.015 C 
ENDBRANCH  27  31
ENDBRANCH   4  22
TORSDOF 7
