REMARK  8 active torsions:
REMARK  status: ('A' for Active; 'I' for Inactive)
REMARK    1  A    between atoms: C_4  and  C_1 
REMARK    2  A    between atoms: O_15  and  C_1 
REMARK    3  A    between atoms: C_2  and  C_6 
REMARK    4  A    between atoms: O_17  and  C_5 
REMARK    5  A    between atoms: N_7  and  O_14 
REMARK    6  A    between atoms: O_18  and  C_9 
REMARK    7  A    between atoms: O_14  and  C_21 
REMARK    8  A    between atoms: C_21  and  C_16 
ROOT
ATOM      1  C   UNL d   1       3.135  -4.947   3.536  0.00  0.00     0.038 C 
ATOM      2  N   UNL d   1       2.070  -5.216   2.837  0.00  0.00    -0.270 N 
ATOM      3  HN  UNL d   1       1.630  -4.576   2.176  1.00  0.00     0.194 HD
ATOM      4  C   UNL d   1       3.767  -5.957   4.475  0.00  0.00     0.071 C 
ENDROOT
BRANCH   2   5
ATOM      5  O   UNL d   1       1.613  -6.511   3.120  0.00  0.00    -0.276 OA
BRANCH   5   6
ATOM      6  C   UNL d   1       0.858  -7.001   2.016  0.00  0.00     0.239 C 
BRANCH   6   7
ATOM      7  C   UNL d   1       0.384  -8.391   2.358  0.00  0.00    -0.031 A 
ATOM      8  C   UNL d   1       0.803  -9.496   1.602  0.00  0.00     0.027 A 
ATOM      9  C   UNL d   1       0.358 -10.786   1.927  0.00  0.00     0.038 A 
ATOM     10  C   UNL d   1      -0.530 -10.968   2.994  0.00  0.00     0.018 A 
ATOM     11  C   UNL d   1      -0.950  -9.873   3.750  0.00  0.00     0.002 A 
ATOM     12  C   UNL d   1      -0.491  -8.594   3.436  0.00  0.00     0.009 A 
BRANCH   9  13
ATOM     13  C   UNL d   1       0.757 -11.976   1.135  0.00  0.00     0.176 C 
ATOM     14  O   UNL d   1       0.040 -12.957   1.007  0.00  0.00    -0.646 OA
BRANCH  13  15
ATOM     15  O   UNL d   1       1.990 -11.893   0.595  0.00  0.00    -0.773 OA
ATOM     16  H   UNL d   1       2.536 -11.157   0.925  0.00  0.00     0.167 HD
ENDBRANCH  13  15
ENDBRANCH   9  13
ENDBRANCH   6   7
ENDBRANCH   5   6
ENDBRANCH   2   5
BRANCH   1  17
ATOM     17  C   UNL d   1       3.747  -3.593   3.434  0.00  0.00    -0.009 A 
ATOM     18  C   UNL d   1       2.904  -2.495   3.218  0.00  0.00     0.053 A 
ATOM     19  C   UNL d   1       3.410  -1.187   3.183  0.00  0.00     0.102 A 
ATOM     20  C   UNL d   1       4.795  -0.991   3.332  0.00  0.00     0.101 A 
ATOM     21  C   UNL d   1       5.633  -2.102   3.524  0.00  0.00     0.040 A 
ATOM     22  C   UNL d   1       5.119  -3.397   3.575  0.00  0.00     0.016 A 
BRANCH  19  23
ATOM     23  O   UNL d   1       2.608  -0.089   3.025  0.00  0.00    -0.353 OA
ATOM     24  C   UNL d   1       1.207  -0.288   2.884  0.00  0.00     0.210 C 
ENDBRANCH  19  23
BRANCH  20  25
ATOM     25  O   UNL d   1       5.503   0.183   3.316  0.00  0.00    -0.353 OA
ATOM     26  C   UNL d   1       4.801   1.403   3.138  0.00  0.00     0.210 C 
ENDBRANCH  20  25
ENDBRANCH   1  17
TORSDOF 8
