REMARK  6 active torsions:
REMARK  status: ('A' for Active; 'I' for Inactive)
REMARK    1  A    between atoms: N_2  and  S_1 
REMARK    2  A    between atoms: C_4  and  S_1 
REMARK    3  A    between atoms: C_3  and  C_5 
REMARK    4  A    between atoms: C_9  and  C_12 
REMARK    5  A    between atoms: C_18  and  C_9 
REMARK    6  A    between atoms: C_19  and  C_9 
ROOT
ATOM      1  N   UNL d   1       0.446  -1.397   0.434  0.00  0.00    -0.307 N 
ATOM      2  C   UNL d   1       1.281  -2.541   0.006  0.00  0.00     0.136 C 
ATOM      3  C   UNL d   1      -1.022  -1.595   0.363  0.00  0.00     0.136 C 
ATOM      4  C   UNL d   1      -0.688  -4.115   0.425  0.00  0.00     0.002 C 
ATOM      5  C   UNL d   1      -1.441  -2.905   1.009  0.00  0.00     0.026 C 
ATOM      6  C   UNL d   1       0.811  -3.838   0.670  0.00  0.00     0.026 C 
ENDROOT
BRANCH   1   7
ATOM      7  S   UNL d   1       1.000   0.153  -0.034  0.00  0.00     0.260 S 
ATOM      8  O   UNL d   1       2.427   0.098  -0.255  0.00  0.00    -0.200 OA
ATOM      9  O   UNL d   1       0.416   1.119   0.875  0.00  0.00    -0.200 OA
BRANCH   7  10
ATOM     10  C   UNL d   1       0.217   0.419  -1.621  0.00  0.00     0.080 A 
ATOM     11  C   UNL d   1      -0.999   1.121  -1.669  0.00  0.00     0.041 A 
ATOM     12  C   UNL d   1      -1.609   1.399  -2.901  0.00  0.00     0.049 A 
ATOM     13  C   UNL d   1      -0.974   0.971  -4.077  0.00  0.00     0.016 A 
ATOM     14  C   UNL d   1       0.241   0.280  -4.024  0.00  0.00     0.002 A 
ATOM     15  C   UNL d   1       0.844   0.004  -2.795  0.00  0.00     0.025 A 
BRANCH  12  16
ATOM     16  C   UNL d   1      -2.913   2.160  -2.974  0.00  0.00     0.417 C 
ATOM     17  F   UNL d   1      -3.428   2.478  -1.755  0.00  0.00    -0.166 F 
ATOM     18  F   UNL d   1      -2.792   3.335  -3.650  0.00  0.00    -0.166 F 
ATOM     19  F   UNL d   1      -3.887   1.457  -3.617  0.00  0.00    -0.166 F 
ENDBRANCH  12  16
ENDBRANCH   7  10
ENDBRANCH   1   7
BRANCH   4  20
ATOM     20  C   UNL d   1      -0.986  -4.417  -1.091  0.00  0.00     0.056 C 
BRANCH  20  21
ATOM     21  C   UNL d   1      -0.224  -5.654  -1.577  0.00  0.00    -0.049 A 
ATOM     22  C   UNL d   1      -0.423  -6.912  -0.986  0.00  0.00     0.008 A 
ATOM     23  C   UNL d   1       0.261  -8.036  -1.451  0.00  0.00     0.001 A 
ATOM     24  C   UNL d   1       1.153  -7.920  -2.514  0.00  0.00     0.000 A 
ATOM     25  C   UNL d   1       1.369  -6.678  -3.106  0.00  0.00     0.001 A 
ATOM     26  C   UNL d   1       0.686  -5.551  -2.643  0.00  0.00     0.008 A 
ENDBRANCH  20  21
BRANCH  20  27
ATOM     27  C   UNL d   1      -2.457  -4.505  -1.496  0.00  0.00    -0.049 A 
ATOM     28  C   UNL d   1      -2.835  -4.086  -2.787  0.00  0.00     0.008 A 
ATOM     29  C   UNL d   1      -4.166  -4.148  -3.204  0.00  0.00     0.001 A 
ATOM     30  C   UNL d   1      -5.141  -4.639  -2.341  0.00  0.00     0.000 A 
ATOM     31  C   UNL d   1      -4.782  -5.084  -1.071  0.00  0.00     0.001 A 
ATOM     32  C   UNL d   1      -3.449  -5.029  -0.656  0.00  0.00     0.008 A 
ENDBRANCH  20  27
ENDBRANCH   4  20
TORSDOF 6
