REMARK  4 active torsions:
REMARK  status: ('A' for Active; 'I' for Inactive)
REMARK    1  A    between atoms: S_9  and  C_2 
REMARK    2  A    between atoms: C_8  and  C_3 
REMARK    3  A    between atoms: S_10  and  C_8 
REMARK    4  A    between atoms: C_12  and  S_10 
ROOT
ATOM      1  N   UNL d   1      -0.345  -0.811   0.793  0.00  0.00    -0.319 N 
ATOM      2  C   UNL d   1       0.866  -0.394   0.306  0.00  0.00     0.159 A 
ATOM      3  C   UNL d   1      -1.290  -0.267  -0.059  0.00  0.00     0.109 A 
ATOM      4  N   UNL d   1       0.680   0.349  -0.759  0.00  0.00    -0.279 N 
ATOM      5  HN  UNL d   1       1.411   0.790  -1.317  1.00  0.00     0.189 HD
ATOM      6  N   UNL d   1      -0.669   0.431  -0.989  0.00  0.00    -0.286 N 
ATOM      7  HN  UNL d   1      -1.115   0.943  -1.750  1.00  0.00     0.188 HD
ATOM      8  C   UNL d   1      -0.633  -1.631   1.940  0.00  0.00     0.159 C 
ENDROOT
BRANCH   3   9
ATOM      9  C   UNL d   1      -2.771  -0.378   0.084  0.00  0.00     0.157 C 
BRANCH   9  10
ATOM     10  S   UNL d   1      -3.357  -2.084  -0.183  0.00  0.00    -0.122 SA
BRANCH  10  11
ATOM     11  C   UNL d   1      -5.131  -1.888  -0.250  0.00  0.00     0.001 A 
ATOM     12  C   UNL d   1      -5.849  -2.836  -0.996  0.00  0.00     0.018 A 
ATOM     13  C   UNL d   1      -7.241  -2.776  -1.080  0.00  0.00     0.001 A 
ATOM     14  C   UNL d   1      -7.936  -1.770  -0.414  0.00  0.00     0.000 A 
ATOM     15  C   UNL d   1      -7.238  -0.828   0.338  0.00  0.00     0.001 A 
ATOM     16  C   UNL d   1      -5.842  -0.888   0.425  0.00  0.00     0.018 A 
ENDBRANCH  10  11
ENDBRANCH   9  10
ENDBRANCH   3   9
BRANCH   2  17
ATOM     17  S   UNL d   1       2.424  -0.742   0.970  0.00  0.00    -0.105 SA
ATOM     18  H   UNL d   1       2.123  -1.640   1.909  0.00  0.00     0.110 HD
ENDBRANCH   2  17
TORSDOF 4
