REMARK  4 active torsions:
REMARK  status: ('A' for Active; 'I' for Inactive)
REMARK    1  A    between atoms: C_2  and  N_1 
REMARK       I    between atoms: N_3  and  C_4 
REMARK       I    between atoms: C_6  and  N_3 
REMARK       I    between atoms: C_4  and  N_8 
REMARK    2  A    between atoms: N_7  and  C_5 
REMARK    3  A    between atoms: C_9  and  C_6 
REMARK    4  A    between atoms: N_8  and  N_7 
ROOT
ATOM      1  N   UNL d   1       1.064  -4.671  -4.901  0.00  0.00    -0.274 N 
ATOM      2  C   UNL d   1       1.235  -3.621  -4.013  0.00  0.00     0.341 C 
ATOM      3  C   UNL d   1       1.730  -4.870  -6.100  0.00  0.00     0.259 C 
ATOM      4  N   UNL d   1       2.376  -2.857  -4.200  0.00  0.00    -0.249 N 
ATOM      5  O   UNL d   1       0.368  -3.425  -3.165  0.00  0.00    -0.245 OA
ATOM      6  O   UNL d   1       2.628  -4.123  -6.482  0.00  0.00    -0.267 OA
ATOM      7  H   UNL d   1       0.236  -5.193  -4.687  0.00  0.00     0.173 HD
ATOM      8  H   UNL d   1       2.858  -2.990  -5.093  0.00  0.00     0.192 HD
ENDROOT
BRANCH   4   9
ATOM      9  N   UNL d   1       2.537  -1.577  -3.614  0.00  0.00    -0.290 N 
ATOM     10  C   UNL d   1       1.319  -0.767  -3.480  0.00  0.00     0.178 C 
BRANCH   9  11
ATOM     11  C   UNL d   1       3.615  -1.396  -2.716  0.00  0.00     0.083 A 
ATOM     12  C   UNL d   1       4.849  -2.083  -2.737  0.00  0.00     0.131 A 
ATOM     13  C   UNL d   1       5.889  -1.850  -1.807  0.00  0.00     0.038 A 
ATOM     14  C   UNL d   1       5.741  -0.876  -0.829  0.00  0.00     0.003 A 
ATOM     15  C   UNL d   1       4.571  -0.134  -0.798  0.00  0.00     0.002 A 
ATOM     16  C   UNL d   1       3.538  -0.394  -1.716  0.00  0.00     0.034 A 
BRANCH  12  17
ATOM     17  N   UNL d   1       5.216  -2.966  -3.823  0.00  0.00    -0.113 N 
ATOM     18  O   UNL d   1       4.842  -4.146  -3.759  0.00  0.00    -0.532 OA
ATOM     19  O   UNL d   1       5.971  -2.499  -4.687  0.00  0.00    -0.532 OA
ENDBRANCH  12  17
ENDBRANCH   9  11
ENDBRANCH   4   9
BRANCH   3  20
ATOM     20  C   UNL d   1       1.337  -6.032  -6.963  0.00  0.00     0.034 A 
ATOM     21  C   UNL d   1       0.271  -6.900  -6.686  0.00  0.00     0.044 A 
ATOM     22  C   UNL d   1      -0.008  -7.966  -7.556  0.00  0.00     0.073 A 
ATOM     23 CL   UNL d   1      -1.324  -9.019  -7.199  0.00  0.00    -0.081 Cl
ATOM     24  C   UNL d   1       0.763  -8.170  -8.699  0.00  0.00     0.138 A 
ATOM     25  C   UNL d   1       1.818  -7.317  -8.990  0.00  0.00     0.045 A 
ATOM     26  F   UNL d   1       0.500  -9.186  -9.534  0.00  0.00    -0.204 F 
ATOM     27  C   UNL d   1       2.102  -6.254  -8.127  0.00  0.00     0.020 A 
ENDBRANCH   3  20
TORSDOF 4
