REMARK  8 active torsions:
REMARK  status: ('A' for Active; 'I' for Inactive)
REMARK    1  A    between atoms: S_16  and  C_3 
REMARK    2  A    between atoms: C_8  and  C_4 
REMARK    3  A    between atoms: S_6  and  C_13 
REMARK    4  A    between atoms: C_10  and  S_6 
REMARK    5  A    between atoms: O_22  and  C_8 
REMARK    6  A    between atoms: C_13  and  C_21 
REMARK    7  A    between atoms: C_21  and  S_16 
REMARK    8  A    between atoms: C_28  and  O_22 
ROOT
ATOM      1  C   UNL d   1       0.189  -0.774   0.086  0.00  0.00     0.041 A 
ATOM      2  C   UNL d   1       0.524   0.636   0.024  0.00  0.00    -0.018 A 
ATOM      3  C   UNL d   1       1.307  -1.578   0.075  0.00  0.00     0.056 A 
ATOM      4  C   UNL d   1       1.898   0.838  -0.044  0.00  0.00     0.088 A 
ATOM      5  S   UNL d   1       2.741  -0.655   0.019  0.00  0.00    -0.076 SA
ATOM      6  C   UNL d   1      -1.203  -1.215   0.131  0.00  0.00     0.162 C 
ATOM      7  C   UNL d   1      -0.548   1.712  -0.017  0.00  0.00     0.050 C 
ATOM      8  C   UNL d   1      -1.964   1.180   0.355  0.00  0.00    -0.037 C 
ATOM      9  C   UNL d   1      -2.213  -0.181  -0.331  0.00  0.00     0.093 C 
ATOM     10  O   UNL d   1      -1.556  -2.324   0.525  0.00  0.00    -0.292 OA
ATOM     11  C   UNL d   1      -3.042   2.170  -0.125  0.00  0.00     0.015 C 
ATOM     12  C   UNL d   1      -2.099   1.044   1.887  0.00  0.00     0.015 C 
ENDROOT
BRANCH   3  13
ATOM     13  S   UNL d   1       1.394  -3.341   0.033  0.00  0.00    -0.121 SA
BRANCH  13  14
ATOM     14  C   UNL d   1       1.424  -3.690   1.819  0.00  0.00     0.095 C 
BRANCH  14  15
ATOM     15  C   UNL d   1       1.449  -5.187   2.068  0.00  0.00     0.156 C 
BRANCH  15  16
ATOM     16  S   UNL d   1       1.586  -5.563   3.804  0.00  0.00     0.176 S 
ATOM     17  O   UNL d   1       1.592  -7.006   3.944  0.00  0.00    -0.223 OA
ATOM     18  O   UNL d   1       2.667  -4.769   4.361  0.00  0.00    -0.223 OA
BRANCH  16  19
ATOM     19  C   UNL d   1       0.069  -4.976   4.522  0.00  0.00     0.059 A 
ATOM     20  C   UNL d   1      -1.047  -5.816   4.556  0.00  0.00     0.024 A 
ATOM     21  C   UNL d   1      -2.239  -5.352   5.116  0.00  0.00     0.008 A 
ATOM     22  C   UNL d   1      -2.316  -4.058   5.652  0.00  0.00    -0.062 A 
ATOM     23  C   UNL d   1      -1.179  -3.240   5.640  0.00  0.00     0.008 A 
ATOM     24  C   UNL d   1      -3.616  -3.557   6.210  0.00  0.00     0.048 C 
ATOM     25  C   UNL d   1       0.017  -3.699   5.088  0.00  0.00     0.024 A 
ENDBRANCH  16  19
ENDBRANCH  15  16
ENDBRANCH  14  15
ENDBRANCH  13  14
ENDBRANCH   3  13
BRANCH   4  26
ATOM     26  C   UNL d   1       2.614   2.099  -0.209  0.00  0.00     0.300 C 
ATOM     27  O   UNL d   1       2.080   3.197  -0.321  0.00  0.00    -0.259 OA
BRANCH  26  28
ATOM     28  O   UNL d   1       3.960   1.892  -0.303  0.00  0.00    -0.317 OA
BRANCH  28  29
ATOM     29  C   UNL d   1       4.737   2.975  -0.832  0.00  0.00     0.174 C 
ATOM     30  C   UNL d   1       4.769   2.846  -2.344  0.00  0.00     0.034 C 
ENDBRANCH  28  29
ENDBRANCH  26  28
ENDBRANCH   4  26
TORSDOF 8
