REMARK  2 active torsions:
REMARK  status: ('A' for Active; 'I' for Inactive)
REMARK    1  A    between atoms: C_10  and  N_2 
REMARK    2  A    between atoms: C_11  and  C_15 
ROOT
ATOM      1  C   UNL d   1      -0.317   0.590   0.041  0.00  0.00     0.139 A 
ATOM      2  N   UNL d   1       2.013   1.039  -0.030  0.00  0.00    -0.217 N 
ATOM      3  C   UNL d   1       0.717   1.608   0.026  0.00  0.00     0.296 A 
ATOM      4  C   UNL d   1      -0.007  -0.778  -0.001  0.00  0.00     0.053 A 
ATOM      5  N   UNL d   1       2.309  -0.327  -0.118  0.00  0.00    -0.294 N 
ATOM      6  HN  UNL d   1       3.279  -0.629  -0.218  1.00  0.00     0.187 HD
ATOM      7  N   UNL d   1      -1.637   0.800   0.085  0.00  0.00    -0.255 N 
ATOM      8  HN  UNL d   1      -2.121   1.698   0.113  1.00  0.00     0.195 HD
ATOM      9  C   UNL d   1       1.357  -1.217  -0.074  0.00  0.00     0.037 A 
ATOM     10  O   UNL d   1      -2.205  -0.464   0.084  0.00  0.00    -0.241 OA
ATOM     11  C   UNL d   1      -1.223  -1.414   0.035  0.00  0.00     0.087 A 
ATOM     12  O   UNL d   1       0.478   2.812   0.016  0.00  0.00    -0.264 OA
ATOM     13  C   UNL d   1       1.722  -2.673  -0.087  0.00  0.00     0.070 C 
ATOM     14  C   UNL d   1      -1.708  -2.807   0.027  0.00  0.00     0.080 C 
ENDROOT
BRANCH   2  15
ATOM     15  C   UNL d   1       3.168   1.859   0.038  0.00  0.00     0.082 A 
ATOM     16  C   UNL d   1       4.088   1.810  -1.024  0.00  0.00     0.049 A 
ATOM     17  C   UNL d   1       5.223   2.638  -1.035  0.00  0.00     0.050 A 
ATOM     18  C   UNL d   1       5.457   3.481   0.061  0.00  0.00     0.018 A 
ATOM     19  C   UNL d   1       4.571   3.505   1.140  0.00  0.00     0.027 A 
ATOM     20  C   UNL d   1       3.425   2.705   1.129  0.00  0.00     0.062 A 
ATOM     21 CL   UNL d   1       2.450   2.696   2.559  0.00  0.00    -0.082 Cl
BRANCH  17  22
ATOM     22  C   UNL d   1       6.176   2.645  -2.207  0.00  0.00     0.417 C 
ATOM     23  F   UNL d   1       5.814   1.800  -3.211  0.00  0.00    -0.166 F 
ATOM     24  F   UNL d   1       6.286   3.877  -2.777  0.00  0.00    -0.166 F 
ATOM     25  F   UNL d   1       7.440   2.284  -1.850  0.00  0.00    -0.166 F 
ENDBRANCH  17  22
ENDBRANCH   2  15
TORSDOF 2
