REMARK  4 active torsions:
REMARK  status: ('A' for Active; 'I' for Inactive)
REMARK       I    between atoms: N_3  and  C_1 
REMARK       I    between atoms: N_5  and  C_1 
REMARK    1  A    between atoms: C_2  and  N_4 
REMARK    2  A    between atoms: S_10  and  C_2 
REMARK    3  A    between atoms: N_4  and  N_3 
REMARK    4  A    between atoms: C_8  and  N_5 
ROOT
ATOM      1  C   UNL d   1       0.919  -0.049  -0.260  0.00  0.00     0.339 C 
ATOM      2  N   UNL d   1       0.436   0.913   0.623  0.00  0.00    -0.248 N 
ATOM      3  N   UNL d   1       0.009  -1.081  -0.422  0.00  0.00    -0.308 N 
ATOM      4  O   UNL d   1       2.008   0.034  -0.810  0.00  0.00    -0.245 OA
ATOM      5  H   UNL d   1      -0.446   0.801   1.109  0.00  0.00     0.192 HD
ATOM      6  H   UNL d   1      -0.658  -1.196   0.322  0.00  0.00     0.170 HD
ENDROOT
BRANCH   2   7
ATOM      7  N   UNL d   1       1.331   1.866   1.188  0.00  0.00    -0.276 N 
ATOM      8  C   UNL d   1       1.747   2.866   0.208  0.00  0.00     0.179 C 
BRANCH   7   9
ATOM      9  C   UNL d   1       1.287   2.105   2.562  0.00  0.00     0.154 C 
ATOM     10  S   UNL d   1       0.002   1.649   3.549  0.00  0.00    -0.051 SA
BRANCH   9  11
ATOM     11  S   UNL d   1       2.691   2.913   3.261  0.00  0.00    -0.103 SA
ATOM     12  C   UNL d   1       4.028   1.929   2.541  0.00  0.00     0.098 C 
ENDBRANCH   9  11
ENDBRANCH   7   9
ENDBRANCH   2   7
BRANCH   3  13
ATOM     13  C   UNL d   1       0.127  -2.160  -1.329  0.00  0.00     0.038 A 
ATOM     14  C   UNL d   1       0.951  -2.138  -2.458  0.00  0.00     0.053 A 
ATOM     15  C   UNL d   1       1.015  -3.252  -3.298  0.00  0.00     0.036 A 
ATOM     16 CL   UNL d   1       2.026  -3.218  -4.693  0.00  0.00    -0.084 Cl
ATOM     17  C   UNL d   1       0.266  -4.396  -3.026  0.00  0.00     0.024 A 
ATOM     18  C   UNL d   1      -0.569  -4.418  -1.911  0.00  0.00     0.004 A 
ATOM     19  C   UNL d   1      -0.648  -3.301  -1.075  0.00  0.00     0.029 A 
ENDBRANCH   3  13
TORSDOF 4
