REMARK  8 active torsions:
REMARK  status: ('A' for Active; 'I' for Inactive)
REMARK    1  A    between atoms: N_5  and  C_1 
REMARK    2  A    between atoms: C_8  and  C_3 
REMARK    3  A    between atoms: C_9  and  C_8 
REMARK    4  A    between atoms: C_10  and  C_8 
REMARK    5  A    between atoms: O_20  and  C_9 
REMARK    6  A    between atoms: O_19  and  C_10 
REMARK    7  A    between atoms: C_26  and  O_19 
REMARK    8  A    between atoms: C_25  and  O_20 
ROOT
ATOM      1  C   UNL d   1      -1.401   2.503  -0.095  0.00  0.00     0.179 C 
ATOM      2  C   UNL d   1       0.082   2.505  -0.082  0.00  0.00     0.281 C 
ATOM      3  C   UNL d   1      -2.181   1.407   0.028  0.00  0.00     0.016 C 
ATOM      4  N   UNL d   1       0.708   1.260  -0.028  0.00  0.00    -0.311 N 
ATOM      5  C   UNL d   1      -1.447   0.092  -0.049  0.00  0.00     0.002 A 
ATOM      6  C   UNL d   1      -0.025   0.051  -0.017  0.00  0.00     0.054 A 
ATOM      7  O   UNL d   1       0.729   3.553  -0.056  0.00  0.00    -0.265 OA
ATOM      8  C   UNL d   1       0.658  -1.177  -0.009  0.00  0.00    -0.030 A 
ATOM      9  C   UNL d   1       2.159   1.280   0.034  0.00  0.00     0.133 C 
ATOM     10  C   UNL d   1      -2.118  -1.137  -0.193  0.00  0.00     0.014 A 
ATOM     11  C   UNL d   1       2.929  -0.021  -0.078  0.00  0.00     0.025 C 
ATOM     12  C   UNL d   1      -1.441  -2.356  -0.207  0.00  0.00     0.002 A 
ATOM     13  C   UNL d   1       2.146  -1.296   0.127  0.00  0.00     0.042 C 
ATOM     14  C   UNL d   1      -0.063  -2.377  -0.088  0.00  0.00     0.009 A 
ENDROOT
BRANCH   3  15
ATOM     15  C   UNL d   1      -3.726   1.396   0.188  0.00  0.00     0.221 C 
BRANCH  15  16
ATOM     16  C   UNL d   1      -4.297   1.822   1.548  0.00  0.00     0.277 C 
ATOM     17  O   UNL d   1      -5.491   1.756   1.825  0.00  0.00    -0.264 OA
BRANCH  16  18
ATOM     18  O   UNL d   1      -3.350   2.209   2.446  0.00  0.00    -0.321 OA
BRANCH  18  19
ATOM     19  C   UNL d   1      -3.884   2.777   3.656  0.00  0.00     0.174 C 
ATOM     20  C   UNL d   1      -4.207   1.685   4.657  0.00  0.00     0.034 C 
ENDBRANCH  18  19
ENDBRANCH  16  18
ENDBRANCH  15  16
BRANCH  15  21
ATOM     21  C   UNL d   1      -4.447   2.049  -0.985  0.00  0.00     0.277 C 
ATOM     22  O   UNL d   1      -3.893   2.407  -2.018  0.00  0.00    -0.264 OA
BRANCH  21  23
ATOM     23  O   UNL d   1      -5.787   2.105  -0.777  0.00  0.00    -0.321 OA
BRANCH  23  24
ATOM     24  C   UNL d   1      -6.569   2.850  -1.717  0.00  0.00     0.174 C 
ATOM     25  C   UNL d   1      -6.564   4.314  -1.316  0.00  0.00     0.034 C 
ENDBRANCH  23  24
ENDBRANCH  21  23
ENDBRANCH  15  21
ENDBRANCH   3  15
BRANCH   1  26
ATOM     26  N   UNL d   1      -1.988   3.822  -0.234  0.00  0.00    -0.109 N 
ATOM     27  O   UNL d   1      -2.799   4.189   0.628  0.00  0.00    -0.532 OA
ATOM     28  O   UNL d   1      -1.687   4.476  -1.240  0.00  0.00    -0.532 OA
ENDBRANCH   1  26
TORSDOF 8
