REMARK  4 active torsions:
REMARK  status: ('A' for Active; 'I' for Inactive)
REMARK    1  A    between atoms: C_2  and  S_1 
REMARK    2  A    between atoms: O_11  and  S_1 
REMARK    3  A    between atoms: N_4  and  C_15 
REMARK    4  A    between atoms: C_22  and  O_11 
ROOT
ATOM      1  S   UNL d   1       1.076  -0.027   0.172  0.00  0.00     0.305 S 
ATOM      2  O   UNL d   1       0.302  -0.688  -0.866  0.00  0.00    -0.193 OA
ATOM      3  O   UNL d   1       2.516  -0.195   0.231  0.00  0.00    -0.193 OA
ENDROOT
BRANCH   1   4
ATOM      4  C   UNL d   1       0.479  -0.671   1.690  0.00  0.00     0.116 A 
ATOM      5  C   UNL d   1       0.224   0.101   2.839  0.00  0.00     0.091 A 
ATOM      6  N   UNL d   1       0.316   1.433   2.981  0.00  0.00    -0.309 N 
ATOM      7  C   UNL d   1      -0.201  -0.588   4.122  0.00  0.00     0.068 A 
ATOM      8  S   UNL d   1      -0.088   1.782   4.554  0.00  0.00     0.068 SA
ATOM      9  HN  UNL d   1       0.583   2.103   2.260  1.00  0.00     0.176 HD
ATOM     10  N   UNL d   1      -0.401   0.262   5.139  0.00  0.00    -0.310 N 
ATOM     11  HN  UNL d   1      -0.690   0.021   6.087  1.00  0.00     0.176 HD
ATOM     12  C   UNL d   1      -0.348  -1.996   4.185  0.00  0.00     0.032 A 
ATOM     13  C   UNL d   1      -0.093  -2.705   3.002  0.00  0.00     0.004 A 
ATOM     14  C   UNL d   1       0.301  -2.071   1.803  0.00  0.00     0.028 A 
ENDBRANCH   1   4
BRANCH   1  15
ATOM     15  O   UNL d   1       0.724   1.563   0.121  0.00  0.00    -0.229 OA
BRANCH  15  16
ATOM     16  C   UNL d   1       1.216   2.372  -0.877  0.00  0.00     0.089 A 
ATOM     17  C   UNL d   1       1.897   1.917  -2.012  0.00  0.00     0.040 A 
ATOM     18  C   UNL d   1       2.382   2.821  -2.963  0.00  0.00     0.039 A 
ATOM     19  C   UNL d   1       2.173   4.192  -2.783  0.00  0.00     0.103 A 
ATOM     20  C   UNL d   1       1.479   4.661  -1.660  0.00  0.00     0.039 A 
ATOM     21  C   UNL d   1       1.003   3.746  -0.711  0.00  0.00     0.040 A 
BRANCH  19  22
ATOM     22  N   UNL d   1       2.685   5.139  -3.781  0.00  0.00    -0.116 N 
ATOM     23  O   UNL d   1       3.287   4.676  -4.761  0.00  0.00    -0.532 OA
ATOM     24  O   UNL d   1       2.484   6.347  -3.586  0.00  0.00    -0.532 OA
ENDBRANCH  19  22
ENDBRANCH  15  16
ENDBRANCH   1  15
TORSDOF 4
