REMARK  3 active torsions:
REMARK  status: ('A' for Active; 'I' for Inactive)
REMARK    1  A    between atoms: C_6  and  C_1 
REMARK    2  A    between atoms: O_3  and  C_6 
REMARK    3  A    between atoms: C_4  and  O_3 
ROOT
ATOM      1  C   UNL d   1      -2.056  -1.454  -1.440  0.00  0.00     0.090 A 
ATOM      2  C   UNL d   1      -1.940  -2.840  -1.624  0.00  0.00     0.067 A 
ATOM      3 CL   UNL d   1      -0.601  -3.723  -0.978  0.00  0.00    -0.081 Cl
ATOM      4  C   UNL d   1      -3.179  -0.796  -1.957  0.00  0.00     0.038 A 
ATOM      5  C   UNL d   1      -2.905  -3.543  -2.353  0.00  0.00     0.026 A 
ATOM      6  C   UNL d   1      -4.142  -1.501  -2.684  0.00  0.00     0.003 A 
ATOM      7  C   UNL d   1      -4.001  -2.870  -2.890  0.00  0.00     0.002 A 
ENDROOT
BRANCH   1   8
ATOM      8  O   UNL d   1      -1.059  -0.817  -0.742  0.00  0.00    -0.343 OA
BRANCH   8   9
ATOM      9  C   UNL d   1      -0.903   0.572  -1.018  0.00  0.00     0.244 C 
BRANCH   9  10
ATOM     10  C   UNL d   1       0.438   1.092  -0.508  0.00  0.00     0.095 C 
ATOM     11  S   UNL d   1       0.940   2.658  -0.786  0.00  0.00    -0.064 SA
ATOM     12  N   UNL d   1       1.220   0.233   0.203  0.00  0.00    -0.392 N 
ATOM     13  H   UNL d   1       2.125   0.525   0.550  0.00  0.00     0.156 HD
ATOM     14  H   UNL d   1       0.932  -0.732   0.344  0.00  0.00     0.156 HD
ENDBRANCH   9  10
ENDBRANCH   8   9
ENDBRANCH   1   8
TORSDOF 3
