REMARK  2 active torsions:
REMARK  status: ('A' for Active; 'I' for Inactive)
REMARK    1  A    between atoms: C_5  and  C_1 
REMARK    2  A    between atoms: C_6  and  C_2 
REMARK       I    between atoms: N_12  and  C_5 
REMARK       I    between atoms: N_11  and  C_6 
ROOT
ATOM      1  C   UNL d   1      -2.636   0.704  -0.108  0.00  0.00     0.049 A 
ATOM      2  C   UNL d   1      -2.619  -0.699  -0.029  0.00  0.00     0.049 A 
ATOM      3  C   UNL d   1      -1.409   1.400  -0.108  0.00  0.00     0.043 A 
ATOM      4  C   UNL d   1      -1.383  -1.375   0.010  0.00  0.00     0.043 A 
ATOM      5  C   UNL d   1      -0.189   0.724  -0.055  0.00  0.00     0.056 A 
ATOM      6  C   UNL d   1      -0.177  -0.670   0.000  0.00  0.00     0.056 A 
ATOM      7 CL   UNL d   1       1.259   1.663  -0.064  0.00  0.00    -0.083 Cl
ATOM      8 CL   UNL d   1       1.286  -1.585   0.065  0.00  0.00    -0.083 Cl
ENDROOT
BRANCH   1   9
ATOM      9  C   UNL d   1      -3.837   1.583  -0.127  0.00  0.00     0.250 C 
ATOM     10  O   UNL d   1      -3.816   2.663   0.452  0.00  0.00    -0.268 OA
ATOM     11  N   UNL d   1      -4.924   1.208  -0.851  0.00  0.00    -0.366 N 
ATOM     12  H   UNL d   1      -5.066   0.248  -1.167  0.00  0.00     0.159 HD
ATOM     13  H   UNL d   1      -5.747   1.792  -0.792  0.00  0.00     0.159 HD
ENDBRANCH   1   9
BRANCH   2  14
ATOM     14  C   UNL d   1      -3.840  -1.541   0.013  0.00  0.00     0.250 C 
ATOM     15  O   UNL d   1      -4.792  -1.345  -0.729  0.00  0.00    -0.268 OA
ATOM     16  N   UNL d   1      -3.839  -2.584   0.895  0.00  0.00    -0.366 N 
ATOM     17  H   UNL d   1      -3.112  -2.760   1.576  0.00  0.00     0.159 HD
ATOM     18  H   UNL d   1      -4.672  -3.161   0.939  0.00  0.00     0.159 HD
ENDBRANCH   2  14
TORSDOF 2
