REMARK  6 active torsions:
REMARK  status: ('A' for Active; 'I' for Inactive)
REMARK    1  A    between atoms: C_6  and  C_1 
REMARK    2  A    between atoms: C_9  and  C_2 
REMARK       I    between atoms: C_5  and  N_7 
REMARK    3  A    between atoms: O_11  and  C_5 
REMARK       I    between atoms: N_12  and  C_9 
REMARK    4  A    between atoms: C_18  and  O_11 
REMARK    5  A    between atoms: C_19  and  N_12 
REMARK    6  A    between atoms: C_23  and  C_19 
ROOT
ATOM      1  C   UNL d   1       0.440  -2.593  -0.299  0.00  0.00     0.256 C 
ATOM      2  N   UNL d   1      -0.430  -3.697  -0.384  0.00  0.00    -0.356 N 
ATOM      3  O   UNL d   1       0.023  -1.444  -0.192  0.00  0.00    -0.267 OA
ATOM      4  H   UNL d   1      -0.031  -4.591  -0.127  0.00  0.00     0.162 HD
ENDROOT
BRANCH   1   5
ATOM      5  C   UNL d   1       1.866  -2.868  -0.310  0.00  0.00     0.092 A 
ATOM      6  C   UNL d   1       2.943  -2.151   0.341  0.00  0.00     0.085 A 
ATOM      7  N   UNL d   1       4.126  -2.690  -0.003  0.00  0.00    -0.259 N 
ATOM      8  O   UNL d   1       3.861  -3.707  -0.877  0.00  0.00    -0.241 OA
ATOM      9  HN  UNL d   1       5.045  -2.397   0.327  1.00  0.00     0.195 HD
ATOM     10  C   UNL d   1       2.526  -3.812  -1.078  0.00  0.00     0.090 A 
ATOM     11  C   UNL d   1       2.146  -4.811  -2.093  0.00  0.00     0.080 C 
BRANCH   6  12
ATOM     12  C   UNL d   1       2.954  -0.984   1.241  0.00  0.00     0.015 A 
ATOM     13  C   UNL d   1       2.160  -0.869   2.391  0.00  0.00     0.046 A 
ATOM     14 CL   UNL d   1       1.084  -2.116   2.921  0.00  0.00    -0.083 Cl
ATOM     15  C   UNL d   1       2.277   0.256   3.226  0.00  0.00     0.025 A 
ATOM     16  C   UNL d   1       3.209   1.258   2.951  0.00  0.00     0.002 A 
ATOM     17  C   UNL d   1       4.031   1.141   1.840  0.00  0.00     0.001 A 
ATOM     18  C   UNL d   1       3.902   0.035   0.992  0.00  0.00     0.015 A 
ENDBRANCH   6  12
ENDBRANCH   1   5
BRANCH   2  19
ATOM     19  C   UNL d   1      -1.827  -3.448  -0.074  0.00  0.00     0.127 C 
BRANCH  19  20
ATOM     20  C   UNL d   1      -2.901  -4.531  -0.347  0.00  0.00     0.006 C 
ATOM     21  C   UNL d   1      -2.775  -5.840   0.462  0.00  0.00     0.026 C 
ATOM     22  C   UNL d   1      -2.425  -7.096  -0.336  0.00  0.00     0.128 C 
ATOM     23  N   UNL d   1      -3.123  -7.134  -1.609  0.00  0.00    -0.328 N 
ATOM     24  C   UNL d   1      -4.089  -8.105  -1.864  0.00  0.00     0.363 C 
ATOM     25  C   UNL d   1      -2.834  -6.008  -2.478  0.00  0.00     0.128 C 
ATOM     26  O   UNL d   1      -4.407  -8.972  -1.063  0.00  0.00    -0.238 OA
ATOM     27  C   UNL d   1      -3.299  -4.710  -1.828  0.00  0.00     0.026 C 
BRANCH  24  28
ATOM     28  O   UNL d   1      -4.635  -7.978  -3.106  0.00  0.00    -0.294 OA
BRANCH  28  29
ATOM     29  C   UNL d   1      -5.700  -8.855  -3.576  0.00  0.00     0.061 C 
ATOM     30  C   UNL d   1      -6.961  -8.713  -2.717  0.00  0.00     0.046 C 
ATOM     31  C   UNL d   1      -6.017  -8.356  -4.997  0.00  0.00     0.046 C 
ATOM     32  C   UNL d   1      -5.248 -10.318  -3.671  0.00  0.00     0.046 C 
ENDBRANCH  28  29
ENDBRANCH  24  28
ENDBRANCH  19  20
ENDBRANCH   2  19
TORSDOF 6
