REMARK  3 active torsions:
REMARK  status: ('A' for Active; 'I' for Inactive)
REMARK    1  A    between atoms: N_7  and  C_3 
REMARK    2  A    between atoms: C_10  and  C_4 
REMARK    3  A    between atoms: C_12  and  N_7 
ROOT
ATOM      1  C   UNL d   1       0.693   1.179  -0.344  0.00  0.00     0.071 C 
ATOM      2  C   UNL d   1       1.424  -0.122  -0.250  0.00  0.00     0.173 C 
ATOM      3  C   UNL d   1       1.289   2.277  -0.847  0.00  0.00     0.107 C 
ATOM      4  C   UNL d   1       0.566  -1.391  -0.287  0.00  0.00     0.094 C 
ATOM      5  C   UNL d   1      -0.769   1.262  -0.080  0.00  0.00     0.164 C 
ATOM      6  C   UNL d   1      -0.784  -1.183   0.413  0.00  0.00     0.025 C 
ATOM      7  O   UNL d   1       2.655  -0.148  -0.265  0.00  0.00    -0.291 OA
ATOM      8  C   UNL d   1      -1.554  -0.020  -0.188  0.00  0.00     0.085 C 
ATOM      9  O   UNL d   1      -1.334   2.334   0.128  0.00  0.00    -0.292 OA
ENDROOT
BRANCH   3  10
ATOM     10  N   UNL d   1       2.584   2.413  -1.291  0.00  0.00    -0.365 N 
ATOM     11  H   UNL d   1       3.167   1.581  -1.151  0.00  0.00     0.165 HD
BRANCH  10  12
ATOM     12  C   UNL d   1       3.103   3.377  -2.173  0.00  0.00     0.032 A 
ATOM     13  C   UNL d   1       2.433   4.561  -2.510  0.00  0.00     0.031 A 
ATOM     14  C   UNL d   1       2.983   5.470  -3.423  0.00  0.00     0.026 A 
ATOM     15  C   UNL d   1       4.216   5.204  -4.008  0.00  0.00     0.034 A 
ATOM     16  C   UNL d   1       4.908   4.043  -3.680  0.00  0.00     0.026 A 
ATOM     17 CL   UNL d   1       4.885   6.311  -5.142  0.00  0.00    -0.084 Cl
ATOM     18  C   UNL d   1       4.356   3.141  -2.764  0.00  0.00     0.031 A 
ENDBRANCH  10  12
ENDBRANCH   3  10
BRANCH   4  19
ATOM     19  C   UNL d   1       1.268  -2.623   0.263  0.00  0.00    -0.046 A 
ATOM     20  C   UNL d   1       1.566  -2.757   1.628  0.00  0.00     0.008 A 
ATOM     21  C   UNL d   1       2.153  -3.927   2.117  0.00  0.00     0.001 A 
ATOM     22  C   UNL d   1       2.463  -4.970   1.248  0.00  0.00     0.000 A 
ATOM     23  C   UNL d   1       2.195  -4.842  -0.112  0.00  0.00     0.001 A 
ATOM     24  C   UNL d   1       1.602  -3.677  -0.602  0.00  0.00     0.008 A 
ENDBRANCH   4  19
TORSDOF 3
