REMARK  4 active torsions:
REMARK  status: ('A' for Active; 'I' for Inactive)
REMARK    1  A    between atoms: N_7  and  C_1 
REMARK    2  A    between atoms: C_8  and  C_6 
REMARK    3  A    between atoms: O_10  and  C_13 
REMARK    4  A    between atoms: C_16  and  O_10 
ROOT
ATOM      1  C   UNL d   1       0.471  -0.908   0.767  0.00  0.00     0.120 A 
ATOM      2  C   UNL d   1      -0.144   0.251   1.186  0.00  0.00     0.081 A 
ATOM      3  N   UNL d   1       0.202   0.441  -1.050  0.00  0.00    -0.298 N 
ATOM      4  HN  UNL d   1       0.249   0.790  -2.008  1.00  0.00     0.187 HD
ATOM      5  N   UNL d   1       0.622  -0.743  -0.585  0.00  0.00    -0.285 N 
ATOM      6  C   UNL d   1      -0.294   1.064   0.029  0.00  0.00     0.062 A 
ATOM      7  H   UNL d   1       0.981  -1.415  -1.249  0.00  0.00     0.188 HD
ENDROOT
BRANCH   6   8
ATOM      8  C   UNL d   1      -0.868   2.409  -0.061  0.00  0.00    -0.008 A 
ATOM      9  C   UNL d   1      -0.528   3.239  -1.138  0.00  0.00     0.016 A 
ATOM     10  C   UNL d   1      -1.032   4.538  -1.225  0.00  0.00     0.038 A 
ATOM     11  C   UNL d   1      -1.838   5.043  -0.203  0.00  0.00     0.076 A 
ATOM     12  C   UNL d   1      -2.235   4.209   0.840  0.00  0.00     0.038 A 
ATOM     13  C   UNL d   1      -1.751   2.898   0.913  0.00  0.00     0.016 A 
BRANCH  11  14
ATOM     14  O   UNL d   1      -2.309   6.339  -0.171  0.00  0.00    -0.311 OA
BRANCH  14  15
ATOM     15  C   UNL d   1      -1.499   7.344  -0.651  0.00  0.00     0.076 A 
ATOM     16  C   UNL d   1      -2.137   8.407  -1.291  0.00  0.00     0.037 A 
ATOM     17  C   UNL d   1      -1.381   9.440  -1.849  0.00  0.00     0.003 A 
ATOM     18  C   UNL d   1       0.010   9.411  -1.766  0.00  0.00     0.000 A 
ATOM     19  C   UNL d   1       0.648   8.374  -1.086  0.00  0.00     0.003 A 
ATOM     20  C   UNL d   1      -0.108   7.359  -0.500  0.00  0.00     0.037 A 
ENDBRANCH  14  15
ENDBRANCH  11  14
ENDBRANCH   6   8
BRANCH   1  21
ATOM     21  N   UNL d   1       0.839  -2.046   1.413  0.00  0.00    -0.362 N 
ATOM     22  C   UNL d   1       1.965  -2.888   0.977  0.00  0.00     0.150 C 
ATOM     23  C   UNL d   1       3.080  -2.883   2.038  0.00  0.00     0.187 C 
ATOM     24  O   UNL d   1       2.586  -3.255   3.336  0.00  0.00    -0.388 OA
ATOM     25  C   UNL d   1       1.564  -2.335   3.756  0.00  0.00     0.187 C 
ATOM     26  C   UNL d   1       0.379  -2.337   2.782  0.00  0.00     0.150 C 
ENDBRANCH   1  21
TORSDOF 4
