REMARK  4 active torsions:
REMARK  status: ('A' for Active; 'I' for Inactive)
REMARK    1  A    between atoms: C_4  and  S_1 
REMARK    2  A    between atoms: C_11  and  S_1 
REMARK    3  A    between atoms: N_9  and  C_5 
REMARK    4  A    between atoms: N_14  and  C_6 
ROOT
ATOM      1  N   UNL d   1       0.819  -4.111  -0.153  0.00  0.00    -0.180 N 
ATOM      2  HN  UNL d   1       1.436  -4.904   0.026  1.00  0.00     0.185 HD
ATOM      3  C   UNL d   1       0.468  -1.774  -0.258  0.00  0.00     0.118 A 
ATOM      4  C   UNL d   1      -0.471  -4.311  -0.476  0.00  0.00     0.681 A 
ATOM      5  C   UNL d   1       1.287  -2.854  -0.068  0.00  0.00     0.117 A 
ATOM      6  N   UNL d   1      -1.296  -3.299  -0.778  0.00  0.00    -0.200 N 
ATOM      7  HN  UNL d   1      -2.253  -3.470  -1.085  1.00  0.00     0.183 HD
ATOM      8  C   UNL d   1      -0.816  -2.046  -0.659  0.00  0.00     0.133 A 
ENDROOT
BRANCH   3   9
ATOM      9  S   UNL d   1       0.990  -0.119  -0.088  0.00  0.00     0.211 S 
ATOM     10  O   UNL d   1       0.108   0.675  -0.923  0.00  0.00    -0.217 OA
ATOM     11  O   UNL d   1       2.425  -0.065  -0.318  0.00  0.00    -0.217 OA
BRANCH   9  12
ATOM     12  C   UNL d   1       0.704   0.383   1.597  0.00  0.00     0.064 A 
ATOM     13  C   UNL d   1       1.370  -0.260   2.646  0.00  0.00     0.025 A 
ATOM     14  C   UNL d   1       1.147   0.156   3.963  0.00  0.00     0.025 A 
ATOM     15  C   UNL d   1       0.268   1.211   4.221  0.00  0.00     0.034 A 
ATOM     16  C   UNL d   1      -0.391   1.855   3.175  0.00  0.00     0.025 A 
ATOM     17 CL   UNL d   1      -0.001   1.725   5.842  0.00  0.00    -0.084 Cl
ATOM     18  C   UNL d   1      -0.173   1.442   1.858  0.00  0.00     0.025 A 
ENDBRANCH   9  12
ENDBRANCH   3   9
BRANCH   5  19
ATOM     19  N   UNL d   1       2.613  -2.757   0.339  0.00  0.00    -0.287 NA
ATOM     20  H   UNL d   1       3.036  -3.681   0.289  0.00  0.00     0.125 HD
ATOM     21  H   UNL d   1       3.143  -2.057  -0.185  0.00  0.00     0.125 HD
ENDBRANCH   5  19
BRANCH   4  22
ATOM     22  N   UNL d   1      -0.999  -5.572  -0.366  0.00  0.00    -0.214 N 
ATOM     23  C   UNL d   1      -0.143  -6.696   0.003  0.00  0.00     0.167 C 
ATOM     24  C   UNL d   1      -1.004  -7.727   0.752  0.00  0.00     0.188 C 
ATOM     25  O   UNL d   1      -2.124  -8.151  -0.046  0.00  0.00    -0.388 OA
ATOM     26  C   UNL d   1      -2.962  -7.027  -0.371  0.00  0.00     0.188 C 
ATOM     27  C   UNL d   1      -2.192  -5.933  -1.132  0.00  0.00     0.167 C 
ENDBRANCH   4  22
TORSDOF 4
