REMARK  4 active torsions:
REMARK  status: ('A' for Active; 'I' for Inactive)
REMARK    1  A    between atoms: C_4  and  C_1 
REMARK       I    between atoms: N_8  and  C_4 
REMARK    2  A    between atoms: N_9  and  N_8 
REMARK    3  A    between atoms: C_14  and  N_9 
REMARK    4  A    between atoms: C_15  and  C_11 
ROOT
ATOM      1  C   UNL d   1      -1.553   0.722   1.313  0.00  0.00     0.270 C 
ATOM      2  N   UNL d   1      -2.526   1.235   0.467  0.00  0.00    -0.282 N 
ATOM      3  O   UNL d   1      -0.785   1.473   1.914  0.00  0.00    -0.266 OA
ATOM      4  H   UNL d   1      -2.981   0.668  -0.239  0.00  0.00     0.184 HD
ENDROOT
BRANCH   2   5
ATOM      5  N   UNL d   1      -2.446   2.614   0.154  0.00  0.00    -0.203 NA
ATOM      6  H   UNL d   1      -1.870   3.092   0.861  0.00  0.00     0.153 HD
BRANCH   5   7
ATOM      7  C   UNL d   1      -3.718   3.242   0.111  0.00  0.00     0.027 A 
ATOM      8  C   UNL d   1      -4.779   2.865   0.937  0.00  0.00     0.026 A 
ATOM      9  C   UNL d   1      -6.008   3.525   0.865  0.00  0.00     0.009 A 
ATOM     10  C   UNL d   1      -6.202   4.596  -0.017  0.00  0.00    -0.055 A 
ATOM     11  C   UNL d   1      -5.117   5.021  -0.793  0.00  0.00     0.009 A 
ATOM     12  C   UNL d   1      -3.884   4.360  -0.715  0.00  0.00     0.026 A 
BRANCH  10  13
ATOM     13  C   UNL d   1      -7.552   5.283  -0.138  0.00  0.00     0.010 C 
ATOM     14  C   UNL d   1      -8.624   4.309  -0.638  0.00  0.00     0.015 C 
ATOM     15  C   UNL d   1      -7.976   5.929   1.182  0.00  0.00     0.015 C 
ENDBRANCH  10  13
ENDBRANCH   5   7
ENDBRANCH   2   5
BRANCH   1  16
ATOM     16  C   UNL d   1      -1.485  -0.724   1.442  0.00  0.00     0.088 A 
ATOM     17  C   UNL d   1      -0.457  -1.377   2.099  0.00  0.00     0.090 A 
ATOM     18  O   UNL d   1      -0.666  -2.715   2.074  0.00  0.00    -0.242 OA
ATOM     19  C   UNL d   1       0.772  -0.927   2.787  0.00  0.00     0.080 C 
ATOM     20  N   UNL d   1      -1.835  -2.984   1.403  0.00  0.00    -0.265 N 
ATOM     21  C   UNL d   1      -2.329  -1.797   1.028  0.00  0.00     0.047 A 
ATOM     22  HN  UNL d   1      -2.243  -3.902   1.226  1.00  0.00     0.194 HD
ATOM     23  C   UNL d   1      -3.619  -1.789   0.291  0.00  0.00     0.071 C 
ENDBRANCH   1  16
TORSDOF 4
