REMARK  4 active torsions:
REMARK  status: ('A' for Active; 'I' for Inactive)
REMARK    1  A    between atoms: C_4  and  S_1 
REMARK    2  A    between atoms: C_11  and  S_1 
REMARK    3  A    between atoms: N_9  and  C_5 
REMARK    4  A    between atoms: N_14  and  C_6 
ROOT
ATOM      1  N   UNL d   1      -0.754   2.432  -2.948  0.00  0.00    -0.180 N 
ATOM      2  HN  UNL d   1      -1.383   2.384  -3.750  1.00  0.00     0.185 HD
ATOM      3  C   UNL d   1       0.377   1.337  -1.166  0.00  0.00     0.118 A 
ATOM      4  C   UNL d   1      -0.257   3.615  -2.545  0.00  0.00     0.681 A 
ATOM      5  C   UNL d   1      -0.413   1.312  -2.283  0.00  0.00     0.117 A 
ATOM      6  N   UNL d   1       0.568   3.700  -1.491  0.00  0.00    -0.200 N 
ATOM      7  HN  UNL d   1       0.955   4.598  -1.201  1.00  0.00     0.183 HD
ATOM      8  C   UNL d   1       0.875   2.567  -0.824  0.00  0.00     0.133 A 
ENDROOT
BRANCH   3   9
ATOM      9  S   UNL d   1       0.865  -0.083  -0.271  0.00  0.00     0.211 S 
ATOM     10  O   UNL d   1       1.834   0.361   0.718  0.00  0.00    -0.217 OA
ATOM     11  O   UNL d   1       1.256  -1.090  -1.243  0.00  0.00    -0.217 OA
BRANCH   9  12
ATOM     12  C   UNL d   1      -0.513  -0.750   0.650  0.00  0.00     0.064 A 
ATOM     13  C   UNL d   1      -1.545  -1.407  -0.028  0.00  0.00     0.025 A 
ATOM     14  C   UNL d   1      -2.628  -1.930   0.683  0.00  0.00     0.025 A 
ATOM     15  C   UNL d   1      -2.664  -1.822   2.072  0.00  0.00     0.034 A 
ATOM     16  C   UNL d   1      -1.608  -1.225   2.760  0.00  0.00     0.025 A 
ATOM     17 CL   UNL d   1      -4.018  -2.434   2.939  0.00  0.00    -0.084 Cl
ATOM     18  C   UNL d   1      -0.525  -0.690   2.051  0.00  0.00     0.025 A 
ENDBRANCH   9  12
ENDBRANCH   3   9
BRANCH   5  19
ATOM     19  N   UNL d   1      -0.939   0.155  -2.852  0.00  0.00    -0.287 NA
ATOM     20  H   UNL d   1      -1.462   0.449  -3.677  0.00  0.00     0.125 HD
ATOM     21  H   UNL d   1      -0.193  -0.491  -3.116  0.00  0.00     0.125 HD
ENDBRANCH   5  19
BRANCH   4  22
ATOM     22  N   UNL d   1      -0.595   4.757  -3.226  0.00  0.00    -0.218 N 
ATOM     23  C   UNL d   1      -0.036   6.046  -2.845  0.00  0.00     0.141 C 
ATOM     24  C   UNL d   1       0.798   6.601  -4.000  0.00  0.00     0.020 C 
ATOM     25  C   UNL d   1      -0.014   6.647  -5.294  0.00  0.00     0.003 C 
ATOM     26  C   UNL d   1      -0.610   5.276  -5.614  0.00  0.00     0.020 C 
ATOM     27  C   UNL d   1      -1.409   4.718  -4.433  0.00  0.00     0.141 C 
ENDBRANCH   4  22
TORSDOF 4
