REMARK  2 active torsions:
REMARK  status: ('A' for Active; 'I' for Inactive)
REMARK    1  A    between atoms: C_3  and  C_1 
REMARK    2  A    between atoms: S_18  and  C_8 
ROOT
ATOM      1  C   UNL d   1      -0.379  -2.739   0.080  0.00  0.00     0.086 A 
ATOM      2  N   UNL d   1      -1.077  -3.493  -0.844  0.00  0.00    -0.346 N 
ATOM      3  HN  UNL d   1      -1.533  -3.118  -1.676  1.00  0.00     0.167 HD
ATOM      4  C   UNL d   1      -1.071  -4.766  -0.498  0.00  0.00     0.091 A 
ATOM      5  S   UNL d   1      -0.277  -5.103   0.995  0.00  0.00    -0.081 SA
ATOM      6  C   UNL d   1       0.132  -3.450   1.147  0.00  0.00     0.085 A 
ATOM      7  C   UNL d   1      -1.655  -5.803  -1.320  0.00  0.00     0.038 A 
ATOM      8  S   UNL d   1      -2.446  -5.416  -2.800  0.00  0.00    -0.099 SA
ATOM      9  C   UNL d   1      -1.666  -7.172  -1.109  0.00  0.00     0.022 A 
ATOM     10  C   UNL d   1      -2.755  -7.058  -3.155  0.00  0.00     0.050 A 
ATOM     11  C   UNL d   1      -2.290  -7.895  -2.169  0.00  0.00     0.008 A 
ENDROOT
BRANCH   1  12
ATOM     12  C   UNL d   1      -0.151  -1.271  -0.071  0.00  0.00     0.151 A 
ATOM     13  N   UNL d   1      -0.654  -0.423  -1.032  0.00  0.00    -0.314 N 
ATOM     14  C   UNL d   1      -0.060   0.789  -0.789  0.00  0.00     0.159 A 
ATOM     15  C   UNL d   1      -1.625  -0.716  -2.051  0.00  0.00     0.160 C 
ATOM     16  N   UNL d   1       0.698   0.709   0.278  0.00  0.00    -0.278 N 
ATOM     17  N   UNL d   1       0.630  -0.581   0.739  0.00  0.00    -0.281 N 
ATOM     18  HN  UNL d   1       1.240   1.468   0.690  1.00  0.00     0.189 HD
ATOM     19  HN  UNL d   1       1.102  -0.945   1.566  1.00  0.00     0.188 HD
BRANCH  14  20
ATOM     20  S   UNL d   1      -0.266   2.220  -1.739  0.00  0.00    -0.105 SA
ATOM     21  H   UNL d   1      -1.137   1.785  -2.655  0.00  0.00     0.110 HD
ENDBRANCH  14  20
ENDBRANCH   1  12
TORSDOF 2
