REMARK  4 active torsions:
REMARK  status: ('A' for Active; 'I' for Inactive)
REMARK    1  A    between atoms: C_2  and  S_1 
REMARK    2  A    between atoms: N_3  and  S_1 
REMARK    3  A    between atoms: C_7  and  N_3 
REMARK    4  A    between atoms: C_4  and  C_7 
ROOT
ATOM      1  S   UNL d   1       0.969  -0.086   0.107  0.00  0.00     0.259 S 
ATOM      2  O   UNL d   1       0.189  -0.928  -0.772  0.00  0.00    -0.201 OA
ATOM      3  O   UNL d   1       2.416  -0.135   0.119  0.00  0.00    -0.201 OA
ENDROOT
BRANCH   1   4
ATOM      4  C   UNL d   1       0.396  -0.382   1.768  0.00  0.00     0.080 A 
ATOM      5  C   UNL d   1       1.247  -0.141   2.855  0.00  0.00     0.035 A 
ATOM      6  C   UNL d   1       0.781  -0.462   4.121  0.00  0.00    -0.021 A 
ATOM      7  C   UNL d   1       1.426  -0.286   5.442  0.00  0.00     0.068 C 
ATOM      8  C   UNL d   1      -0.486  -0.997   4.301  0.00  0.00     0.075 A 
ATOM      9  C   UNL d   1       0.468  -1.119   6.298  0.00  0.00     0.180 C 
ATOM     10  O   UNL d   1      -0.800  -1.240   5.613  0.00  0.00    -0.350 OA
ATOM     11  C   UNL d   1      -1.334  -1.252   3.243  0.00  0.00     0.039 A 
ATOM     12  C   UNL d   1      -0.881  -0.952   1.956  0.00  0.00     0.028 A 
ENDBRANCH   1   4
BRANCH   1  13
ATOM     13  N   UNL d   1       0.491   1.496  -0.191  0.00  0.00    -0.311 N 
ATOM     14  H   UNL d   1      -0.508   1.649  -0.061  0.00  0.00     0.172 HD
BRANCH  13  15
ATOM     15  C   UNL d   1       1.356   2.565   0.313  0.00  0.00     0.178 C 
BRANCH  15  16
ATOM     16  C   UNL d   1       0.765   3.889  -0.096  0.00  0.00     0.007 A 
ATOM     17  C   UNL d   1       0.454   4.362  -1.366  0.00  0.00    -0.047 A 
ATOM     18  C   UNL d   1      -0.071   5.697  -1.307  0.00  0.00     0.015 A 
ATOM     19  C   UNL d   1       0.625   3.618  -2.652  0.00  0.00     0.049 C 
ATOM     20  C   UNL d   1      -0.125   6.192  -0.026  0.00  0.00     0.051 A 
ATOM     21  S   UNL d   1       0.431   5.058   1.118  0.00  0.00    -0.104 SA
ENDBRANCH  15  16
ENDBRANCH  13  15
ENDBRANCH   1  13
TORSDOF 4
