REMARK  5 active torsions:
REMARK  status: ('A' for Active; 'I' for Inactive)
REMARK    1  A    between atoms: C_8  and  C_1 
REMARK    2  A    between atoms: S_11  and  C_5 
REMARK    3  A    between atoms: C_18  and  S_11 
REMARK    4  A    between atoms: C_14  and  C_18 
REMARK       I    between atoms: N_16  and  C_14 
REMARK    5  A    between atoms: C_20  and  N_16 
ROOT
ATOM      1  C   UNL d   1      -0.013   0.727   0.253  0.00  0.00     0.132 C 
ATOM      2  N   UNL d   1       0.769  -0.392   0.054  0.00  0.00    -0.317 N 
ATOM      3  N   UNL d   1      -1.131   0.344   0.853  0.00  0.00    -0.285 N 
ATOM      4  HN  UNL d   1      -1.913   0.953   1.094  1.00  0.00     0.188 HD
ATOM      5  C   UNL d   1       0.123  -1.400   0.723  0.00  0.00     0.162 C 
ATOM      6  N   UNL d   1      -1.066  -0.990   1.093  0.00  0.00    -0.278 N 
ATOM      7  HN  UNL d   1      -1.807  -1.568   1.490  1.00  0.00     0.189 HD
ATOM      8  C   UNL d   1       1.959  -0.559  -0.740  0.00  0.00     0.160 C 
ENDROOT
BRANCH   5   9
ATOM      9  S   UNL d   1       0.814  -2.927   1.133  0.00  0.00    -0.083 SA
BRANCH   9  10
ATOM     10  C   UNL d   1      -0.524  -3.686   2.107  0.00  0.00     0.185 C 
BRANCH  10  11
ATOM     11  C   UNL d   1      -0.657  -3.106   3.515  0.00  0.00     0.231 C 
ATOM     12  N   UNL d   1      -1.386  -1.932   3.554  0.00  0.00    -0.327 N 
ATOM     13  H   UNL d   1      -1.538  -1.474   2.655  0.00  0.00     0.169 HD
ATOM     14  O   UNL d   1      -0.181  -3.689   4.488  0.00  0.00    -0.272 OA
BRANCH  12  15
ATOM     15  C   UNL d   1      -1.870  -1.220   4.664  0.00  0.00     0.034 A 
ATOM     16  C   UNL d   1      -1.860  -1.704   5.970  0.00  0.00     0.029 A 
ATOM     17  C   UNL d   1      -2.431  -0.948   7.002  0.00  0.00     0.002 A 
ATOM     18  C   UNL d   1      -3.002   0.296   6.734  0.00  0.00     0.000 A 
ATOM     19  C   UNL d   1      -3.003   0.791   5.434  0.00  0.00     0.002 A 
ATOM     20  C   UNL d   1      -2.443   0.034   4.405  0.00  0.00     0.029 A 
ENDBRANCH  12  15
ENDBRANCH  10  11
ENDBRANCH   9  10
ENDBRANCH   5   9
BRANCH   1  21
ATOM     21  C   UNL d   1       0.311   2.170  -0.034  0.00  0.00     0.222 C 
ATOM     22  O   UNL d   1       1.082   2.313  -1.233  0.00  0.00    -0.333 OA
ATOM     23  C   UNL d   1       0.309   2.338  -2.364  0.00  0.00     0.103 A 
ATOM     24  C   UNL d   1       0.983   2.218  -3.577  0.00  0.00     0.040 A 
ATOM     25  C   UNL d   1      -1.083   2.437  -2.339  0.00  0.00     0.102 A 
ATOM     26  C   UNL d   1       0.258   2.124  -4.764  0.00  0.00     0.003 A 
ATOM     27  C   UNL d   1      -1.138   2.141  -4.731  0.00  0.00     0.003 A 
ATOM     28  C   UNL d   1      -1.809   2.304  -3.519  0.00  0.00     0.039 A 
ATOM     29  O   UNL d   1      -1.801   2.657  -1.194  0.00  0.00    -0.345 OA
ATOM     30  C   UNL d   1      -0.949   3.041  -0.103  0.00  0.00     0.216 C 
ENDBRANCH   1  21
TORSDOF 5
