REMARK  4 active torsions:
REMARK  status: ('A' for Active; 'I' for Inactive)
REMARK    1  A    between atoms: S_3  and  N_1 
REMARK    2  A    between atoms: S_4  and  N_1 
REMARK    3  A    between atoms: C_5  and  S_3 
REMARK    4  A    between atoms: C_9  and  S_4 
ROOT
ATOM      1  N   UNL d   1       0.979   0.065   0.050  0.00  0.00    -0.236 N 
ATOM      2  HN  UNL d   1       0.525  -0.826   0.252  1.00  0.00     0.189 HD
ENDROOT
BRANCH   1   3
ATOM      3  S   UNL d   1      -0.022   1.409  -0.072  0.00  0.00     0.269 S 
ATOM      4  O   UNL d   1       0.770   2.624  -0.084  0.00  0.00    -0.200 OA
ATOM      5  O   UNL d   1      -1.030   1.167  -1.082  0.00  0.00    -0.200 OA
BRANCH   3   6
ATOM      6  C   UNL d   1      -0.847   1.379   1.515  0.00  0.00     0.080 A 
ATOM      7  C   UNL d   1      -0.329   2.140   2.572  0.00  0.00     0.027 A 
ATOM      8  C   UNL d   1      -1.004   2.181   3.796  0.00  0.00     0.025 A 
ATOM      9  C   UNL d   1      -2.195   1.474   3.955  0.00  0.00     0.034 A 
ATOM     10  C   UNL d   1      -2.722   0.729   2.900  0.00  0.00     0.025 A 
ATOM     11 CL   UNL d   1      -3.025   1.535   5.463  0.00  0.00    -0.084 Cl
ATOM     12  C   UNL d   1      -2.052   0.685   1.671  0.00  0.00     0.027 A 
ENDBRANCH   3   6
ENDBRANCH   1   3
BRANCH   1  13
ATOM     13  S   UNL d   1       2.627   0.035  -0.124  0.00  0.00     0.061 S 
ATOM     14  O   UNL d   1       3.105  -1.330  -0.175  0.00  0.00    -0.244 OA
ATOM     15  C   UNL d   1       3.309   0.825   1.301  0.00  0.00     0.143 C 
BRANCH  13  16
ATOM     16  C   UNL d   1       3.117   0.886  -1.575  0.00  0.00     0.038 A 
ATOM     17  C   UNL d   1       3.435   2.245  -1.538  0.00  0.00     0.022 A 
ATOM     18  C   UNL d   1       3.902   2.884  -2.689  0.00  0.00     0.001 A 
ATOM     19  C   UNL d   1       4.078   2.161  -3.867  0.00  0.00     0.000 A 
ATOM     20  C   UNL d   1       3.800   0.795  -3.893  0.00  0.00     0.001 A 
ATOM     21  C   UNL d   1       3.322   0.154  -2.747  0.00  0.00     0.022 A 
ENDBRANCH  13  16
ENDBRANCH   1  13
TORSDOF 4
