REMARK  5 active torsions:
REMARK  status: ('A' for Active; 'I' for Inactive)
REMARK    1  A    between atoms: C_4  and  C_1 
REMARK    2  A    between atoms: C_15  and  C_5 
REMARK    3  A    between atoms: S_19  and  C_13 
REMARK    4  A    between atoms: C_22  and  S_19 
REMARK    5  A    between atoms: C_24  and  C_22 
ROOT
ATOM      1  N   UNL d   1       2.914  -6.715  -1.336  0.00  0.00    -0.335 N 
ATOM      2  HN  UNL d   1       2.649  -6.885  -0.365  1.00  0.00     0.168 HD
ATOM      3  C   UNL d   1       3.063  -7.725  -2.207  0.00  0.00     0.144 A 
ATOM      4  C   UNL d   1       3.130  -5.465  -1.798  0.00  0.00     0.062 A 
ATOM      5  N   UNL d   1       3.414  -7.577  -3.494  0.00  0.00    -0.347 N 
ATOM      6  HN  UNL d   1       3.524  -8.375  -4.119  1.00  0.00     0.167 HD
ATOM      7  C   UNL d   1       3.484  -5.208  -3.106  0.00  0.00     0.049 A 
ATOM      8  C   UNL d   1       3.614  -6.311  -3.914  0.00  0.00     0.092 A 
ENDROOT
BRANCH   4   9
ATOM      9  C   UNL d   1       2.974  -4.370  -0.841  0.00  0.00     0.066 A 
ATOM     10  N   UNL d   1       3.162  -3.038  -1.196  0.00  0.00    -0.346 N 
ATOM     11  C   UNL d   1       2.991  -2.261  -0.141  0.00  0.00     0.102 A 
ATOM     12  HN  UNL d   1       3.398  -2.709  -2.132  1.00  0.00     0.167 HD
ATOM     13  S   UNL d   1       2.584  -3.076   1.316  0.00  0.00    -0.080 SA
ATOM     14  C   UNL d   1       2.637  -4.572   0.486  0.00  0.00     0.083 A 
BRANCH  11  15
ATOM     15  C   UNL d   1       3.147  -0.765  -0.210  0.00  0.00     0.073 A 
ATOM     16  N   UNL d   1       3.034   0.056   0.904  0.00  0.00    -0.352 N 
ATOM     17  C   UNL d   1       3.237   1.309   0.560  0.00  0.00     0.047 A 
ATOM     18  HN  UNL d   1       2.825  -0.266   1.849  1.00  0.00     0.166 HD
ATOM     19  C   UNL d   1       3.219   2.457   1.507  0.00  0.00     0.076 C 
ATOM     20  S   UNL d   1       3.543   1.579  -1.111  0.00  0.00    -0.087 SA
ATOM     21  C   UNL d   1       3.421  -0.107  -1.393  0.00  0.00     0.083 A 
ENDBRANCH  11  15
ENDBRANCH   4   9
BRANCH   3  22
ATOM     22  S   UNL d   1       2.671  -9.342  -1.586  0.00  0.00    -0.089 SA
BRANCH  22  23
ATOM     23  C   UNL d   1       3.756 -10.369  -2.619  0.00  0.00     0.121 C 
BRANCH  23  24
ATOM     24  C   UNL d   1       3.661 -11.831  -2.229  0.00  0.00    -0.048 A 
ATOM     25  C   UNL d   1       2.682 -12.660  -2.800  0.00  0.00     0.009 A 
ATOM     26  C   UNL d   1       2.597 -14.011  -2.449  0.00  0.00     0.024 A 
ATOM     27  C   UNL d   1       3.486 -14.542  -1.518  0.00  0.00     0.034 A 
ATOM     28  C   UNL d   1       4.450 -13.730  -0.924  0.00  0.00     0.024 A 
ATOM     29 CL   UNL d   1       3.394 -16.209  -1.099  0.00  0.00    -0.084 Cl
ATOM     30  C   UNL d   1       4.536 -12.379  -1.276  0.00  0.00     0.009 A 
ENDBRANCH  23  24
ENDBRANCH  22  23
ENDBRANCH   3  22
TORSDOF 5
