REMARK  4 active torsions:
REMARK  status: ('A' for Active; 'I' for Inactive)
REMARK    1  A    between atoms: C_3  and  C_1 
REMARK       I    between atoms: N_7  and  C_1 
REMARK    2  A    between atoms: C_8  and  C_5 
REMARK    3  A    between atoms: C_11  and  N_7 
REMARK    4  A    between atoms: O_17  and  C_8 
ROOT
ATOM      1  C   UNL d   1       1.011  -0.052   0.015  0.00  0.00     0.257 C 
ATOM      2  N   UNL d   1       0.251  -0.962   0.724  0.00  0.00    -0.323 N 
ATOM      3  O   UNL d   1       0.569   0.839  -0.697  0.00  0.00    -0.267 OA
ATOM      4  H   UNL d   1       0.699  -1.551   1.418  0.00  0.00     0.169 HD
ENDROOT
BRANCH   1   5
ATOM      5  C   UNL d   1       2.490  -0.118   0.176  0.00  0.00     0.049 A 
ATOM      6  C   UNL d   1       3.181  -0.444   1.353  0.00  0.00     0.053 A 
ATOM      7  C   UNL d   1       4.587  -0.526   1.326  0.00  0.00     0.019 A 
ATOM      8  C   UNL d   1       5.301  -0.247   0.159  0.00  0.00     0.001 A 
ATOM      9  C   UNL d   1       4.621   0.130  -0.992  0.00  0.00     0.001 A 
ATOM     10  C   UNL d   1       3.228   0.197  -0.983  0.00  0.00     0.018 A 
BRANCH   6  11
ATOM     11  C   UNL d   1       2.560  -0.751   2.662  0.00  0.00     0.177 C 
ATOM     12  O   UNL d   1       2.987  -1.637   3.385  0.00  0.00    -0.646 OA
BRANCH  11  13
ATOM     13  O   UNL d   1       1.493  -0.002   2.994  0.00  0.00    -0.773 OA
ATOM     14  H   UNL d   1       1.260   0.746   2.408  0.00  0.00     0.167 HD
ENDBRANCH  11  13
ENDBRANCH   6  11
ENDBRANCH   1   5
BRANCH   2  15
ATOM     15  C   UNL d   1      -1.159  -1.018   0.721  0.00  0.00     0.036 A 
ATOM     16  C   UNL d   1      -1.938  -0.515  -0.322  0.00  0.00     0.048 A 
ATOM     17  C   UNL d   1      -3.314  -0.590  -0.194  0.00  0.00     0.050 A 
ATOM     18  C   UNL d   1      -4.336  -0.152  -1.132  0.00  0.00     0.294 A 
ATOM     19  C   UNL d   1      -3.931  -1.126   0.919  0.00  0.00    -0.018 A 
ATOM     20  O   UNL d   1      -5.543  -0.411  -0.543  0.00  0.00    -0.313 OA
ATOM     21  O   UNL d   1      -4.157   0.335  -2.230  0.00  0.00    -0.259 OA
ATOM     22  C   UNL d   1      -5.393  -1.004   0.764  0.00  0.00     0.218 A 
ATOM     23  C   UNL d   1      -3.179  -1.651   1.951  0.00  0.00     0.012 A 
ATOM     24  C   UNL d   1      -1.783  -1.611   1.838  0.00  0.00     0.030 A 
ENDBRANCH   2  15
TORSDOF 4
