REMARK  6 active torsions:
REMARK  status: ('A' for Active; 'I' for Inactive)
REMARK    1  A    between atoms: N_2  and  C_1 
REMARK    2  A    between atoms: C_4  and  C_1 
REMARK    3  A    between atoms: C_6  and  C_1 
REMARK    4  A    between atoms: O_9  and  C_1 
REMARK       I    between atoms: C_3  and  N_2 
REMARK    5  A    between atoms: C_5  and  C_3 
REMARK    6  A    between atoms: O_14  and  C_6 
ROOT
ATOM      1  C   UNL d   1       0.962   0.065   0.007  0.00  0.00     0.325 C 
ENDROOT
BRANCH   1   2
ATOM      2  N   UNL d   1       0.636  -0.680  -1.215  0.00  0.00    -0.309 N 
ATOM      3  C   UNL d   1       1.056  -0.278  -2.455  0.00  0.00     0.256 C 
ATOM      4  O   UNL d   1       1.645   0.788  -2.606  0.00  0.00    -0.268 OA
ATOM      5  H   UNL d   1       0.190  -1.585  -1.092  0.00  0.00     0.166 HD
BRANCH   3   6
ATOM      6  C   UNL d   1       0.818  -1.205  -3.597  0.00  0.00     0.053 A 
ATOM      7  C   UNL d   1      -0.265  -2.091  -3.694  0.00  0.00     0.049 A 
ATOM      8 CL   UNL d   1      -1.559  -2.157  -2.549  0.00  0.00    -0.083 Cl
ATOM      9  C   UNL d   1      -0.360  -2.965  -4.786  0.00  0.00     0.025 A 
ATOM     10  C   UNL d   1       0.607  -2.948  -5.791  0.00  0.00     0.002 A 
ATOM     11  C   UNL d   1       1.665  -2.045  -5.720  0.00  0.00     0.001 A 
ATOM     12  C   UNL d   1       1.769  -1.177  -4.632  0.00  0.00     0.019 A 
ENDBRANCH   3   6
ENDBRANCH   1   2
BRANCH   1  13
ATOM     13  C   UNL d   1       2.478   0.124   0.377  0.00  0.00     0.448 C 
ATOM     14  F   UNL d   1       3.260  -0.458  -0.568  0.00  0.00    -0.166 F 
ATOM     15  F   UNL d   1       2.912   1.403   0.509  0.00  0.00    -0.166 F 
ATOM     16  F   UNL d   1       2.773  -0.506   1.542  0.00  0.00    -0.166 F 
ENDBRANCH   1  13
BRANCH   1  17
ATOM     17  C   UNL d   1       0.305  -0.713   1.162  0.00  0.00     0.324 C 
ATOM     18  O   UNL d   1       0.050  -1.916   1.109  0.00  0.00    -0.259 OA
BRANCH  17  19
ATOM     19  O   UNL d   1       0.055   0.083   2.240  0.00  0.00    -0.322 OA
ATOM     20  C   UNL d   1      -0.551  -0.588   3.346  0.00  0.00     0.213 C 
ENDBRANCH  17  19
ENDBRANCH   1  17
BRANCH   1  21
ATOM     21  O   UNL d   1       0.357   1.347  -0.168  0.00  0.00    -0.356 OA
ATOM     22  H   UNL d   1       0.763   1.697  -0.987  0.00  0.00     0.213 HD
ENDBRANCH   1  21
TORSDOF 6
