REMARK  2 active torsions:
REMARK  status: ('A' for Active; 'I' for Inactive)
REMARK       I    between atoms: N_2  and  C_1 
REMARK    1  A    between atoms: C_5  and  C_1 
REMARK       I    between atoms: C_4  and  N_2 
REMARK    2  A    between atoms: C_3  and  N_8 
REMARK       I    between atoms: N_8  and  C_4 
ROOT
ATOM      1  C   UNL d   1       0.901   0.402   0.220  0.00  0.00     0.260 C 
ATOM      2  N   UNL d   1       0.047   1.394  -0.235  0.00  0.00    -0.275 N 
ATOM      3  C   UNL d   1       0.361   2.619  -0.780  0.00  0.00     0.327 C 
ATOM      4  N   UNL d   1       1.647   3.043  -0.563  0.00  0.00    -0.305 N 
ATOM      5  O   UNL d   1       2.126   0.492   0.205  0.00  0.00    -0.267 OA
ATOM      6  O   UNL d   1      -0.494   3.227  -1.418  0.00  0.00    -0.247 OA
ATOM      7  H   UNL d   1      -0.939   1.189  -0.304  0.00  0.00     0.173 HD
ATOM      8  H   UNL d   1       2.335   2.288  -0.547  0.00  0.00     0.171 HD
ENDROOT
BRANCH   1   9
ATOM      9  C   UNL d   1       0.229  -0.819   0.761  0.00  0.00     0.044 A 
ATOM     10  C   UNL d   1      -0.709  -1.537  -0.018  0.00  0.00    -0.045 A 
ATOM     11  C   UNL d   1      -1.360  -2.650   0.550  0.00  0.00     0.014 A 
ATOM     12  C   UNL d   1      -1.056  -1.215  -1.446  0.00  0.00     0.049 C 
ATOM     13  C   UNL d   1      -1.060  -3.093   1.841  0.00  0.00    -0.061 A 
ATOM     14  C   UNL d   1      -0.099  -2.404   2.582  0.00  0.00     0.014 A 
ATOM     15  C   UNL d   1      -1.749  -4.303   2.398  0.00  0.00     0.048 C 
ATOM     16  C   UNL d   1       0.546  -1.264   2.066  0.00  0.00    -0.045 A 
ATOM     17  C   UNL d   1       1.591  -0.624   2.944  0.00  0.00     0.049 C 
ENDBRANCH   1   9
BRANCH   4  18
ATOM     18  C   UNL d   1       2.145   4.360  -0.743  0.00  0.00     0.080 A 
ATOM     19  C   UNL d   1       1.431   5.529  -0.408  0.00  0.00     0.064 A 
ATOM     20  C   UNL d   1       2.028   6.793  -0.546  0.00  0.00     0.050 A 
ATOM     21 CL   UNL d   1      -0.110   5.528   0.382  0.00  0.00    -0.082 Cl
ATOM     22  C   UNL d   1       3.339   6.902  -0.995  0.00  0.00     0.037 A 
ATOM     23  C   UNL d   1       4.068   5.765  -1.321  0.00  0.00     0.050 A 
ATOM     24 CL   UNL d   1       4.077   8.451  -1.099  0.00  0.00    -0.084 Cl
ATOM     25  C   UNL d   1       3.474   4.507  -1.189  0.00  0.00     0.064 A 
ATOM     26 CL   UNL d   1       4.433   3.128  -1.616  0.00  0.00    -0.082 Cl
ENDBRANCH   4  18
TORSDOF 2
