REMARK  10 active torsions:
REMARK  status: ('A' for Active; 'I' for Inactive)
REMARK    1  A    between atoms: C_4  and  S_1 
REMARK    2  A    between atoms: C_15  and  S_1 
REMARK    3  A    between atoms: C_2  and  C_9 
REMARK    4  A    between atoms: C_3  and  C_11 
REMARK    5  A    between atoms: C_5  and  C_4 
REMARK    6  A    between atoms: N_29  and  C_5 
REMARK    7  A    between atoms: C_6  and  O_10 
REMARK    8  A    between atoms: C_14  and  C_6 
REMARK    9  A    between atoms: O_10  and  N_7 
REMARK   10  A    between atoms: C_18  and  C_15 
ROOT
ATOM      1  C   UNL d   1       1.111  -2.264  -1.625  0.00  0.00     0.089 C 
ATOM      2  N   UNL d   1       0.140  -1.415  -1.476  0.00  0.00    -0.250 N 
ATOM      3  HN  UNL d   1      -0.846  -1.674  -1.486  1.00  0.00     0.196 HD
ENDROOT
BRANCH   1   4
ATOM      4  C   UNL d   1       0.726  -3.722  -1.774  0.00  0.00     0.212 C 
BRANCH   4   5
ATOM      5  S   UNL d   1       1.310  -4.390  -3.315  0.00  0.00     0.154 S 
ATOM      6  O   UNL d   1       2.757  -4.241  -3.319  0.00  0.00    -0.227 OA
ATOM      7  O   UNL d   1       0.501  -3.839  -4.385  0.00  0.00    -0.227 OA
BRANCH   5   8
ATOM      8  C   UNL d   1       0.915  -6.128  -3.133  0.00  0.00     0.179 C 
BRANCH   8   9
ATOM      9  C   UNL d   1       1.297  -6.909  -4.367  0.00  0.00    -0.043 A 
ATOM     10  C   UNL d   1       0.353  -7.154  -5.380  0.00  0.00     0.024 A 
ATOM     11  C   UNL d   1       0.668  -7.960  -6.488  0.00  0.00     0.048 A 
ATOM     12  C   UNL d   1       1.956  -8.504  -6.589  0.00  0.00     0.016 A 
ATOM     13  C   UNL d   1       2.908  -8.248  -5.603  0.00  0.00     0.001 A 
ATOM     14  C   UNL d   1       2.581  -7.457  -4.500  0.00  0.00     0.008 A 
BRANCH  11  15
ATOM     15  C   UNL d   1      -0.360  -8.274  -7.551  0.00  0.00     0.417 C 
ATOM     16  F   UNL d   1      -1.570  -7.689  -7.331  0.00  0.00    -0.166 F 
ATOM     17  F   UNL d   1       0.029  -7.878  -8.794  0.00  0.00    -0.166 F 
ATOM     18  F   UNL d   1      -0.608  -9.611  -7.647  0.00  0.00    -0.166 F 
ENDBRANCH  11  15
ENDBRANCH   8   9
ENDBRANCH   5   8
ENDBRANCH   4   5
ENDBRANCH   1   4
BRANCH   1  19
ATOM     19  N   UNL d   1       2.446  -1.931  -1.590  0.00  0.00    -0.290 NA
ATOM     20  H   UNL d   1       3.069  -2.530  -2.139  0.00  0.00     0.125 HD
ATOM     21  H   UNL d   1       2.617  -0.947  -1.761  0.00  0.00     0.125 HD
ENDBRANCH   1  19
BRANCH   2  22
ATOM     22  O   UNL d   1       0.606  -0.088  -1.298  0.00  0.00    -0.194 OA
BRANCH  22  23
ATOM     23  C   UNL d   1      -0.462   0.735  -1.049  0.00  0.00     0.315 C 
ATOM     24  O   UNL d   1      -1.639   0.413  -0.964  0.00  0.00    -0.257 OA
BRANCH  23  25
ATOM     25  C   UNL d   1      -0.028   2.157  -0.879  0.00  0.00     0.041 A 
ATOM     26  C   UNL d   1      -1.027   3.122  -0.668  0.00  0.00     0.018 A 
ATOM     27  C   UNL d   1      -0.699   4.472  -0.491  0.00  0.00     0.017 A 
ATOM     28  C   UNL d   1       0.638   4.887  -0.521  0.00  0.00     0.048 A 
ATOM     29  C   UNL d   1       1.638   3.923  -0.735  0.00  0.00     0.017 A 
ATOM     30  C   UNL d   1       1.310   2.568  -0.912  0.00  0.00     0.018 A 
BRANCH  28  31
ATOM     31  C   UNL d   1       1.007   6.340  -0.322  0.00  0.00     0.417 C 
ATOM     32  F   UNL d   1      -0.069   7.162  -0.178  0.00  0.00    -0.166 F 
ATOM     33  F   UNL d   1       1.775   6.532   0.785  0.00  0.00    -0.166 F 
ATOM     34  F   UNL d   1       1.724   6.844  -1.365  0.00  0.00    -0.166 F 
ENDBRANCH  28  31
ENDBRANCH  23  25
ENDBRANCH  22  23
ENDBRANCH   2  22
TORSDOF 10
