REMARK  8 active torsions:
REMARK  status: ('A' for Active; 'I' for Inactive)
REMARK    1  A    between atoms: S_15  and  C_1 
REMARK    2  A    between atoms: C_7  and  C_6 
REMARK    3  A    between atoms: O_23  and  C_11 
REMARK    4  A    between atoms: C_22  and  S_15 
REMARK    5  A    between atoms: C_21  and  C_22 
REMARK    6  A    between atoms: C_27  and  O_23 
REMARK    7  A    between atoms: C_28  and  C_27 
REMARK    8  A    between atoms: C_29  and  C_28 
ROOT
ATOM      1  N   UNL d   1     -10.293  -1.718   0.064  0.00  0.00    -0.352 N 
ATOM      2  HN  UNL d   1     -10.751  -0.806   0.068  1.00  0.00     0.166 HD
ATOM      3  C   UNL d   1     -11.023  -2.858   0.093  0.00  0.00     0.119 A 
ATOM      4  C   UNL d   1      -8.244  -3.036   0.022  0.00  0.00     0.025 A 
ATOM      5  C   UNL d   1      -8.956  -1.811   0.030  0.00  0.00     0.045 A 
ATOM      6  C   UNL d   1      -9.025  -4.222   0.048  0.00  0.00     0.083 A 
ATOM      7  C   UNL d   1     -10.421  -4.107   0.085  0.00  0.00     0.072 A 
ATOM      8  C   UNL d   1      -6.823  -2.983  -0.007  0.00  0.00     0.024 A 
ATOM      9  C   UNL d   1      -8.259  -0.616   0.002  0.00  0.00     0.031 A 
ATOM     10  C   UNL d   1      -6.128  -1.756  -0.042  0.00  0.00    -0.047 A 
ATOM     11  C   UNL d   1      -6.871  -0.572  -0.036  0.00  0.00     0.010 A 
ENDROOT
BRANCH  10  12
ATOM     12  C   UNL d   1      -4.617  -1.679  -0.047  0.00  0.00     0.121 C 
BRANCH  12  13
ATOM     13  S   UNL d   1      -3.888  -2.364  -1.563  0.00  0.00    -0.089 SA
BRANCH  13  14
ATOM     14  C   UNL d   1      -2.214  -2.110  -1.242  0.00  0.00     0.145 A 
ATOM     15  N   UNL d   1      -1.672  -1.495  -0.219  0.00  0.00    -0.335 N 
ATOM     16  C   UNL d   1      -0.316  -1.579  -0.441  0.00  0.00     0.061 A 
ATOM     17  HN  UNL d   1      -2.150  -1.053   0.567  1.00  0.00     0.168 HD
ATOM     18  C   UNL d   1       0.752  -1.095   0.330  0.00  0.00     0.032 A 
ATOM     19  C   UNL d   1      -0.042  -2.260  -1.624  0.00  0.00     0.061 A 
ATOM     20  C   UNL d   1       2.061  -1.319  -0.119  0.00  0.00     0.002 A 
ATOM     21  C   UNL d   1       2.302  -2.010  -1.310  0.00  0.00     0.002 A 
ATOM     22  C   UNL d   1       1.251  -2.498  -2.094  0.00  0.00     0.032 A 
ATOM     23  N   UNL d   1      -1.279  -2.583  -2.115  0.00  0.00    -0.335 N 
ATOM     24  H   UNL d   1      -1.483  -3.084  -2.967  0.00  0.00     0.168 HD
ENDBRANCH  13  14
ENDBRANCH  12  13
ENDBRANCH  10  12
BRANCH   6  25
ATOM     25  O   UNL d   1      -8.385  -5.456   0.032  0.00  0.00    -0.350 OA
BRANCH  25  26
ATOM     26  C   UNL d   1      -9.288  -6.572   0.038  0.00  0.00     0.175 C 
BRANCH  26  27
ATOM     27  C   UNL d   1      -8.631  -7.951   0.008  0.00  0.00     0.026 C 
BRANCH  27  28
ATOM     28  C   UNL d   1      -9.755  -9.002   0.024  0.00  0.00    -0.002 C 
ATOM     29  C   UNL d   1      -9.261 -10.435  -0.002  0.00  0.00     0.005 C 
ENDBRANCH  27  28
ENDBRANCH  26  27
ENDBRANCH  25  26
ENDBRANCH   6  25
BRANCH   3  30
ATOM     30  C   UNL d   1     -12.543  -2.802   0.128  0.00  0.00     0.432 C 
ATOM     31  F   UNL d   1     -13.072  -1.551   0.151  0.00  0.00    -0.165 F 
ATOM     32  F   UNL d   1     -13.104  -3.429  -0.950  0.00  0.00    -0.165 F 
ATOM     33  F   UNL d   1     -13.055  -3.448   1.219  0.00  0.00    -0.165 F 
ENDBRANCH   3  30
TORSDOF 8
