REMARK  4 active torsions:
REMARK  status: ('A' for Active; 'I' for Inactive)
REMARK    1  A    between atoms: C_7  and  C_1 
REMARK    2  A    between atoms: C_12  and  C_6 
REMARK    3  A    between atoms: O_8  and  C_12 
REMARK    4  A    between atoms: C_9  and  O_8 
ROOT
ATOM      1  C   UNL d   1      -0.410  -0.914   0.362  0.00  0.00     0.074 A 
ATOM      2  N   UNL d   1      -0.092   0.881  -1.107  0.00  0.00    -0.355 N 
ATOM      3  HN  UNL d   1      -0.202   1.429  -1.960  1.00  0.00     0.166 HD
ATOM      4  C   UNL d   1      -0.710  -0.336  -0.866  0.00  0.00     0.026 A 
ATOM      5  S   UNL d   1       0.652   0.122   1.227  0.00  0.00    -0.069 SA
ATOM      6  C   UNL d   1       0.656   1.231  -0.082  0.00  0.00     0.076 A 
ATOM      7  C   UNL d   1      -1.609  -0.879  -1.921  0.00  0.00     0.070 C 
ENDROOT
BRANCH   6   8
ATOM      8  C   UNL d   1       1.396   2.536  -0.004  0.00  0.00     0.240 C 
BRANCH   8   9
ATOM      9  O   UNL d   1       2.802   2.268   0.002  0.00  0.00    -0.343 OA
BRANCH   9  10
ATOM     10  C   UNL d   1       3.592   3.393   0.005  0.00  0.00     0.090 A 
ATOM     11  C   UNL d   1       4.725   3.416   0.832  0.00  0.00     0.067 A 
ATOM     12 CL   UNL d   1       5.093   2.101   1.890  0.00  0.00    -0.081 Cl
ATOM     13  C   UNL d   1       5.583   4.524   0.831  0.00  0.00     0.026 A 
ATOM     14  C   UNL d   1       5.321   5.608  -0.005  0.00  0.00     0.002 A 
ATOM     15  C   UNL d   1       4.212   5.585  -0.844  0.00  0.00     0.003 A 
ATOM     16  C   UNL d   1       3.357   4.477  -0.849  0.00  0.00     0.038 A 
ENDBRANCH   9  10
ENDBRANCH   8   9
ENDBRANCH   6   8
BRANCH   1  17
ATOM     17  C   UNL d   1      -0.911  -2.175   0.888  0.00  0.00     0.164 C 
ATOM     18  O   UNL d   1      -1.837  -2.788   0.347  0.00  0.00    -0.292 OA
ATOM     19  C   UNL d   1      -0.322  -2.761   2.151  0.00  0.00     0.097 C 
ENDBRANCH   1  17
TORSDOF 4
