REMARK  7 active torsions:
REMARK  status: ('A' for Active; 'I' for Inactive)
REMARK    1  A    between atoms: C_8  and  S_1 
REMARK    2  A    between atoms: C_14  and  S_1 
REMARK    3  A    between atoms: C_2  and  C_3 
REMARK       I    between atoms: N_4  and  C_2 
REMARK    4  A    between atoms: C_6  and  N_4 
REMARK    5  A    between atoms: C_5  and  S_17 
REMARK    6  A    between atoms: C_20  and  C_8 
REMARK    7  A    between atoms: S_17  and  C_20 
ROOT
ATOM      1  C   UNL d   1       0.314   0.866  -5.830  0.00  0.00     0.065 A 
ATOM      2  C   UNL d   1       0.671  -0.485  -5.748  0.00  0.00     0.085 A 
ATOM      3  N   UNL d   1       1.323  -1.116  -6.765  0.00  0.00    -0.360 N 
ATOM      4  HN  UNL d   1       1.568  -2.104  -6.694  1.00  0.00     0.166 HD
ATOM      5  C   UNL d   1       0.691   1.574  -6.988  0.00  0.00     0.021 A 
ATOM      6  C   UNL d   1       1.640  -0.404  -7.870  0.00  0.00     0.089 A 
ATOM      7  C   UNL d   1       1.364   0.939  -8.020  0.00  0.00     0.018 A 
ENDROOT
BRANCH   1   8
ATOM      8  C   UNL d   1      -0.541   1.638  -4.889  0.00  0.00     0.259 C 
ATOM      9  N   UNL d   1      -0.306   1.539  -3.532  0.00  0.00    -0.321 N 
ATOM     10  H   UNL d   1       0.458   0.947  -3.215  0.00  0.00     0.169 HD
ATOM     11  O   UNL d   1      -1.353   2.404  -5.410  0.00  0.00    -0.267 OA
BRANCH   9  12
ATOM     12  C   UNL d   1      -0.934   2.328  -2.521  0.00  0.00     0.057 A 
ATOM     13  C   UNL d   1      -0.378   2.360  -1.229  0.00  0.00     0.062 A 
ATOM     14  C   UNL d   1      -0.925   3.167  -0.221  0.00  0.00     0.050 A 
ATOM     15 CL   UNL d   1       1.037   1.441  -0.846  0.00  0.00    -0.082 Cl
ATOM     16  C   UNL d   1      -2.050   3.939  -0.492  0.00  0.00     0.035 A 
ATOM     17  C   UNL d   1      -2.637   3.900  -1.751  0.00  0.00     0.026 A 
ATOM     18 CL   UNL d   1      -2.717   4.950   0.731  0.00  0.00    -0.084 Cl
ATOM     19  C   UNL d   1      -2.081   3.098  -2.756  0.00  0.00     0.033 A 
ENDBRANCH   9  12
ENDBRANCH   1   8
BRANCH   2  20
ATOM     20  S   UNL d   1       0.383  -1.521  -4.323  0.00  0.00    -0.110 SA
BRANCH  20  21
ATOM     21  C   UNL d   1       0.241  -3.200  -5.075  0.00  0.00     0.096 C 
BRANCH  21  22
ATOM     22  C   UNL d   1       1.514  -3.985  -5.404  0.00  0.00     0.156 C 
BRANCH  22  23
ATOM     23  S   UNL d   1       2.483  -4.390  -3.971  0.00  0.00     0.176 S 
ATOM     24  O   UNL d   1       1.594  -4.944  -2.968  0.00  0.00    -0.223 OA
ATOM     25  O   UNL d   1       3.348  -3.267  -3.660  0.00  0.00    -0.223 OA
BRANCH  23  26
ATOM     26  C   UNL d   1       3.571  -5.722  -4.479  0.00  0.00     0.059 A 
ATOM     27  C   UNL d   1       4.686  -5.440  -5.278  0.00  0.00     0.023 A 
ATOM     28  C   UNL d   1       5.610  -6.453  -5.553  0.00  0.00     0.002 A 
ATOM     29  C   UNL d   1       5.430  -7.734  -5.029  0.00  0.00     0.000 A 
ATOM     30  C   UNL d   1       4.317  -8.012  -4.235  0.00  0.00     0.002 A 
ATOM     31  C   UNL d   1       3.386  -7.008  -3.957  0.00  0.00     0.023 A 
ENDBRANCH  23  26
ENDBRANCH  22  23
ENDBRANCH  21  22
ENDBRANCH  20  21
ENDBRANCH   2  20
TORSDOF 7
