REMARK  6 active torsions:
REMARK  status: ('A' for Active; 'I' for Inactive)
REMARK       I    between atoms: C_4  and  N_5 
REMARK    1  A    between atoms: C_14  and  C_4 
REMARK    2  A    between atoms: N_5  and  C_10 
REMARK    3  A    between atoms: C_7  and  C_16 
REMARK    4  A    between atoms: O_19  and  C_7 
REMARK    5  A    between atoms: C_9  and  C_14 
REMARK    6  A    between atoms: C_16  and  C_9 
ROOT
ATOM      1  C   UNL d   1      -2.717   3.609   0.064  0.00  0.00     0.222 C 
ATOM      2  N   UNL d   1      -2.129   3.128  -1.095  0.00  0.00    -0.327 N 
ATOM      3  O   UNL d   1      -2.485   3.217   1.203  0.00  0.00    -0.273 OA
ATOM      4  H   UNL d   1      -2.528   3.427  -1.986  0.00  0.00     0.169 HD
ENDROOT
BRANCH   2   5
ATOM      5  C   UNL d   1      -1.099   2.160  -1.147  0.00  0.00     0.035 A 
ATOM      6  C   UNL d   1      -0.314   1.835  -0.037  0.00  0.00     0.047 A 
ATOM      7  C   UNL d   1       0.660   0.863  -0.182  0.00  0.00     0.050 A 
ATOM      8  C   UNL d   1       1.595   0.371   0.820  0.00  0.00     0.294 A 
ATOM      9  C   UNL d   1       0.884   0.204  -1.369  0.00  0.00    -0.018 A 
ATOM     10  O   UNL d   1       2.347  -0.592   0.205  0.00  0.00    -0.313 OA
ATOM     11  O   UNL d   1       1.701   0.746   1.969  0.00  0.00    -0.259 OA
ATOM     12  C   UNL d   1       1.971  -0.775  -1.178  0.00  0.00     0.218 A 
ATOM     13  C   UNL d   1       0.134   0.518  -2.489  0.00  0.00     0.012 A 
ATOM     14  C   UNL d   1      -0.851   1.514  -2.376  0.00  0.00     0.030 A 
ENDBRANCH   2   5
BRANCH   1  15
ATOM     15  C   UNL d   1      -3.721   4.727  -0.153  0.00  0.00     0.112 C 
BRANCH  15  16
ATOM     16  C   UNL d   1      -3.118   6.155  -0.073  0.00  0.00    -0.030 C 
ATOM     17  C   UNL d   1      -4.282   7.168  -0.122  0.00  0.00     0.016 C 
ATOM     18  C   UNL d   1      -2.389   6.365   1.272  0.00  0.00     0.016 C 
BRANCH  16  19
ATOM     19  C   UNL d   1      -2.110   6.442  -1.209  0.00  0.00     0.119 C 
BRANCH  19  20
ATOM     20  C   UNL d   1      -2.689   6.255  -2.590  0.00  0.00     0.140 C 
ATOM     21  O   UNL d   1      -2.764   5.163  -3.139  0.00  0.00    -0.650 OA
BRANCH  20  22
ATOM     22  O   UNL d   1      -3.175   7.388  -3.138  0.00  0.00    -0.776 OA
ATOM     23  H   UNL d   1      -3.086   8.180  -2.573  0.00  0.00     0.167 HD
ENDBRANCH  20  22
ENDBRANCH  19  20
ENDBRANCH  16  19
ENDBRANCH  15  16
ENDBRANCH   1  15
TORSDOF 6
