REMARK  3 active torsions:
REMARK  status: ('A' for Active; 'I' for Inactive)
REMARK    1  A    between atoms: C_11  and  N_1 
REMARK    2  A    between atoms: C_8  and  N_3 
REMARK    3  A    between atoms: N_10  and  C_8 
ROOT
ATOM      1  N   UNL d   1      -1.264   0.186   0.409  0.00  0.00    -0.213 N 
ATOM      2  C   UNL d   1      -0.351   0.872  -0.401  0.00  0.00     0.219 A 
ATOM      3  N   UNL d   1       0.890   0.524   0.150  0.00  0.00    -0.221 N 
ATOM      4  N   UNL d   1      -0.557  -0.546   1.335  0.00  0.00    -0.218 N 
ATOM      5  HN  UNL d   1      -0.969  -1.187   2.013  1.00  0.00     0.210 HD
ATOM      6  N   UNL d   1       0.676  -0.305   1.221  0.00  0.00    -0.222 N 
ATOM      7  HN  UNL d   1       1.404  -0.671   1.834  1.00  0.00     0.210 HD
ATOM      8  S   UNL d   1      -0.596   1.828  -1.744  0.00  0.00    -0.037 SA
ENDROOT
BRANCH   3   9
ATOM      9  C   UNL d   1       2.091   1.337   0.127  0.00  0.00     0.425 C 
BRANCH   9  10
ATOM     10  N   UNL d   1       3.292   0.659  -0.329  0.00  0.00     0.111 NA
ATOM     11  C   UNL d   1       3.257   0.171  -1.711  0.00  0.00     0.300 C 
ATOM     12  C   UNL d   1       2.805  -1.289  -1.851  0.00  0.00     0.198 C 
ATOM     13  O   UNL d   1       3.615  -2.148  -1.038  0.00  0.00    -0.388 OA
ATOM     14  C   UNL d   1       3.487  -1.787   0.342  0.00  0.00     0.198 C 
ATOM     15  C   UNL d   1       3.877  -0.319   0.588  0.00  0.00     0.300 C 
ENDBRANCH   9  10
ENDBRANCH   3   9
BRANCH   1  16
ATOM     16  C   UNL d   1      -2.651   0.353   0.656  0.00  0.00     0.060 A 
ATOM     17  C   UNL d   1      -3.371   1.472   0.220  0.00  0.00     0.031 A 
ATOM     18  C   UNL d   1      -4.699   1.678   0.615  0.00  0.00     0.002 A 
ATOM     19  C   UNL d   1      -5.336   0.759   1.442  0.00  0.00     0.000 A 
ATOM     20  C   UNL d   1      -4.654  -0.378   1.857  0.00  0.00     0.002 A 
ATOM     21  C   UNL d   1      -3.326  -0.579   1.467  0.00  0.00     0.031 A 
ENDBRANCH   1  16
TORSDOF 3
