REMARK  3 active torsions:
REMARK  status: ('A' for Active; 'I' for Inactive)
REMARK       I    between atoms: N_2  and  C_1 
REMARK    1  A    between atoms: C_3  and  C_1 
REMARK       I    between atoms: C_4  and  N_2 
REMARK       I    between atoms: N_10  and  C_4 
REMARK    2  A    between atoms: C_7  and  N_11 
REMARK    3  A    between atoms: N_11  and  N_10 
ROOT
ATOM      1  C   UNL d   1       0.941  -0.032   0.032  0.00  0.00     0.264 C 
ATOM      2  N   UNL d   1       0.407   0.796  -0.948  0.00  0.00    -0.274 N 
ATOM      3  C   UNL d   1       1.042   1.596  -1.861  0.00  0.00     0.337 C 
ATOM      4  N   UNL d   1       2.414   1.610  -1.831  0.00  0.00    -0.267 N 
ATOM      5  O   UNL d   1       2.131  -0.296   0.132  0.00  0.00    -0.267 OA
ATOM      6  O   UNL d   1       0.370   2.278  -2.637  0.00  0.00    -0.246 OA
ATOM      7  H   UNL d   1      -0.595   0.867  -1.041  0.00  0.00     0.173 HD
ATOM      8  H   UNL d   1       2.859   0.782  -1.435  0.00  0.00     0.186 HD
ENDROOT
BRANCH   4   9
ATOM      9  N   UNL d   1       3.016   2.151  -2.992  0.00  0.00    -0.185 NA
ATOM     10  H   UNL d   1       2.434   2.879  -3.424  0.00  0.00     0.154 HD
BRANCH   9  11
ATOM     11  C   UNL d   1       4.312   2.678  -2.835  0.00  0.00     0.113 A 
ATOM     12  N   UNL d   1       4.607   3.828  -3.476  0.00  0.00    -0.289 N 
ATOM     13  N   UNL d   1       5.896   4.316  -3.501  0.00  0.00    -0.304 N 
ATOM     14  HN  UNL d   1       3.865   4.344  -3.949  1.00  0.00     0.188 HD
ATOM     15  C   UNL d   1       6.884   3.635  -2.890  0.00  0.00     0.022 A 
ATOM     16  HN  UNL d   1       6.101   5.191  -3.982  1.00  0.00     0.186 HD
ATOM     17  C   UNL d   1       6.617   2.467  -2.196  0.00  0.00     0.029 A 
ATOM     18  C   UNL d   1       8.273   4.171  -3.028  0.00  0.00     0.069 C 
ATOM     19  C   UNL d   1       5.311   1.981  -2.173  0.00  0.00     0.047 A 
ENDBRANCH   9  11
ENDBRANCH   4   9
BRANCH   1  20
ATOM     20  C   UNL d   1      -0.076  -0.602   0.955  0.00  0.00     0.092 A 
ATOM     21  C   UNL d   1      -1.262  -1.113   0.416  0.00  0.00     0.133 A 
ATOM     22  F   UNL d   1      -1.439  -1.157  -0.913  0.00  0.00    -0.205 F 
ATOM     23  C   UNL d   1      -2.306  -1.550   1.228  0.00  0.00     0.043 A 
ATOM     24  C   UNL d   1      -2.169  -1.492   2.610  0.00  0.00     0.005 A 
ATOM     25  C   UNL d   1      -0.979  -1.017   3.167  0.00  0.00     0.025 A 
ATOM     26  C   UNL d   1       0.072  -0.577   2.345  0.00  0.00     0.052 A 
ATOM     27 CL   UNL d   1       1.474   0.050   3.133  0.00  0.00    -0.083 Cl
ENDBRANCH   1  20
TORSDOF 3
