REMARK  11 active torsions:
REMARK  status: ('A' for Active; 'I' for Inactive)
REMARK    1  A    between atoms: N_2  and  C_1 
REMARK    2  A    between atoms: C_4  and  C_1 
REMARK    3  A    between atoms: C_6  and  C_1 
REMARK    4  A    between atoms: N_7  and  C_1 
REMARK       I    between atoms: C_3  and  N_2 
REMARK    5  A    between atoms: C_5  and  C_3 
REMARK    6  A    between atoms: O_14  and  C_6 
REMARK    7  A    between atoms: C_19  and  N_7 
REMARK    8  A    between atoms: C_27  and  O_14 
REMARK    9  A    between atoms: O_24  and  C_16 
REMARK   10  A    between atoms: C_17  and  C_26 
REMARK   11  A    between atoms: C_26  and  C_19 
ROOT
ATOM      1  C   UNL d   1       0.904  -0.061  -0.007  0.00  0.00     0.416 C 
ENDROOT
BRANCH   1   2
ATOM      2  N   UNL d   1       0.611   1.197  -0.700  0.00  0.00    -0.306 N 
ATOM      3  C   UNL d   1      -0.648   1.653  -0.985  0.00  0.00     0.256 C 
ATOM      4  O   UNL d   1      -1.667   1.052  -0.648  0.00  0.00    -0.268 OA
ATOM      5  H   UNL d   1       1.413   1.784  -0.876  0.00  0.00     0.166 HD
BRANCH   3   6
ATOM      6  C   UNL d   1      -0.726   2.999  -1.624  0.00  0.00     0.053 A 
ATOM      7  C   UNL d   1       0.164   3.447  -2.611  0.00  0.00     0.049 A 
ATOM      8 CL   UNL d   1       1.284   2.413  -3.420  0.00  0.00    -0.083 Cl
ATOM      9  C   UNL d   1       0.129   4.777  -3.041  0.00  0.00     0.025 A 
ATOM     10  C   UNL d   1      -0.834   5.653  -2.544  0.00  0.00     0.002 A 
ATOM     11  C   UNL d   1      -1.780   5.194  -1.632  0.00  0.00     0.001 A 
ATOM     12  C   UNL d   1      -1.725   3.875  -1.167  0.00  0.00     0.019 A 
ENDBRANCH   3   6
ENDBRANCH   1   2
BRANCH   1  13
ATOM     13  C   UNL d   1       0.117  -1.342  -0.503  0.00  0.00     0.452 C 
ATOM     14  F   UNL d   1      -0.444  -1.166  -1.725  0.00  0.00    -0.166 F 
ATOM     15  F   UNL d   1       0.971  -2.398  -0.643  0.00  0.00    -0.166 F 
ATOM     16  F   UNL d   1      -0.859  -1.758   0.335  0.00  0.00    -0.166 F 
ENDBRANCH   1  13
BRANCH   1  17
ATOM     17  C   UNL d   1       0.562   0.000   1.513  0.00  0.00     0.329 C 
ATOM     18  O   UNL d   1       0.891  -0.874   2.318  0.00  0.00    -0.260 OA
BRANCH  17  19
ATOM     19  O   UNL d   1      -0.121   1.133   1.853  0.00  0.00    -0.318 OA
BRANCH  19  20
ATOM     20  C   UNL d   1      -0.636   1.206   3.184  0.00  0.00     0.174 C 
ATOM     21  C   UNL d   1      -1.950   0.451   3.273  0.00  0.00     0.034 C 
ENDBRANCH  19  20
ENDBRANCH  17  19
ENDBRANCH   1  17
BRANCH   1  22
ATOM     22  N   UNL d   1       2.417  -0.112  -0.066  0.00  0.00     0.133 N 
ATOM     23  H   UNL d   1       2.693  -0.908   0.519  0.00  0.00     0.320 HD
BRANCH  22  24
ATOM     24  C   UNL d   1       2.957  -0.335  -1.414  0.00  0.00     0.278 C 
BRANCH  24  25
ATOM     25  C   UNL d   1       4.490  -0.458  -1.398  0.00  0.00     0.068 C 
BRANCH  25  26
ATOM     26  C   UNL d   1       5.007  -0.545  -2.815  0.00  0.00    -0.056 A 
ATOM     27  C   UNL d   1       5.339   0.616  -3.524  0.00  0.00     0.010 A 
ATOM     28  C   UNL d   1       5.702   0.540  -4.870  0.00  0.00     0.037 A 
ATOM     29  C   UNL d   1       5.756  -0.692  -5.521  0.00  0.00     0.068 A 
ATOM     30  C   UNL d   1       5.426  -1.853  -4.821  0.00  0.00     0.037 A 
ATOM     31  C   UNL d   1       5.056  -1.779  -3.474  0.00  0.00     0.010 A 
BRANCH  29  32
ATOM     32  O   UNL d   1       6.093  -0.638  -6.846  0.00  0.00    -0.356 OA
ATOM     33  C   UNL d   1       6.685  -1.818  -7.378  0.00  0.00     0.210 C 
ENDBRANCH  29  32
ENDBRANCH  25  26
ENDBRANCH  24  25
ENDBRANCH  22  24
ENDBRANCH   1  22
TORSDOF 11
