REMARK  5 active torsions:
REMARK  status: ('A' for Active; 'I' for Inactive)
REMARK    1  A    between atoms: C_5  and  C_1 
REMARK    2  A    between atoms: C_2  and  C_3 
REMARK    3  A    between atoms: O_13  and  C_4 
REMARK    4  A    between atoms: C_6  and  C_5 
REMARK    5  A    between atoms: C_16  and  O_13 
ROOT
ATOM      1  C   UNL d   1       0.923  -0.225  -0.649  0.00  0.00     0.092 C 
ATOM      2  C   UNL d   1       0.433  -1.038   0.310  0.00  0.00     0.048 C 
ATOM      3  C   UNL d   1       2.046  -0.567  -1.452  0.00  0.00     0.103 C 
ATOM      4  N   UNL d   1       2.970  -0.808  -2.115  0.00  0.00    -0.191 NA
ENDROOT
BRANCH   1   5
ATOM      5  C   UNL d   1       0.255   1.087  -0.877  0.00  0.00     0.174 C 
ATOM      6  O   UNL d   1      -0.881   1.329  -0.485  0.00  0.00    -0.291 OA
BRANCH   5   7
ATOM      7  C   UNL d   1       1.044   2.110  -1.635  0.00  0.00     0.061 A 
ATOM      8  C   UNL d   1       0.534   3.519  -1.811  0.00  0.00     0.013 A 
ATOM      9  C   UNL d   1       0.560   2.585  -2.986  0.00  0.00     0.013 A 
ENDBRANCH   5   7
ENDBRANCH   1   5
BRANCH   2  10
ATOM     10  C   UNL d   1       1.033  -2.306   0.559  0.00  0.00     0.040 C 
ATOM     11  C   UNL d   1       1.942  -2.694   1.531  0.00  0.00     0.093 C 
ATOM     12  C   UNL d   1       2.512  -3.974   1.244  0.00  0.00     0.046 C 
ATOM     13  C   UNL d   1       1.883  -4.603   0.196  0.00  0.00     0.053 C 
ATOM     14  S   UNL d   1       0.648  -3.637  -0.474  0.00  0.00    -0.099 SA
BRANCH  11  15
ATOM     15  O   UNL d   1       2.290  -1.860   2.550  0.00  0.00    -0.309 OA
BRANCH  15  16
ATOM     16  C   UNL d   1       2.887  -2.361   3.688  0.00  0.00     0.076 A 
ATOM     17  C   UNL d   1       3.963  -1.654   4.222  0.00  0.00     0.037 A 
ATOM     18  C   UNL d   1       4.648  -2.163   5.329  0.00  0.00     0.003 A 
ATOM     19  C   UNL d   1       4.251  -3.372   5.904  0.00  0.00     0.000 A 
ATOM     20  C   UNL d   1       3.142  -4.052   5.403  0.00  0.00     0.003 A 
ATOM     21  C   UNL d   1       2.444  -3.533   4.313  0.00  0.00     0.037 A 
ENDBRANCH  15  16
ENDBRANCH  11  15
ENDBRANCH   2  10
TORSDOF 5
