REMARK  4 active torsions:
REMARK  status: ('A' for Active; 'I' for Inactive)
REMARK    1  A    between atoms: C_2  and  C_1 
REMARK    2  A    between atoms: C_3  and  C_1 
REMARK       I    between atoms: N_5  and  C_2 
REMARK    3  A    between atoms: N_4  and  C_3 
REMARK    4  A    between atoms: C_7  and  N_4 
ROOT
ATOM      1  C   UNL d   1       1.243   0.014  -0.038  0.00  0.00     0.245 C 
ATOM      2  C   UNL d   1       2.710  -0.045  -0.021  0.00  0.00     0.080 C 
ATOM      3  N   UNL d   1       3.865  -0.093   0.014  0.00  0.00    -0.196 NA
ENDROOT
BRANCH   1   4
ATOM      4  C   UNL d   1       0.830   1.433  -0.393  0.00  0.00     0.244 C 
ATOM      5  N   UNL d   1       0.498   2.296   0.636  0.00  0.00    -0.351 N 
ATOM      6  C   UNL d   1       0.454   2.027   2.066  0.00  0.00     0.126 C 
ATOM      7  C   UNL d   1       0.166   3.687   0.361  0.00  0.00     0.126 C 
ATOM      8  C   UNL d   1      -0.417   3.140   2.625  0.00  0.00     0.021 C 
ATOM      9  C   UNL d   1      -0.086   4.322   1.725  0.00  0.00     0.021 C 
ATOM     10  O   UNL d   1       0.826   1.806  -1.569  0.00  0.00    -0.271 OA
ENDBRANCH   1   4
BRANCH   1  11
ATOM     11  C   UNL d   1       0.619  -1.042  -0.955  0.00  0.00     0.105 C 
ATOM     12  S   UNL d   1      -0.971  -1.524  -0.618  0.00  0.00    -0.063 SA
BRANCH  11  13
ATOM     13  N   UNL d   1       1.389  -1.487  -2.028  0.00  0.00    -0.349 N 
ATOM     14  H   UNL d   1       1.986  -0.793  -2.471  0.00  0.00     0.166 HD
BRANCH  13  15
ATOM     15  C   UNL d   1       1.311  -2.745  -2.682  0.00  0.00     0.038 C 
ATOM     16  C   UNL d   1       1.692  -2.894  -4.028  0.00  0.00    -0.035 C 
ATOM     17  C   UNL d   1       1.466  -4.136  -4.663  0.00  0.00     0.015 C 
ATOM     18  C   UNL d   1       2.233  -1.784  -4.888  0.00  0.00     0.050 C 
ATOM     19  C   UNL d   1       0.953  -5.237  -3.968  0.00  0.00    -0.061 C 
ATOM     20  C   UNL d   1       0.708  -5.109  -2.604  0.00  0.00     0.009 C 
ATOM     21  C   UNL d   1       0.598  -6.502  -4.689  0.00  0.00     0.048 C 
ATOM     22  C   UNL d   1       0.898  -3.881  -1.972  0.00  0.00     0.030 C 
ENDBRANCH  13  15
ENDBRANCH  11  13
ENDBRANCH   1  11
TORSDOF 4
