REMARK  7 active torsions:
REMARK  status: ('A' for Active; 'I' for Inactive)
REMARK    1  A    between atoms: C_2  and  N_1 
REMARK    2  A    between atoms: C_3  and  C_5 
REMARK    3  A    between atoms: N_8  and  C_21 
REMARK    4  A    between atoms: N_20  and  C_10 
REMARK    5  A    between atoms: C_23  and  N_20 
REMARK    6  A    between atoms: C_21  and  C_22 
REMARK    7  A    between atoms: C_22  and  C_23 
ROOT
ATOM      1  C   UNL d   1      -1.208  -0.106   2.674  0.00  0.00     0.124 A 
ATOM      2  C   UNL d   1      -0.723   1.071   3.294  0.00  0.00     0.054 A 
ATOM      3  C   UNL d   1       0.302   1.823   2.707  0.00  0.00     0.050 A 
ATOM      4  C   UNL d   1      -0.665  -0.571   1.451  0.00  0.00     0.041 A 
ATOM      5  C   UNL d   1       0.830   1.386   1.491  0.00  0.00     0.018 A 
ATOM      6  C   UNL d   1       0.343   0.227   0.876  0.00  0.00     0.027 A 
ENDROOT
BRANCH   4   7
ATOM      7  N   UNL d   1      -1.177  -1.683   0.742  0.00  0.00    -0.291 NA
ATOM      8  H   UNL d   1      -1.734  -2.293   1.350  0.00  0.00     0.127 HD
BRANCH   7   9
ATOM      9  C   UNL d   1      -0.256  -2.424  -0.119  0.00  0.00     0.094 C 
BRANCH   9  10
ATOM     10  C   UNL d   1      -0.932  -3.642  -0.743  0.00  0.00     0.035 C 
BRANCH  10  11
ATOM     11  C   UNL d   1       0.070  -4.342  -1.660  0.00  0.00     0.130 C 
BRANCH  11  12
ATOM     12  N   UNL d   1      -0.473  -5.497  -2.338  0.00  0.00    -0.352 N 
ATOM     13  C   UNL d   1      -1.042  -5.498  -3.579  0.00  0.00     0.182 A 
ATOM     14  N   UNL d   1      -1.358  -6.716  -3.957  0.00  0.00    -0.361 N 
ATOM     15  C   UNL d   1      -0.970  -7.528  -2.923  0.00  0.00     0.106 A 
ATOM     16  HN  UNL d   1      -1.798  -6.998  -4.833  1.00  0.00     0.166 HD
ATOM     17  C   UNL d   1      -0.412  -6.790  -1.905  0.00  0.00     0.108 A 
ENDBRANCH  11  12
ENDBRANCH  10  11
ENDBRANCH   9  10
ENDBRANCH   7   9
ENDBRANCH   4   7
BRANCH   1  18
ATOM     18  N   UNL d   1      -2.269  -0.848   3.382  0.00  0.00    -0.114 N 
ATOM     19  O   UNL d   1      -2.788  -0.310   4.371  0.00  0.00    -0.532 OA
ATOM     20  O   UNL d   1      -2.568  -1.983   2.976  0.00  0.00    -0.532 OA
ENDBRANCH   1  18
BRANCH   3  21
ATOM     21  C   UNL d   1       0.836   3.085   3.344  0.00  0.00     0.417 C 
ATOM     22  F   UNL d   1       0.212   3.415   4.506  0.00  0.00    -0.166 F 
ATOM     23  F   UNL d   1       2.161   2.987   3.641  0.00  0.00    -0.166 F 
ATOM     24  F   UNL d   1       0.714   4.167   2.528  0.00  0.00    -0.166 F 
ENDBRANCH   3  21
TORSDOF 7
