REMARK  3 active torsions:
REMARK  status: ('A' for Active; 'I' for Inactive)
REMARK    1  A    between atoms: C_5  and  C_1 
REMARK    2  A    between atoms: C_9  and  C_5 
REMARK    3  A    between atoms: O_10  and  C_5 
ROOT
ATOM      1  C   UNL d   1      -1.591  -1.197   0.004  0.00  0.00     0.003 A 
ATOM      2  C   UNL d   1      -2.376  -0.055  -0.052  0.00  0.00     0.099 A 
ATOM      3  N   UNL d   1      -1.557   1.040  -0.037  0.00  0.00    -0.365 N 
ATOM      4  C   UNL d   1      -0.225  -0.746   0.017  0.00  0.00     0.001 A 
ATOM      5  C   UNL d   1      -0.241   0.649  -0.011  0.00  0.00     0.043 A 
ATOM      6  C   UNL d   1       1.026  -1.398   0.038  0.00  0.00     0.014 A 
ATOM      7  C   UNL d   1       0.925   1.424  -0.019  0.00  0.00     0.030 A 
ATOM      8  C   UNL d   1       2.203  -0.638   0.023  0.00  0.00     0.001 A 
ATOM      9  C   UNL d   1       2.150   0.752  -0.005  0.00  0.00     0.002 A 
ATOM     10  H   UNL d   1      -1.867   2.002  -0.066  0.00  0.00     0.165 HD
ENDROOT
BRANCH   1  11
ATOM     11  C   UNL d   1      -2.057  -2.625  -0.008  0.00  0.00     0.186 C 
BRANCH  11  12
ATOM     12  C   UNL d   1      -2.219  -3.062   1.436  0.00  0.00    -0.023 A 
ATOM     13  C   UNL d   1      -3.087  -2.425   2.334  0.00  0.00     0.027 A 
ATOM     14  C   UNL d   1      -3.205  -2.917   3.626  0.00  0.00     0.088 A 
ATOM     15  N   UNL d   1      -2.536  -3.994   4.084  0.00  0.00    -0.375 N 
ATOM     16  C   UNL d   1      -1.708  -4.604   3.210  0.00  0.00     0.088 A 
ATOM     17  HN  UNL d   1      -2.649  -4.330   5.040  1.00  0.00     0.164 HD
ATOM     18  C   UNL d   1      -1.520  -4.185   1.901  0.00  0.00     0.027 A 
ENDBRANCH  11  12
BRANCH  11  19
ATOM     19  O   UNL d   1      -3.280  -2.795  -0.719  0.00  0.00    -0.386 OA
ATOM     20  H   UNL d   1      -3.980  -2.419  -0.165  0.00  0.00     0.210 HD
ENDBRANCH  11  19
ENDBRANCH   1  11
TORSDOF 3
