REMARK  3 active torsions:
REMARK  status: ('A' for Active; 'I' for Inactive)
REMARK    1  A    between atoms: C_2  and  C_1 
REMARK       I    between atoms: N_10  and  C_2 
REMARK    2  A    between atoms: N_8  and  N_10 
REMARK    3  A    between atoms: C_15  and  C_14 
ROOT
ATOM      1  C   UNL d   1       0.206  -2.649  -0.082  0.00  0.00     0.288 C 
ATOM      2  N   UNL d   1      -0.820  -3.581  -0.089  0.00  0.00    -0.265 N 
ATOM      3  O   UNL d   1       0.041  -1.437  -0.197  0.00  0.00    -0.264 OA
ATOM      4  H   UNL d   1      -0.605  -4.566  -0.162  0.00  0.00     0.190 HD
ENDROOT
BRANCH   2   5
ATOM      5  N   UNL d   1      -2.121  -3.176  -0.119  0.00  0.00    -0.308 N 
ATOM      6  C   UNL d   1      -3.001  -4.125  -0.127  0.00  0.00     0.118 C 
ATOM      7  HN  UNL d   1      -2.384  -2.191  -0.135  1.00  0.00     0.186 HD
BRANCH   6   8
ATOM      8  C   UNL d   1      -4.446  -3.827  -0.137  0.00  0.00    -0.017 A 
ATOM      9  C   UNL d   1      -4.895  -2.509  -0.167  0.00  0.00     0.030 A 
ATOM     10  C   UNL d   1      -6.259  -2.296  -0.162  0.00  0.00     0.088 A 
ATOM     11  N   UNL d   1      -7.172  -3.292  -0.130  0.00  0.00    -0.375 N 
ATOM     12  C   UNL d   1      -6.702  -4.558  -0.101  0.00  0.00     0.088 A 
ATOM     13  HN  UNL d   1      -8.173  -3.096  -0.127  1.00  0.00     0.164 HD
ATOM     14  C   UNL d   1      -5.357  -4.879  -0.104  0.00  0.00     0.030 A 
ENDBRANCH   6   8
ENDBRANCH   2   5
BRANCH   1  15
ATOM     15  C   UNL d   1       1.531  -3.216   0.002  0.00  0.00     0.125 A 
ATOM     16  C   UNL d   1       2.060  -4.377   0.547  0.00  0.00     0.038 A 
ATOM     17  N   UNL d   1       3.421  -4.437   0.323  0.00  0.00    -0.354 N 
ATOM     18  C   UNL d   1       1.433  -5.471   1.327  0.00  0.00     0.071 C 
ATOM     19  C   UNL d   1       3.730  -3.321  -0.291  0.00  0.00     0.181 A 
ATOM     20  HN  UNL d   1       4.055  -5.193   0.581  1.00  0.00     0.166 HD
ATOM     21  N   UNL d   1       2.632  -2.540  -0.479  0.00  0.00    -0.346 N 
ATOM     22  H   UNL d   1       2.605  -1.625  -0.908  0.00  0.00     0.167 HD
ENDBRANCH   1  15
TORSDOF 3
