REMARK  4 active torsions:
REMARK  status: ('A' for Active; 'I' for Inactive)
REMARK    1  A    between atoms: C_2  and  N_1 
REMARK    2  A    between atoms: O_12  and  C_7 
REMARK    3  A    between atoms: C_13  and  O_12 
REMARK    4  A    between atoms: C_20  and  C_15 
ROOT
ATOM      1  N   UNL d   1       1.823   2.167  -9.601  0.00  0.00    -0.197 NA
ATOM      2  C   UNL d   1       0.710   2.466  -9.439  0.00  0.00     0.063 C 
ATOM      3  C   UNL d   1      -0.704   2.844  -9.243  0.00  0.00     0.162 C 
ENDROOT
BRANCH   3   4
ATOM      4  C   UNL d   1      -1.083   2.960  -7.783  0.00  0.00    -0.045 A 
ATOM      5  C   UNL d   1      -0.895   4.162  -7.084  0.00  0.00     0.011 A 
ATOM      6  C   UNL d   1      -1.115   4.221  -5.704  0.00  0.00     0.038 A 
ATOM      7  C   UNL d   1      -1.534   3.087  -5.005  0.00  0.00     0.077 A 
ATOM      8  C   UNL d   1      -1.834   1.921  -5.716  0.00  0.00     0.038 A 
ATOM      9  C   UNL d   1      -1.577   1.848  -7.087  0.00  0.00     0.011 A 
BRANCH   7  10
ATOM     10  O   UNL d   1      -1.668   3.223  -3.644  0.00  0.00    -0.294 OA
BRANCH  10  11
ATOM     11  C   UNL d   1      -1.439   2.151  -2.806  0.00  0.00     0.148 A 
ATOM     12  C   UNL d   1      -0.522   1.135  -3.073  0.00  0.00     0.059 A 
ATOM     13  C   UNL d   1      -0.383   0.085  -2.163  0.00  0.00     0.041 A 
ATOM     14  C   UNL d   1      -1.117   0.124  -0.978  0.00  0.00     0.118 A 
ATOM     15  C   UNL d   1      -1.966   1.194  -0.754  0.00  0.00     0.126 A 
ATOM     16  N   UNL d   1      -2.142   2.201  -1.649  0.00  0.00    -0.344 N 
ATOM     17  HN  UNL d   1      -2.784   2.970  -1.456  1.00  0.00     0.167 HD
BRANCH  14  18
ATOM     18  N   UNL d   1      -0.989  -0.929   0.019  0.00  0.00    -0.114 N 
ATOM     19  O   UNL d   1      -1.635  -0.811   1.069  0.00  0.00    -0.532 OA
ATOM     20  O   UNL d   1      -0.241  -1.881  -0.246  0.00  0.00    -0.532 OA
ENDBRANCH  14  18
ENDBRANCH  10  11
ENDBRANCH   7  10
ENDBRANCH   3   4
TORSDOF 4
