REMARK  6 active torsions:
REMARK  status: ('A' for Active; 'I' for Inactive)
REMARK    1  A    between atoms: C_2  and  C_1 
REMARK    2  A    between atoms: C_3  and  C_2 
REMARK    3  A    between atoms: C_4  and  O_9 
REMARK    4  A    between atoms: N_11  and  N_5 
REMARK    5  A    between atoms: O_9  and  C_7 
REMARK    6  A    between atoms: C_16  and  N_11 
ROOT
ATOM      1  C   UNL d   1       0.852  -0.141   0.512  0.00  0.00     0.179 C 
ATOM      2  N   UNL d   1       0.194  -1.194   0.110  0.00  0.00    -0.287 N 
ATOM      3  HN  UNL d   1       0.706  -2.033  -0.163  1.00  0.00     0.188 HD
ATOM      4  C   UNL d   1       0.114   1.034   0.902  0.00  0.00     0.123 C 
ATOM      5  N   UNL d   1      -0.537   1.953   1.205  0.00  0.00    -0.190 NA
ENDROOT
BRANCH   1   6
ATOM      6  C   UNL d   1       2.354  -0.173   0.561  0.00  0.00     0.223 C 
ATOM      7  O   UNL d   1       2.971   0.879   0.460  0.00  0.00    -0.284 OA
BRANCH   6   8
ATOM      8  C   UNL d   1       3.061  -1.465   0.702  0.00  0.00     0.051 A 
ATOM      9  C   UNL d   1       4.257  -1.754   0.027  0.00  0.00     0.092 A 
ATOM     10  C   UNL d   1       4.910  -2.965   0.301  0.00  0.00     0.038 A 
ATOM     11  C   UNL d   1       4.382  -3.882   1.215  0.00  0.00     0.003 A 
ATOM     12  C   UNL d   1       3.197  -3.593   1.880  0.00  0.00     0.001 A 
ATOM     13  C   UNL d   1       2.541  -2.389   1.629  0.00  0.00     0.018 A 
BRANCH   9  14
ATOM     14  O   UNL d   1       4.971  -0.921  -0.787  0.00  0.00    -0.254 OA
BRANCH  14  15
ATOM     15  C   UNL d   1       4.332  -0.298  -1.896  0.00  0.00     0.530 C 
ATOM     16  F   UNL d   1       2.994  -0.473  -1.923  0.00  0.00    -0.144 F 
ATOM     17  F   UNL d   1       4.612   1.021  -1.886  0.00  0.00    -0.144 F 
ATOM     18  F   UNL d   1       4.838  -0.819  -3.038  0.00  0.00    -0.144 F 
ENDBRANCH  14  15
ENDBRANCH   9  14
ENDBRANCH   6   8
ENDBRANCH   1   6
BRANCH   2  19
ATOM     19  N   UNL d   1      -1.171  -1.188   0.049  0.00  0.00    -0.300 N 
ATOM     20  H   UNL d   1      -1.684  -0.308  -0.048  0.00  0.00     0.187 HD
BRANCH  19  21
ATOM     21  C   UNL d   1      -1.773  -2.236  -0.687  0.00  0.00     0.048 A 
ATOM     22  C   UNL d   1      -1.189  -3.505  -0.785  0.00  0.00     0.031 A 
ATOM     23  C   UNL d   1      -1.811  -4.528  -1.509  0.00  0.00     0.009 A 
ATOM     24  C   UNL d   1      -3.036  -4.303  -2.146  0.00  0.00    -0.062 A 
ATOM     25  C   UNL d   1      -3.628  -3.041  -2.046  0.00  0.00     0.009 A 
ATOM     26  C   UNL d   1      -3.699  -5.411  -2.909  0.00  0.00     0.048 C 
ATOM     27  C   UNL d   1      -3.009  -2.024  -1.310  0.00  0.00     0.031 A 
ENDBRANCH  19  21
ENDBRANCH   2  19
TORSDOF 6
