REMARK  8 active torsions:
REMARK  status: ('A' for Active; 'I' for Inactive)
REMARK    1  A    between atoms: C_8  and  C_1 
REMARK    2  A    between atoms: C_7  and  C_2 
REMARK    3  A    between atoms: C_12  and  N_3 
REMARK    4  A    between atoms: O_19  and  C_7 
REMARK    5  A    between atoms: N_10  and  C_8 
REMARK    6  A    between atoms: C_9  and  O_16 
REMARK    7  A    between atoms: C_13  and  C_9 
REMARK    8  A    between atoms: O_16  and  N_10 
ROOT
ATOM      1  C   UNL d   1       0.991  -0.879   0.105  0.00  0.00     0.091 A 
ATOM      2  C   UNL d   1      -0.346  -1.253   0.218  0.00  0.00     0.086 A 
ATOM      3  N   UNL d   1       1.001   0.510   0.099  0.00  0.00    -0.255 N 
ATOM      4  N   UNL d   1      -0.251   1.021   0.240  0.00  0.00    -0.303 N 
ATOM      5  HN  UNL d   1      -0.516   2.002   0.332  1.00  0.00     0.186 HD
ATOM      6  C   UNL d   1      -1.053  -0.038   0.230  0.00  0.00     0.127 A 
ENDROOT
BRANCH   1   7
ATOM      7  C   UNL d   1       2.149  -1.729   0.055  0.00  0.00     0.147 C 
BRANCH   7   8
ATOM      8  N   UNL d   1       2.117  -2.810  -0.648  0.00  0.00    -0.266 N 
ATOM      9  HN  UNL d   1       1.308  -3.134  -1.179  1.00  0.00     0.194 HD
BRANCH   8  10
ATOM     10  O   UNL d   1       3.354  -3.479  -0.583  0.00  0.00    -0.195 OA
BRANCH  10  11
ATOM     11  C   UNL d   1       3.359  -4.501  -1.495  0.00  0.00     0.315 C 
ATOM     12  O   UNL d   1       2.471  -4.786  -2.291  0.00  0.00    -0.257 OA
BRANCH  11  13
ATOM     13  C   UNL d   1       4.646  -5.247  -1.460  0.00  0.00     0.041 A 
ATOM     14  C   UNL d   1       4.847  -6.237  -2.437  0.00  0.00     0.019 A 
ATOM     15  C   UNL d   1       6.033  -6.974  -2.472  0.00  0.00     0.025 A 
ATOM     16  C   UNL d   1       7.026  -6.727  -1.528  0.00  0.00     0.034 A 
ATOM     17  C   UNL d   1       6.839  -5.751  -0.548  0.00  0.00     0.025 A 
ATOM     18 CL   UNL d   1       8.488  -7.633  -1.569  0.00  0.00    -0.084 Cl
ATOM     19  C   UNL d   1       5.651  -5.011  -0.510  0.00  0.00     0.019 A 
ENDBRANCH  11  13
ENDBRANCH  10  11
ENDBRANCH   8  10
ENDBRANCH   7   8
ENDBRANCH   1   7
BRANCH   2  20
ATOM     20  C   UNL d   1      -0.896  -2.586   0.383  0.00  0.00     0.296 C 
ATOM     21  O   UNL d   1      -0.278  -3.519   0.877  0.00  0.00    -0.259 OA
BRANCH  20  22
ATOM     22  O   UNL d   1      -2.207  -2.640   0.006  0.00  0.00    -0.322 OA
ATOM     23  C   UNL d   1      -2.835  -3.911   0.185  0.00  0.00     0.213 C 
ENDBRANCH  20  22
ENDBRANCH   2  20
BRANCH   3  24
ATOM     24  C   UNL d   1       2.098   1.411  -0.029  0.00  0.00     0.057 A 
ATOM     25  C   UNL d   1       3.271   1.061  -0.709  0.00  0.00     0.031 A 
ATOM     26  C   UNL d   1       4.331   1.971  -0.785  0.00  0.00     0.002 A 
ATOM     27  C   UNL d   1       4.226   3.226  -0.186  0.00  0.00     0.000 A 
ATOM     28  C   UNL d   1       3.051   3.590   0.468  0.00  0.00     0.002 A 
ATOM     29  C   UNL d   1       1.984   2.693   0.533  0.00  0.00     0.031 A 
ENDBRANCH   3  24
TORSDOF 8
