REMARK  4 active torsions:
REMARK  status: ('A' for Active; 'I' for Inactive)
REMARK    1  A    between atoms: S_5  and  C_1 
REMARK    2  A    between atoms: S_6  and  C_2 
REMARK    3  A    between atoms: C_13  and  S_5 
REMARK    4  A    between atoms: C_14  and  S_6 
ROOT
ATOM      1  C   UNL d   1       2.466   0.692  -0.207  0.00  0.00     0.025 A 
ATOM      2  C   UNL d   1       2.511  -0.704  -0.007  0.00  0.00     0.025 A 
ATOM      3  C   UNL d   1       0.024   0.643  -0.021  0.00  0.00     0.066 A 
ATOM      4  C   UNL d   1       0.059  -0.750   0.073  0.00  0.00     0.066 A 
ATOM      5  N   UNL d   1      -2.195   1.987  -0.003  0.00  0.00    -0.191 NA
ATOM      6  N   UNL d   1      -2.113  -2.168   0.181  0.00  0.00    -0.191 NA
ATOM      7  C   UNL d   1      -1.211   1.376  -0.012  0.00  0.00     0.101 C 
ATOM      8  C   UNL d   1      -1.145  -1.530   0.143  0.00  0.00     0.101 C 
ATOM      9  C   UNL d   1       1.297  -1.410   0.088  0.00  0.00     0.044 A 
ATOM     10  C   UNL d   1       1.223   1.353  -0.153  0.00  0.00     0.044 A 
ENDROOT
BRANCH   1  11
ATOM     11  S   UNL d   1       3.917   1.692  -0.583  0.00  0.00    -0.071 SA
BRANCH  11  12
ATOM     12  C   UNL d   1       3.444   2.459  -2.136  0.00  0.00     0.074 A 
ATOM     13  N   UNL d   1       2.533   1.823  -2.912  0.00  0.00    -0.360 N 
ATOM     14  C   UNL d   1       2.137   2.443  -4.046  0.00  0.00     0.089 A 
ATOM     15  HN  UNL d   1       2.160   0.911  -2.649  1.00  0.00     0.166 HD
ATOM     16  C   UNL d   1       2.604   3.680  -4.451  0.00  0.00     0.017 A 
ATOM     17  C   UNL d   1       3.551   4.313  -3.655  0.00  0.00     0.004 A 
ATOM     18  C   UNL d   1       3.985   3.694  -2.483  0.00  0.00     0.037 A 
ENDBRANCH  11  12
ENDBRANCH   1  11
BRANCH   2  19
ATOM     19  S   UNL d   1       4.050  -1.629   0.055  0.00  0.00    -0.071 SA
BRANCH  19  20
ATOM     20  C   UNL d   1       3.946  -2.584   1.571  0.00  0.00     0.074 A 
ATOM     21  N   UNL d   1       2.947  -2.332   2.447  0.00  0.00    -0.360 N 
ATOM     22  C   UNL d   1       2.885  -3.100   3.560  0.00  0.00     0.089 A 
ATOM     23  HN  UNL d   1       2.266  -1.592   2.276  1.00  0.00     0.166 HD
ATOM     24  C   UNL d   1       3.777  -4.119   3.848  0.00  0.00     0.017 A 
ATOM     25  C   UNL d   1       4.806  -4.357   2.947  0.00  0.00     0.004 A 
ATOM     26  C   UNL d   1       4.896  -3.579   1.794  0.00  0.00     0.037 A 
ENDBRANCH  19  20
ENDBRANCH   2  19
TORSDOF 4
