REMARK  11 active torsions:
REMARK  status: ('A' for Active; 'I' for Inactive)
REMARK    1  A    between atoms: N_3  and  C_1 
REMARK    2  A    between atoms: O_4  and  C_2 
REMARK    3  A    between atoms: C_8  and  O_4 
REMARK    4  A    between atoms: C_5  and  C_7 
REMARK    5  A    between atoms: C_12  and  C_8 
REMARK    6  A    between atoms: C_24  and  C_23 
REMARK    7  A    between atoms: C_25  and  C_24 
REMARK    8  A    between atoms: C_28  and  C_25 
REMARK    9  A    between atoms: C_26  and  C_27 
REMARK   10  A    between atoms: C_27  and  C_29 
REMARK   11  A    between atoms: C_29  and  C_28 
ROOT
ATOM      1  O   UNL d   1      -1.738  -3.390   1.037  0.00  0.00    -0.271 OA
ENDROOT
BRANCH   1   2
ATOM      2  C   UNL d   1      -1.964  -4.798   0.993  0.00  0.00     0.130 C 
ATOM      3  C   UNL d   1      -1.905  -5.535   2.188  0.00  0.00     0.139 C 
ATOM      4  C   UNL d   1      -2.439  -6.838   2.292  0.00  0.00     0.055 C 
ATOM      5  C   UNL d   1      -3.124  -7.393   1.203  0.00  0.00     0.051 C 
ATOM      6  C   UNL d   1      -3.174  -6.662   0.008  0.00  0.00     0.038 C 
ATOM      7  C   UNL d   1      -2.520  -5.426  -0.123  0.00  0.00     0.048 C 
ATOM      8 BR   UNL d   1      -2.252  -4.851  -1.911  0.00  0.00    -0.048 Br
BRANCH   3   9
ATOM      9  N   UNL d   1      -1.176  -5.022   3.341  0.00  0.00    -0.113 N 
ATOM     10  O   UNL d   1      -1.584  -3.971   3.846  0.00  0.00    -0.532 OA
ATOM     11  O   UNL d   1      -0.251  -5.718   3.757  0.00  0.00    -0.532 OA
ENDBRANCH   3   9
BRANCH   5  12
ATOM     12  C   UNL d   1      -3.716  -8.786   1.232  0.00  0.00     0.417 C 
ATOM     13  F   UNL d   1      -3.441  -9.469   2.375  0.00  0.00    -0.166 F 
ATOM     14  F   UNL d   1      -5.070  -8.782   1.106  0.00  0.00    -0.166 F 
ATOM     15  F   UNL d   1      -3.246  -9.553   0.211  0.00  0.00    -0.166 F 
ENDBRANCH   5  12
ENDBRANCH   1   2
BRANCH   1  16
ATOM     16  C   UNL d   1      -1.190  -2.595   0.028  0.00  0.00     0.298 C 
ATOM     17  O   UNL d   1      -0.131  -2.835  -0.547  0.00  0.00    -0.259 OA
BRANCH  16  18
ATOM     18  C   UNL d   1      -2.038  -1.387  -0.220  0.00  0.00     0.040 A 
ATOM     19  C   UNL d   1      -1.680  -0.462  -1.214  0.00  0.00     0.018 A 
ATOM     20  C   UNL d   1      -2.369   0.756  -1.336  0.00  0.00     0.008 A 
ATOM     21  C   UNL d   1      -3.433   1.056  -0.473  0.00  0.00    -0.058 A 
ATOM     22  C   UNL d   1      -3.868   0.071   0.424  0.00  0.00     0.008 A 
ATOM     23  C   UNL d   1      -3.177  -1.135   0.551  0.00  0.00     0.018 A 
BRANCH  21  24
ATOM     24  C   UNL d   1      -4.064   2.430  -0.441  0.00  0.00     0.038 C 
BRANCH  24  25
ATOM     25  C   UNL d   1      -3.921   3.133   0.920  0.00  0.00     0.005 C 
BRANCH  25  26
ATOM     26  C   UNL d   1      -2.467   3.388   1.336  0.00  0.00     0.000 C 
BRANCH  26  27
ATOM     27  C   UNL d   1      -2.411   4.095   2.692  0.00  0.00     0.000 C 
BRANCH  27  28
ATOM     28  C   UNL d   1      -0.972   4.352   3.136  0.00  0.00    -0.000 C 
BRANCH  28  29
ATOM     29  C   UNL d   1      -0.934   5.056   4.493  0.00  0.00    -0.005 C 
ATOM     30  C   UNL d   1       0.494   5.315   4.942  0.00  0.00     0.005 C 
ENDBRANCH  28  29
ENDBRANCH  27  28
ENDBRANCH  26  27
ENDBRANCH  25  26
ENDBRANCH  24  25
ENDBRANCH  21  24
ENDBRANCH  16  18
ENDBRANCH   1  16
TORSDOF 11
