REMARK  6 active torsions:
REMARK  status: ('A' for Active; 'I' for Inactive)
REMARK    1  A    between atoms: C_3  and  C_1 
REMARK    2  A    between atoms: C_2  and  O_12 
REMARK    3  A    between atoms: C_8  and  C_3 
REMARK    4  A    between atoms: N_7  and  C_4 
REMARK    5  A    between atoms: C_9  and  N_7 
REMARK    6  A    between atoms: O_12  and  C_19 
ROOT
ATOM      1  C   UNL d   1       0.998  -0.024  -0.033  0.00  0.00     0.110 C 
ATOM      2  C   UNL d   1       0.336  -0.301   1.103  0.00  0.00     0.116 C 
ATOM      3  C   UNL d   1       0.304   0.343  -1.218  0.00  0.00     0.105 C 
ATOM      4  N   UNL d   1      -0.265   0.619  -2.192  0.00  0.00    -0.191 NA
ENDROOT
BRANCH   1   5
ATOM      5  C   UNL d   1       2.493  -0.055  -0.006  0.00  0.00     0.204 C 
ATOM      6  O   UNL d   1       3.126   0.115   1.032  0.00  0.00    -0.286 OA
BRANCH   5   7
ATOM      7  C   UNL d   1       3.234  -0.296  -1.275  0.00  0.00     0.016 A 
ATOM      8  C   UNL d   1       4.447   0.373  -1.492  0.00  0.00     0.018 A 
ATOM      9  C   UNL d   1       5.155   0.191  -2.688  0.00  0.00     0.038 A 
ATOM     10  C   UNL d   1       4.676  -0.687  -3.660  0.00  0.00     0.078 A 
ATOM     11  C   UNL d   1       3.468  -1.356  -3.435  0.00  0.00     0.038 A 
ATOM     12  C   UNL d   1       2.763  -1.185  -2.246  0.00  0.00     0.018 A 
BRANCH  10  13
ATOM     13  O   UNL d   1       5.239  -0.957  -4.866  0.00  0.00    -0.255 OA
BRANCH  13  14
ATOM     14  C   UNL d   1       6.647  -0.866  -5.028  0.00  0.00     0.530 C 
ATOM     15  F   UNL d   1       7.329  -0.810  -3.867  0.00  0.00    -0.144 F 
ATOM     16  F   UNL d   1       7.065  -1.963  -5.700  0.00  0.00    -0.144 F 
ATOM     17  F   UNL d   1       6.946   0.221  -5.769  0.00  0.00    -0.144 F 
ENDBRANCH  13  14
ENDBRANCH  10  13
ENDBRANCH   5   7
ENDBRANCH   1   5
BRANCH   2  18
ATOM     18  N   UNL d   1      -1.024  -0.408   1.285  0.00  0.00    -0.351 N 
ATOM     19  H   UNL d   1      -1.595  -0.648   0.477  0.00  0.00     0.166 HD
BRANCH  18  20
ATOM     20  C   UNL d   1      -1.739  -0.677   2.451  0.00  0.00     0.104 A 
ATOM     21  N   UNL d   1      -2.930  -1.284   2.269  0.00  0.00    -0.352 N 
ATOM     22  C   UNL d   1      -3.676  -1.557   3.364  0.00  0.00     0.089 A 
ATOM     23  HN  UNL d   1      -3.259  -1.528   1.335  1.00  0.00     0.166 HD
ATOM     24  C   UNL d   1      -3.300  -1.228   4.653  0.00  0.00     0.017 A 
ATOM     25  C   UNL d   1      -2.083  -0.586   4.829  0.00  0.00     0.005 A 
ATOM     26  C   UNL d   1      -1.287  -0.315   3.717  0.00  0.00     0.048 A 
ENDBRANCH  18  20
ENDBRANCH   2  18
TORSDOF 6
