REMARK  5 active torsions:
REMARK  status: ('A' for Active; 'I' for Inactive)
REMARK    1  A    between atoms: S_15  and  C_6 
REMARK    2  A    between atoms: C_12  and  C_21 
REMARK       I    between atoms: N_14  and  C_12 
REMARK    3  A    between atoms: C_22  and  N_14 
REMARK    4  A    between atoms: C_21  and  S_15 
REMARK    5  A    between atoms: C_23  and  C_17 
ROOT
ATOM      1  C   UNL d   1       6.527   1.218  -4.712  0.00  0.00     0.048 A 
ATOM      2  C   UNL d   1       6.047   2.407  -4.198  0.00  0.00     0.027 A 
ATOM      3  N   UNL d   1       5.176   2.449  -3.166  0.00  0.00    -0.339 N 
ATOM      4  HN  UNL d   1       4.817   3.333  -2.805  1.00  0.00     0.168 HD
ATOM      5  C   UNL d   1       7.533   1.189  -5.783  0.00  0.00     0.163 C 
ATOM      6  C   UNL d   1       4.808   1.271  -2.637  0.00  0.00     0.144 A 
ATOM      7  N   UNL d   1       5.195   0.066  -3.084  0.00  0.00    -0.346 N 
ATOM      8  HN  UNL d   1       4.860  -0.800  -2.660  1.00  0.00     0.167 HD
ATOM      9  C   UNL d   1       6.053   0.066  -4.127  0.00  0.00     0.107 A 
ATOM     10  C   UNL d   1       7.910   3.676  -5.343  0.00  0.00    -0.036 C 
ATOM     11  C   UNL d   1       6.484   3.730  -4.763  0.00  0.00     0.067 C 
ATOM     12  C   UNL d   1       8.011   2.512  -6.346  0.00  0.00     0.093 C 
ATOM     13  O   UNL d   1       7.925   0.113  -6.224  0.00  0.00    -0.292 OA
ATOM     14  C   UNL d   1       8.947   3.515  -4.215  0.00  0.00     0.015 C 
ATOM     15  C   UNL d   1       8.205   5.000  -6.070  0.00  0.00     0.015 C 
ENDROOT
BRANCH   6  16
ATOM     16  S   UNL d   1       3.916   1.352  -1.109  0.00  0.00    -0.085 SA
BRANCH  16  17
ATOM     17  C   UNL d   1       5.132   0.486  -0.076  0.00  0.00     0.185 C 
BRANCH  17  18
ATOM     18  C   UNL d   1       6.532   1.090  -0.127  0.00  0.00     0.231 C 
ATOM     19  N   UNL d   1       6.584   2.475  -0.094  0.00  0.00    -0.327 N 
ATOM     20  H   UNL d   1       5.693   2.960  -0.046  0.00  0.00     0.169 HD
ATOM     21  O   UNL d   1       7.509   0.339  -0.124  0.00  0.00    -0.272 OA
BRANCH  19  22
ATOM     22  C   UNL d   1       7.732   3.288  -0.246  0.00  0.00     0.034 A 
ATOM     23  C   UNL d   1       9.007   2.782  -0.502  0.00  0.00     0.030 A 
ATOM     24  C   UNL d   1      10.085   3.639  -0.730  0.00  0.00     0.010 A 
ATOM     25  C   UNL d   1       9.926   5.030  -0.703  0.00  0.00    -0.055 A 
ATOM     26  C   UNL d   1       8.656   5.538  -0.404  0.00  0.00     0.010 A 
ATOM     27  C   UNL d   1       7.570   4.677  -0.182  0.00  0.00     0.030 A 
BRANCH  25  28
ATOM     28  C   UNL d   1      11.075   5.962  -1.042  0.00  0.00     0.010 C 
ATOM     29  C   UNL d   1      12.290   5.749  -0.135  0.00  0.00     0.015 C 
ATOM     30  C   UNL d   1      11.480   5.815  -2.515  0.00  0.00     0.015 C 
ENDBRANCH  25  28
ENDBRANCH  19  22
ENDBRANCH  17  18
ENDBRANCH  16  17
ENDBRANCH   6  16
TORSDOF 5
