REMARK  5 active torsions:
REMARK  status: ('A' for Active; 'I' for Inactive)
REMARK    1  A    between atoms: N_2  and  S_1 
REMARK    2  A    between atoms: C_5  and  S_1 
REMARK    3  A    between atoms: N_3  and  N_2 
REMARK    4  A    between atoms: C_7  and  C_6 
REMARK    5  A    between atoms: O_13  and  C_7 
ROOT
ATOM      1  S   UNL d   1       1.067   0.052   0.041  0.00  0.00     0.276 S 
ATOM      2  O   UNL d   1       1.197  -0.625  -1.232  0.00  0.00    -0.199 OA
ATOM      3  O   UNL d   1       0.198   1.199   0.208  0.00  0.00    -0.199 OA
ENDROOT
BRANCH   1   4
ATOM      4  N   UNL d   1       2.627   0.486   0.578  0.00  0.00    -0.223 N 
ATOM      5  H   UNL d   1       2.975   0.019   1.418  0.00  0.00     0.200 HD
BRANCH   4   6
ATOM      6  N   UNL d   1       3.363   1.476  -0.157  0.00  0.00    -0.296 N 
ATOM      7  C   UNL d   1       4.536   1.755   0.307  0.00  0.00     0.188 C 
ATOM      8  HN  UNL d   1       2.984   1.930  -0.989  1.00  0.00     0.187 HD
BRANCH   7   9
ATOM      9  C   UNL d   1       5.367   2.791  -0.417  0.00  0.00     0.183 C 
ATOM     10  O   UNL d   1       6.478   3.094  -0.030  0.00  0.00    -0.646 OA
BRANCH   9  11
ATOM     11  O   UNL d   1       4.730   3.293  -1.485  0.00  0.00    -0.772 OA
ATOM     12  H   UNL d   1       3.841   2.877  -1.578  0.00  0.00     0.167 HD
ENDBRANCH   9  11
ENDBRANCH   7   9
ENDBRANCH   4   6
ENDBRANCH   1   4
BRANCH   1  13
ATOM     13  C   UNL d   1       0.614  -1.159   1.258  0.00  0.00     0.081 A 
ATOM     14  C   UNL d   1      -0.113  -0.770   2.385  0.00  0.00     0.026 A 
ATOM     15  C   UNL d   1      -0.471  -1.728   3.336  0.00  0.00     0.008 A 
ATOM     16  C   UNL d   1      -0.112  -3.072   3.161  0.00  0.00    -0.062 A 
ATOM     17  C   UNL d   1       0.595  -3.451   2.011  0.00  0.00     0.008 A 
ATOM     18  C   UNL d   1      -0.492  -4.086   4.200  0.00  0.00     0.048 C 
ATOM     19  C   UNL d   1       0.956  -2.499   1.057  0.00  0.00     0.026 A 
ENDBRANCH   1  13
TORSDOF 5
