REMARK  6 active torsions:
REMARK  status: ('A' for Active; 'I' for Inactive)
REMARK    1  A    between atoms: N_2  and  C_1 
REMARK    2  A    between atoms: C_7  and  C_17 
REMARK       I    between atoms: N_11  and  C_7 
REMARK    3  A    between atoms: C_17  and  N_9 
REMARK    4  A    between atoms: C_13  and  N_11 
REMARK    5  A    between atoms: C_29  and  C_20 
REMARK    6  A    between atoms: C_30  and  C_29 
ROOT
ATOM      1  N   UNL d   1       0.554   2.513  -0.095  0.00  0.00    -0.214 N 
ATOM      2  N   UNL d   1       0.814   5.452   0.133  0.00  0.00     0.100 N 
ATOM      3  C   UNL d   1       0.028   3.175   1.095  0.00  0.00     0.171 C 
ATOM      4  C   UNL d   1       1.776   3.127  -0.608  0.00  0.00     0.171 C 
ATOM      5  C   UNL d   1       1.524   4.635  -0.891  0.00  0.00     0.293 C 
ATOM      6  C   UNL d   1      -0.281   4.654   0.754  0.00  0.00     0.293 C 
ENDROOT
BRANCH   2   7
ATOM      7  C   UNL d   1       1.708   5.955   1.189  0.00  0.00     0.375 C 
BRANCH   7   8
ATOM      8  C   UNL d   1       2.747   6.968   0.701  0.00  0.00     0.250 C 
ATOM      9  N   UNL d   1       2.364   7.775  -0.359  0.00  0.00    -0.326 N 
ATOM     10  H   UNL d   1       1.443   7.579  -0.746  0.00  0.00     0.169 HD
ATOM     11  O   UNL d   1       3.804   7.049   1.328  0.00  0.00    -0.271 OA
BRANCH   9  12
ATOM     12  C   UNL d   1       3.086   8.892  -0.855  0.00  0.00     0.037 A 
ATOM     13  C   UNL d   1       4.346   9.243  -0.373  0.00  0.00     0.069 A 
ATOM     14  C   UNL d   1       4.931  10.458  -0.718  0.00  0.00     0.104 A 
ATOM     15  O   UNL d   1       6.079  10.791  -0.041  0.00  0.00    -0.346 OA
ATOM     16  C   UNL d   1       4.326  11.303  -1.645  0.00  0.00     0.102 A 
ATOM     17  C   UNL d   1       6.157  12.214   0.056  0.00  0.00     0.202 C 
ATOM     18  C   UNL d   1       6.099  12.804  -1.344  0.00  0.00     0.202 C 
ATOM     19  O   UNL d   1       4.842  12.530  -1.986  0.00  0.00    -0.346 OA
ATOM     20  C   UNL d   1       3.114  10.923  -2.217  0.00  0.00     0.042 A 
ATOM     21  C   UNL d   1       2.487   9.729  -1.814  0.00  0.00     0.032 A 
ENDBRANCH   9  12
ENDBRANCH   7   8
ENDBRANCH   2   7
BRANCH   1  22
ATOM     22  C   UNL d   1       0.468   1.133  -0.104  0.00  0.00     0.679 A 
ATOM     23  N   UNL d   1      -0.529   0.551   0.587  0.00  0.00    -0.201 N 
ATOM     24  C   UNL d   1      -0.629  -0.788   0.566  0.00  0.00     0.114 A 
ATOM     25  HN  UNL d   1      -1.194   1.114   1.116  1.00  0.00     0.183 HD
ATOM     26  C   UNL d   1       0.232  -1.608  -0.121  0.00  0.00    -0.026 A 
ATOM     27  C   UNL d   1       1.199  -0.928  -0.834  0.00  0.00     0.114 A 
ATOM     28  N   UNL d   1       1.337   0.413  -0.840  0.00  0.00    -0.201 N 
ATOM     29  HN  UNL d   1       2.072   0.866  -1.382  1.00  0.00     0.183 HD
BRANCH  26  30
ATOM     30  C   UNL d   1       0.136  -3.099  -0.075  0.00  0.00     0.041 C 
BRANCH  30  31
ATOM     31  C   UNL d   1       1.379  -3.723   0.567  0.00  0.00     0.000 C 
ATOM     32  C   UNL d   1       1.268  -5.235   0.664  0.00  0.00     0.005 C 
ENDBRANCH  30  31
ENDBRANCH  26  30
ENDBRANCH   1  22
TORSDOF 6
