REMARK  6 active torsions:
REMARK  status: ('A' for Active; 'I' for Inactive)
REMARK    1  A    between atoms: N_2  and  S_1 
REMARK    2  A    between atoms: C_6  and  S_1 
REMARK    3  A    between atoms: S_7  and  N_2 
REMARK    4  A    between atoms: S_5  and  C_4 
REMARK    5  A    between atoms: C_17  and  S_5 
REMARK    6  A    between atoms: C_11  and  S_7 
ROOT
ATOM      1  S   UNL d   1       1.022   0.144   0.164  0.00  0.00     0.276 S 
ATOM      2  O   UNL d   1       2.265   0.695  -0.334  0.00  0.00    -0.199 OA
ATOM      3  O   UNL d   1       0.993  -1.183   0.749  0.00  0.00    -0.199 OA
ENDROOT
BRANCH   1   4
ATOM      4  N   UNL d   1      -0.129   0.233  -1.063  0.00  0.00    -0.236 N 
ATOM      5  HN  UNL d   1       0.149   0.584  -1.979  1.00  0.00     0.189 HD
BRANCH   4   6
ATOM      6  S   UNL d   1      -1.702  -0.235  -0.825  0.00  0.00     0.061 S 
ATOM      7  O   UNL d   1      -2.289   0.331   0.366  0.00  0.00    -0.244 OA
ATOM      8  C   UNL d   1      -2.545   0.335  -2.269  0.00  0.00     0.143 C 
BRANCH   6   9
ATOM      9  C   UNL d   1      -1.755  -1.983  -0.807  0.00  0.00     0.039 A 
ATOM     10  C   UNL d   1      -2.236  -2.642   0.326  0.00  0.00     0.023 A 
ATOM     11  C   UNL d   1      -2.360  -4.034   0.316  0.00  0.00     0.025 A 
ATOM     12  C   UNL d   1      -2.006  -4.752  -0.826  0.00  0.00     0.034 A 
ATOM     13  C   UNL d   1      -1.511  -4.093  -1.951  0.00  0.00     0.025 A 
ATOM     14 CL   UNL d   1      -2.195  -6.462  -0.854  0.00  0.00    -0.084 Cl
ATOM     15  C   UNL d   1      -1.379  -2.702  -1.944  0.00  0.00     0.023 A 
ENDBRANCH   6   9
ENDBRANCH   4   6
ENDBRANCH   1   4
BRANCH   1  16
ATOM     16  C   UNL d   1       0.499   1.224   1.486  0.00  0.00     0.122 A 
ATOM     17  C   UNL d   1      -0.178   0.972   2.664  0.00  0.00     0.057 A 
ATOM     18  C   UNL d   1      -0.391   2.154   3.435  0.00  0.00     0.072 A 
ATOM     19  C   UNL d   1       0.135   3.270   2.820  0.00  0.00     0.074 A 
ATOM     20  S   UNL d   1       0.842   2.892   1.307  0.00  0.00    -0.087 SA
BRANCH  18  21
ATOM     21  S   UNL d   1      -1.182   2.175   4.979  0.00  0.00     0.207 S 
ATOM     22  O   UNL d   1      -0.988   0.843   5.514  0.00  0.00    -0.217 OA
ATOM     23  O   UNL d   1      -0.654   3.358   5.631  0.00  0.00    -0.217 OA
BRANCH  21  24
ATOM     24  C   UNL d   1      -2.908   2.407   4.669  0.00  0.00     0.064 A 
ATOM     25  C   UNL d   1      -3.617   1.439   3.951  0.00  0.00     0.024 A 
ATOM     26  C   UNL d   1      -4.991   1.593   3.763  0.00  0.00     0.002 A 
ATOM     27  C   UNL d   1      -5.651   2.702   4.295  0.00  0.00     0.000 A 
ATOM     28  C   UNL d   1      -4.940   3.664   5.014  0.00  0.00     0.002 A 
ATOM     29  C   UNL d   1      -3.565   3.519   5.205  0.00  0.00     0.024 A 
ENDBRANCH  21  24
ENDBRANCH  18  21
ENDBRANCH   1  16
TORSDOF 6
