REMARK  5 active torsions:
REMARK  status: ('A' for Active; 'I' for Inactive)
REMARK    1  A    between atoms: C_9  and  C_1 
REMARK    2  A    between atoms: S_2  and  C_8 
REMARK    3  A    between atoms: C_10  and  S_2 
REMARK    4  A    between atoms: C_8  and  C_3 
REMARK    5  A    between atoms: O_16  and  C_9 
ROOT
ATOM      1  C   UNL d   1      -0.233  -1.054  -0.550  0.00  0.00     0.102 A 
ATOM      2  C   UNL d   1       0.696   1.154  -0.086  0.00  0.00     0.066 A 
ATOM      3  N   UNL d   1      -0.320   0.910   0.717  0.00  0.00    -0.355 N 
ATOM      4  HN  UNL d   1      -0.662   1.554   1.430  1.00  0.00     0.166 HD
ATOM      5  C   UNL d   1      -0.861  -0.345   0.461  0.00  0.00     0.030 A 
ATOM      6  S   UNL d   1       0.970  -0.067  -1.265  0.00  0.00    -0.067 SA
ATOM      7  C   UNL d   1      -2.030  -0.786   1.272  0.00  0.00     0.070 C 
ENDROOT
BRANCH   2   8
ATOM      8  C   UNL d   1       1.454   2.440  -0.071  0.00  0.00     0.210 C 
BRANCH   8   9
ATOM      9  S   UNL d   1       3.206   2.129   0.005  0.00  0.00     0.181 S 
ATOM     10  O   UNL d   1       3.528   1.443   1.241  0.00  0.00    -0.222 OA
ATOM     11  O   UNL d   1       3.661   1.607  -1.270  0.00  0.00    -0.222 OA
BRANCH   9  12
ATOM     12  C   UNL d   1       3.902   3.769   0.132  0.00  0.00     0.059 A 
ATOM     13  C   UNL d   1       4.177   4.309   1.392  0.00  0.00     0.025 A 
ATOM     14  C   UNL d   1       4.802   5.555   1.481  0.00  0.00     0.025 A 
ATOM     15  C   UNL d   1       5.155   6.242   0.318  0.00  0.00     0.034 A 
ATOM     16  C   UNL d   1       4.879   5.701  -0.938  0.00  0.00     0.025 A 
ATOM     17 CL   UNL d   1       5.956   7.760   0.434  0.00  0.00    -0.084 Cl
ATOM     18  C   UNL d   1       4.253   4.456  -1.035  0.00  0.00     0.025 A 
ENDBRANCH   9  12
ENDBRANCH   8   9
ENDBRANCH   2   8
BRANCH   1  19
ATOM     19  C   UNL d   1      -0.507  -2.399  -1.011  0.00  0.00     0.185 C 
ATOM     20  O   UNL d   1      -1.346  -3.153  -0.540  0.00  0.00    -0.646 OA
BRANCH  19  21
ATOM     21  O   UNL d   1       0.279  -2.780  -2.053  0.00  0.00    -0.772 OA
ATOM     22  H   UNL d   1       0.926  -2.091  -2.303  0.00  0.00     0.167 HD
ENDBRANCH  19  21
ENDBRANCH   1  19
TORSDOF 5
