REMARK  3 active torsions:
REMARK  status: ('A' for Active; 'I' for Inactive)
REMARK    1  A    between atoms: N_10  and  C_3 
REMARK    2  A    between atoms: C_9  and  C_6 
REMARK    3  A    between atoms: N_13  and  C_7 
ROOT
ATOM      1  N   UNL d   1       0.097   0.988  -0.049  0.00  0.00    -0.324 N 
ATOM      2  HN  UNL d   1       0.134   2.007  -0.051  1.00  0.00     0.169 HD
ATOM      3  C   UNL d   1      -1.059   0.329  -0.159  0.00  0.00     0.156 A 
ATOM      4  N   UNL d   1      -1.191  -0.998  -0.126  0.00  0.00    -0.332 N 
ATOM      5  HN  UNL d   1      -2.106  -1.443  -0.204  1.00  0.00     0.168 HD
ATOM      6  C   UNL d   1      -0.065  -1.729   0.016  0.00  0.00     0.047 A 
ATOM      7  C   UNL d   1       1.200   0.246   0.064  0.00  0.00     0.082 A 
ATOM      8  C   UNL d   1       1.174  -1.127   0.105  0.00  0.00     0.072 A 
ENDROOT
BRANCH   6   9
ATOM      9  C   UNL d   1      -0.248  -3.196   0.087  0.00  0.00    -0.009 A 
ATOM     10  C   UNL d   1       0.628  -4.019   0.822  0.00  0.00     0.015 A 
ATOM     11  C   UNL d   1       0.443  -5.404   0.894  0.00  0.00     0.024 A 
ATOM     12  C   UNL d   1      -0.629  -5.994   0.234  0.00  0.00     0.034 A 
ATOM     13  C   UNL d   1      -1.514  -5.210  -0.500  0.00  0.00     0.024 A 
ATOM     14 CL   UNL d   1      -0.864  -7.694   0.335  0.00  0.00    -0.084 Cl
ATOM     15  C   UNL d   1      -1.324  -3.825  -0.570  0.00  0.00     0.015 A 
ENDBRANCH   6   9
BRANCH   7  16
ATOM     16  N   UNL d   1       2.410   0.927   0.204  0.00  0.00    -0.289 NA
ATOM     17  H   UNL d   1       2.217   1.920   0.096  0.00  0.00     0.125 HD
ATOM     18  H   UNL d   1       3.109   0.606  -0.456  0.00  0.00     0.125 HD
ENDBRANCH   7  16
BRANCH   3  19
ATOM     19  N   UNL d   1      -2.212   1.081  -0.257  0.00  0.00    -0.274 NA
ATOM     20  H   UNL d   1      -2.053   1.990   0.156  0.00  0.00     0.127 HD
ATOM     21  H   UNL d   1      -2.991   0.546   0.102  0.00  0.00     0.127 HD
ENDBRANCH   3  19
TORSDOF 3
