REMARK  2 active torsions:
REMARK  status: ('A' for Active; 'I' for Inactive)
REMARK    1  A    between atoms: S_7  and  C_1 
REMARK    2  A    between atoms: C_11  and  S_7 
ROOT
ATOM      1  C   UNL d   1       2.776  -1.189   0.083  0.00  0.00     0.118 A 
ATOM      2  N   UNL d   1       1.595  -1.763   0.071  0.00  0.00    -0.344 N 
ATOM      3  HN  UNL d   1       1.432  -2.770   0.073  1.00  0.00     0.167 HD
ATOM      4  S   UNL d   1       2.777   0.524   0.076  0.00  0.00    -0.063 SA
ATOM      5  C   UNL d   1       0.602  -0.796   0.055  0.00  0.00     0.052 A 
ATOM      6  C   UNL d   1       1.055   0.526   0.050  0.00  0.00     0.034 A 
ATOM      7  C   UNL d   1      -0.787  -1.037   0.032  0.00  0.00     0.054 A 
ATOM      8  C   UNL d   1       0.171   1.617   0.020  0.00  0.00     0.023 A 
ATOM      9  C   UNL d   1      -1.671   0.044   0.006  0.00  0.00     0.036 A 
ATOM     10  C   UNL d   1      -1.202   1.355  -0.000  0.00  0.00     0.025 A 
ATOM     11 CL   UNL d   1      -3.368  -0.249  -0.017  0.00  0.00    -0.084 Cl
ENDROOT
BRANCH   1  12
ATOM     12  S   UNL d   1       4.265  -2.106  -0.039  0.00  0.00    -0.065 SA
BRANCH  12  13
ATOM     13  C   UNL d   1       4.217  -3.042   1.478  0.00  0.00     0.007 A 
ATOM     14  C   UNL d   1       3.213  -3.981   1.741  0.00  0.00     0.019 A 
ATOM     15  C   UNL d   1       3.272  -4.780   2.887  0.00  0.00     0.001 A 
ATOM     16  C   UNL d   1       4.339  -4.655   3.774  0.00  0.00     0.000 A 
ATOM     17  C   UNL d   1       5.344  -3.724   3.523  0.00  0.00     0.001 A 
ATOM     18  C   UNL d   1       5.284  -2.922   2.379  0.00  0.00     0.019 A 
ENDBRANCH  12  13
ENDBRANCH   1  12
TORSDOF 2
