REMARK  6 active torsions:
REMARK  status: ('A' for Active; 'I' for Inactive)
REMARK    1  A    between atoms: S_8  and  C_2 
REMARK    2  A    between atoms: C_7  and  C_4 
REMARK    3  A    between atoms: O_15  and  C_7 
REMARK    4  A    between atoms: C_14  and  S_8 
REMARK    5  A    between atoms: C_16  and  C_14 
REMARK    6  A    between atoms: C_19  and  O_15 
ROOT
ATOM      1  C   UNL d   1       0.043  -0.733   0.150  0.00  0.00     0.041 A 
ATOM      2  C   UNL d   1       1.138  -1.575   0.141  0.00  0.00     0.057 A 
ATOM      3  C   UNL d   1       0.421   0.663   0.018  0.00  0.00    -0.018 A 
ATOM      4  C   UNL d   1       1.793   0.822  -0.093  0.00  0.00     0.088 A 
ATOM      5  S   UNL d   1       2.596  -0.684   0.008  0.00  0.00    -0.076 SA
ATOM      6  C   UNL d   1      -1.365  -1.101   0.284  0.00  0.00     0.162 C 
ATOM      7  C   UNL d   1      -0.615   1.773  -0.012  0.00  0.00     0.050 C 
ATOM      8  C   UNL d   1      -2.043   1.300   0.385  0.00  0.00    -0.037 C 
ATOM      9  C   UNL d   1      -2.339  -0.073  -0.250  0.00  0.00     0.093 C 
ATOM     10  O   UNL d   1      -1.762  -2.135   0.814  0.00  0.00    -0.292 OA
ATOM     11  C   UNL d   1      -3.086   2.309  -0.126  0.00  0.00     0.015 C 
ATOM     12  C   UNL d   1      -2.178   1.207   1.921  0.00  0.00     0.015 C 
ENDROOT
BRANCH   2  13
ATOM     13  S   UNL d   1       1.231  -3.331   0.276  0.00  0.00    -0.117 SA
BRANCH  13  14
ATOM     14  C   UNL d   1       0.036  -3.902  -0.967  0.00  0.00     0.118 C 
BRANCH  14  15
ATOM     15  C   UNL d   1       0.024  -5.404  -1.100  0.00  0.00    -0.049 A 
ATOM     16  C   UNL d   1      -0.633  -6.195  -0.143  0.00  0.00     0.008 A 
ATOM     17  C   UNL d   1      -0.679  -7.583  -0.281  0.00  0.00     0.001 A 
ATOM     18  C   UNL d   1      -0.071  -8.192  -1.376  0.00  0.00     0.000 A 
ATOM     19  C   UNL d   1       0.589  -7.417  -2.328  0.00  0.00     0.001 A 
ATOM     20  C   UNL d   1       0.641  -6.030  -2.190  0.00  0.00     0.008 A 
ENDBRANCH  14  15
ENDBRANCH  13  14
ENDBRANCH   2  13
BRANCH   4  21
ATOM     21  C   UNL d   1       2.525   2.069  -0.312  0.00  0.00     0.300 C 
ATOM     22  O   UNL d   1       2.004   3.166  -0.489  0.00  0.00    -0.259 OA
BRANCH  21  23
ATOM     23  O   UNL d   1       3.874   1.855  -0.354  0.00  0.00    -0.317 OA
BRANCH  23  24
ATOM     24  C   UNL d   1       4.674   2.935  -0.854  0.00  0.00     0.174 C 
ATOM     25  C   UNL d   1       4.761   2.810  -2.364  0.00  0.00     0.034 C 
ENDBRANCH  23  24
ENDBRANCH  21  23
ENDBRANCH   4  21
TORSDOF 6
