REMARK  6 active torsions:
REMARK  status: ('A' for Active; 'I' for Inactive)
REMARK    1  A    between atoms: C_2  and  S_1 
REMARK    2  A    between atoms: N_4  and  S_1 
REMARK    3  A    between atoms: C_6  and  N_4 
REMARK    4  A    between atoms: C_18  and  C_5 
REMARK    5  A    between atoms: O_11  and  C_7 
REMARK    6  A    between atoms: C_9  and  O_11 
ROOT
ATOM      1  C   UNL d   1       0.748   1.408  -2.304  0.00  0.00     0.074 A 
ATOM      2  C   UNL d   1      -0.179   2.130  -3.070  0.00  0.00     0.170 A 
ATOM      3  N   UNL d   1       0.132   3.257  -3.760  0.00  0.00    -0.345 N 
ATOM      4  HN  UNL d   1      -0.562   3.744  -4.327  1.00  0.00     0.167 HD
ATOM      5  C   UNL d   1       2.055   1.888  -2.248  0.00  0.00     0.030 A 
ATOM      6  C   UNL d   1       1.400   3.702  -3.661  0.00  0.00     0.090 A 
ATOM      7  C   UNL d   1       2.387   3.057  -2.933  0.00  0.00     0.019 A 
ENDROOT
BRANCH   1   8
ATOM      8  N   UNL d   1       0.385   0.190  -1.628  0.00  0.00    -0.177 NA
ATOM      9  H   UNL d   1       0.709   0.169  -0.661  0.00  0.00     0.146 HD
BRANCH   8  10
ATOM     10  S   UNL d   1       0.892  -1.267  -2.347  0.00  0.00     0.252 S 
ATOM     11  O   UNL d   1       2.341  -1.263  -2.372  0.00  0.00    -0.205 OA
ATOM     12  O   UNL d   1       0.172  -2.322  -1.674  0.00  0.00    -0.205 OA
BRANCH  10  13
ATOM     13  C   UNL d   1       0.347  -1.334  -4.034  0.00  0.00     0.116 C 
ATOM     14  S   UNL d   1       1.237  -0.402  -5.156  0.00  0.00    -0.075 SA
ATOM     15  C   UNL d   1       0.125  -0.712  -6.421  0.00  0.00     0.033 C 
ATOM     16  C   UNL d   1      -0.792  -1.675  -6.036  0.00  0.00     0.023 C 
ATOM     17  C   UNL d   1      -0.678  -2.019  -4.657  0.00  0.00     0.034 C 
BRANCH  15  18
ATOM     18  C   UNL d   1       0.245  -0.018  -7.705  0.00  0.00     0.049 A 
ATOM     19  N   UNL d   1      -0.124  -0.756  -8.780  0.00  0.00    -0.365 N 
ATOM     20  C   UNL d   1      -0.063  -0.154  -9.988  0.00  0.00     0.088 A 
ATOM     21  HN  UNL d   1      -0.434  -1.723  -8.682  1.00  0.00     0.165 HD
ATOM     22  C   UNL d   1       0.334   1.159 -10.180  0.00  0.00     0.017 A 
ATOM     23  C   UNL d   1       0.693   1.906  -9.066  0.00  0.00     0.004 A 
ATOM     24  C   UNL d   1       0.649   1.312  -7.808  0.00  0.00     0.031 A 
ENDBRANCH  15  18
ENDBRANCH  10  13
ENDBRANCH   8  10
ENDBRANCH   1   8
BRANCH   2  25
ATOM     25  O   UNL d   1      -1.467   1.626  -3.180  0.00  0.00    -0.291 OA
BRANCH  25  26
ATOM     26  C   UNL d   1      -2.507   2.526  -3.210  0.00  0.00     0.084 A 
ATOM     27  C   UNL d   1      -3.614   2.220  -3.992  0.00  0.00    -0.017 A 
ATOM     28  C   UNL d   1      -4.755   3.031  -3.976  0.00  0.00    -0.043 A 
ATOM     29  C   UNL d   1      -3.788   1.042  -4.895  0.00  0.00     0.042 C 
ATOM     30  C   UNL d   1      -5.826   2.483  -4.864  0.00  0.00     0.040 C 
ATOM     31  C   UNL d   1      -4.825   4.167  -3.172  0.00  0.00    -0.055 A 
ATOM     32  C   UNL d   1      -5.142   1.305  -5.569  0.00  0.00     0.009 C 
ATOM     33  C   UNL d   1      -3.698   4.493  -2.406  0.00  0.00     0.010 A 
ATOM     34  C   UNL d   1      -6.062   5.010  -3.113  0.00  0.00     0.049 C 
ATOM     35  C   UNL d   1      -2.558   3.674  -2.412  0.00  0.00     0.038 A 
ENDBRANCH  25  26
ENDBRANCH   2  25
TORSDOF 6
