REMARK  7 active torsions:
REMARK  status: ('A' for Active; 'I' for Inactive)
REMARK    1  A    between atoms: C_8  and  N_1 
REMARK    2  A    between atoms: C_12  and  C_2 
REMARK    3  A    between atoms: S_11  and  C_5 
REMARK    4  A    between atoms: C_22  and  S_11 
REMARK    5  A    between atoms: C_15  and  C_22 
REMARK    6  A    between atoms: C_20  and  C_15 
REMARK    7  A    between atoms: C_17  and  C_18 
ROOT
ATOM      1  N   UNL d   1      -0.348  -1.288   0.136  0.00  0.00    -0.275 N 
ATOM      2  C   UNL d   1       0.903  -0.658   0.001  0.00  0.00     0.139 A 
ATOM      3  N   UNL d   1       0.713   0.653  -0.018  0.00  0.00    -0.282 N 
ATOM      4  HN  UNL d   1       1.449   1.355  -0.094  1.00  0.00     0.188 HD
ATOM      5  C   UNL d   1      -1.251  -0.228   0.184  0.00  0.00     0.168 A 
ATOM      6  N   UNL d   1      -0.621   0.917   0.079  0.00  0.00    -0.278 N 
ATOM      7  HN  UNL d   1      -1.053   1.841   0.070  1.00  0.00     0.189 HD
ENDROOT
BRANCH   5   8
ATOM      8  S   UNL d   1      -2.942  -0.349   0.587  0.00  0.00    -0.084 SA
BRANCH   8   9
ATOM      9  C   UNL d   1      -3.506   1.356   0.296  0.00  0.00     0.166 C 
BRANCH   9  10
ATOM     10  C   UNL d   1      -4.999   1.447   0.564  0.00  0.00     0.169 C 
ATOM     11  O   UNL d   1      -5.816   1.232  -0.335  0.00  0.00    -0.291 OA
BRANCH  10  12
ATOM     12  C   UNL d   1      -5.510   1.791   1.933  0.00  0.00     0.011 A 
ATOM     13  C   UNL d   1      -4.667   1.985   3.037  0.00  0.00     0.018 A 
ATOM     14  C   UNL d   1      -5.209   2.292   4.293  0.00  0.00     0.043 A 
ATOM     15  C   UNL d   1      -6.585   2.398   4.446  0.00  0.00     0.116 A 
ATOM     16  C   UNL d   1      -7.437   2.209   3.368  0.00  0.00     0.043 A 
ATOM     17  F   UNL d   1      -7.095   2.681   5.653  0.00  0.00    -0.206 F 
ATOM     18  C   UNL d   1      -6.901   1.907   2.112  0.00  0.00     0.018 A 
ENDBRANCH  10  12
ENDBRANCH   9  10
ENDBRANCH   8   9
ENDBRANCH   5   8
BRANCH   1  19
ATOM     19  C   UNL d   1      -0.621  -2.691   0.210  0.00  0.00     0.046 A 
ATOM     20  C   UNL d   1       0.269  -3.551   0.874  0.00  0.00     0.069 A 
ATOM     21  C   UNL d   1       0.046  -4.910   0.790  0.00  0.00     0.107 A 
ATOM     22  O   UNL d   1       0.855  -5.877   1.301  0.00  0.00    -0.323 OA
ATOM     23  C   UNL d   1      -1.042  -5.429   0.136  0.00  0.00     0.105 A 
ATOM     24  C   UNL d   1       0.143  -7.066   0.901  0.00  0.00     0.352 A 
ATOM     25  O   UNL d   1      -1.064  -6.788   0.161  0.00  0.00    -0.323 OA
ATOM     26  C   UNL d   1      -1.969  -4.617  -0.477  0.00  0.00     0.042 A 
ATOM     27  C   UNL d   1      -1.749  -3.233  -0.449  0.00  0.00     0.033 A 
ENDBRANCH   1  19
BRANCH   2  28
ATOM     28  C   UNL d   1       2.240  -1.270  -0.120  0.00  0.00     0.010 A 
ATOM     29  C   UNL d   1       2.496  -2.424  -0.867  0.00  0.00     0.016 A 
ATOM     30  C   UNL d   1       3.762  -3.030  -0.849  0.00  0.00     0.009 A 
ATOM     31  C   UNL d   1       4.844  -2.466  -0.149  0.00  0.00    -0.051 A 
ATOM     32  C   UNL d   1       4.600  -1.258   0.521  0.00  0.00     0.009 A 
ATOM     33  C   UNL d   1       3.323  -0.674   0.538  0.00  0.00     0.016 A 
BRANCH  31  34
ATOM     34  C   UNL d   1       6.215  -3.167  -0.137  0.00  0.00    -0.024 C 
ATOM     35  C   UNL d   1       7.312  -2.372   0.608  0.00  0.00     0.019 C 
ATOM     36  C   UNL d   1       6.094  -4.540   0.561  0.00  0.00     0.019 C 
ATOM     37  C   UNL d   1       6.715  -3.386  -1.581  0.00  0.00     0.019 C 
ENDBRANCH  31  34
ENDBRANCH   2  28
TORSDOF 7
