REMARK  4 active torsions:
REMARK  status: ('A' for Active; 'I' for Inactive)
REMARK    1  A    between atoms: C_2  and  S_1 
REMARK    2  A    between atoms: O_10  and  S_1 
REMARK    3  A    between atoms: N_5  and  C_3 
REMARK    4  A    between atoms: C_7  and  O_10 
ROOT
ATOM      1  C   UNL d   1      -0.157   2.195  -2.934  0.00  0.00     0.209 A 
ATOM      2  C   UNL d   1       0.852   1.518  -2.233  0.00  0.00     0.140 A 
ATOM      3  N   UNL d   1       0.117   3.300  -3.705  0.00  0.00    -0.339 N 
ATOM      4  HN  UNL d   1      -0.634   3.788  -4.193  1.00  0.00     0.167 HD
ATOM      5  C   UNL d   1       2.165   1.974  -2.384  0.00  0.00     0.044 A 
ATOM      6  C   UNL d   1       1.394   3.731  -3.810  0.00  0.00     0.007 A 
ATOM      7  C   UNL d   1       2.440   3.087  -3.172  0.00  0.00     0.027 A 
ATOM      8  C   UNL d   1       1.644   4.918  -4.690  0.00  0.00     0.068 C 
ENDROOT
BRANCH   2   9
ATOM      9  O   UNL d   1       0.599   0.367  -1.534  0.00  0.00    -0.225 OA
BRANCH   9  10
ATOM     10  S   UNL d   1       1.215   0.101  -0.052  0.00  0.00     0.305 S 
ATOM     11  O   UNL d   1       2.660   0.042  -0.084  0.00  0.00    -0.193 OA
ATOM     12  O   UNL d   1       0.479   0.865   0.934  0.00  0.00    -0.193 OA
BRANCH  10  13
ATOM     13  C   UNL d   1       0.777  -1.542   0.244  0.00  0.00     0.117 A 
ATOM     14  C   UNL d   1       0.702  -2.533  -0.707  0.00  0.00     0.100 A 
ATOM     15  S   UNL d   1       0.304  -4.051  -0.049  0.00  0.00    -0.064 SA
ATOM     16 CL   UNL d   1       0.977  -2.454  -2.404  0.00  0.00    -0.074 Cl
ATOM     17  C   UNL d   1       0.283  -3.409   1.516  0.00  0.00     0.077 A 
ATOM     18  C   UNL d   1       0.549  -2.064   1.560  0.00  0.00     0.059 A 
ATOM     19 CL   UNL d   1      -0.033  -4.438   2.852  0.00  0.00    -0.076 Cl
ENDBRANCH  10  13
ENDBRANCH   9  10
ENDBRANCH   2   9
BRANCH   1  20
ATOM     20  N   UNL d   1      -1.561   1.688  -2.871  0.00  0.00    -0.095 N 
ATOM     21  O   UNL d   1      -1.830   0.734  -2.124  0.00  0.00    -0.530 OA
ATOM     22  O   UNL d   1      -2.400   2.262  -3.585  0.00  0.00    -0.530 OA
ENDBRANCH   1  20
TORSDOF 4
