REMARK  4 active torsions:
REMARK  status: ('A' for Active; 'I' for Inactive)
REMARK    1  A    between atoms: C_5  and  N_1 
REMARK    2  A    between atoms: N_6  and  C_2 
REMARK    3  A    between atoms: C_3  and  C_8 
REMARK       I    between atoms: C_4  and  N_6 
REMARK    4  A    between atoms: C_7  and  C_4 
ROOT
ATOM      1  C   UNL d   1       4.593   1.143   0.291  0.00  0.00     0.062 A 
ATOM      2  C   UNL d   1       3.341   1.659   0.736  0.00  0.00     0.057 A 
ATOM      3  C   UNL d   1       5.821   2.820   1.675  0.00  0.00     0.050 A 
ATOM      4  C   UNL d   1       5.793   1.767   0.751  0.00  0.00     0.048 A 
ATOM      5  C   UNL d   1       3.421   2.778   1.622  0.00  0.00     0.032 A 
ATOM      6  C   UNL d   1       4.610   3.332   2.097  0.00  0.00     0.018 A 
ENDROOT
BRANCH   2   7
ATOM      7  N   UNL d   1       2.046   1.203   0.414  0.00  0.00    -0.374 N 
ATOM      8  C   UNL d   1       0.995   1.391   1.439  0.00  0.00     0.162 C 
ATOM      9  C   UNL d   1      -0.332   0.788   1.061  0.00  0.00    -0.034 A 
ATOM     10  C   UNL d   1      -1.145   0.156   2.009  0.00  0.00     0.009 A 
ATOM     11  C   UNL d   1      -0.799   0.983  -0.245  0.00  0.00    -0.049 A 
ATOM     12  C   UNL d   1      -2.401  -0.324   1.643  0.00  0.00     0.001 A 
ATOM     13  C   UNL d   1      -2.876  -0.110   0.349  0.00  0.00     0.001 A 
ATOM     14  C   UNL d   1      -2.089   0.567  -0.588  0.00  0.00     0.008 A 
ATOM     15  C   UNL d   1       0.139   1.662  -1.212  0.00  0.00     0.059 C 
ATOM     16  C   UNL d   1       1.609   1.205  -1.000  0.00  0.00     0.128 C 
ENDBRANCH   2   7
BRANCH   1  17
ATOM     17  N   UNL d   1       4.924  -0.002  -0.493  0.00  0.00    -0.320 N 
ATOM     18  C   UNL d   1       4.277  -1.188  -0.743  0.00  0.00     0.263 C 
ATOM     19  O   UNL d   1       3.093  -1.411  -0.533  0.00  0.00    -0.267 OA
ATOM     20  H   UNL d   1       5.915  -0.082  -0.714  0.00  0.00     0.169 HD
BRANCH  18  21
ATOM     21  C   UNL d   1       5.160  -2.273  -1.234  0.00  0.00     0.072 A 
ATOM     22  S   UNL d   1       6.872  -2.114  -1.329  0.00  0.00    -0.097 SA
ATOM     23  C   UNL d   1       7.088  -3.761  -1.744  0.00  0.00     0.050 A 
ATOM     24  C   UNL d   1       5.883  -4.416  -1.873  0.00  0.00     0.009 A 
ATOM     25  C   UNL d   1       4.779  -3.551  -1.606  0.00  0.00     0.025 A 
ENDBRANCH  18  21
ENDBRANCH   1  17
BRANCH   3  26
ATOM     26  C   UNL d   1       7.105   3.365   2.238  0.00  0.00     0.417 C 
ATOM     27  F   UNL d   1       8.220   2.763   1.738  0.00  0.00    -0.166 F 
ATOM     28  F   UNL d   1       7.258   4.697   1.996  0.00  0.00    -0.166 F 
ATOM     29  F   UNL d   1       7.180   3.221   3.590  0.00  0.00    -0.166 F 
ENDBRANCH   3  26
TORSDOF 4
