REMARK  2 active torsions:
REMARK  status: ('A' for Active; 'I' for Inactive)
REMARK    1  A    between atoms: S_13  and  C_7 
REMARK    2  A    between atoms: N_14  and  C_8 
ROOT
ATOM      1  N   UNL d   1       0.320  -0.695   0.063  0.00  0.00    -0.073 N 
ATOM      2  C   UNL d   1       0.336   0.701  -0.024  0.00  0.00     0.706 A 
ATOM      3  N   UNL d   1       1.585   1.111  -0.059  0.00  0.00    -0.167 N 
ATOM      4  HN  UNL d   1       1.934   2.068  -0.115  1.00  0.00     0.186 HD
ATOM      5  N   UNL d   1       1.590  -1.171   0.057  0.00  0.00    -0.257 N 
ATOM      6  HN  UNL d   1       1.915  -2.137   0.088  1.00  0.00     0.190 HD
ATOM      7  C   UNL d   1       2.303  -0.046  -0.000  0.00  0.00     0.174 A 
ATOM      8  C   UNL d   1      -0.893  -1.424   0.110  0.00  0.00     0.120 A 
ATOM      9  N   UNL d   1      -0.817   1.432  -0.069  0.00  0.00    -0.200 N 
ATOM     10  HN  UNL d   1      -0.812   2.450  -0.129  1.00  0.00     0.183 HD
ATOM     11  C   UNL d   1      -2.044  -0.732   0.054  0.00  0.00     0.062 A 
ATOM     12  C   UNL d   1      -1.919   0.748  -0.031  0.00  0.00     0.109 A 
ENDROOT
BRANCH   8  13
ATOM     13  N   UNL d   1      -0.830  -2.808   0.205  0.00  0.00    -0.286 NA
ATOM     14  H   UNL d   1       0.089  -3.171  -0.066  0.00  0.00     0.125 HD
ATOM     15  H   UNL d   1      -1.603  -3.307  -0.225  0.00  0.00     0.125 HD
ENDBRANCH   8  13
BRANCH   7  16
ATOM     16  S   UNL d   1       4.045  -0.106  -0.015  0.00  0.00    -0.097 SA
ATOM     17  C   UNL d   1       4.442   1.653  -0.041  0.00  0.00     0.099 C 
ENDBRANCH   7  16
TORSDOF 2
