REMARK  3 active torsions:
REMARK  status: ('A' for Active; 'I' for Inactive)
REMARK    1  A    between atoms: C_4  and  C_1 
REMARK       I    between atoms: N_9  and  C_4 
REMARK       I    between atoms: C_6  and  N_10 
REMARK    2  A    between atoms: C_8  and  C_6 
REMARK    3  A    between atoms: N_10  and  N_9 
ROOT
ATOM      1  C   UNL d   1       2.188  -1.310   0.047  0.00  0.00     0.278 C 
ATOM      2  N   UNL d   1       3.524  -0.966   0.154  0.00  0.00    -0.262 N 
ATOM      3  O   UNL d   1       1.388  -0.464  -0.369  0.00  0.00    -0.265 OA
ATOM      4  H   UNL d   1       4.249  -1.580   0.518  0.00  0.00     0.190 HD
ENDROOT
BRANCH   2   5
ATOM      5  N   UNL d   1       3.910   0.316  -0.271  0.00  0.00    -0.261 N 
ATOM      6  C   UNL d   1       5.046   0.911   0.243  0.00  0.00     0.293 C 
ATOM      7  O   UNL d   1       5.827   0.305   0.976  0.00  0.00    -0.264 OA
ATOM      8  H   UNL d   1       3.197   0.884  -0.730  0.00  0.00     0.190 HD
BRANCH   6   9
ATOM      9  C   UNL d   1       5.218   2.290  -0.166  0.00  0.00     0.144 A 
ATOM     10  O   UNL d   1       4.327   2.844  -1.052  0.00  0.00    -0.317 OA
ATOM     11  C   UNL d   1       4.729   4.121  -1.283  0.00  0.00     0.143 A 
ATOM     12  C   UNL d   1       5.857   4.410  -0.553  0.00  0.00     0.027 A 
ATOM     13  C   UNL d   1       6.173   3.233   0.169  0.00  0.00     0.045 A 
ENDBRANCH   6   9
ENDBRANCH   2   5
BRANCH   1  14
ATOM     14  C   UNL d   1       1.811  -2.670   0.419  0.00  0.00     0.096 A 
ATOM     15  C   UNL d   1       2.541  -3.758   0.875  0.00  0.00     0.063 A 
ATOM     16  C   UNL d   1       1.729  -4.932   1.094  0.00  0.00    -0.032 A 
ATOM     17 CL   UNL d   1       4.238  -3.774   1.159  0.00  0.00    -0.082 Cl
ATOM     18  C   UNL d   1       2.188  -6.272   1.577  0.00  0.00     0.050 C 
ATOM     19  C   UNL d   1       0.407  -4.676   0.788  0.00  0.00     0.059 A 
ATOM     20  S   UNL d   1       0.144  -3.082   0.267  0.00  0.00    -0.094 SA
ENDBRANCH   1  14
TORSDOF 3
