REMARK  2 active torsions:
REMARK  status: ('A' for Active; 'I' for Inactive)
REMARK    1  A    between atoms: N_4  and  C_3 
REMARK       I    between atoms: C_6  and  N_4 
REMARK    2  A    between atoms: C_9  and  C_6 
ROOT
ATOM      1  N   UNL d   1      -4.639  -3.932  -1.621  0.00  0.00    -0.197 NA
ATOM      2  C   UNL d   1      -4.859  -3.160  -0.780  0.00  0.00     0.068 C 
ATOM      3  C   UNL d   1      -5.025  -2.200   0.309  0.00  0.00     0.226 C 
ENDROOT
BRANCH   3   4
ATOM      4  C   UNL d   1      -3.722  -1.530   0.725  0.00  0.00     0.235 C 
ATOM      5  N   UNL d   1      -2.556  -2.243   0.477  0.00  0.00    -0.324 N 
ATOM      6  H   UNL d   1      -2.638  -3.083  -0.088  0.00  0.00     0.169 HD
ATOM      7  O   UNL d   1      -3.776  -0.419   1.247  0.00  0.00    -0.272 OA
BRANCH   5   8
ATOM      8  C   UNL d   1      -1.222  -1.794   0.659  0.00  0.00     0.077 A 
ATOM      9  C   UNL d   1      -0.803  -0.762   1.511  0.00  0.00     0.184 A 
ATOM     10  C   UNL d   1       0.529  -0.349   1.520  0.00  0.00     0.195 A 
ATOM     11  F   UNL d   1      -1.635  -0.198   2.395  0.00  0.00    -0.200 F 
ATOM     12  C   UNL d   1       1.460  -0.971   0.702  0.00  0.00     0.158 A 
ATOM     13  F   UNL d   1       0.918   0.644   2.333  0.00  0.00    -0.199 F 
ATOM     14  F   UNL d   1       2.736  -0.560   0.691  0.00  0.00    -0.203 F 
ATOM     15  C   UNL d   1       1.085  -2.038  -0.104  0.00  0.00     0.048 A 
ATOM     16  C   UNL d   1      -0.249  -2.456  -0.115  0.00  0.00     0.036 A 
ENDBRANCH   5   8
ENDBRANCH   3   4
TORSDOF 2
