REMARK  4 active torsions:
REMARK  status: ('A' for Active; 'I' for Inactive)
REMARK    1  A    between atoms: C_2  and  C_1 
REMARK    2  A    between atoms: C_4  and  C_1 
REMARK    3  A    between atoms: S_3  and  C_4 
REMARK    4  A    between atoms: C_8  and  S_3 
ROOT
ATOM      1  C   UNL d   1       0.948   0.095   0.058  0.00  0.00     0.169 C 
ATOM      2  O   UNL d   1       1.599  -0.452   0.950  0.00  0.00    -0.291 OA
ENDROOT
BRANCH   1   3
ATOM      3  C   UNL d   1       0.941  -0.518  -1.311  0.00  0.00     0.011 A 
ATOM      4  C   UNL d   1       0.269   0.052  -2.400  0.00  0.00     0.017 A 
ATOM      5  C   UNL d   1       0.275  -0.586  -3.647  0.00  0.00     0.025 A 
ATOM      6  C   UNL d   1       0.950  -1.794  -3.811  0.00  0.00     0.034 A 
ATOM      7  C   UNL d   1       1.636  -2.364  -2.743  0.00  0.00     0.025 A 
ATOM      8 CL   UNL d   1       0.923  -2.588  -5.336  0.00  0.00    -0.084 Cl
ATOM      9  C   UNL d   1       1.634  -1.727  -1.498  0.00  0.00     0.017 A 
ENDBRANCH   1   3
BRANCH   1  10
ATOM     10  C   UNL d   1       0.173   1.371   0.330  0.00  0.00     0.163 C 
BRANCH  10  11
ATOM     11  S   UNL d   1      -1.581   0.975   0.616  0.00  0.00    -0.122 SA
BRANCH  11  12
ATOM     12  C   UNL d   1      -2.309   2.549   1.064  0.00  0.00     0.001 A 
ATOM     13  C   UNL d   1      -1.654   3.784   1.010  0.00  0.00     0.019 A 
ATOM     14  C   UNL d   1      -2.317   4.960   1.384  0.00  0.00     0.008 A 
ATOM     15  C   UNL d   1      -3.648   4.927   1.817  0.00  0.00    -0.062 A 
ATOM     16  C   UNL d   1      -4.310   3.699   1.860  0.00  0.00     0.008 A 
ATOM     17  C   UNL d   1      -4.337   6.191   2.237  0.00  0.00     0.048 C 
ATOM     18  C   UNL d   1      -3.645   2.526   1.485  0.00  0.00     0.019 A 
ENDBRANCH  11  12
ENDBRANCH  10  11
ENDBRANCH   1  10
TORSDOF 4
