REMARK  4 active torsions:
REMARK  status: ('A' for Active; 'I' for Inactive)
REMARK       I    between atoms: C_2  and  N_1 
REMARK    1  A    between atoms: C_3  and  N_1 
REMARK    2  A    between atoms: C_6  and  C_2 
REMARK    3  A    between atoms: N_5  and  C_9 
REMARK    4  A    between atoms: C_9  and  C_6 
ROOT
ATOM      1  N   UNL d   1       1.233  -0.095  -0.080  0.00  0.00    -0.325 N 
ATOM      2  C   UNL d   1       0.473  -1.216   0.203  0.00  0.00     0.223 C 
ATOM      3  O   UNL d   1      -0.726  -1.220   0.459  0.00  0.00    -0.273 OA
ATOM      4  H   UNL d   1       2.142  -0.253  -0.493  0.00  0.00     0.169 HD
ENDROOT
BRANCH   1   5
ATOM      5  C   UNL d   1       0.696   1.210  -0.221  0.00  0.00     0.073 A 
ATOM      6  C   UNL d   1      -0.503   1.661   0.361  0.00  0.00     0.145 A 
ATOM      7  C   UNL d   1      -1.054   2.892   0.026  0.00  0.00     0.086 A 
ATOM      8  F   UNL d   1      -1.125   0.966   1.324  0.00  0.00    -0.204 F 
ATOM      9  C   UNL d   1      -0.381   3.712  -0.864  0.00  0.00     0.119 A 
ATOM     10  C   UNL d   1       0.852   3.337  -1.386  0.00  0.00     0.044 A 
ATOM     11  F   UNL d   1      -0.917   4.887  -1.217  0.00  0.00    -0.206 F 
ATOM     12  C   UNL d   1       1.396   2.091  -1.058  0.00  0.00     0.036 A 
ENDBRANCH   1   5
BRANCH   2  13
ATOM     13  C   UNL d   1       1.152  -2.544  -0.035  0.00  0.00     0.133 C 
BRANCH  13  14
ATOM     14  C   UNL d   1       2.566  -2.756   0.502  0.00  0.00     0.282 C 
BRANCH  14  15
ATOM     15  N   UNL d   1       2.740  -4.199   0.582  0.00  0.00     0.093 N 
ATOM     16  C   UNL d   1       3.034  -4.895  -0.677  0.00  0.00     0.298 C 
ATOM     17  C   UNL d   1       2.732  -6.389  -0.481  0.00  0.00     0.198 C 
ATOM     18  O   UNL d   1       3.516  -6.939   0.591  0.00  0.00    -0.388 OA
ATOM     19  C   UNL d   1       3.277  -6.218   1.812  0.00  0.00     0.198 C 
ATOM     20  C   UNL d   1       3.591  -4.717   1.652  0.00  0.00     0.298 C 
ENDBRANCH  14  15
ENDBRANCH  13  14
ENDBRANCH   2  13
TORSDOF 4
