REMARK  3 active torsions:
REMARK  status: ('A' for Active; 'I' for Inactive)
REMARK    1  A    between atoms: CA_2  and  C_6 
REMARK    2  A    between atoms: C_7  and  C_4 
REMARK    3  A    between atoms: OXT_11  and  C_6 
ROOT
ATOM      1  N   UNL d   1      -1.360   1.245   0.167  0.00  0.00     0.118 N 
ATOM      2  CA  UNL d   1      -0.053   1.364  -0.532  0.00  0.00     0.336 C 
ATOM      3  S   UNL d   1      -0.258  -1.186   0.030  0.00  0.00    -0.117 SA
ATOM      4  C   UNL d   1      -1.762  -0.171   0.062  0.00  0.00     0.317 C 
ATOM      5  C   UNL d   1       0.877   0.250  -0.017  0.00  0.00     0.044 C 
ATOM      6  C   UNL d   1       1.420   0.449   1.406  0.00  0.00     0.029 C 
ATOM      7  C   UNL d   1       2.028  -0.030  -0.982  0.00  0.00     0.029 C 
ATOM      8  H   UNL d   1      -2.064   1.794  -0.334  0.00  0.00     0.319 HD
ENDROOT
BRANCH   4   9
ATOM      9  C   UNL d   1      -2.691  -0.568   1.189  0.00  0.00    -0.015 A 
ATOM     10  C   UNL d   1      -2.588   0.025   2.461  0.00  0.00     0.013 A 
ATOM     11  C   UNL d   1      -3.451  -0.342   3.495  0.00  0.00     0.043 A 
ATOM     12  C   UNL d   1      -4.407  -1.321   3.269  0.00  0.00     0.116 A 
ATOM     13  C   UNL d   1      -4.519  -1.938   2.030  0.00  0.00     0.043 A 
ATOM     14  F   UNL d   1      -5.235  -1.673   4.263  0.00  0.00    -0.206 F 
ATOM     15  C   UNL d   1      -3.660  -1.568   0.991  0.00  0.00     0.013 A 
ENDBRANCH   4   9
BRANCH   2  16
ATOM     16  C   UNL d   1       0.521   2.750  -0.273  0.00  0.00     0.175 C 
ATOM     17  O   UNL d   1       1.313   3.316  -1.014  0.00  0.00    -0.648 OA
BRANCH  16  18
ATOM     18  OXT UNL d   1       0.062   3.318   0.869  0.00  0.00    -0.775 OA
ATOM     19  HXT UNL d   1      -0.588   2.702   1.275  0.00  0.00     0.167 HD
ENDBRANCH  16  18
ENDBRANCH   2  16
TORSDOF 3
