REMARK  1 active torsions:
REMARK  status: ('A' for Active; 'I' for Inactive)
REMARK    1  A    between atoms: C_13  and  C_7 
ROOT
ATOM      1  C   UNL d   1       1.323   0.041  -0.565  0.00  0.00     0.101 A 
ATOM      2  N   UNL d   1      -0.600  -1.356  -0.982  0.00  0.00    -0.275 N 
ATOM      3  N   UNL d   1      -0.637   0.838  -1.718  0.00  0.00    -0.275 N 
ATOM      4  C   UNL d   1       0.648  -1.277  -0.432  0.00  0.00     0.265 A 
ATOM      5  C   UNL d   1       0.626   1.137  -1.289  0.00  0.00     0.265 A 
ATOM      6  C   UNL d   1      -1.273  -0.359  -1.617  0.00  0.00     0.329 A 
ATOM      7  C   UNL d   1       2.541   0.155   0.002  0.00  0.00     0.034 C 
ATOM      8  O   UNL d   1       1.106   2.240  -1.521  0.00  0.00    -0.267 OA
ATOM      9  O   UNL d   1       1.151  -2.244   0.130  0.00  0.00    -0.267 OA
ATOM     10  O   UNL d   1      -2.394  -0.534  -2.081  0.00  0.00    -0.246 OA
ATOM     11  H   UNL d   1      -1.075  -2.244  -0.905  0.00  0.00     0.173 HD
ATOM     12  H   UNL d   1      -1.126   1.570  -2.213  0.00  0.00     0.173 HD
ENDROOT
BRANCH   7  13
ATOM     13  C   UNL d   1       3.375   1.359   0.018  0.00  0.00    -0.032 A 
ATOM     14  C   UNL d   1       4.280   1.599  -1.023  0.00  0.00     0.051 A 
ATOM     15  C   UNL d   1       4.997   2.777  -0.990  0.00  0.00     0.105 A 
ATOM     16  O   UNL d   1       5.896   3.185  -1.926  0.00  0.00    -0.323 OA
ATOM     17  C   UNL d   1       4.852   3.688   0.030  0.00  0.00     0.105 A 
ATOM     18  C   UNL d   1       6.247   4.487  -1.412  0.00  0.00     0.352 A 
ATOM     19  O   UNL d   1       5.636   4.786  -0.140  0.00  0.00    -0.323 OA
ATOM     20  C   UNL d   1       3.989   3.470   1.081  0.00  0.00     0.040 A 
ATOM     21  C   UNL d   1       3.241   2.288   1.073  0.00  0.00     0.014 A 
ENDBRANCH   7  13
TORSDOF 1
