REMARK  9 active torsions:
REMARK  status: ('A' for Active; 'I' for Inactive)
REMARK    1  A    between atoms: C_3  and  C_1 
REMARK    2  A    between atoms: O_5  and  C_1 
REMARK    3  A    between atoms: C_2  and  C_7 
REMARK    4  A    between atoms: C_16  and  O_5 
REMARK    5  A    between atoms: O_18  and  C_6 
REMARK    6  A    between atoms: N_8  and  O_15 
REMARK    7  A    between atoms: O_19  and  C_10 
REMARK    8  A    between atoms: O_15  and  C_22 
REMARK    9  A    between atoms: C_22  and  C_17 
ROOT
ATOM      1  C   UNL d   1       0.688  -7.181  -0.190  0.00  0.00     0.239 C 
ENDROOT
BRANCH   1   2
ATOM      2  O   UNL d   1       1.881  -7.128   0.592  0.00  0.00    -0.276 OA
BRANCH   2   3
ATOM      3  N   UNL d   1       2.242  -5.787   0.799  0.00  0.00    -0.270 N 
ATOM      4  C   UNL d   1       3.321  -5.704   1.525  0.00  0.00     0.038 C 
ATOM      5  C   UNL d   1       4.029  -6.928   2.072  0.00  0.00     0.071 C 
ATOM      6  HN  UNL d   1       1.729  -4.985   0.431  1.00  0.00     0.194 HD
BRANCH   4   7
ATOM      7  C   UNL d   1       3.858  -4.354   1.873  0.00  0.00    -0.009 A 
ATOM      8  C   UNL d   1       2.956  -3.290   2.017  0.00  0.00     0.053 A 
ATOM      9  C   UNL d   1       3.390  -2.010   2.402  0.00  0.00     0.102 A 
ATOM     10  C   UNL d   1       4.764  -1.798   2.618  0.00  0.00     0.101 A 
ATOM     11  C   UNL d   1       5.661  -2.864   2.445  0.00  0.00     0.040 A 
ATOM     12  C   UNL d   1       5.218  -4.135   2.073  0.00  0.00     0.016 A 
BRANCH   9  13
ATOM     13  O   UNL d   1       2.530  -0.962   2.590  0.00  0.00    -0.353 OA
ATOM     14  C   UNL d   1       1.143  -1.177   2.364  0.00  0.00     0.210 C 
ENDBRANCH   9  13
BRANCH  10  15
ATOM     15  O   UNL d   1       5.409  -0.647   2.990  0.00  0.00    -0.353 OA
ATOM     16  C   UNL d   1       4.648   0.529   3.217  0.00  0.00     0.210 C 
ENDBRANCH  10  15
ENDBRANCH   4   7
ENDBRANCH   2   3
ENDBRANCH   1   2
BRANCH   1  17
ATOM     17  C   UNL d   1       0.291  -8.628  -0.367  0.00  0.00    -0.031 A 
ATOM     18  C   UNL d   1       0.168  -9.185  -1.647  0.00  0.00     0.027 A 
ATOM     19  C   UNL d   1      -0.216 -10.526  -1.824  0.00  0.00     0.040 A 
ATOM     20  C   UNL d   1      -0.462 -11.323  -0.699  0.00  0.00     0.017 A 
ATOM     21  C   UNL d   1      -0.345 -10.773   0.582  0.00  0.00     0.002 A 
ATOM     22  C   UNL d   1       0.020  -9.435   0.746  0.00  0.00     0.009 A 
BRANCH  19  23
ATOM     23  C   UNL d   1      -0.384 -11.013  -3.222  0.00  0.00     0.298 C 
ATOM     24  O   UNL d   1      -0.212 -10.278  -4.184  0.00  0.00    -0.259 OA
BRANCH  23  25
ATOM     25  O   UNL d   1      -0.795 -12.341  -3.240  0.00  0.00    -0.275 OA
BRANCH  25  26
ATOM     26  C   UNL d   1      -1.162 -12.959  -4.461  0.00  0.00     0.079 A 
ATOM     27  C   UNL d   1      -0.565 -12.681  -5.691  0.00  0.00     0.037 A 
ATOM     28  C   UNL d   1      -1.015 -13.332  -6.843  0.00  0.00     0.003 A 
ATOM     29  C   UNL d   1      -2.038 -14.278  -6.761  0.00  0.00     0.000 A 
ATOM     30  C   UNL d   1      -2.607 -14.581  -5.523  0.00  0.00     0.003 A 
ATOM     31  C   UNL d   1      -2.168 -13.925  -4.372  0.00  0.00     0.037 A 
ENDBRANCH  25  26
ENDBRANCH  23  25
ENDBRANCH  19  23
ENDBRANCH   1  17
TORSDOF 9
