REMARK  4 active torsions:
REMARK  status: ('A' for Active; 'I' for Inactive)
REMARK    1  A    between atoms: C_2  and  C_1 
REMARK    2  A    between atoms: C_11  and  C_5 
REMARK    3  A    between atoms: N_17  and  N_19 
REMARK    4  A    between atoms: C_25  and  C_21 
ROOT
ATOM      1  C   UNL d   1      -1.538   2.244   0.028  0.00  0.00     0.077 A 
ATOM      2  N   UNL d   1      -2.441   2.499   1.036  0.00  0.00    -0.333 N 
ATOM      3  HN  UNL d   1      -2.607   1.885   1.833  1.00  0.00     0.168 HD
ATOM      4  C   UNL d   1      -3.062   3.642   0.830  0.00  0.00     0.163 A 
ATOM      5  S   UNL d   1      -2.591   4.455  -0.619  0.00  0.00    -0.062 SA
ATOM      6  C   UNL d   1      -1.452   3.213  -0.948  0.00  0.00     0.085 A 
ATOM      7  N   UNL d   1      -3.983   4.190   1.668  0.00  0.00    -0.280 N 
ATOM      8  H   UNL d   1      -4.353   5.098   1.394  0.00  0.00     0.189 HD
ENDROOT
BRANCH   1   9
ATOM      9  C   UNL d   1      -0.753   0.985   0.018  0.00  0.00     0.128 A 
ATOM     10  C   UNL d   1      -0.858  -0.024   0.947  0.00  0.00     0.074 A 
ATOM     11  C   UNL d   1       0.018  -1.045   0.494  0.00  0.00     0.069 A 
ATOM     12  N   UNL d   1       0.622  -0.657  -0.640  0.00  0.00    -0.260 N 
ATOM     13  O   UNL d   1       0.155   0.612  -0.922  0.00  0.00    -0.235 OA
ATOM     14  HN  UNL d   1       1.295  -1.195  -1.187  1.00  0.00     0.195 HD
BRANCH  11  15
ATOM     15  C   UNL d   1       0.210  -2.375   1.081  0.00  0.00     0.014 A 
ATOM     16  C   UNL d   1       1.444  -3.052   1.104  0.00  0.00     0.048 A 
ATOM     17  C   UNL d   1       1.541  -4.339   1.652  0.00  0.00     0.048 A 
ATOM     18 CL   UNL d   1       2.924  -2.358   0.531  0.00  0.00    -0.083 Cl
ATOM     19  C   UNL d   1       0.417  -4.956   2.192  0.00  0.00     0.035 A 
ATOM     20  C   UNL d   1      -0.809  -4.300   2.197  0.00  0.00     0.025 A 
ATOM     21 CL   UNL d   1       0.544  -6.535   2.862  0.00  0.00    -0.084 Cl
ATOM     22  C   UNL d   1      -0.911  -3.021   1.643  0.00  0.00     0.017 A 
ENDBRANCH  11  15
ENDBRANCH   1   9
BRANCH   7  23
ATOM     23  N   UNL d   1      -3.973   3.862   2.990  0.00  0.00    -0.309 N 
ATOM     24  C   UNL d   1      -4.805   4.479   3.759  0.00  0.00     0.118 C 
ATOM     25  HN  UNL d   1      -3.334   3.157   3.356  1.00  0.00     0.186 HD
BRANCH  24  26
ATOM     26  C   UNL d   1      -4.765   4.258   5.220  0.00  0.00    -0.019 A 
ATOM     27  C   UNL d   1      -3.805   3.400   5.771  0.00  0.00     0.013 A 
ATOM     28  C   UNL d   1      -3.715   3.250   7.154  0.00  0.00     0.001 A 
ATOM     29  C   UNL d   1      -4.585   3.955   7.986  0.00  0.00     0.000 A 
ATOM     30  C   UNL d   1      -5.552   4.798   7.436  0.00  0.00     0.001 A 
ATOM     31  C   UNL d   1      -5.646   4.952   6.051  0.00  0.00     0.013 A 
ENDBRANCH  24  26
ENDBRANCH   7  23
TORSDOF 4
