REMARK  3 active torsions:
REMARK  status: ('A' for Active; 'I' for Inactive)
REMARK    1  A    between atoms: N_5  and  C_3 
REMARK    2  A    between atoms: O_12  and  C_4 
REMARK    3  A    between atoms: O_13  and  C_6 
ROOT
ATOM      1  N   UNL d   1      -0.654   1.183  -0.000  0.00  0.00    -0.301 N 
ATOM      2  HN  UNL d   1      -1.135   2.083  -0.001  1.00  0.00     0.171 HD
ATOM      3  C   UNL d   1      -0.685  -1.226   0.001  0.00  0.00     0.175 A 
ATOM      4  C   UNL d   1      -1.317   0.012  -0.000  0.00  0.00     0.179 A 
ATOM      5  C   UNL d   1       0.670   1.085   0.001  0.00  0.00     0.223 A 
ATOM      6  C   UNL d   1       0.706  -1.206   0.001  0.00  0.00     0.046 A 
ATOM      7  N   UNL d   1       1.391  -0.035   0.001  0.00  0.00    -0.324 N 
ATOM      8  HN  UNL d   1       2.410  -0.013   0.002  1.00  0.00     0.169 HD
ATOM      9  C   UNL d   1       1.588  -2.421   0.003  0.00  0.00     0.071 C 
ENDROOT
BRANCH   3  10
ATOM     10  N   UNL d   1      -1.462  -2.454   0.002  0.00  0.00    -0.109 N 
ATOM     11  O   UNL d   1      -2.699  -2.340   0.002  0.00  0.00    -0.532 OA
ATOM     12  O   UNL d   1      -0.877  -3.541   0.003  0.00  0.00    -0.532 OA
ENDBRANCH   3  10
BRANCH   4  13
ATOM     13  O   UNL d   1      -2.670   0.204  -0.002  0.00  0.00    -0.344 OA
ATOM     14  H   UNL d   1      -3.136  -0.656  -0.002  0.00  0.00     0.219 HD
ENDBRANCH   4  13
BRANCH   5  15
ATOM     15  O   UNL d   1       1.337   2.266   0.002  0.00  0.00    -0.332 OA
ATOM     16  H   UNL d   1       0.581   2.875   0.003  0.00  0.00     0.221 HD
ENDBRANCH   5  15
TORSDOF 3
