REMARK  8 active torsions:
REMARK  status: ('A' for Active; 'I' for Inactive)
REMARK    1  A    between atoms: N_10  and  C_1 
REMARK    2  A    between atoms: C_2  and  N_8 
REMARK    3  A    between atoms: C_3  and  N_10 
REMARK    4  A    between atoms: N_8  and  C_3 
REMARK    5  A    between atoms: C_13  and  C_4 
REMARK    6  A    between atoms: C_12  and  C_5 
REMARK    7  A    between atoms: C_14  and  C_6 
REMARK    8  A    between atoms: C_15  and  C_7 
ROOT
ATOM      1  C   UNL d   1       3.805  -1.176  -0.319  0.00  0.00     0.052 C 
ENDROOT
BRANCH   1   2
ATOM      2  N   UNL d   1       2.889  -0.594  -0.774  0.00  0.00    -0.307 N 
ATOM      3  HN  UNL d   1       3.012  -0.056  -1.631  1.00  0.00     0.177 HD
BRANCH   2   4
ATOM      4  C   UNL d   1       1.613  -0.629  -0.145  0.00  0.00     0.054 A 
ATOM      5  C   UNL d   1       1.394  -0.213   1.202  0.00  0.00    -0.027 A 
ATOM      6  C   UNL d   1       0.080  -0.215   1.733  0.00  0.00     0.010 A 
ATOM      7  C   UNL d   1      -1.024  -0.539   0.966  0.00  0.00     0.001 A 
ATOM      8  C   UNL d   1      -0.839  -0.871  -0.360  0.00  0.00     0.010 A 
ATOM      9  C   UNL d   1       0.451  -0.931  -0.942  0.00  0.00    -0.027 A 
BRANCH   5  10
ATOM     10  C   UNL d   1       2.495   0.279   2.143  0.00  0.00     0.013 C 
ATOM     11  C   UNL d   1       2.249   1.718   2.625  0.00  0.00     0.015 C 
ATOM     12  C   UNL d   1       2.626  -0.662   3.345  0.00  0.00     0.015 C 
ENDBRANCH   5  10
BRANCH   9  13
ATOM     13  C   UNL d   1       0.494  -1.314  -2.429  0.00  0.00     0.013 C 
ATOM     14  C   UNL d   1      -0.141  -2.698  -2.664  0.00  0.00     0.015 C 
ATOM     15  C   UNL d   1      -0.236  -0.292  -3.322  0.00  0.00     0.015 C 
ENDBRANCH   9  13
ENDBRANCH   2   4
ENDBRANCH   1   2
BRANCH   1  16
ATOM     16  N   UNL d   1       4.841  -1.688  -0.048  0.00  0.00    -0.307 N 
ATOM     17  HN  UNL d   1       5.676  -1.510  -0.608  1.00  0.00     0.177 HD
BRANCH  16  18
ATOM     18  C   UNL d   1       4.886  -2.550   1.072  0.00  0.00     0.054 C 
ATOM     19  C   UNL d   1       4.031  -3.689   1.182  0.00  0.00    -0.027 C 
ATOM     20  C   UNL d   1       3.991  -4.411   2.394  0.00  0.00     0.010 C 
ATOM     21  C   UNL d   1       4.794  -4.070   3.470  0.00  0.00     0.001 C 
ATOM     22  C   UNL d   1       5.740  -3.075   3.310  0.00  0.00     0.010 C 
ATOM     23  C   UNL d   1       5.857  -2.345   2.103  0.00  0.00    -0.027 C 
BRANCH  19  24
ATOM     24  C   UNL d   1       3.235  -4.236  -0.007  0.00  0.00     0.013 C 
ATOM     25  C   UNL d   1       4.027  -5.341  -0.719  0.00  0.00     0.015 C 
ATOM     26  C   UNL d   1       1.843  -4.744   0.383  0.00  0.00     0.015 C 
ENDBRANCH  19  24
BRANCH  23  27
ATOM     27  C   UNL d   1       7.105  -1.457   2.044  0.00  0.00     0.013 C 
ATOM     28  C   UNL d   1       7.843  -1.367   0.708  0.00  0.00     0.015 C 
ATOM     29  C   UNL d   1       6.886  -0.076   2.658  0.00  0.00     0.015 C 
ENDBRANCH  23  27
ENDBRANCH  16  18
ENDBRANCH   1  16
TORSDOF 8
