REMARK  5 active torsions:
REMARK  status: ('A' for Active; 'I' for Inactive)
REMARK    1  A    between atoms: N_2  and  S_1 
REMARK    2  A    between atoms: C_12  and  S_1 
REMARK    3  A    between atoms: C_7  and  C_5 
REMARK    4  A    between atoms: N_6  and  C_11 
REMARK    5  A    between atoms: O_26  and  C_16 
ROOT
ATOM      1  N   UNL d   1       0.348  -0.086   1.463  0.00  0.00    -0.188 N 
ATOM      2  N   UNL d   1       0.035   0.985   2.233  0.00  0.00    -0.284 N 
ATOM      3  HN  UNL d   1       0.129   1.971   1.990  1.00  0.00     0.188 HD
ATOM      4  C   UNL d   1      -0.426   0.468   3.383  0.00  0.00     0.063 A 
ATOM      5  C   UNL d   1      -0.023  -1.276   2.035  0.00  0.00     0.131 A 
ATOM      6  C   UNL d   1      -0.515  -0.955   3.276  0.00  0.00     0.052 A 
ENDROOT
BRANCH   4   7
ATOM      7  C   UNL d   1      -0.686   1.285   4.586  0.00  0.00     0.028 A 
ATOM      8  C   UNL d   1      -0.500   0.678   5.845  0.00  0.00     0.052 A 
ATOM      9  C   UNL d   1      -0.629   1.417   7.027  0.00  0.00     0.103 A 
ATOM     10  C   UNL d   1      -0.970   2.768   6.983  0.00  0.00     0.039 A 
ATOM     11  C   UNL d   1      -1.189   3.376   5.747  0.00  0.00     0.040 A 
ATOM     12  C   UNL d   1      -1.034   2.658   4.547  0.00  0.00     0.080 A 
BRANCH   9  13
ATOM     13  N   UNL d   1      -0.389   0.769   8.321  0.00  0.00    -0.116 N 
ATOM     14  O   UNL d   1      -0.136  -0.444   8.320  0.00  0.00    -0.532 OA
ATOM     15  O   UNL d   1      -0.454   1.471   9.339  0.00  0.00    -0.532 OA
ENDBRANCH   9  13
BRANCH  12  16
ATOM     16  O   UNL d   1      -1.256   3.242   3.323  0.00  0.00    -0.355 OA
ATOM     17  C   UNL d   1      -1.068   4.651   3.249  0.00  0.00     0.210 C 
ENDBRANCH  12  16
ENDBRANCH   4   7
BRANCH   1  18
ATOM     18  S   UNL d   1       1.010  -0.025  -0.138  0.00  0.00     0.282 S 
ATOM     19  O   UNL d   1       1.591  -1.335  -0.381  0.00  0.00    -0.198 OA
ATOM     20  O   UNL d   1       1.804   1.188  -0.213  0.00  0.00    -0.198 OA
BRANCH  18  21
ATOM     21  C   UNL d   1      -0.414   0.158  -1.180  0.00  0.00     0.081 A 
ATOM     22  C   UNL d   1      -0.852   1.435  -1.534  0.00  0.00     0.027 A 
ATOM     23  C   UNL d   1      -1.929   1.574  -2.413  0.00  0.00     0.025 A 
ATOM     24  C   UNL d   1      -2.554   0.439  -2.933  0.00  0.00     0.034 A 
ATOM     25  C   UNL d   1      -2.110  -0.837  -2.586  0.00  0.00     0.025 A 
ATOM     26 CL   UNL d   1      -3.875   0.615  -4.021  0.00  0.00    -0.084 Cl
ATOM     27  C   UNL d   1      -1.032  -0.983  -1.710  0.00  0.00     0.027 A 
ENDBRANCH  18  21
ENDBRANCH   1  18
TORSDOF 5
