REMARK  4 active torsions:
REMARK  status: ('A' for Active; 'I' for Inactive)
REMARK    1  A    between atoms: N_2  and  S_1 
REMARK    2  A    between atoms: C_8  and  S_1 
REMARK    3  A    between atoms: C_13  and  N_2 
REMARK    4  A    between atoms: C_5  and  C_12 
ROOT
ATOM      1  C   UNL d   1       1.579   0.383  -5.348  0.00  0.00    -0.001 A 
ATOM      2  C   UNL d   1       0.905  -0.222  -2.684  0.00  0.00     0.042 A 
ATOM      3  C   UNL d   1       0.282  -0.034  -5.012  0.00  0.00     0.016 A 
ATOM      4  C   UNL d   1       2.518   0.529  -4.314  0.00  0.00     0.016 A 
ATOM      5  C   UNL d   1      -0.048  -0.353  -3.689  0.00  0.00     0.031 A 
ATOM      6  C   UNL d   1       2.183   0.241  -2.989  0.00  0.00     0.031 A 
ENDROOT
BRANCH   2   7
ATOM      7  N   UNL d   1       0.605  -0.653  -1.364  0.00  0.00    -0.281 N 
ATOM      8  H   UNL d   1       0.881  -0.046  -0.594  0.00  0.00     0.179 HD
BRANCH   7   9
ATOM      9  S   UNL d   1       0.827  -2.290  -0.982  0.00  0.00     0.263 S 
ATOM     10  O   UNL d   1       0.021  -3.099  -1.873  0.00  0.00    -0.200 OA
ATOM     11  O   UNL d   1       0.685  -2.387   0.456  0.00  0.00    -0.200 OA
BRANCH   9  12
ATOM     12  C   UNL d   1       2.542  -2.587  -1.364  0.00  0.00     0.079 A 
ATOM     13  C   UNL d   1       3.522  -2.339  -0.396  0.00  0.00     0.025 A 
ATOM     14  C   UNL d   1       4.865  -2.561  -0.705  0.00  0.00     0.002 A 
ATOM     15  C   UNL d   1       5.225  -3.034  -1.968  0.00  0.00     0.000 A 
ATOM     16  C   UNL d   1       4.244  -3.304  -2.921  0.00  0.00     0.002 A 
ATOM     17  C   UNL d   1       2.897  -3.093  -2.621  0.00  0.00     0.025 A 
ENDBRANCH   9  12
ENDBRANCH   7   9
ENDBRANCH   2   7
BRANCH   1  18
ATOM     18  C   UNL d   1       1.955   0.612  -6.737  0.00  0.00     0.102 A 
ATOM     19  O   UNL d   1       3.271   0.917  -6.985  0.00  0.00    -0.304 OA
ATOM     20  C   UNL d   1       3.341   1.027  -8.338  0.00  0.00     0.233 A 
ATOM     21  N   UNL d   1       2.208   0.832  -8.973  0.00  0.00    -0.354 N 
ATOM     22  C   UNL d   1       1.320   0.566  -7.960  0.00  0.00     0.127 A 
ATOM     23  HN  UNL d   1       2.031   0.870  -9.977  1.00  0.00     0.166 HD
ENDBRANCH   1  18
TORSDOF 4
