REMARK  3 active torsions:
REMARK  status: ('A' for Active; 'I' for Inactive)
REMARK    1  A    between atoms: C_6  and  C_1 
REMARK    2  A    between atoms: C_5  and  C_2 
REMARK    3  A    between atoms: C_9  and  C_6 
ROOT
ATOM      1  C   UNL d   1      -0.049  -1.183  -0.033  0.00  0.00     0.076 C 
ATOM      2  C   UNL d   1      -1.381  -0.670  -0.115  0.00  0.00     0.085 C 
ATOM      3  N   UNL d   1      -1.351   0.660  -0.308  0.00  0.00    -0.259 N 
ATOM      4  HN  UNL d   1      -2.150   1.268  -0.487  1.00  0.00     0.195 HD
ATOM      5  O   UNL d   1      -0.035   1.042  -0.215  0.00  0.00    -0.241 OA
ATOM      6  C   UNL d   1       0.743  -0.049  -0.020  0.00  0.00     0.089 C 
ATOM      7  C   UNL d   1       2.183   0.219   0.173  0.00  0.00     0.080 C 
ENDROOT
BRANCH   1   8
ATOM      8  C   UNL d   1       0.410  -2.553   0.078  0.00  0.00     0.197 C 
ATOM      9  O   UNL d   1      -0.146  -3.370   0.808  0.00  0.00    -0.286 OA
BRANCH   8  10
ATOM     10  C   UNL d   1       1.589  -2.975  -0.741  0.00  0.00     0.015 A 
ATOM     11  C   UNL d   1       1.856  -2.399  -1.996  0.00  0.00     0.018 A 
ATOM     12  C   UNL d   1       2.994  -2.774  -2.715  0.00  0.00     0.043 A 
ATOM     13  C   UNL d   1       3.845  -3.740  -2.194  0.00  0.00     0.116 A 
ATOM     14  C   UNL d   1       3.574  -4.350  -0.973  0.00  0.00     0.043 A 
ATOM     15  F   UNL d   1       4.941  -4.090  -2.878  0.00  0.00    -0.206 F 
ATOM     16  C   UNL d   1       2.440  -3.973  -0.245  0.00  0.00     0.018 A 
ENDBRANCH   8  10
ENDBRANCH   1   8
BRANCH   2  17
ATOM     17  C   UNL d   1      -2.671  -1.362  -0.051  0.00  0.00     0.037 A 
ATOM     18  C   UNL d   1      -3.638  -0.978   0.904  0.00  0.00     0.048 A 
ATOM     19 CL   UNL d   1      -3.344   0.229   2.116  0.00  0.00    -0.083 Cl
ATOM     20  C   UNL d   1      -4.903  -1.580   0.935  0.00  0.00     0.025 A 
ATOM     21  C   UNL d   1      -5.221  -2.594   0.038  0.00  0.00     0.003 A 
ATOM     22  C   UNL d   1      -4.275  -3.000  -0.898  0.00  0.00     0.025 A 
ATOM     23  C   UNL d   1      -3.016  -2.382  -0.957  0.00  0.00     0.048 A 
ATOM     24 CL   UNL d   1      -1.968  -2.903  -2.235  0.00  0.00    -0.083 Cl
ENDBRANCH   2  17
TORSDOF 3
