REMARK  8 active torsions:
REMARK  status: ('A' for Active; 'I' for Inactive)
REMARK    1  A    between atoms: C_2  and  C_1 
REMARK    2  A    between atoms: N_3  and  C_1 
REMARK    3  A    between atoms: N_4  and  C_1 
REMARK    4  A    between atoms: C_5  and  C_1 
REMARK    5  A    between atoms: C_6  and  N_3 
REMARK       I    between atoms: C_7  and  N_4 
REMARK    6  A    between atoms: O_14  and  C_5 
REMARK    7  A    between atoms: C_16  and  C_7 
REMARK    8  A    between atoms: C_19  and  O_14 
ROOT
ATOM      1  C   UNL d   1       0.980  -0.007  -0.104  0.00  0.00     0.296 C 
ENDROOT
BRANCH   1   2
ATOM      2  C   UNL d   1       0.435  -1.418  -0.509  0.00  0.00     0.442 C 
ATOM      3  F   UNL d   1      -0.522  -1.879   0.330  0.00  0.00    -0.166 F 
ATOM      4  F   UNL d   1      -0.106  -1.406  -1.758  0.00  0.00    -0.166 F 
ATOM      5  F   UNL d   1       1.409  -2.364  -0.538  0.00  0.00    -0.166 F 
ENDBRANCH   1   2
BRANCH   1   6
ATOM      6  N   UNL d   1       0.773   0.400   1.304  0.00  0.00    -0.346 N 
ATOM      7  H   UNL d   1      -0.172   0.762   1.451  0.00  0.00     0.163 HD
BRANCH   6   8
ATOM      8  C   UNL d   1       1.218  -0.285   2.435  0.00  0.00     0.069 A 
ATOM      9  C   UNL d   1       0.945   0.264   3.703  0.00  0.00     0.142 A 
ATOM     10  F   UNL d   1       0.175   1.362   3.791  0.00  0.00    -0.204 F 
ATOM     11  C   UNL d   1       1.461  -0.276   4.882  0.00  0.00     0.044 A 
ATOM     12  C   UNL d   1       2.275  -1.400   4.825  0.00  0.00     0.003 A 
ATOM     13  C   UNL d   1       2.559  -1.973   3.590  0.00  0.00     0.002 A 
ATOM     14  C   UNL d   1       2.044  -1.415   2.413  0.00  0.00     0.032 A 
ENDBRANCH   6   8
ENDBRANCH   1   6
BRANCH   1  15
ATOM     15  N   UNL d   1       0.379   1.108  -0.876  0.00  0.00    -0.319 N 
ATOM     16  C   UNL d   1      -0.980   1.301  -0.954  0.00  0.00     0.219 C 
ATOM     17  O   UNL d   1      -1.768   0.672  -0.267  0.00  0.00    -0.274 OA
ATOM     18  H   UNL d   1       0.954   1.513  -1.603  0.00  0.00     0.165 HD
BRANCH  16  19
ATOM     19  C   UNL d   1      -1.368   2.381  -1.947  0.00  0.00     0.098 C 
ATOM     20  C   UNL d   1      -2.868   2.599  -2.022  0.00  0.00     0.014 C 
ENDBRANCH  16  19
ENDBRANCH   1  15
BRANCH   1  21
ATOM     21  C   UNL d   1       2.493   0.019  -0.495  0.00  0.00     0.318 C 
ATOM     22  O   UNL d   1       3.448   0.041   0.273  0.00  0.00    -0.260 OA
BRANCH  21  23
ATOM     23  O   UNL d   1       2.648   0.051  -1.861  0.00  0.00    -0.318 OA
BRANCH  23  24
ATOM     24  C   UNL d   1       4.000   0.248  -2.316  0.00  0.00     0.174 C 
ATOM     25  C   UNL d   1       4.730  -1.067  -2.510  0.00  0.00     0.034 C 
ENDBRANCH  23  24
ENDBRANCH  21  23
ENDBRANCH   1  21
TORSDOF 8
