REMARK  8 active torsions:
REMARK  status: ('A' for Active; 'I' for Inactive)
REMARK    1  A    between atoms: C_6  and  C_1 
REMARK    2  A    between atoms: C_9  and  C_2 
REMARK    3  A    between atoms: C_15  and  N_3 
REMARK    4  A    between atoms: C_8  and  C_14 
REMARK    5  A    between atoms: O_13  and  C_9 
REMARK    6  A    between atoms: N_10  and  O_13 
REMARK    7  A    between atoms: C_16  and  C_12 
REMARK    8  A    between atoms: N_28  and  C_12 
ROOT
ATOM      1  C   UNL d   1       1.158  -1.010   0.091  0.00  0.00     0.318 C 
ATOM      2  O   UNL d   1       1.445   0.173   0.252  0.00  0.00    -0.257 OA
ENDROOT
BRANCH   1   3
ATOM      3  C   UNL d   1      -0.239  -1.441   0.066  0.00  0.00     0.091 A 
ATOM      4  C   UNL d   1      -0.858  -2.681  -0.120  0.00  0.00     0.158 A 
ATOM      5  N   UNL d   1      -2.232  -2.446  -0.104  0.00  0.00    -0.251 N 
ATOM      6  N   UNL d   1      -2.498  -1.122   0.037  0.00  0.00    -0.303 N 
ATOM      7  C   UNL d   1      -1.315  -0.540   0.180  0.00  0.00     0.127 A 
ATOM      8  HN  UNL d   1      -3.413  -0.671   0.034  1.00  0.00     0.186 HD
BRANCH   4   9
ATOM      9  C   UNL d   1      -0.312  -4.018  -0.397  0.00  0.00     0.435 C 
ATOM     10  F   UNL d   1       0.981  -4.000  -0.803  0.00  0.00    -0.165 F 
ATOM     11  F   UNL d   1      -0.331  -4.798   0.713  0.00  0.00    -0.165 F 
ATOM     12  F   UNL d   1      -0.982  -4.677  -1.372  0.00  0.00    -0.165 F 
ENDBRANCH   4   9
BRANCH   5  13
ATOM     13  C   UNL d   1      -3.347  -3.328  -0.276  0.00  0.00     0.057 A 
ATOM     14  C   UNL d   1      -3.323  -4.673   0.104  0.00  0.00     0.031 A 
ATOM     15  C   UNL d   1      -4.409  -5.508  -0.183  0.00  0.00     0.002 A 
ATOM     16  C   UNL d   1      -5.533  -5.004  -0.834  0.00  0.00     0.000 A 
ATOM     17  C   UNL d   1      -5.593  -3.653  -1.163  0.00  0.00     0.002 A 
ATOM     18  C   UNL d   1      -4.515  -2.815  -0.870  0.00  0.00     0.031 A 
ENDBRANCH   5  13
ENDBRANCH   1   3
BRANCH   1  19
ATOM     19  O   UNL d   1       2.067  -2.022  -0.090  0.00  0.00    -0.193 OA
BRANCH  19  20
ATOM     20  N   UNL d   1       3.361  -1.493  -0.314  0.00  0.00    -0.246 N 
ATOM     21  C   UNL d   1       4.228  -2.437  -0.544  0.00  0.00     0.109 C 
ATOM     22  HN  UNL d   1       3.586  -0.498  -0.296  1.00  0.00     0.196 HD
BRANCH  21  23
ATOM     23  C   UNL d   1       5.648  -2.048  -0.848  0.00  0.00     0.004 A 
ATOM     24  C   UNL d   1       6.129  -0.781  -0.503  0.00  0.00     0.015 A 
ATOM     25  C   UNL d   1       7.460  -0.434  -0.767  0.00  0.00     0.017 A 
ATOM     26  C   UNL d   1       8.328  -1.346  -1.388  0.00  0.00     0.048 A 
ATOM     27  C   UNL d   1       7.832  -2.606  -1.756  0.00  0.00     0.017 A 
ATOM     28  C   UNL d   1       6.503  -2.954  -1.490  0.00  0.00     0.015 A 
BRANCH  26  29
ATOM     29  C   UNL d   1       9.773  -1.000  -1.663  0.00  0.00     0.417 C 
ATOM     30  F   UNL d   1      10.118   0.262  -1.283  0.00  0.00    -0.166 F 
ATOM     31  F   UNL d   1      10.634  -1.832  -1.013  0.00  0.00    -0.166 F 
ATOM     32  F   UNL d   1      10.092  -1.094  -2.983  0.00  0.00    -0.166 F 
ENDBRANCH  26  29
ENDBRANCH  21  23
BRANCH  21  33
ATOM     33  N   UNL d   1       3.910  -3.775  -0.519  0.00  0.00    -0.286 NA
ATOM     34  H   UNL d   1       2.977  -3.952  -0.157  0.00  0.00     0.125 HD
ATOM     35  H   UNL d   1       4.605  -4.382  -0.098  0.00  0.00     0.125 HD
ENDBRANCH  21  33
ENDBRANCH  19  20
ENDBRANCH   1  19
TORSDOF 8
