REMARK  4 active torsions:
REMARK  status: ('A' for Active; 'I' for Inactive)
REMARK    1  A    between atoms: C_7  and  C_1 
REMARK    2  A    between atoms: C_11  and  C_5 
REMARK       I    between atoms: N_9  and  C_7 
REMARK    3  A    between atoms: C_8  and  C_10 
REMARK    4  A    between atoms: C_13  and  N_9 
ROOT
ATOM      1  C   UNL d   1      -0.418  -2.512  -0.223  0.00  0.00     0.265 C 
ATOM      2  N   UNL d   1       0.671  -3.296  -0.580  0.00  0.00    -0.322 N 
ATOM      3  O   UNL d   1      -1.496  -2.983   0.141  0.00  0.00    -0.267 OA
ATOM      4  H   UNL d   1       1.540  -2.809  -0.765  0.00  0.00     0.169 HD
ENDROOT
BRANCH   1   5
ATOM      5  C   UNL d   1      -0.229  -1.073  -0.252  0.00  0.00     0.097 A 
ATOM      6  S   UNL d   1       1.279  -0.307  -0.491  0.00  0.00    -0.064 SA
ATOM      7  C   UNL d   1       0.551   1.239  -0.236  0.00  0.00     0.085 A 
ATOM      8  N   UNL d   1      -0.750   1.193  -0.035  0.00  0.00    -0.352 N 
ATOM      9  C   UNL d   1      -1.208  -0.112  -0.049  0.00  0.00     0.029 A 
ATOM     10  HN  UNL d   1      -1.341   2.011   0.112  1.00  0.00     0.166 HD
ATOM     11  C   UNL d   1      -2.664  -0.351   0.168  0.00  0.00     0.070 C 
BRANCH   7  12
ATOM     12  C   UNL d   1       1.332   2.492  -0.220  0.00  0.00    -0.002 A 
ATOM     13  C   UNL d   1       2.655   2.587  -0.679  0.00  0.00     0.014 A 
ATOM     14  C   UNL d   1       3.344   3.805  -0.645  0.00  0.00     0.001 A 
ATOM     15  C   UNL d   1       2.723   4.950  -0.152  0.00  0.00     0.000 A 
ATOM     16  C   UNL d   1       1.413   4.880   0.308  0.00  0.00     0.001 A 
ATOM     17  C   UNL d   1       0.725   3.663   0.273  0.00  0.00     0.014 A 
ENDBRANCH   7  12
ENDBRANCH   1   5
BRANCH   2  18
ATOM     18  C   UNL d   1       0.726  -4.710  -0.503  0.00  0.00     0.035 A 
ATOM     19  C   UNL d   1      -0.413  -5.503  -0.331  0.00  0.00     0.045 A 
ATOM     20  C   UNL d   1      -0.320  -6.880  -0.083  0.00  0.00     0.050 A 
ATOM     21  C   UNL d   1       0.943  -7.480  -0.085  0.00  0.00     0.016 A 
ATOM     22  C   UNL d   1       2.083  -6.714  -0.335  0.00  0.00     0.003 A 
ATOM     23  C   UNL d   1       1.975  -5.334  -0.545  0.00  0.00     0.029 A 
BRANCH  20  24
ATOM     24  C   UNL d   1      -1.562  -7.678   0.232  0.00  0.00     0.417 C 
ATOM     25  F   UNL d   1      -2.712  -6.950   0.197  0.00  0.00    -0.166 F 
ATOM     26  F   UNL d   1      -1.752  -8.713  -0.633  0.00  0.00    -0.166 F 
ATOM     27  F   UNL d   1      -1.514  -8.234   1.475  0.00  0.00    -0.166 F 
ENDBRANCH  20  24
ENDBRANCH   2  18
TORSDOF 4
