REMARK  6 active torsions:
REMARK  status: ('A' for Active; 'I' for Inactive)
REMARK    1  A    between atoms: S_18  and  C_3 
REMARK    2  A    between atoms: S_14  and  C_8 
REMARK    3  A    between atoms: C_13  and  C_21 
REMARK       I    between atoms: N_22  and  C_13 
REMARK    4  A    between atoms: C_21  and  S_14 
REMARK    5  A    between atoms: C_20  and  C_24 
REMARK    6  A    between atoms: C_24  and  N_22 
ROOT
ATOM      1  C   UNL d   1      -0.840  -0.590   0.038  0.00  0.00     0.022 A 
ATOM      2  C   UNL d   1       0.619  -0.469   0.035  0.00  0.00     0.054 A 
ATOM      3  C   UNL d   1      -1.596  -1.755   0.035  0.00  0.00     0.053 A 
ATOM      4  N   UNL d   1       1.364  -1.587   0.071  0.00  0.00    -0.336 N 
ATOM      5  HN  UNL d   1       0.930  -2.510   0.098  1.00  0.00     0.168 HD
ATOM      6  C   UNL d   1      -1.682   0.584   0.017  0.00  0.00    -0.037 A 
ATOM      7  S   UNL d   1      -3.283  -1.415   0.051  0.00  0.00    -0.093 SA
ATOM      8  C   UNL d   1       2.694  -1.447   0.070  0.00  0.00     0.145 A 
ATOM      9  C   UNL d   1      -3.022   0.265   0.028  0.00  0.00     0.059 A 
ATOM     10  C   UNL d   1       1.180   0.798   0.006  0.00  0.00    -0.015 A 
ATOM     11  N   UNL d   1       3.341  -0.268   0.053  0.00  0.00    -0.346 N 
ATOM     12  HN  UNL d   1       4.359  -0.208   0.071  1.00  0.00     0.167 HD
ATOM     13  C   UNL d   1       2.560   0.828   0.012  0.00  0.00     0.099 A 
ATOM     14  C   UNL d   1      -1.140   1.976  -0.026  0.00  0.00     0.045 A 
ATOM     15  C   UNL d   1       0.393   2.076  -0.024  0.00  0.00     0.047 A 
ENDROOT
BRANCH   8  16
ATOM     16  S   UNL d   1       3.644  -2.944   0.034  0.00  0.00    -0.085 SA
BRANCH  16  17
ATOM     17  C   UNL d   1       5.155  -2.414   0.891  0.00  0.00     0.185 C 
BRANCH  17  18
ATOM     18  C   UNL d   1       4.860  -2.066   2.339  0.00  0.00     0.227 C 
ATOM     19  O   UNL d   1       4.730  -2.930   3.205  0.00  0.00    -0.273 OA
ATOM     20  N   UNL d   1       4.758  -0.718   2.598  0.00  0.00    -0.357 N 
ATOM     21  H   UNL d   1       4.643  -0.097   1.801  0.00  0.00     0.162 HD
BRANCH  20  22
ATOM     22  C   UNL d   1       4.335  -0.231   3.888  0.00  0.00     0.149 C 
BRANCH  22  23
ATOM     23  C   UNL d   1       5.312   0.807   4.332  0.00  0.00    -0.018 C 
ATOM     24  C   UNL d   1       4.990   2.062   4.674  0.00  0.00     0.008 C 
ENDBRANCH  22  23
ENDBRANCH  20  22
ENDBRANCH  17  18
ENDBRANCH  16  17
ENDBRANCH   8  16
BRANCH   3  25
ATOM     25  S   UNL d   1      -1.093  -3.446  -0.032  0.00  0.00    -0.126 SA
ATOM     26  C   UNL d   1      -0.989  -3.823   1.731  0.00  0.00     0.096 C 
ENDBRANCH   3  25
TORSDOF 6
