REMARK  1 active torsions:
REMARK  status: ('A' for Active; 'I' for Inactive)
REMARK    1  A    between atoms: C_3  and  S_1 
ROOT
ATOM      1  N   UNL d   1      -0.821  -1.863   6.617  0.00  0.00    -0.191 NA
ATOM      2  C   UNL d   1       0.487  -0.490   1.578  0.00  0.00     0.059 A 
ATOM      3  C   UNL d   1      -0.548  -1.567   5.529  0.00  0.00     0.099 C 
ATOM      4  C   UNL d   1       0.503  -1.836   1.954  0.00  0.00     0.025 A 
ATOM      5  C   UNL d   1       0.133   0.505   2.494  0.00  0.00     0.025 A 
ATOM      6  C   UNL d   1      -0.209  -1.202   4.184  0.00  0.00     0.044 A 
ATOM      7  C   UNL d   1      -0.221   0.144   3.797  0.00  0.00     0.024 A 
ATOM      8  C   UNL d   1       0.149  -2.191   3.257  0.00  0.00     0.024 A 
ENDROOT
BRANCH   2   9
ATOM      9  S   UNL d   1       0.980  -0.034  -0.069  0.00  0.00     0.171 S 
ATOM     10  O   UNL d   1       1.812  -1.103  -0.586  0.00  0.00    -0.223 OA
ATOM     11  O   UNL d   1       1.468   1.331  -0.013  0.00  0.00    -0.223 OA
ATOM     12  C   UNL d   1      -0.552  -0.041  -0.962  0.00  0.00     0.167 C 
ENDBRANCH   2   9
TORSDOF 1
