REMARK  1 active torsions:
REMARK  status: ('A' for Active; 'I' for Inactive)
REMARK    1  A    between atoms: C_8  and  N_1 
ROOT
ATOM      1  N   UNL d   1       0.952  -0.705  -0.042  0.00  0.00    -0.270 N 
ATOM      2  C   UNL d   1       0.930   0.673  -0.013  0.00  0.00     0.164 A 
ATOM      3  N   UNL d   1      -0.265   1.193   0.089  0.00  0.00    -0.281 N 
ATOM      4  HN  UNL d   1      -0.512   2.180   0.156  1.00  0.00     0.188 HD
ATOM      5  C   UNL d   1      -0.386  -1.066   0.025  0.00  0.00     0.199 A 
ATOM      6  N   UNL d   1      -1.103   0.125   0.088  0.00  0.00    -0.274 N 
ATOM      7  C   UNL d   1       2.080   1.530  -0.130  0.00  0.00     0.120 A 
ATOM      8  S   UNL d   1      -1.167  -2.529   0.135  0.00  0.00    -0.039 SA
ATOM      9  O   UNL d   1       3.131   1.152  -0.922  0.00  0.00    -0.319 OA
ATOM     10  C   UNL d   1       2.342   2.778   0.403  0.00  0.00     0.043 A 
ATOM     11  C   UNL d   1       4.070   2.127  -0.846  0.00  0.00     0.142 A 
ATOM     12  C   UNL d   1       3.637   3.148  -0.035  0.00  0.00     0.027 A 
ATOM     13  H   UNL d   1      -2.107   0.220   0.187  0.00  0.00     0.189 HD
ENDROOT
BRANCH   1  14
ATOM     14  C   UNL d   1       2.082  -1.567   0.010  0.00  0.00     0.043 A 
ATOM     15  C   UNL d   1       3.228  -1.217   0.742  0.00  0.00     0.030 A 
ATOM     16  C   UNL d   1       4.357  -2.043   0.772  0.00  0.00     0.002 A 
ATOM     17  C   UNL d   1       4.350  -3.255   0.093  0.00  0.00     0.000 A 
ATOM     18  C   UNL d   1       3.216  -3.637  -0.616  0.00  0.00     0.002 A 
ATOM     19  C   UNL d   1       2.096  -2.798  -0.661  0.00  0.00     0.030 A 
ENDBRANCH   1  14
TORSDOF 1
