REMARK  4 active torsions:
REMARK  status: ('A' for Active; 'I' for Inactive)
REMARK    1  A    between atoms: C_2  and  C_4 
REMARK       I    between atoms: C_4  and  N_13 
REMARK    2  A    between atoms: C_15  and  C_5 
REMARK    3  A    between atoms: N_13  and  C_14 
REMARK    4  A    between atoms: C_14  and  C_15 
ROOT
ATOM      1  C   UNL d   1      -2.033  -2.620  -0.009  0.00  0.00     0.060 C 
ENDROOT
BRANCH   1   2
ATOM      2  C   UNL d   1      -0.889  -3.635   0.116  0.00  0.00     0.127 C 
BRANCH   2   3
ATOM      3  N   UNL d   1      -1.310  -5.027   0.062  0.00  0.00    -0.356 N 
ATOM      4  C   UNL d   1      -2.118  -5.605   1.022  0.00  0.00     0.258 C 
ATOM      5  O   UNL d   1      -2.598  -4.943   1.940  0.00  0.00    -0.267 OA
ATOM      6  H   UNL d   1      -0.795  -5.661  -0.537  0.00  0.00     0.162 HD
BRANCH   4   7
ATOM      7  C   UNL d   1      -2.357  -7.038   0.884  0.00  0.00     0.072 A 
ATOM      8  S   UNL d   1      -1.705  -7.974  -0.397  0.00  0.00    -0.097 SA
ATOM      9  C   UNL d   1      -2.430  -9.411   0.183  0.00  0.00     0.050 A 
ATOM     10  C   UNL d   1      -3.158  -9.193   1.330  0.00  0.00     0.009 A 
ATOM     11  C   UNL d   1      -3.120  -7.827   1.730  0.00  0.00     0.025 A 
ENDBRANCH   4   7
ENDBRANCH   2   3
ENDBRANCH   1   2
BRANCH   1  12
ATOM     12  C   UNL d   1      -1.534  -1.205  -0.063  0.00  0.00    -0.029 A 
ATOM     13  C   UNL d   1      -1.212  -0.503  -1.208  0.00  0.00     0.096 A 
ATOM     14  N   UNL d   1      -0.807   0.753  -0.846  0.00  0.00    -0.365 N 
ATOM     15  C   UNL d   1      -0.854   0.892   0.522  0.00  0.00     0.042 A 
ATOM     16  H   UNL d   1      -0.522   1.482  -1.485  0.00  0.00     0.165 HD
ATOM     17  C   UNL d   1      -1.306  -0.320   1.044  0.00  0.00    -0.002 A 
ATOM     18  C   UNL d   1      -0.537   1.999   1.320  0.00  0.00     0.030 A 
ATOM     19  C   UNL d   1      -1.448  -0.427   2.444  0.00  0.00     0.014 A 
ATOM     20  C   UNL d   1      -1.134   0.670   3.259  0.00  0.00     0.001 A 
ATOM     21  C   UNL d   1      -0.686   1.866   2.703  0.00  0.00     0.002 A 
ENDBRANCH   1  12
TORSDOF 4
