REMARK  1 active torsions:
REMARK  status: ('A' for Active; 'I' for Inactive)
REMARK    1  A    between atoms: N_7  and  C_1 
ROOT
ATOM      1  C   UNL d   1      -0.443   1.282   0.023  0.00  0.00     0.150 A 
ATOM      2  N   UNL d   1      -0.636  -0.989  -0.029  0.00  0.00    -0.301 N 
ATOM      3  HN  UNL d   1      -1.012  -1.937  -0.049  1.00  0.00     0.187 HD
ATOM      4  C   UNL d   1      -1.318   0.162  -0.013  0.00  0.00     0.057 A 
ATOM      5  C   UNL d   1       0.841   0.743  -0.003  0.00  0.00     0.059 A 
ATOM      6  N   UNL d   1       0.655  -0.619  -0.014  0.00  0.00    -0.298 N 
ATOM      7  C   UNL d   1      -2.803   0.123  -0.048  0.00  0.00     0.072 C 
ATOM      8  C   UNL d   1       2.198   1.353  -0.027  0.00  0.00     0.072 C 
ATOM      9  C   UNL d   1       1.655  -1.665  -0.019  0.00  0.00     0.177 C 
ENDROOT
BRANCH   1  10
ATOM     10  N   UNL d   1      -0.822   2.672   0.064  0.00  0.00    -0.112 N 
ATOM     11  O   UNL d   1      -2.033   2.929   0.064  0.00  0.00    -0.532 OA
ATOM     12  O   UNL d   1       0.080   3.517   0.101  0.00  0.00    -0.532 OA
ENDBRANCH   1  10
TORSDOF 1
