REMARK  8 active torsions:
REMARK  status: ('A' for Active; 'I' for Inactive)
REMARK    1  A    between atoms: C_8  and  C_2 
REMARK    2  A    between atoms: S_9  and  C_5 
REMARK    3  A    between atoms: C_14  and  S_9 
REMARK    4  A    between atoms: C_13  and  C_14 
REMARK    5  A    between atoms: C_19  and  C_17 
REMARK    6  A    between atoms: C_20  and  C_19 
REMARK    7  A    between atoms: C_22  and  C_20 
REMARK    8  A    between atoms: C_21  and  C_22 
ROOT
ATOM      1  N   UNL d   1      -0.035   0.304  -1.223  0.00  0.00    -0.320 N 
ATOM      2  C   UNL d   1      -0.374   0.976  -0.077  0.00  0.00     0.132 A 
ATOM      3  N   UNL d   1      -0.321   0.114   0.927  0.00  0.00    -0.283 N 
ATOM      4  HN  UNL d   1      -0.531   0.325   1.903  1.00  0.00     0.188 HD
ATOM      5  C   UNL d   1       0.213  -0.982  -0.858  0.00  0.00     0.161 A 
ATOM      6  N   UNL d   1       0.066  -1.116   0.434  0.00  0.00    -0.278 N 
ATOM      7  HN  UNL d   1       0.209  -1.969   0.976  1.00  0.00     0.189 HD
ATOM      8  H   UNL d   1      -0.051   0.648  -2.175  0.00  0.00     0.169 HD
ENDROOT
BRANCH   2   9
ATOM      9  C   UNL d   1      -0.768   2.381  -0.017  0.00  0.00     0.009 A 
ATOM     10  C   UNL d   1      -1.555   2.828   1.053  0.00  0.00     0.016 A 
ATOM     11  C   UNL d   1      -1.967   4.164   1.133  0.00  0.00     0.008 A 
ATOM     12  C   UNL d   1      -1.592   5.085   0.149  0.00  0.00    -0.058 A 
ATOM     13  C   UNL d   1      -0.780   4.646  -0.905  0.00  0.00     0.008 A 
ATOM     14  C   UNL d   1      -0.380   3.308  -0.992  0.00  0.00     0.016 A 
BRANCH  12  15
ATOM     15  C   UNL d   1      -2.042   6.523   0.242  0.00  0.00     0.038 C 
BRANCH  15  16
ATOM     16  C   UNL d   1      -2.829   7.022  -0.976  0.00  0.00     0.005 C 
BRANCH  16  17
ATOM     17  C   UNL d   1      -4.147   6.271  -1.192  0.00  0.00    -0.000 C 
BRANCH  17  18
ATOM     18  C   UNL d   1      -4.888   6.808  -2.419  0.00  0.00    -0.005 C 
ATOM     19  C   UNL d   1      -6.184   6.055  -2.661  0.00  0.00     0.005 C 
ENDBRANCH  17  18
ENDBRANCH  16  17
ENDBRANCH  15  16
ENDBRANCH  12  15
ENDBRANCH   2   9
BRANCH   5  20
ATOM     20  S   UNL d   1       0.694  -2.174  -2.002  0.00  0.00    -0.085 SA
BRANCH  20  21
ATOM     21  C   UNL d   1      -0.849  -2.452  -2.911  0.00  0.00     0.160 C 
BRANCH  21  22
ATOM     22  C   UNL d   1      -1.242  -1.281  -3.801  0.00  0.00     0.132 C 
ATOM     23  O   UNL d   1      -0.676  -0.185  -3.791  0.00  0.00    -0.298 OA
ATOM     24  C   UNL d   1      -2.431  -1.511  -4.700  0.00  0.00     0.091 C 
ENDBRANCH  21  22
ENDBRANCH  20  21
ENDBRANCH   5  20
TORSDOF 8
