REMARK  3 active torsions:
REMARK  status: ('A' for Active; 'I' for Inactive)
REMARK    1  A    between atoms: C_3  and  C_1 
REMARK    2  A    between atoms: C_4  and  C_2 
REMARK    3  A    between atoms: C_6  and  C_5 
ROOT
ATOM      1  C   UNL d   1       1.405  -0.300   0.082  0.00  0.00     0.009 A 
ATOM      2  C   UNL d   1      -1.385   0.231  -0.090  0.00  0.00    -0.026 A 
ATOM      3  C   UNL d   1       0.480  -1.237   0.548  0.00  0.00     0.016 A 
ATOM      4  C   UNL d   1       0.943   0.891  -0.480  0.00  0.00     0.016 A 
ATOM      5  C   UNL d   1      -0.896  -0.971   0.457  0.00  0.00     0.013 A 
ATOM      6  C   UNL d   1      -0.430   1.155  -0.550  0.00  0.00     0.013 A 
ENDROOT
BRANCH   2   7
ATOM      7  C   UNL d   1      -2.839   0.512  -0.191  0.00  0.00    -0.026 A 
ATOM      8  C   UNL d   1      -3.363   1.267  -1.258  0.00  0.00     0.013 A 
ATOM      9  C   UNL d   1      -4.728   1.559  -1.351  0.00  0.00     0.016 A 
ATOM     10  C   UNL d   1      -5.620   1.079  -0.390  0.00  0.00     0.009 A 
ATOM     11  C   UNL d   1      -5.130   0.328   0.679  0.00  0.00     0.016 A 
ATOM     12  C   UNL d   1      -3.756   0.054   0.774  0.00  0.00     0.013 A 
BRANCH  10  13
ATOM     13  C   UNL d   1      -7.062   1.417  -0.546  0.00  0.00     0.155 C 
ATOM     14  O   UNL d   1      -7.376   2.448  -1.136  0.00  0.00    -0.293 OA
ATOM     15  C   UNL d   1      -8.114   0.475  -0.024  0.00  0.00     0.096 C 
ENDBRANCH  10  13
ENDBRANCH   2   7
BRANCH   1  16
ATOM     16  C   UNL d   1       2.876  -0.521   0.137  0.00  0.00     0.155 C 
ATOM     17  O   UNL d   1       3.597   0.020  -0.700  0.00  0.00    -0.293 OA
ATOM     18  C   UNL d   1       3.468  -1.362   1.237  0.00  0.00     0.096 C 
ENDBRANCH   1  16
TORSDOF 3
