REMARK  4 active torsions:
REMARK  status: ('A' for Active; 'I' for Inactive)
REMARK    1  A    between atoms: C_3  and  C_1 
REMARK    2  A    between atoms: C_8  and  C_2 
REMARK    3  A    between atoms: N_17  and  N_20 
REMARK    4  A    between atoms: C_19  and  C_22 
ROOT
ATOM      1  C   UNL d   1       0.356  -2.731  -0.048  0.00  0.00     0.056 A 
ATOM      2  N   UNL d   1       1.121  -3.192   0.999  0.00  0.00    -0.334 N 
ATOM      3  HN  UNL d   1       1.405  -2.627   1.799  1.00  0.00     0.168 HD
ATOM      4  C   UNL d   1       1.436  -4.459   0.832  0.00  0.00     0.163 A 
ATOM      5  C   UNL d   1       0.049  -3.676  -1.004  0.00  0.00     0.083 A 
ATOM      6  S   UNL d   1       0.802  -5.165  -0.608  0.00  0.00    -0.062 SA
ATOM      7  N   UNL d   1       2.191  -5.198   1.685  0.00  0.00    -0.280 N 
ATOM      8  H   UNL d   1       2.323  -6.179   1.448  0.00  0.00     0.189 HD
ENDROOT
BRANCH   1   9
ATOM      9  C   UNL d   1      -0.013  -1.319  -0.068  0.00  0.00     0.052 A 
ATOM     10  C   UNL d   1       0.775  -0.208   0.379  0.00  0.00     0.081 A 
ATOM     11  N   UNL d   1       0.110   0.936   0.131  0.00  0.00    -0.259 N 
ATOM     12  O   UNL d   1      -1.105   0.586  -0.409  0.00  0.00    -0.241 OA
ATOM     13  HN  UNL d   1       0.443   1.883   0.310  1.00  0.00     0.195 HD
ATOM     14  C   UNL d   1      -1.179  -0.762  -0.539  0.00  0.00     0.087 A 
ATOM     15  C   UNL d   1      -2.428  -1.286  -1.121  0.00  0.00     0.080 C 
BRANCH  10  16
ATOM     16  C   UNL d   1       2.141  -0.162   0.927  0.00  0.00     0.015 A 
ATOM     17  C   UNL d   1       2.523   0.693   1.980  0.00  0.00     0.048 A 
ATOM     18  C   UNL d   1       3.852   0.727   2.430  0.00  0.00     0.048 A 
ATOM     19 CL   UNL d   1       1.415   1.727   2.822  0.00  0.00    -0.083 Cl
ATOM     20  C   UNL d   1       4.805  -0.108   1.856  0.00  0.00     0.035 A 
ATOM     21  C   UNL d   1       4.449  -0.968   0.825  0.00  0.00     0.025 A 
ATOM     22 CL   UNL d   1       6.428  -0.076   2.422  0.00  0.00    -0.084 Cl
ATOM     23  C   UNL d   1       3.134  -0.979   0.354  0.00  0.00     0.017 A 
ENDBRANCH  10  16
ENDBRANCH   1   9
BRANCH   7  24
ATOM     24  N   UNL d   1       2.368  -4.802   2.973  0.00  0.00    -0.309 N 
ATOM     25  C   UNL d   1       3.088  -5.566   3.730  0.00  0.00     0.120 C 
ATOM     26  HN  UNL d   1       1.951  -3.941   3.327  1.00  0.00     0.186 HD
BRANCH  25  27
ATOM     27  C   UNL d   1       3.248  -5.246   5.166  0.00  0.00     0.002 A 
ATOM     28  C   UNL d   1       4.040  -6.021   6.016  0.00  0.00     0.045 A 
ATOM     29 CL   UNL d   1       4.946  -7.387   5.469  0.00  0.00    -0.083 Cl
ATOM     30  C   UNL d   1       4.117  -5.702   7.379  0.00  0.00     0.024 A 
ATOM     31  C   UNL d   1       3.405  -4.612   7.889  0.00  0.00     0.002 A 
ATOM     32  C   UNL d   1       2.625  -3.833   7.043  0.00  0.00     0.001 A 
ATOM     33  C   UNL d   1       2.546  -4.144   5.686  0.00  0.00     0.014 A 
ENDBRANCH  25  27
ENDBRANCH   7  24
TORSDOF 4
