REMARK  9 active torsions:
REMARK  status: ('A' for Active; 'I' for Inactive)
REMARK    1  A    between atoms: C_4  and  S_1 
REMARK    2  A    between atoms: C_15  and  S_1 
REMARK    3  A    between atoms: S_2  and  C_5 
REMARK    4  A    between atoms: C_16  and  S_2 
REMARK    5  A    between atoms: C_3  and  N_6 
REMARK    6  A    between atoms: C_17  and  C_4 
REMARK    7  A    between atoms: C_5  and  C_18 
REMARK    8  A    between atoms: N_6  and  C_17 
REMARK    9  A    between atoms: C_18  and  N_6 
ROOT
ATOM      1  N   UNL d   1       0.365  -0.831  -3.913  0.00  0.00    -0.216 N 
ENDROOT
BRANCH   1   2
ATOM      2  C   UNL d   1      -0.397  -1.974  -3.759  0.00  0.00     0.679 A 
ATOM      3  N   UNL d   1      -0.874  -2.276  -2.540  0.00  0.00    -0.202 N 
ATOM      4  C   UNL d   1      -1.645  -3.373  -2.413  0.00  0.00     0.107 A 
ATOM      5  HN  UNL d   1      -0.658  -1.690  -1.733  1.00  0.00     0.183 HD
ATOM      6  C   UNL d   1      -1.983  -4.185  -3.462  0.00  0.00     0.035 A 
ATOM      7  C   UNL d   1      -1.454  -3.813  -4.667  0.00  0.00     0.107 A 
ATOM      8  N   UNL d   1      -0.657  -2.740  -4.827  0.00  0.00    -0.202 N 
ATOM      9  HN  UNL d   1      -0.260  -2.515  -5.740  1.00  0.00     0.183 HD
ENDBRANCH   1   2
BRANCH   1  10
ATOM     10  C   UNL d   1       0.811  -0.121  -2.703  0.00  0.00     0.156 C 
BRANCH  10  11
ATOM     11  C   UNL d   1       1.742  -0.955  -1.824  0.00  0.00     0.166 C 
BRANCH  11  12
ATOM     12  S   UNL d   1       2.239  -0.006  -0.404  0.00  0.00     0.177 S 
ATOM     13  O   UNL d   1       1.054   0.463   0.286  0.00  0.00    -0.223 OA
ATOM     14  O   UNL d   1       3.264   0.933  -0.826  0.00  0.00    -0.223 OA
BRANCH  12  15
ATOM     15  C   UNL d   1       3.022  -1.201   0.661  0.00  0.00     0.059 A 
ATOM     16  C   UNL d   1       4.387  -1.466   0.518  0.00  0.00     0.023 A 
ATOM     17  C   UNL d   1       5.007  -2.365   1.389  0.00  0.00     0.002 A 
ATOM     18  C   UNL d   1       4.269  -2.984   2.400  0.00  0.00     0.000 A 
ATOM     19  C   UNL d   1       2.910  -2.705   2.548  0.00  0.00     0.002 A 
ATOM     20  C   UNL d   1       2.282  -1.809   1.681  0.00  0.00     0.023 A 
ENDBRANCH  12  15
ENDBRANCH  11  12
ENDBRANCH  10  11
ENDBRANCH   1  10
BRANCH   1  21
ATOM     21  C   UNL d   1       0.828  -0.387  -5.239  0.00  0.00     0.156 C 
BRANCH  21  22
ATOM     22  C   UNL d   1      -0.277  -0.329  -6.289  0.00  0.00     0.166 C 
BRANCH  22  23
ATOM     23  S   UNL d   1       0.288   0.420  -7.794  0.00  0.00     0.177 S 
ATOM     24  O   UNL d   1       0.440   1.846  -7.571  0.00  0.00    -0.223 OA
ATOM     25  O   UNL d   1       1.382  -0.368  -8.327  0.00  0.00    -0.223 OA
BRANCH  23  26
ATOM     26  C   UNL d   1      -1.113   0.186  -8.873  0.00  0.00     0.059 A 
ATOM     27  C   UNL d   1      -2.095   1.177  -8.955  0.00  0.00     0.023 A 
ATOM     28  C   UNL d   1      -3.213   0.967  -9.763  0.00  0.00     0.002 A 
ATOM     29  C   UNL d   1      -3.342  -0.219 -10.488  0.00  0.00     0.000 A 
ATOM     30  C   UNL d   1      -2.347  -1.196 -10.419  0.00  0.00     0.002 A 
ATOM     31  C   UNL d   1      -1.224  -0.995  -9.614  0.00  0.00     0.023 A 
ENDBRANCH  23  26
ENDBRANCH  22  23
ENDBRANCH  21  22
ENDBRANCH   1  21
TORSDOF 9
