REMARK  2 active torsions:
REMARK  status: ('A' for Active; 'I' for Inactive)
REMARK    1  A    between atoms: C_5  and  S_8 
REMARK    2  A    between atoms: S_8  and  C_12 
ROOT
ATOM      1  N   UNL d   1       4.707  -0.516  -2.869  0.00  0.00    -0.197 NA
ATOM      2  C   UNL d   1       4.348   0.462  -2.352  0.00  0.00     0.069 C 
ATOM      3  C   UNL d   1       3.907   1.700  -1.697  0.00  0.00     0.203 C 
ENDROOT
BRANCH   3   4
ATOM      4  S   UNL d   1       4.313   1.756   0.085  0.00  0.00    -0.114 SA
BRANCH   4   5
ATOM      5  C   UNL d   1       6.104   1.833   0.003  0.00  0.00     0.023 A 
ATOM      6  C   UNL d   1       6.831   3.034  -0.069  0.00  0.00     0.052 A 
ATOM      7  C   UNL d   1       8.230   3.020  -0.060  0.00  0.00     0.049 A 
ATOM      8 CL   UNL d   1       6.055   4.578  -0.167  0.00  0.00    -0.083 Cl
ATOM      9  C   UNL d   1       8.909   1.807   0.019  0.00  0.00     0.035 A 
ATOM     10  C   UNL d   1       8.206   0.609   0.086  0.00  0.00     0.025 A 
ATOM     11 CL   UNL d   1      10.629   1.790   0.043  0.00  0.00    -0.084 Cl
ATOM     12  C   UNL d   1       6.808   0.622   0.083  0.00  0.00     0.022 A 
ENDBRANCH   4   5
ENDBRANCH   3   4
TORSDOF 2
