REMARK  6 active torsions:
REMARK  status: ('A' for Active; 'I' for Inactive)
REMARK    1  A    between atoms: O_7  and  S_1 
REMARK    2  A    between atoms: C_10  and  S_1 
REMARK    3  A    between atoms: C_2  and  O_7 
REMARK    4  A    between atoms: C_9  and  C_3 
REMARK    5  A    between atoms: C_11  and  C_13 
REMARK    6  A    between atoms: C_12  and  C_14 
ROOT
ATOM      1  S   UNL d   1       0.955   0.128  -0.094  0.00  0.00     0.304 S 
ATOM      2  O   UNL d   1       0.310   1.350  -0.536  0.00  0.00    -0.193 OA
ATOM      3  O   UNL d   1       2.399   0.075   0.055  0.00  0.00    -0.193 OA
ENDROOT
BRANCH   1   4
ATOM      4  O   UNL d   1       0.482  -1.098  -1.082  0.00  0.00    -0.209 OA
BRANCH   4   5
ATOM      5  C   UNL d   1       0.830  -1.073  -2.381  0.00  0.00     0.179 A 
ATOM      6  C   UNL d   1       1.579  -0.184  -3.127  0.00  0.00     0.094 A 
ATOM      7  C   UNL d   1       1.592  -0.687  -4.454  0.00  0.00     0.136 A 
ATOM      8  N   UNL d   1       0.894  -1.835  -4.526  0.00  0.00    -0.293 N 
ATOM      9  N   UNL d   1       0.440  -2.039  -3.272  0.00  0.00    -0.274 N 
ATOM     10  HN  UNL d   1       0.743  -2.421  -5.346  1.00  0.00     0.187 HD
ATOM     11  C   UNL d   1      -0.380  -3.200  -3.018  0.00  0.00     0.180 C 
BRANCH   7  12
ATOM     12  C   UNL d   1       2.268  -0.057  -5.642  0.00  0.00     0.434 C 
ATOM     13  F   UNL d   1       2.903   1.101  -5.307  0.00  0.00    -0.165 F 
ATOM     14  F   UNL d   1       3.213  -0.864  -6.193  0.00  0.00    -0.165 F 
ATOM     15  F   UNL d   1       1.390   0.263  -6.631  0.00  0.00    -0.165 F 
ENDBRANCH   7  12
ENDBRANCH   4   5
ENDBRANCH   1   4
BRANCH   1  16
ATOM     16  C   UNL d   1       0.275  -0.240   1.522  0.00  0.00     0.088 A 
ATOM     17  C   UNL d   1       1.041  -0.968   2.443  0.00  0.00     0.042 A 
ATOM     18  C   UNL d   1       0.635  -1.053   3.787  0.00  0.00     0.050 A 
ATOM     19  C   UNL d   1      -0.544  -0.396   4.185  0.00  0.00     0.032 A 
ATOM     20  C   UNL d   1      -1.306   0.356   3.272  0.00  0.00     0.050 A 
ATOM     21  C   UNL d   1      -0.892   0.415   1.930  0.00  0.00     0.042 A 
BRANCH  18  22
ATOM     22  C   UNL d   1       1.476  -1.778   4.817  0.00  0.00     0.417 C 
ATOM     23  F   UNL d   1       2.624  -2.301   4.309  0.00  0.00    -0.166 F 
ATOM     24  F   UNL d   1       1.853  -0.963   5.839  0.00  0.00    -0.166 F 
ATOM     25  F   UNL d   1       0.810  -2.817   5.389  0.00  0.00    -0.166 F 
ENDBRANCH  18  22
BRANCH  20  26
ATOM     26  C   UNL d   1      -2.503   1.149   3.753  0.00  0.00     0.417 C 
ATOM     27  F   UNL d   1      -3.088   1.890   2.773  0.00  0.00    -0.166 F 
ATOM     28  F   UNL d   1      -3.482   0.356   4.263  0.00  0.00    -0.166 F 
ATOM     29  F   UNL d   1      -2.173   2.026   4.740  0.00  0.00    -0.166 F 
ENDBRANCH  20  26
ENDBRANCH   1  16
TORSDOF 6
