REMARK  4 active torsions:
REMARK  status: ('A' for Active; 'I' for Inactive)
REMARK    1  A    between atoms: C_2  and  C_1 
REMARK    2  A    between atoms: C_10  and  C_4 
REMARK    3  A    between atoms: C_5  and  C_8 
REMARK    4  A    between atoms: O_18  and  C_10 
ROOT
ATOM      1  C   UNL d   1      -0.533   2.500  -0.079  0.00  0.00     0.020 A 
ATOM      2  C   UNL d   1      -1.315   3.032   0.970  0.00  0.00     0.032 A 
ATOM      3  C   UNL d   1      -1.735   4.376   0.977  0.00  0.00     0.048 A 
ATOM      4  C   UNL d   1      -0.192   3.359  -1.141  0.00  0.00     0.047 A 
ATOM      5  C   UNL d   1      -1.378   5.201  -0.095  0.00  0.00     0.018 A 
ATOM      6  C   UNL d   1      -0.616   4.694  -1.147  0.00  0.00     0.026 A 
ATOM      7 CL   UNL d   1       0.797   2.877  -2.478  0.00  0.00    -0.083 Cl
ENDROOT
BRANCH   1   8
ATOM      8  C   UNL d   1      -0.110   1.097  -0.006  0.00  0.00     0.088 A 
ATOM      9  O   UNL d   1       0.125   0.606   1.255  0.00  0.00    -0.303 OA
ATOM     10  C   UNL d   1       0.539  -0.698   1.121  0.00  0.00     0.149 A 
ATOM     11  C   UNL d   1       0.560  -1.040  -0.212  0.00  0.00     0.047 A 
ATOM     12  C   UNL d   1       0.129   0.099  -0.931  0.00  0.00     0.041 A 
BRANCH  10  13
ATOM     13  C   UNL d   1       0.867  -1.459   2.303  0.00  0.00     0.201 C 
ATOM     14  O   UNL d   1       1.234  -2.625   2.325  0.00  0.00    -0.645 OA
BRANCH  13  15
ATOM     15  O   UNL d   1       0.717  -0.717   3.429  0.00  0.00    -0.771 OA
ATOM     16  H   UNL d   1       0.427   0.190   3.195  0.00  0.00     0.167 HD
ENDBRANCH  13  15
ENDBRANCH  10  13
ENDBRANCH   1   8
BRANCH   3  17
ATOM     17  C   UNL d   1      -2.545   4.945   2.119  0.00  0.00     0.417 C 
ATOM     18  F   UNL d   1      -2.841   4.031   3.083  0.00  0.00    -0.166 F 
ATOM     19  F   UNL d   1      -1.897   5.961   2.752  0.00  0.00    -0.166 F 
ATOM     20  F   UNL d   1      -3.736   5.457   1.707  0.00  0.00    -0.166 F 
ENDBRANCH   3  17
TORSDOF 4
