REMARK  2 active torsions:
REMARK  status: ('A' for Active; 'I' for Inactive)
REMARK    1  A    between atoms: O_12  and  C_1 
REMARK    2  A    between atoms: C_5  and  C_2 
ROOT
ATOM      1  C   UNL d   1      -0.004   0.192   0.032  0.00  0.00     0.100 A 
ATOM      2  C   UNL d   1       0.005  -2.633   0.061  0.00  0.00    -0.032 A 
ATOM      3  C   UNL d   1      -1.206  -0.520   0.041  0.00  0.00     0.046 A 
ATOM      4  C   UNL d   1       1.204  -0.505   0.030  0.00  0.00     0.046 A 
ATOM      5  C   UNL d   1       1.210  -1.903   0.042  0.00  0.00     0.031 A 
ATOM      6  C   UNL d   1      -1.205  -1.918   0.055  0.00  0.00     0.031 A 
ATOM      7 BR   UNL d   1      -2.870   0.391   0.036  0.00  0.00    -0.048 Br
ATOM      8 BR   UNL d   1       2.873   0.398   0.016  0.00  0.00    -0.048 Br
ENDROOT
BRANCH   2   9
ATOM      9  C   UNL d   1      -0.013  -4.149   0.088  0.00  0.00     0.141 C 
ATOM     10  S   UNL d   1       0.842  -4.821   1.551  0.00  0.00    -0.148 SA
ATOM     11  C   UNL d   1       1.634  -6.211   0.708  0.00  0.00     0.085 C 
ATOM     12  C   UNL d   1       2.071  -5.734  -0.661  0.00  0.00     0.085 C 
ATOM     13  S   UNL d   1       0.677  -4.875  -1.435  0.00  0.00    -0.148 SA
ENDBRANCH   2   9
BRANCH   1  14
ATOM     14  O   UNL d   1       0.005   1.562   0.027  0.00  0.00    -0.358 OA
ATOM     15  H   UNL d   1      -0.919   1.868   0.045  0.00  0.00     0.217 HD
ENDBRANCH   1  14
TORSDOF 2
