REMARK  4 active torsions:
REMARK  status: ('A' for Active; 'I' for Inactive)
REMARK    1  A    between atoms: C_7  and  C_1 
REMARK    2  A    between atoms: O_10  and  C_6 
REMARK    3  A    between atoms: C_8  and  C_9 
REMARK       I    between atoms: N_11  and  C_8 
REMARK    4  A    between atoms: C_9  and  O_10 
ROOT
ATOM      1  C   UNL d   1      -0.577  -0.139  -1.294  0.00  0.00     0.138 A 
ATOM      2  N   UNL d   1       0.323  -1.105  -0.922  0.00  0.00    -0.290 N 
ATOM      3  C   UNL d   1       0.052   1.068  -1.036  0.00  0.00     0.093 A 
ATOM      4  N   UNL d   1       1.457  -0.589  -0.395  0.00  0.00    -0.278 N 
ATOM      5  HN  UNL d   1       2.242  -1.091   0.020  1.00  0.00     0.189 HD
ATOM      6  C   UNL d   1       1.311   0.721  -0.543  0.00  0.00     0.160 A 
ATOM      7  C   UNL d   1       0.272  -2.544  -1.042  0.00  0.00     0.178 C 
ENDROOT
BRANCH   6   8
ATOM      8  O   UNL d   1       2.289   1.585  -0.213  0.00  0.00    -0.314 OA
BRANCH   8   9
ATOM      9  C   UNL d   1       3.627   1.080  -0.199  0.00  0.00     0.142 C 
ATOM     10  C   UNL d   1       4.020   0.560  -1.607  0.00  0.00     0.057 C 
ATOM     11  C   UNL d   1       4.517   2.323   0.036  0.00  0.00     0.057 C 
BRANCH   9  12
ATOM     12  C   UNL d   1       4.037   0.030   0.900  0.00  0.00     0.253 C 
ATOM     13  N   UNL d   1       3.748   0.279   2.245  0.00  0.00    -0.358 N 
ATOM     14  C   UNL d   1       4.261  -0.647   3.245  0.00  0.00     0.152 C 
ATOM     15  C   UNL d   1       2.806   1.263   2.753  0.00  0.00     0.152 C 
ATOM     16  O   UNL d   1       4.724  -0.949   0.579  0.00  0.00    -0.270 OA
ENDBRANCH   9  12
ENDBRANCH   8   9
ENDBRANCH   6   8
BRANCH   1  17
ATOM     17  C   UNL d   1      -1.915  -0.367  -1.874  0.00  0.00     0.434 C 
ATOM     18  F   UNL d   1      -2.239  -1.668  -2.053  0.00  0.00    -0.165 F 
ATOM     19  F   UNL d   1      -2.885   0.166  -1.088  0.00  0.00    -0.165 F 
ATOM     20  F   UNL d   1      -2.028   0.230  -3.088  0.00  0.00    -0.165 F 
ENDBRANCH   1  17
TORSDOF 4
