REMARK  5 active torsions:
REMARK  status: ('A' for Active; 'I' for Inactive)
REMARK    1  A    between atoms: C_3  and  C_1 
REMARK    2  A    between atoms: S_14  and  C_6 
REMARK    3  A    between atoms: C_24  and  S_14 
REMARK    4  A    between atoms: C_15  and  N_17 
REMARK    5  A    between atoms: C_16  and  C_24 
REMARK       I    between atoms: N_17  and  C_16 
ROOT
ATOM      1  C   UNL d   1      -1.354   0.415   0.159  0.00  0.00     0.151 A 
ATOM      2  N   UNL d   1      -0.851  -0.428   1.122  0.00  0.00    -0.314 N 
ATOM      3  N   UNL d   1      -0.558   0.377  -0.895  0.00  0.00    -0.281 N 
ATOM      4  HN  UNL d   1      -0.665   0.932  -1.744  1.00  0.00     0.188 HD
ATOM      5  C   UNL d   1       0.216  -1.050   0.530  0.00  0.00     0.163 A 
ATOM      6  N   UNL d   1       0.434  -0.535  -0.653  0.00  0.00    -0.278 N 
ATOM      7  HN  UNL d   1       1.203  -0.770  -1.281  1.00  0.00     0.189 HD
ATOM      8  C   UNL d   1      -1.332  -0.667   2.457  0.00  0.00     0.160 C 
ENDROOT
BRANCH   5   9
ATOM      9  S   UNL d   1       0.956  -2.500   1.116  0.00  0.00    -0.083 SA
BRANCH   9  10
ATOM     10  C   UNL d   1       2.277  -2.782  -0.103  0.00  0.00     0.185 C 
BRANCH  10  11
ATOM     11  C   UNL d   1       1.862  -3.377  -1.451  0.00  0.00     0.231 C 
ATOM     12  N   UNL d   1       0.615  -3.020  -1.917  0.00  0.00    -0.326 N 
ATOM     13  H   UNL d   1       0.098  -2.382  -1.327  0.00  0.00     0.169 HD
ATOM     14  O   UNL d   1       2.673  -4.059  -2.080  0.00  0.00    -0.272 OA
BRANCH  12  15
ATOM     15  C   UNL d   1       0.048  -3.224  -3.191  0.00  0.00     0.037 A 
ATOM     16  C   UNL d   1       0.655  -3.948  -4.215  0.00  0.00     0.053 A 
ATOM     17  C   UNL d   1       0.040  -4.026  -5.468  0.00  0.00     0.037 A 
ATOM     18 CL   UNL d   1       0.808  -4.894  -6.741  0.00  0.00    -0.084 Cl
ATOM     19  C   UNL d   1      -1.181  -3.401  -5.708  0.00  0.00     0.048 A 
ATOM     20  C   UNL d   1      -1.794  -2.697  -4.677  0.00  0.00     0.037 A 
ATOM     21  C   UNL d   1      -1.188  -2.608  -3.425  0.00  0.00     0.053 A 
ATOM     22 CL   UNL d   1      -3.303  -1.916  -4.952  0.00  0.00    -0.084 Cl
ENDBRANCH  12  15
ENDBRANCH  10  11
ENDBRANCH   9  10
ENDBRANCH   5   9
BRANCH   1  23
ATOM     23  C   UNL d   1      -2.608   1.222   0.190  0.00  0.00     0.085 A 
ATOM     24  N   UNL d   1      -3.449   1.261   1.285  0.00  0.00    -0.351 N 
ATOM     25  C   UNL d   1      -4.491   2.022   1.026  0.00  0.00     0.047 A 
ATOM     26  HN  UNL d   1      -3.286   0.772   2.165  1.00  0.00     0.166 HD
ATOM     27  C   UNL d   1      -5.596   2.284   1.985  0.00  0.00     0.076 C 
ATOM     28  S   UNL d   1      -4.530   2.712  -0.548  0.00  0.00    -0.087 SA
ATOM     29  C   UNL d   1      -3.034   1.955  -0.900  0.00  0.00     0.084 A 
ENDBRANCH   1  23
TORSDOF 5
