REMARK  3 active torsions:
REMARK  status: ('A' for Active; 'I' for Inactive)
REMARK    1  A    between atoms: N_2  and  C_1 
REMARK    2  A    between atoms: O_14  and  C_1 
REMARK       I    between atoms: C_3  and  N_2 
REMARK    3  A    between atoms: C_6  and  C_3 
ROOT
ATOM      1  C   UNL d   1      -1.768   0.116  -0.131  0.00  0.00     0.269 C 
ATOM      2  C   UNL d   1      -0.856  -1.135  -0.208  0.00  0.00     0.224 C 
ATOM      3  C   UNL d   1      -0.768   1.244  -0.442  0.00  0.00     0.224 C 
ATOM      4  C   UNL d   1       0.579   0.716  -0.251  0.00  0.00     0.029 A 
ATOM      5  C   UNL d   1       0.536  -0.668  -0.140  0.00  0.00     0.029 A 
ATOM      6  O   UNL d   1      -0.993   2.386  -0.812  0.00  0.00    -0.286 OA
ATOM      7  O   UNL d   1      -1.174  -2.305  -0.314  0.00  0.00    -0.286 OA
ATOM      8  C   UNL d   1       1.765   1.425  -0.178  0.00  0.00     0.016 A 
ATOM      9  C   UNL d   1       1.695  -1.407   0.028  0.00  0.00     0.016 A 
ATOM     10  C   UNL d   1       2.939   0.695   0.022  0.00  0.00     0.001 A 
ATOM     11  C   UNL d   1       2.906  -0.710   0.117  0.00  0.00     0.001 A 
ENDROOT
BRANCH   1  12
ATOM     12  N   UNL d   1      -2.890   0.155  -1.052  0.00  0.00    -0.312 N 
ATOM     13  C   UNL d   1      -4.158  -0.261  -0.719  0.00  0.00     0.258 C 
ATOM     14  O   UNL d   1      -4.452  -0.618   0.417  0.00  0.00    -0.267 OA
ATOM     15  H   UNL d   1      -2.671   0.304  -2.028  0.00  0.00     0.166 HD
BRANCH  13  16
ATOM     16  C   UNL d   1      -5.197  -0.248  -1.776  0.00  0.00     0.075 A 
ATOM     17  C   UNL d   1      -5.021  -0.946  -2.980  0.00  0.00     0.051 A 
ATOM     18 CL   UNL d   1      -3.542  -1.736  -3.403  0.00  0.00    -0.083 Cl
ATOM     19  C   UNL d   1      -6.073  -1.046  -3.901  0.00  0.00     0.025 A 
ATOM     20  C   UNL d   1      -7.307  -0.457  -3.634  0.00  0.00     0.003 A 
ATOM     21  C   UNL d   1      -7.481   0.264  -2.457  0.00  0.00     0.025 A 
ATOM     22  C   UNL d   1      -6.435   0.375  -1.532  0.00  0.00     0.051 A 
ATOM     23 CL   UNL d   1      -6.738   1.356  -0.139  0.00  0.00    -0.083 Cl
ENDBRANCH  13  16
ENDBRANCH   1  12
BRANCH   1  24
ATOM     24  O   UNL d   1      -2.200   0.350   1.197  0.00  0.00    -0.358 OA
ATOM     25  H   UNL d   1      -3.064  -0.106   1.274  0.00  0.00     0.213 HD
ENDBRANCH   1  24
TORSDOF 3
