REMARK  2 active torsions:
REMARK  status: ('A' for Active; 'I' for Inactive)
REMARK    1  A    between atoms: C_4  and  C_1 
REMARK       I    between atoms: N_7  and  C_4 
REMARK    2  A    between atoms: C_11  and  N_7 
ROOT
ATOM      1  C   UNL d   1      -3.569  -2.791  -1.897  0.00  0.00    -0.078 C 
ATOM      2  C   UNL d   1      -4.204  -2.057  -2.605  0.00  0.00     0.018 C 
ATOM      3  C   UNL d   1      -0.605  -4.175  -0.113  0.00  0.00     0.036 A 
ATOM      4  C   UNL d   1      -2.779  -3.614  -1.034  0.00  0.00     0.019 A 
ATOM      5  C   UNL d   1      -1.393  -3.438  -1.000  0.00  0.00     0.050 A 
ATOM      6  C   UNL d   1      -2.604  -5.325   0.656  0.00  0.00     0.004 A 
ATOM      7  C   UNL d   1      -1.219  -5.141   0.695  0.00  0.00     0.029 A 
ATOM      8  C   UNL d   1      -3.386  -4.553  -0.203  0.00  0.00     0.021 A 
ENDROOT
BRANCH   3   9
ATOM      9  N   UNL d   1       0.787  -3.990   0.034  0.00  0.00    -0.323 N 
ATOM     10  C   UNL d   1       1.531  -2.927  -0.442  0.00  0.00     0.258 C 
ATOM     11  O   UNL d   1       1.072  -1.967  -1.049  0.00  0.00    -0.267 OA
ATOM     12  H   UNL d   1       1.258  -4.654   0.633  0.00  0.00     0.169 HD
BRANCH  10  13
ATOM     13  C   UNL d   1       2.974  -2.958  -0.155  0.00  0.00     0.063 A 
ATOM     14  C   UNL d   1       3.729  -3.954   0.434  0.00  0.00     0.091 A 
ATOM     15  S   UNL d   1       5.391  -3.597   0.535  0.00  0.00    -0.065 SA
ATOM     16 CL   UNL d   1       3.228  -5.482   1.058  0.00  0.00    -0.075 Cl
ATOM     17  C   UNL d   1       5.151  -2.093  -0.190  0.00  0.00     0.077 A 
ATOM     18  C   UNL d   1       3.841  -1.848  -0.500  0.00  0.00     0.050 A 
ATOM     19 CL   UNL d   1       6.484  -1.051  -0.471  0.00  0.00    -0.076 Cl
ENDBRANCH  10  13
ENDBRANCH   3   9
TORSDOF 2
