REMARK  5 active torsions:
REMARK  status: ('A' for Active; 'I' for Inactive)
REMARK    1  A    between atoms: N_7  and  S_1 
REMARK    2  A    between atoms: C_14  and  S_1 
REMARK    3  A    between atoms: N_2  and  C_15 
REMARK    4  A    between atoms: C_11  and  C_6 
REMARK       I    between atoms: N_12  and  C_10 
REMARK       I    between atoms: N_19  and  C_10 
REMARK    5  A    between atoms: N_32  and  N_19 
ROOT
ATOM      1  C   UNL d   1      -0.658   1.978   1.250  0.00  0.00     0.080 A 
ATOM      2  C   UNL d   1      -0.974   4.001  -0.664  0.00  0.00     0.057 A 
ATOM      3  C   UNL d   1      -1.780   1.989   0.419  0.00  0.00     0.027 A 
ATOM      4  C   UNL d   1       0.282   3.012   1.169  0.00  0.00     0.027 A 
ATOM      5  C   UNL d   1       0.119   4.021   0.218  0.00  0.00     0.033 A 
ATOM      6  C   UNL d   1      -1.953   3.002  -0.529  0.00  0.00     0.033 A 
ENDROOT
BRANCH   1   7
ATOM      7  S   UNL d   1      -0.460   0.695   2.487  0.00  0.00     0.276 S 
ATOM      8  O   UNL d   1       0.281   1.279   3.589  0.00  0.00    -0.200 OA
ATOM      9  O   UNL d   1      -1.789   0.151   2.729  0.00  0.00    -0.200 OA
BRANCH   7  10
ATOM     10  N   UNL d   1       0.450  -0.425   1.760  0.00  0.00    -0.112 N 
ATOM     11  C   UNL d   1       0.867  -1.461   2.425  0.00  0.00     0.700 C 
ATOM     12  N   UNL d   1       1.561  -2.477   1.762  0.00  0.00    -0.216 N 
ATOM     13  N   UNL d   1       0.712  -1.706   3.787  0.00  0.00    -0.156 N 
ATOM     14  C   UNL d   1       2.633  -3.254   2.408  0.00  0.00     0.141 C 
ATOM     15  C   UNL d   1       1.639  -2.527   0.298  0.00  0.00     0.141 C 
ATOM     16  C   UNL d   1       2.447  -4.728   2.050  0.00  0.00     0.024 C 
ATOM     17  C   UNL d   1       2.465  -4.922   0.528  0.00  0.00    -0.015 C 
ATOM     18  C   UNL d   1       1.457  -3.978  -0.153  0.00  0.00     0.024 C 
ATOM     19  C   UNL d   1       2.173  -6.376   0.169  0.00  0.00     0.010 C 
ATOM     20  H   UNL d   1       0.451  -0.920   4.385  0.00  0.00     0.199 HD
ATOM     21  HN  UNL d   1       0.698  -0.318   0.777  1.00  0.00     0.197 HD
BRANCH  13  22
ATOM     22  N   UNL d   1       0.208  -2.992   4.174  0.00  0.00    -0.235 NA
ATOM     23  H   UNL d   1       0.143  -3.580   3.335  0.00  0.00     0.143 HD
ATOM     24  H   UNL d   1      -0.752  -2.923   4.518  0.00  0.00     0.143 HD
ENDBRANCH  13  22
ENDBRANCH   7  10
ENDBRANCH   1   7
BRANCH   2  25
ATOM     25  N   UNL d   1      -1.108   4.981  -1.693  0.00  0.00    -0.255 N 
ATOM     26  C   UNL d   1      -0.116   5.669  -2.391  0.00  0.00     0.076 C 
ATOM     27  C   UNL d   1      -0.773   6.673  -3.075  0.00  0.00     0.069 C 
ATOM     28  C   UNL d   1       1.287   5.335  -2.437  0.00  0.00     0.033 A 
ATOM     29  C   UNL d   1      -2.155   6.461  -2.857  0.00  0.00     0.135 C 
ATOM     30  N   UNL d   1      -2.352   5.364  -2.099  0.00  0.00    -0.289 N 
ATOM     31  HN  UNL d   1      -3.241   4.916  -1.877  1.00  0.00     0.187 HD
ATOM     32  S   UNL d   1       2.494   6.547  -2.587  0.00  0.00    -0.100 SA
ATOM     33  C   UNL d   1       1.859   4.075  -2.404  0.00  0.00     0.021 A 
ATOM     34  C   UNL d   1       3.758   5.399  -2.518  0.00  0.00     0.050 A 
ATOM     35  C   UNL d   1       3.283   4.114  -2.407  0.00  0.00     0.008 A 
BRANCH  29  36
ATOM     36  C   UNL d   1      -3.272   7.303  -3.416  0.00  0.00     0.434 C 
ATOM     37  F   UNL d   1      -4.513   6.888  -3.050  0.00  0.00    -0.165 F 
ATOM     38  F   UNL d   1      -3.162   8.600  -3.014  0.00  0.00    -0.165 F 
ATOM     39  F   UNL d   1      -3.251   7.325  -4.777  0.00  0.00    -0.165 F 
ENDBRANCH  29  36
ENDBRANCH   2  25
TORSDOF 5
