REMARK  3 active torsions:
REMARK  status: ('A' for Active; 'I' for Inactive)
REMARK    1  A    between atoms: C_2  and  C_1 
REMARK    2  A    between atoms: O_7  and  C_2 
REMARK    3  A    between atoms: C_10  and  O_7 
ROOT
ATOM      1  C   UNL d   1      -1.634   3.137  -1.035  0.00  0.00     0.324 C 
ATOM      2  O   UNL d   1      -1.287   3.071  -2.209  0.00  0.00    -0.257 OA
ENDROOT
BRANCH   1   3
ATOM      3  C   UNL d   1      -2.987   2.963  -0.581  0.00  0.00     0.175 A 
ATOM      4  O   UNL d   1      -3.284   3.064   0.749  0.00  0.00    -0.232 OA
ATOM      5  N   UNL d   1      -4.642   2.856   0.940  0.00  0.00    -0.272 N 
ATOM      6  C   UNL d   1      -5.140   2.631  -0.278  0.00  0.00     0.117 A 
ATOM      7  HN  UNL d   1      -5.151   2.871   1.823  1.00  0.00     0.194 HD
ATOM      8  C   UNL d   1      -4.148   2.685  -1.269  0.00  0.00     0.065 A 
ENDBRANCH   1   3
BRANCH   1   9
ATOM      9  O   UNL d   1      -0.790   3.392   0.047  0.00  0.00    -0.273 OA
BRANCH   9  10
ATOM     10  C   UNL d   1       0.614   3.482  -0.079  0.00  0.00     0.079 A 
ATOM     11  C   UNL d   1       1.258   4.288   0.859  0.00  0.00     0.038 A 
ATOM     12  C   UNL d   1       2.653   4.349   0.882  0.00  0.00     0.009 A 
ATOM     13  C   UNL d   1       3.411   3.595  -0.024  0.00  0.00    -0.062 A 
ATOM     14  C   UNL d   1       2.750   2.809  -0.976  0.00  0.00     0.009 A 
ATOM     15  C   UNL d   1       4.910   3.623   0.047  0.00  0.00     0.048 C 
ATOM     16  C   UNL d   1       1.353   2.742  -1.000  0.00  0.00     0.038 A 
ENDBRANCH   9  10
ENDBRANCH   1   9
TORSDOF 3
