REMARK  1 active torsions:
REMARK  status: ('A' for Active; 'I' for Inactive)
REMARK    1  A    between atoms: C_3  and  C_1 
ROOT
ATOM      1  C   UNL d   1      -2.337  -0.129  -0.091  0.00  0.00     0.105 A 
ATOM      2  O   UNL d   1      -1.544   0.979  -0.215  0.00  0.00    -0.308 OA
ATOM      3  C   UNL d   1      -1.546  -1.249   0.091  0.00  0.00     0.054 A 
ATOM      4  C   UNL d   1      -0.252   0.565  -0.113  0.00  0.00     0.086 A 
ATOM      5  C   UNL d   1      -0.197  -0.812   0.061  0.00  0.00     0.001 A 
ATOM      6  C   UNL d   1       0.869   1.389  -0.177  0.00  0.00     0.038 A 
ATOM      7  C   UNL d   1       1.064  -1.427   0.161  0.00  0.00     0.014 A 
ATOM      8  C   UNL d   1       2.212  -0.625   0.091  0.00  0.00     0.001 A 
ATOM      9  C   UNL d   1       2.114   0.760  -0.071  0.00  0.00     0.003 A 
ENDROOT
BRANCH   1  10
ATOM     10  C   UNL d   1      -3.826  -0.113  -0.155  0.00  0.00     0.083 A 
ATOM     11  N   UNL d   1      -4.580  -1.203   0.041  0.00  0.00    -0.298 N 
ATOM     12  N   UNL d   1      -5.839  -0.753  -0.097  0.00  0.00    -0.311 N 
ATOM     13  HN  UNL d   1      -4.271  -2.153   0.246  1.00  0.00     0.187 HD
ATOM     14  C   UNL d   1      -5.913   0.576  -0.396  0.00  0.00     0.109 A 
ATOM     15  H   UNL d   1      -6.600  -1.412   0.024  0.00  0.00     0.186 HD
ATOM     16  C   UNL d   1      -4.615   1.026  -0.432  0.00  0.00     0.052 A 
ENDBRANCH   1  10
TORSDOF 1
