REMARK  4 active torsions:
REMARK  status: ('A' for Active; 'I' for Inactive)
REMARK    1  A    between atoms: N_9  and  C_1 
REMARK    2  A    between atoms: C_12  and  C_2 
REMARK       I    between atoms: C_7  and  N_9 
REMARK       I    between atoms: N_11  and  C_7 
REMARK    3  A    between atoms: C_8  and  C_13 
REMARK    4  A    between atoms: C_10  and  N_11 
ROOT
ATOM      1  C   UNL d   1      -0.284  -1.271  -0.559  0.00  0.00     0.097 A 
ATOM      2  C   UNL d   1      -1.638  -1.017  -0.460  0.00  0.00     0.137 A 
ATOM      3  O   UNL d   1      -1.907   0.209  -0.979  0.00  0.00    -0.235 OA
ATOM      4  N   UNL d   1      -0.742   0.763  -1.475  0.00  0.00    -0.263 N 
ATOM      5  HN  UNL d   1      -0.641   1.670  -1.932  1.00  0.00     0.194 HD
ATOM      6  C   UNL d   1       0.230  -0.131  -1.236  0.00  0.00     0.058 A 
ATOM      7  C   UNL d   1       1.616   0.210  -1.638  0.00  0.00     0.072 C 
ENDROOT
BRANCH   1   8
ATOM      8  N   UNL d   1       0.284  -2.421  -0.044  0.00  0.00    -0.304 N 
ATOM      9  C   UNL d   1       1.350  -3.171  -0.434  0.00  0.00     0.325 C 
ATOM     10  N   UNL d   1       1.797  -2.990  -1.714  0.00  0.00    -0.309 N 
ATOM     11  O   UNL d   1       1.752  -4.025   0.355  0.00  0.00    -0.247 OA
ATOM     12  H   UNL d   1       1.302  -2.306  -2.265  0.00  0.00     0.170 HD
ATOM     13  H   UNL d   1      -0.194  -2.839   0.749  0.00  0.00     0.171 HD
BRANCH  10  14
ATOM     14  C   UNL d   1       2.812  -3.716  -2.372  0.00  0.00     0.039 A 
ATOM     15  C   UNL d   1       3.437  -4.846  -1.833  0.00  0.00     0.053 A 
ATOM     16  C   UNL d   1       4.457  -5.489  -2.537  0.00  0.00     0.037 A 
ATOM     17 CL   UNL d   1       5.211  -6.883  -1.861  0.00  0.00    -0.084 Cl
ATOM     18  C   UNL d   1       4.875  -5.016  -3.774  0.00  0.00     0.048 A 
ATOM     19  C   UNL d   1       4.242  -3.905  -4.320  0.00  0.00     0.037 A 
ATOM     20  C   UNL d   1       3.207  -3.263  -3.636  0.00  0.00     0.053 A 
ATOM     21 CL   UNL d   1       4.750  -3.301  -5.849  0.00  0.00    -0.084 Cl
ENDBRANCH  10  14
ENDBRANCH   1   8
BRANCH   2  22
ATOM     22  C   UNL d   1      -2.788  -1.840  -0.113  0.00  0.00     0.002 A 
ATOM     23  C   UNL d   1      -3.893  -1.334   0.579  0.00  0.00     0.015 A 
ATOM     24  C   UNL d   1      -5.000  -2.154   0.835  0.00  0.00     0.017 A 
ATOM     25  C   UNL d   1      -5.023  -3.489   0.402  0.00  0.00     0.048 A 
ATOM     26  C   UNL d   1      -3.908  -3.998  -0.274  0.00  0.00     0.017 A 
ATOM     27  C   UNL d   1      -2.808  -3.184  -0.528  0.00  0.00     0.015 A 
BRANCH  25  28
ATOM     28  C   UNL d   1      -6.220  -4.380   0.619  0.00  0.00     0.417 C 
ATOM     29  F   UNL d   1      -7.219  -3.791   1.329  0.00  0.00    -0.166 F 
ATOM     30  F   UNL d   1      -6.782  -4.783  -0.556  0.00  0.00    -0.166 F 
ATOM     31  F   UNL d   1      -5.905  -5.522   1.291  0.00  0.00    -0.166 F 
ENDBRANCH  25  28
ENDBRANCH   2  22
TORSDOF 4
