REMARK  7 active torsions:
REMARK  status: ('A' for Active; 'I' for Inactive)
REMARK    1  A    between atoms: C_2  and  C_1 
REMARK       I    between atoms: N_4  and  C_1 
REMARK    2  A    between atoms: C_3  and  C_2 
REMARK    3  A    between atoms: C_6  and  C_2 
REMARK    4  A    between atoms: C_10  and  N_4 
REMARK    5  A    between atoms: C_5  and  C_6 
REMARK    6  A    between atoms: O_11  and  C_5 
REMARK    7  A    between atoms: C_12  and  C_10 
ROOT
ATOM      1  C   UNL d   1       0.194  -0.480  -1.374  0.00  0.00     0.116 C 
ENDROOT
BRANCH   1   2
ATOM      2  C   UNL d   1       0.960  -0.143  -0.083  0.00  0.00     0.226 C 
ATOM      3  N   UNL d   1       0.265  -0.384   1.077  0.00  0.00    -0.356 N 
ATOM      4  H   UNL d   1      -0.673  -0.759   1.031  0.00  0.00     0.162 HD
ATOM      5  O   UNL d   1       2.114   0.278  -0.114  0.00  0.00    -0.273 OA
BRANCH   3   6
ATOM      6  C   UNL d   1       0.822  -0.142   2.391  0.00  0.00     0.161 C 
BRANCH   6   7
ATOM      7  C   UNL d   1      -0.051   0.800   3.181  0.00  0.00    -0.041 A 
ATOM      8  C   UNL d   1      -0.654   0.396   4.380  0.00  0.00     0.009 A 
ATOM      9  C   UNL d   1      -1.438   1.289   5.114  0.00  0.00     0.001 A 
ATOM     10  C   UNL d   1      -1.628   2.592   4.657  0.00  0.00     0.000 A 
ATOM     11  C   UNL d   1      -1.036   3.004   3.465  0.00  0.00     0.001 A 
ATOM     12  C   UNL d   1      -0.250   2.115   2.731  0.00  0.00     0.009 A 
ENDBRANCH   6   7
ENDBRANCH   3   6
ENDBRANCH   1   2
BRANCH   1  13
ATOM     13  C   UNL d   1      -0.666   0.701  -1.820  0.00  0.00    -0.070 C 
ATOM     14  C   UNL d   1      -1.994   0.561  -2.000  0.00  0.00    -0.023 C 
ATOM     15  C   UNL d   1      -2.897   1.643  -2.524  0.00  0.00     0.027 C 
ATOM     16  C   UNL d   1      -2.147   2.849  -3.089  0.00  0.00     0.004 C 
ATOM     17  C   UNL d   1      -0.952   3.203  -2.213  0.00  0.00     0.005 C 
ATOM     18  C   UNL d   1       0.020   2.023  -2.114  0.00  0.00     0.034 C 
ENDBRANCH   1  13
BRANCH   1  19
ATOM     19  C   UNL d   1       1.187  -0.882  -2.468  0.00  0.00     0.128 C 
BRANCH  19  20
ATOM     20  C   UNL d   1       1.937  -2.125  -2.069  0.00  0.00     0.140 C 
ATOM     21  O   UNL d   1       1.548  -3.256  -2.318  0.00  0.00    -0.650 OA
BRANCH  20  22
ATOM     22  O   UNL d   1       3.067  -1.883  -1.372  0.00  0.00    -0.776 OA
ATOM     23  H   UNL d   1       3.172  -0.939  -1.103  0.00  0.00     0.167 HD
ENDBRANCH  20  22
ENDBRANCH  19  20
ENDBRANCH   1  19
TORSDOF 7
