REMARK  6 active torsions:
REMARK  status: ('A' for Active; 'I' for Inactive)
REMARK    1  A    between atoms: C_11  and  C_1 
REMARK    2  A    between atoms: C_7  and  C_2 
REMARK    3  A    between atoms: S_20  and  C_10 
REMARK    4  A    between atoms: C_13  and  N_16 
REMARK    5  A    between atoms: C_15  and  C_28 
REMARK       I    between atoms: N_16  and  C_15 
REMARK    6  A    between atoms: C_28  and  S_20 
ROOT
ATOM      1  N   UNL d   1      -1.130   3.268  -0.576  0.00  0.00    -0.334 N 
ATOM      2  HN  UNL d   1      -0.362   3.158  -1.238  1.00  0.00     0.168 HD
ATOM      3  C   UNL d   1      -1.741   4.445  -0.397  0.00  0.00     0.145 A 
ATOM      4  C   UNL d   1      -1.581   2.237   0.167  0.00  0.00     0.071 A 
ATOM      5  N   UNL d   1      -2.742   4.673   0.464  0.00  0.00    -0.347 N 
ATOM      6  HN  UNL d   1      -3.165   5.596   0.566  1.00  0.00     0.167 HD
ATOM      7  C   UNL d   1      -2.605   2.364   1.081  0.00  0.00     0.049 A 
ATOM      8  C   UNL d   1      -3.156   3.618   1.186  0.00  0.00     0.092 A 
ENDROOT
BRANCH   3   9
ATOM      9  S   UNL d   1      -1.034   5.813  -1.268  0.00  0.00    -0.085 SA
BRANCH   9  10
ATOM     10  C   UNL d   1      -0.928   6.989   0.108  0.00  0.00     0.185 C 
BRANCH  10  11
ATOM     11  C   UNL d   1      -0.072   6.548   1.292  0.00  0.00     0.231 C 
ATOM     12  N   UNL d   1       0.803   5.501   1.067  0.00  0.00    -0.326 N 
ATOM     13  H   UNL d   1       0.816   5.125   0.122  0.00  0.00     0.169 HD
ATOM     14  O   UNL d   1      -0.152   7.180   2.346  0.00  0.00    -0.272 OA
BRANCH  12  15
ATOM     15  C   UNL d   1       1.711   4.926   1.982  0.00  0.00     0.037 A 
ATOM     16  C   UNL d   1       1.780   5.274   3.334  0.00  0.00     0.053 A 
ATOM     17  C   UNL d   1       2.752   4.703   4.160  0.00  0.00     0.037 A 
ATOM     18 CL   UNL d   1       2.834   5.159   5.819  0.00  0.00    -0.084 Cl
ATOM     19  C   UNL d   1       3.658   3.777   3.659  0.00  0.00     0.048 A 
ATOM     20  C   UNL d   1       3.569   3.403   2.322  0.00  0.00     0.037 A 
ATOM     21  C   UNL d   1       2.598   3.962   1.487  0.00  0.00     0.053 A 
ATOM     22 CL   UNL d   1       4.682   2.255   1.685  0.00  0.00    -0.084 Cl
ENDBRANCH  12  15
ENDBRANCH  10  11
ENDBRANCH   9  10
ENDBRANCH   3   9
BRANCH   4  23
ATOM     23  C   UNL d   1      -0.893   0.987  -0.091  0.00  0.00     0.127 A 
ATOM     24  C   UNL d   1       0.059   0.593  -1.003  0.00  0.00     0.074 A 
ATOM     25  C   UNL d   1       0.297  -0.776  -0.725  0.00  0.00     0.069 A 
ATOM     26  N   UNL d   1      -0.482  -1.181   0.293  0.00  0.00    -0.260 N 
ATOM     27  O   UNL d   1      -1.212  -0.079   0.689  0.00  0.00    -0.235 OA
ATOM     28  HN  UNL d   1      -0.524  -2.118   0.694  1.00  0.00     0.195 HD
BRANCH  25  29
ATOM     29  C   UNL d   1       1.175  -1.712  -1.431  0.00  0.00     0.014 A 
ATOM     30  C   UNL d   1       2.460  -1.378  -1.895  0.00  0.00     0.048 A 
ATOM     31  C   UNL d   1       3.222  -2.309  -2.613  0.00  0.00     0.048 A 
ATOM     32 CL   UNL d   1       3.212   0.151  -1.585  0.00  0.00    -0.083 Cl
ATOM     33  C   UNL d   1       2.715  -3.582  -2.861  0.00  0.00     0.035 A 
ATOM     34  C   UNL d   1       1.457  -3.942  -2.391  0.00  0.00     0.025 A 
ATOM     35 CL   UNL d   1       3.650  -4.717  -3.753  0.00  0.00    -0.084 Cl
ATOM     36  C   UNL d   1       0.693  -3.013  -1.679  0.00  0.00     0.017 A 
ENDBRANCH  25  29
ENDBRANCH   4  23
TORSDOF 6
