REMARK  7 active torsions:
REMARK  status: ('A' for Active; 'I' for Inactive)
REMARK    1  A    between atoms: C_12  and  N_1 
REMARK    2  A    between atoms: C_16  and  C_5 
REMARK    3  A    between atoms: C_15  and  C_6 
REMARK    4  A    between atoms: C_7  and  C_12 
REMARK    5  A    between atoms: C_17  and  C_15 
REMARK    6  A    between atoms: O_21  and  C_17 
REMARK    7  A    between atoms: C_26  and  O_21 
ROOT
ATOM      1  N   UNL d   1       2.395  -0.641   0.075  0.00  0.00    -0.251 N 
ATOM      2  N   UNL d   1       2.395   0.737   0.081  0.00  0.00    -0.298 N 
ATOM      3  HN  UNL d   1       3.276   1.251   0.108  1.00  0.00     0.187 HD
ATOM      4  C   UNL d   1       1.244  -1.419   0.083  0.00  0.00     0.273 A 
ATOM      5  C   UNL d   1       1.264   1.376   0.051  0.00  0.00     0.046 A 
ATOM      6  C   UNL d   1      -0.039  -0.694   0.042  0.00  0.00     0.046 A 
ATOM      7  C   UNL d   1      -0.049   0.697   0.009  0.00  0.00     0.004 A 
ATOM      8  O   UNL d   1       1.239  -2.645   0.125  0.00  0.00    -0.266 OA
ATOM      9  C   UNL d   1      -1.244  -1.411   0.022  0.00  0.00     0.018 A 
ATOM     10  C   UNL d   1      -1.272   1.377  -0.060  0.00  0.00     0.014 A 
ATOM     11  C   UNL d   1      -2.459  -0.731  -0.035  0.00  0.00     0.001 A 
ATOM     12  C   UNL d   1      -2.472   0.661  -0.079  0.00  0.00     0.001 A 
ENDROOT
BRANCH   1  13
ATOM     13  C   UNL d   1       3.704  -1.301   0.023  0.00  0.00     0.217 C 
BRANCH  13  14
ATOM     14  C   UNL d   1       4.121  -1.571  -1.398  0.00  0.00     0.072 A 
ATOM     15  N   UNL d   1       4.372  -2.763  -1.899  0.00  0.00    -0.355 N 
ATOM     16  C   UNL d   1       4.673  -2.670  -3.253  0.00  0.00     0.026 A 
ATOM     17  HN  UNL d   1       4.349  -3.633  -1.367  1.00  0.00     0.166 HD
ATOM     18  C   UNL d   1       4.946  -3.936  -3.989  0.00  0.00     0.070 C 
ATOM     19  C   UNL d   1       4.644  -1.381  -3.769  0.00  0.00     0.074 A 
ATOM     20  S   UNL d   1       4.371  -0.273  -2.493  0.00  0.00    -0.070 SA
BRANCH  19  21
ATOM     21  C   UNL d   1       4.848  -0.949  -5.145  0.00  0.00     0.164 C 
ATOM     22  O   UNL d   1       5.343  -1.687  -5.998  0.00  0.00    -0.292 OA
ATOM     23  C   UNL d   1       4.401   0.436  -5.574  0.00  0.00     0.097 C 
ENDBRANCH  19  21
ENDBRANCH  13  14
ENDBRANCH   1  13
BRANCH   5  24
ATOM     24  C   UNL d   1       1.341   2.889   0.036  0.00  0.00     0.170 C 
BRANCH  24  25
ATOM     25  C   UNL d   1       1.441   3.424  -1.364  0.00  0.00     0.264 C 
ATOM     26  O   UNL d   1       0.960   2.887  -2.352  0.00  0.00    -0.265 OA
BRANCH  25  27
ATOM     27  O   UNL d   1       2.155   4.584  -1.366  0.00  0.00    -0.322 OA
BRANCH  27  28
ATOM     28  C   UNL d   1       2.660   4.988  -2.647  0.00  0.00     0.174 C 
ATOM     29  C   UNL d   1       4.007   4.317  -2.853  0.00  0.00     0.034 C 
ENDBRANCH  27  28
ENDBRANCH  25  27
ENDBRANCH  24  25
ENDBRANCH   5  24
TORSDOF 7
