REMARK  7 active torsions:
REMARK  status: ('A' for Active; 'I' for Inactive)
REMARK    1  A    between atoms: C_11  and  C_1 
REMARK    2  A    between atoms: S_7  and  C_13 
REMARK    3  A    between atoms: C_16  and  S_7 
REMARK    4  A    between atoms: C_12  and  C_9 
REMARK       I    between atoms: N_17  and  C_12 
REMARK    5  A    between atoms: C_13  and  C_20 
REMARK    6  A    between atoms: C_20  and  N_17 
REMARK    7  A    between atoms: C_31  and  N_17 
ROOT
ATOM      1  C   UNL d   1      -0.926  -6.264   1.106  0.00  0.00     0.260 C 
ATOM      2  N   UNL d   1      -0.194  -6.721   2.227  0.00  0.00    -0.347 N 
ATOM      3  O   UNL d   1      -1.863  -6.963   0.702  0.00  0.00    -0.267 OA
ENDROOT
BRANCH   1   4
ATOM      4  C   UNL d   1      -0.673  -4.982   0.447  0.00  0.00     0.073 A 
ATOM      5  S   UNL d   1       0.857  -4.254   0.228  0.00  0.00    -0.083 SA
ATOM      6  C   UNL d   1       0.209  -2.881  -0.580  0.00  0.00     0.034 A 
ATOM      7  C   UNL d   1       1.045  -1.771  -0.967  0.00  0.00     0.069 A 
ATOM      8  C   UNL d   1      -1.138  -3.060  -0.813  0.00  0.00     0.023 A 
ATOM      9  C   UNL d   1       2.396  -1.758  -1.264  0.00  0.00     0.068 A 
ATOM     10  N   UNL d   1       0.648  -0.459  -1.102  0.00  0.00    -0.295 N 
ATOM     11  C   UNL d   1       2.724  -0.417  -1.594  0.00  0.00     0.134 A 
ATOM     12  N   UNL d   1       1.637   0.369  -1.496  0.00  0.00    -0.294 N 
ATOM     13  HN  UNL d   1       1.574   1.371  -1.680  1.00  0.00     0.187 HD
ATOM     14  C   UNL d   1      -0.648   0.125  -0.837  0.00  0.00     0.178 C 
ATOM     15  C   UNL d   1      -1.639  -4.255  -0.225  0.00  0.00     0.026 A 
BRANCH  11  16
ATOM     16  C   UNL d   1       4.080   0.094  -2.001  0.00  0.00     0.434 C 
ATOM     17  F   UNL d   1       4.116   1.432  -2.241  0.00  0.00    -0.165 F 
ATOM     18  F   UNL d   1       5.015  -0.154  -1.042  0.00  0.00    -0.165 F 
ATOM     19  F   UNL d   1       4.525  -0.517  -3.134  0.00  0.00    -0.165 F 
ENDBRANCH  11  16
ENDBRANCH   1   4
BRANCH   2  20
ATOM     20  C   UNL d   1      -0.649  -7.992   2.833  0.00  0.00     0.141 C 
BRANCH  20  21
ATOM     21  C   UNL d   1      -0.467  -9.204   1.925  0.00  0.00     0.165 C 
BRANCH  21  22
ATOM     22  S   UNL d   1      -0.900 -10.725   2.734  0.00  0.00     0.177 S 
ATOM     23  O   UNL d   1      -0.809 -11.798   1.762  0.00  0.00    -0.223 OA
ATOM     24  O   UNL d   1      -0.142 -10.790   3.972  0.00  0.00    -0.223 OA
BRANCH  22  25
ATOM     25  C   UNL d   1      -2.617 -10.576   3.163  0.00  0.00     0.059 A 
ATOM     26  C   UNL d   1      -3.564 -10.396   2.153  0.00  0.00     0.024 A 
ATOM     27  C   UNL d   1      -4.912 -10.261   2.493  0.00  0.00     0.008 A 
ATOM     28  C   UNL d   1      -5.318 -10.310   3.834  0.00  0.00    -0.062 A 
ATOM     29  C   UNL d   1      -4.359 -10.524   4.833  0.00  0.00     0.008 A 
ATOM     30  C   UNL d   1      -6.770 -10.157   4.182  0.00  0.00     0.048 C 
ATOM     31  C   UNL d   1      -3.009 -10.657   4.501  0.00  0.00     0.024 A 
ENDBRANCH  22  25
ENDBRANCH  21  22
ENDBRANCH  20  21
ENDBRANCH   2  20
BRANCH   2  32
ATOM     32  C   UNL d   1       0.675  -5.880   3.062  0.00  0.00     0.121 C 
ATOM     33  C   UNL d   1      -0.065  -4.758   3.775  0.00  0.00     0.026 C 
ENDBRANCH   2  32
TORSDOF 7
