REMARK  4 active torsions:
REMARK  status: ('A' for Active; 'I' for Inactive)
REMARK    1  A    between atoms: C_2  and  C_3 
REMARK    2  A    between atoms: C_4  and  C_2 
REMARK    3  A    between atoms: O_9  and  C_4 
REMARK    4  A    between atoms: C_12  and  O_9 
ROOT
ATOM      1  C   UNL d   1       0.929   0.109   0.159  0.00  0.00     0.251 C 
ATOM      2  C   UNL d   1       0.151  -1.228   0.051  0.00  0.00     0.320 C 
ATOM      3  N   UNL d   1       0.245   1.277  -0.054  0.00  0.00    -0.358 N 
ATOM      4  N   UNL d   1      -1.324  -1.111   0.259  0.00  0.00     0.099 N 
ATOM      5  O   UNL d   1       2.144   0.151   0.343  0.00  0.00    -0.271 OA
ATOM      6  C   UNL d   1      -1.192   1.340   0.074  0.00  0.00     0.152 C 
ATOM      7  C   UNL d   1      -1.857   0.063  -0.442  0.00  0.00     0.290 C 
ATOM      8  H   UNL d   1       0.795   2.113   0.098  0.00  0.00     0.162 HD
ATOM      9  H   UNL d   1      -1.474  -0.969   1.266  0.00  0.00     0.317 HD
ENDROOT
BRANCH   2  10
ATOM     10  C   UNL d   1       0.745  -2.246   1.036  0.00  0.00     0.156 C 
BRANCH  10  11
ATOM     11  C   UNL d   1       0.733  -1.679   2.433  0.00  0.00     0.261 C 
ATOM     12  O   UNL d   1      -0.140  -0.930   2.867  0.00  0.00    -0.265 OA
BRANCH  11  13
ATOM     13  O   UNL d   1       1.838  -2.072   3.118  0.00  0.00    -0.322 OA
BRANCH  13  14
ATOM     14  C   UNL d   1       2.168  -1.257   4.248  0.00  0.00     0.174 C 
ATOM     15  C   UNL d   1       3.007  -0.089   3.760  0.00  0.00     0.034 C 
ENDBRANCH  13  14
ENDBRANCH  11  13
ENDBRANCH  10  11
ENDBRANCH   2  10
TORSDOF 4
