REMARK  5 active torsions:
REMARK  status: ('A' for Active; 'I' for Inactive)
REMARK    1  A    between atoms: C_10  and  C_1 
REMARK    2  A    between atoms: C_6  and  C_2 
REMARK    3  A    between atoms: C_16  and  N_3 
REMARK    4  A    between atoms: C_15  and  C_9 
REMARK    5  A    between atoms: C_17  and  C_18 
ROOT
ATOM      1  N   UNL d   1      -1.658  -3.330  -0.813  0.00  0.00    -0.318 N 
ATOM      2  HN  UNL d   1      -2.188  -2.925  -1.585  1.00  0.00     0.169 HD
ATOM      3  C   UNL d   1      -0.833  -2.724   0.008  0.00  0.00     0.186 A 
ATOM      4  C   UNL d   1      -1.641  -4.637  -0.388  0.00  0.00     0.138 A 
ATOM      5  N   UNL d   1      -0.902  -4.827   0.718  0.00  0.00    -0.242 N 
ATOM      6  HN  UNL d   1      -0.770  -5.690   1.246  1.00  0.00     0.196 HD
ATOM      7  O   UNL d   1      -0.358  -3.573   0.975  0.00  0.00    -0.217 OA
ENDROOT
BRANCH   3   8
ATOM      8  C   UNL d   1      -0.397  -1.309  -0.118  0.00  0.00     0.068 A 
ATOM      9  C   UNL d   1      -0.817  -0.343  -1.017  0.00  0.00     0.156 A 
ATOM     10  N   UNL d   1      -0.063   0.791  -0.734  0.00  0.00    -0.251 N 
ATOM     11  N   UNL d   1       0.882   0.528   0.213  0.00  0.00    -0.303 N 
ATOM     12  C   UNL d   1       0.623  -0.708   0.628  0.00  0.00     0.126 A 
ATOM     13  HN  UNL d   1       1.627   1.147   0.534  1.00  0.00     0.186 HD
BRANCH   9  14
ATOM     14  C   UNL d   1      -1.755  -0.399  -2.152  0.00  0.00     0.435 C 
ATOM     15  F   UNL d   1      -2.129  -1.648  -2.512  0.00  0.00    -0.165 F 
ATOM     16  F   UNL d   1      -2.909   0.263  -1.888  0.00  0.00    -0.165 F 
ATOM     17  F   UNL d   1      -1.222   0.151  -3.272  0.00  0.00    -0.165 F 
ENDBRANCH   9  14
BRANCH  10  18
ATOM     18  C   UNL d   1      -0.116   2.109  -1.279  0.00  0.00     0.057 A 
ATOM     19  C   UNL d   1      -1.314   2.692  -1.703  0.00  0.00     0.031 A 
ATOM     20  C   UNL d   1      -1.319   3.964  -2.277  0.00  0.00     0.002 A 
ATOM     21  C   UNL d   1      -0.131   4.679  -2.415  0.00  0.00     0.000 A 
ATOM     22  C   UNL d   1       1.061   4.129  -1.949  0.00  0.00     0.002 A 
ATOM     23  C   UNL d   1       1.071   2.857  -1.370  0.00  0.00     0.031 A 
ENDBRANCH  10  18
ENDBRANCH   3   8
BRANCH   4  24
ATOM     24  C   UNL d   1      -2.320  -5.712  -1.113  0.00  0.00     0.010 A 
ATOM     25  C   UNL d   1      -3.011  -5.467  -2.303  0.00  0.00     0.016 A 
ATOM     26  C   UNL d   1      -3.626  -6.519  -3.006  0.00  0.00     0.009 A 
ATOM     27  C   UNL d   1      -3.574  -7.848  -2.543  0.00  0.00    -0.051 A 
ATOM     28  C   UNL d   1      -2.876  -8.074  -1.348  0.00  0.00     0.009 A 
ATOM     29  C   UNL d   1      -2.257  -7.031  -0.645  0.00  0.00     0.016 A 
BRANCH  27  30
ATOM     30  C   UNL d   1      -4.279  -8.987  -3.308  0.00  0.00    -0.024 C 
ATOM     31  C   UNL d   1      -4.132 -10.368  -2.625  0.00  0.00     0.019 C 
ATOM     32  C   UNL d   1      -5.790  -8.688  -3.405  0.00  0.00     0.019 C 
ATOM     33  C   UNL d   1      -3.705  -9.127  -4.734  0.00  0.00     0.019 C 
ENDBRANCH  27  30
ENDBRANCH   4  24
TORSDOF 5
