REMARK  4 active torsions:
REMARK  status: ('A' for Active; 'I' for Inactive)
REMARK    1  A    between atoms: C_16  and  N_3 
REMARK    2  A    between atoms: C_11  and  C_4 
REMARK    3  A    between atoms: N_9  and  C_7 
REMARK    4  A    between atoms: C_8  and  N_12 
REMARK       I    between atoms: N_12  and  C_11 
ROOT
ATOM      1  C   UNL d   1      -2.486  -0.126   0.388  0.00  0.00     0.276 C 
ATOM      2  N   UNL d   1      -3.216   1.043   0.186  0.00  0.00    -0.319 N 
ATOM      3  O   UNL d   1      -2.995  -1.220   0.618  0.00  0.00    -0.266 OA
ATOM      4  H   UNL d   1      -2.708   1.741  -0.364  0.00  0.00     0.169 HD
ENDROOT
BRANCH   1   5
ATOM      5  C   UNL d   1      -1.030   0.012   0.241  0.00  0.00     0.141 A 
ATOM      6  N   UNL d   1      -0.385   1.190   0.094  0.00  0.00    -0.272 N 
ATOM      7  N   UNL d   1       0.927   0.802   0.061  0.00  0.00    -0.196 N 
ATOM      8  HN  UNL d   1      -0.776   2.129   0.025  1.00  0.00     0.189 HD
ATOM      9  N   UNL d   1       1.148  -0.535   0.101  0.00  0.00    -0.281 N 
ATOM     10  C   UNL d   1      -0.078  -1.038   0.248  0.00  0.00     0.057 A 
ATOM     11  HN  UNL d   1       2.035  -1.033   0.034  1.00  0.00     0.189 HD
ATOM     12  C   UNL d   1      -0.249  -2.500   0.408  0.00  0.00     0.072 C 
BRANCH   7  13
ATOM     13  C   UNL d   1       2.024   1.706   0.041  0.00  0.00     0.074 A 
ATOM     14  C   UNL d   1       1.826   3.089   0.086  0.00  0.00     0.033 A 
ATOM     15  C   UNL d   1       2.934   3.945   0.112  0.00  0.00     0.002 A 
ATOM     16  C   UNL d   1       4.232   3.427   0.087  0.00  0.00     0.000 A 
ATOM     17  C   UNL d   1       4.432   2.051   0.029  0.00  0.00     0.002 A 
ATOM     18  C   UNL d   1       3.334   1.192   0.007  0.00  0.00     0.033 A 
ENDBRANCH   7  13
ENDBRANCH   1   5
BRANCH   2  19
ATOM     19  C   UNL d   1      -4.645   1.061   0.149  0.00  0.00     0.074 C 
ATOM     20  C   UNL d   1      -5.335   1.679  -0.920  0.00  0.00     0.130 C 
ATOM     21  C   UNL d   1      -6.732   1.562  -1.040  0.00  0.00     0.039 C 
ATOM     22  C   UNL d   1      -7.454   0.842  -0.097  0.00  0.00     0.010 C 
ATOM     23  C   UNL d   1      -6.814   0.284   1.018  0.00  0.00    -0.054 C 
ATOM     24  C   UNL d   1      -5.412   0.444   1.179  0.00  0.00    -0.027 C 
ATOM     25  C   UNL d   1      -7.681  -0.478   1.990  0.00  0.00     0.049 C 
ATOM     26  C   UNL d   1      -4.784   0.019   2.488  0.00  0.00     0.051 C 
BRANCH  20  27
ATOM     27  N   UNL d   1      -4.636   2.427  -1.975  0.00  0.00    -0.113 N 
ATOM     28  O   UNL d   1      -3.443   2.717  -1.793  0.00  0.00    -0.532 OA
ATOM     29  O   UNL d   1      -5.277   2.744  -2.986  0.00  0.00    -0.532 OA
ENDBRANCH  20  27
ENDBRANCH   2  19
TORSDOF 4
