REMARK  3 active torsions:
REMARK  status: ('A' for Active; 'I' for Inactive)
REMARK    1  A    between atoms: C_9  and  C_4 
REMARK    2  A    between atoms: C_8  and  C_9 
REMARK       I    between atoms: N_12  and  C_8 
REMARK    3  A    between atoms: C_13  and  N_12 
ROOT
ATOM      1  C   UNL d   1      -0.455   3.254  -0.017  0.00  0.00     0.229 C 
ATOM      2  N   UNL d   1      -1.721   2.704  -0.006  0.00  0.00    -0.327 N 
ATOM      3  O   UNL d   1       0.585   2.608   0.149  0.00  0.00    -0.273 OA
ATOM      4  H   UNL d   1      -2.475   3.311  -0.330  0.00  0.00     0.169 HD
ENDROOT
BRANCH   1   5
ATOM      5  C   UNL d   1      -0.329   4.739  -0.300  0.00  0.00     0.182 C 
BRANCH   5   6
ATOM      6  C   UNL d   1      -1.553   5.568  -0.265  0.00  0.00     0.118 A 
ATOM      7  N   UNL d   1      -1.516   6.875   0.146  0.00  0.00    -0.270 N 
ATOM      8  N   UNL d   1      -2.732   7.364  -0.038  0.00  0.00    -0.005 NA
ATOM      9  HN  UNL d   1      -0.709   7.373   0.521  1.00  0.00     0.185 HD
ATOM     10  N   UNL d   1      -3.435   6.352  -0.556  0.00  0.00    -0.225 N 
ATOM     11  N   UNL d   1      -2.764   5.192  -0.717  0.00  0.00    -0.275 N 
ATOM     12  H   UNL d   1      -4.412   6.462  -0.814  0.00  0.00     0.205 HD
ATOM     13  HN  UNL d   1      -3.082   4.292  -1.077  1.00  0.00     0.189 HD
ENDBRANCH   5   6
ENDBRANCH   1   5
BRANCH   2  14
ATOM     14  C   UNL d   1      -2.072   1.379   0.337  0.00  0.00     0.036 A 
ATOM     15  C   UNL d   1      -1.173   0.457   0.893  0.00  0.00     0.056 A 
ATOM     16  C   UNL d   1      -1.598  -0.831   1.230  0.00  0.00     0.074 A 
ATOM     17 CL   UNL d   1      -0.475  -1.938   1.926  0.00  0.00    -0.081 Cl
ATOM     18  C   UNL d   1      -2.917  -1.208   1.015  0.00  0.00     0.138 A 
ATOM     19  C   UNL d   1      -3.824  -0.305   0.466  0.00  0.00     0.046 A 
ATOM     20  F   UNL d   1      -3.345  -2.437   1.335  0.00  0.00    -0.204 F 
ATOM     21  C   UNL d   1      -3.403   0.987   0.133  0.00  0.00     0.032 A 
ENDBRANCH   2  14
TORSDOF 3
