REMARK  4 active torsions:
REMARK  status: ('A' for Active; 'I' for Inactive)
REMARK    1  A    between atoms: C_2  and  C_1 
REMARK    2  A    between atoms: O_10  and  C_1 
REMARK    3  A    between atoms: N_4  and  C_3 
REMARK    4  A    between atoms: C_13  and  O_10 
ROOT
ATOM      1  C   UNL d   1       0.304  -1.123  -0.354  0.00  0.00     0.039 A 
ATOM      2  C   UNL d   1      -1.136  -3.459  -1.171  0.00  0.00     0.029 A 
ATOM      3  C   UNL d   1       0.634  -2.384   0.150  0.00  0.00     0.020 A 
ATOM      4  C   UNL d   1      -0.750  -1.027  -1.263  0.00  0.00     0.020 A 
ATOM      5  C   UNL d   1      -1.455  -2.176  -1.651  0.00  0.00     0.030 A 
ATOM      6  C   UNL d   1      -0.073  -3.525  -0.256  0.00  0.00     0.030 A 
ENDROOT
BRANCH   1   7
ATOM      7  C   UNL d   1       1.080   0.060   0.105  0.00  0.00     0.293 C 
ATOM      8  O   UNL d   1       1.934   0.008   0.978  0.00  0.00    -0.259 OA
BRANCH   7   9
ATOM      9  O   UNL d   1       0.716   1.165  -0.589  0.00  0.00    -0.318 OA
BRANCH   9  10
ATOM     10  C   UNL d   1       1.403   2.377  -0.247  0.00  0.00     0.174 C 
ATOM     11  C   UNL d   1       2.713   2.474  -1.007  0.00  0.00     0.034 C 
ENDBRANCH   9  10
ENDBRANCH   7   9
ENDBRANCH   1   7
BRANCH   2  12
ATOM     12  N   UNL d   1      -1.883  -4.572  -1.543  0.00  0.00    -0.390 N 
ATOM     13  C   UNL d   1      -2.418  -4.686  -2.900  0.00  0.00     0.149 C 
ATOM     14  C   UNL d   1      -1.772  -5.845  -0.834  0.00  0.00     0.149 C 
ENDBRANCH   2  12
TORSDOF 4
