REMARK  2 active torsions:
REMARK  status: ('A' for Active; 'I' for Inactive)
REMARK    1  A    between atoms: C_2  and  C_1 
REMARK    2  A    between atoms: O_7  and  C_1 
ROOT
ATOM      1  C   UNL d   1       0.284  -0.747   0.990  0.00  0.00     0.039 A 
ATOM      2  C   UNL d   1      -0.826  -1.528   0.638  0.00  0.00     0.019 A 
ATOM      3  C   UNL d   1       0.649  -0.640   2.341  0.00  0.00     0.019 A 
ATOM      4  C   UNL d   1      -1.192  -2.081   2.958  0.00  0.00     0.011 A 
ATOM      5  C   UNL d   1      -0.090  -1.308   3.323  0.00  0.00     0.020 A 
ATOM      6  C   UNL d   1      -1.564  -2.194   1.620  0.00  0.00     0.020 A 
ATOM      7 BR   UNL d   1      -2.188  -2.984   4.287  0.00  0.00    -0.051 Br
ENDROOT
BRANCH   1   8
ATOM      8  C   UNL d   1       1.033  -0.065  -0.100  0.00  0.00     0.292 C 
ATOM      9  O   UNL d   1       0.758  -0.195  -1.283  0.00  0.00    -0.259 OA
BRANCH   8  10
ATOM     10  O   UNL d   1       2.034   0.699   0.404  0.00  0.00    -0.323 OA
ATOM     11  C   UNL d   1       2.804   1.405  -0.571  0.00  0.00     0.213 C 
ENDBRANCH   8  10
ENDBRANCH   1   8
TORSDOF 2
