REMARK  1 active torsions:
REMARK  status: ('A' for Active; 'I' for Inactive)
REMARK    1  A    between atoms: C_8  and  C_6 
ROOT
ATOM      1  C   UNL d   1      -1.801  -0.002  -0.075  0.00  0.00     0.057 A 
ATOM      2  S   UNL d   1      -0.968   1.534  -0.105  0.00  0.00    -0.086 SA
ATOM      3  C   UNL d   1      -0.832  -1.143  -0.131  0.00  0.00     0.200 A 
ATOM      4  C   UNL d   1       0.542  -0.647  -0.076  0.00  0.00     0.032 A 
ATOM      5  C   UNL d   1       0.617   0.740  -0.064  0.00  0.00     0.020 A 
ATOM      6  C   UNL d   1      -3.135  -0.103   0.026  0.00  0.00     0.034 C 
ATOM      7  O   UNL d   1      -1.085  -2.332  -0.219  0.00  0.00    -0.286 OA
ATOM      8  C   UNL d   1       1.671  -1.455  -0.033  0.00  0.00     0.017 A 
ATOM      9  C   UNL d   1       1.859   1.358  -0.017  0.00  0.00     0.020 A 
ATOM     10  C   UNL d   1       2.918  -0.837   0.019  0.00  0.00     0.001 A 
ATOM     11  C   UNL d   1       3.011   0.562   0.023  0.00  0.00     0.001 A 
ENDROOT
BRANCH   6  12
ATOM     12  C   UNL d   1      -3.845  -1.379   0.135  0.00  0.00    -0.035 A 
ATOM     13  C   UNL d   1      -4.077  -1.939   1.397  0.00  0.00     0.011 A 
ATOM     14  C   UNL d   1      -4.661  -3.202   1.507  0.00  0.00     0.001 A 
ATOM     15  C   UNL d   1      -5.022  -3.906   0.360  0.00  0.00     0.000 A 
ATOM     16  C   UNL d   1      -4.810  -3.344  -0.899  0.00  0.00     0.001 A 
ATOM     17  C   UNL d   1      -4.224  -2.082  -1.013  0.00  0.00     0.011 A 
ENDBRANCH   6  12
TORSDOF 1
