REMARK  5 active torsions:
REMARK  status: ('A' for Active; 'I' for Inactive)
REMARK       I    between atoms: N_2  and  C_1 
REMARK    1  A    between atoms: C_4  and  C_1 
REMARK       I    between atoms: C_5  and  N_2 
REMARK    2  A    between atoms: C_3  and  C_7 
REMARK       I    between atoms: N_8  and  C_5 
REMARK    3  A    between atoms: N_6  and  N_8 
REMARK    4  A    between atoms: C_7  and  N_6 
REMARK    5  A    between atoms: C_15  and  N_6 
ROOT
ATOM      1  N   UNL d   1       3.445   0.127  -2.146  0.00  0.00    -0.189 NA
ENDROOT
BRANCH   1   2
ATOM      2  N   UNL d   1       2.793   1.204  -2.829  0.00  0.00    -0.266 N 
ATOM      3  C   UNL d   1       2.851   1.386  -4.222  0.00  0.00     0.337 C 
ATOM      4  N   UNL d   1       1.918   2.370  -4.583  0.00  0.00    -0.274 N 
ATOM      5  O   UNL d   1       3.599   0.813  -5.004  0.00  0.00    -0.246 OA
ATOM      6  C   UNL d   1       1.487   2.880  -5.799  0.00  0.00     0.264 C 
ATOM      7  H   UNL d   1       1.154   2.418  -3.929  0.00  0.00     0.173 HD
ATOM      8  O   UNL d   1       0.336   3.318  -5.879  0.00  0.00    -0.267 OA
ATOM      9  H   UNL d   1       2.474   1.964  -2.242  0.00  0.00     0.186 HD
BRANCH   6  10
ATOM     10  C   UNL d   1       2.336   2.961  -6.992  0.00  0.00     0.092 A 
ATOM     11  C   UNL d   1       2.502   1.833  -7.790  0.00  0.00     0.133 A 
ATOM     12  F   UNL d   1       2.022   0.644  -7.399  0.00  0.00    -0.205 F 
ATOM     13  C   UNL d   1       3.096   1.925  -9.052  0.00  0.00     0.043 A 
ATOM     14  C   UNL d   1       3.494   3.166  -9.548  0.00  0.00     0.005 A 
ATOM     15  C   UNL d   1       3.306   4.310  -8.774  0.00  0.00     0.025 A 
ATOM     16  C   UNL d   1       2.725   4.211  -7.501  0.00  0.00     0.052 A 
ATOM     17 CL   UNL d   1       2.480   5.683  -6.625  0.00  0.00    -0.083 Cl
ENDBRANCH   6  10
ENDBRANCH   1   2
BRANCH   1  18
ATOM     18  C   UNL d   1       2.806  -0.147  -0.812  0.00  0.00     0.163 C 
BRANCH  18  19
ATOM     19  C   UNL d   1       2.661  -1.612  -0.479  0.00  0.00     0.017 A 
ATOM     20  C   UNL d   1       3.329  -2.251   0.581  0.00  0.00     0.044 A 
ATOM     21 CL   UNL d   1       4.392  -1.407   1.653  0.00  0.00    -0.084 Cl
ATOM     22  C   UNL d   1       3.140  -3.619   0.832  0.00  0.00     0.024 A 
ATOM     23  C   UNL d   1       2.263  -4.365   0.046  0.00  0.00     0.005 A 
ATOM     24  C   UNL d   1       1.569  -3.738  -0.984  0.00  0.00     0.043 A 
ATOM     25  C   UNL d   1       1.769  -2.382  -1.233  0.00  0.00     0.125 A 
ATOM     26  F   UNL d   1       1.044  -1.801  -2.199  0.00  0.00    -0.205 F 
ENDBRANCH  18  19
ENDBRANCH   1  18
BRANCH   1  27
ATOM     27  C   UNL d   1       4.855   0.309  -1.963  0.00  0.00     0.030 A 
ATOM     28  C   UNL d   1       5.491   1.556  -2.047  0.00  0.00     0.025 A 
ATOM     29  C   UNL d   1       6.842   1.698  -1.712  0.00  0.00     0.002 A 
ATOM     30  C   UNL d   1       7.583   0.597  -1.290  0.00  0.00     0.000 A 
ATOM     31  C   UNL d   1       6.988  -0.658  -1.250  0.00  0.00     0.002 A 
ATOM     32  C   UNL d   1       5.646  -0.801  -1.610  0.00  0.00     0.025 A 
ENDBRANCH   1  27
TORSDOF 5
