REMARK  6 active torsions:
REMARK  status: ('A' for Active; 'I' for Inactive)
REMARK    1  A    between atoms: O_11  and  C_3 
REMARK    2  A    between atoms: O_15  and  C_4 
REMARK    3  A    between atoms: S_12  and  C_5 
REMARK    4  A    between atoms: C_8  and  C_10 
REMARK    5  A    between atoms: C_10  and  S_12 
REMARK    6  A    between atoms: C_16  and  O_11 
ROOT
ATOM      1  N   UNL d   1      -0.546   1.332   0.144  0.00  0.00    -0.315 N 
ATOM      2  HN  UNL d   1      -0.953   2.263   0.233  1.00  0.00     0.170 HD
ATOM      3  C   UNL d   1      -0.816  -1.066   0.037  0.00  0.00     0.149 A 
ATOM      4  C   UNL d   1      -1.298   0.222   0.212  0.00  0.00     0.178 A 
ATOM      5  C   UNL d   1       0.765   1.150  -0.046  0.00  0.00     0.146 A 
ATOM      6  N   UNL d   1       1.354  -0.054  -0.153  0.00  0.00    -0.338 N 
ATOM      7  HN  UNL d   1       2.363  -0.139  -0.273  1.00  0.00     0.168 HD
ATOM      8  C   UNL d   1       0.562  -1.146  -0.095  0.00  0.00     0.045 A 
ATOM      9  C   UNL d   1       1.264  -2.473  -0.139  0.00  0.00     0.071 C 
ENDROOT
BRANCH   5  10
ATOM     10  S   UNL d   1       1.852   2.547  -0.117  0.00  0.00    -0.089 SA
BRANCH  10  11
ATOM     11  C   UNL d   1       0.654   3.917  -0.043  0.00  0.00     0.124 C 
BRANCH  11  12
ATOM     12  C   UNL d   1       1.372   5.252   0.017  0.00  0.00    -0.005 A 
ATOM     13  C   UNL d   1       1.725   5.951  -1.155  0.00  0.00     0.042 A 
ATOM     14 CL   UNL d   1       1.331   5.363  -2.734  0.00  0.00    -0.084 Cl
ATOM     15  C   UNL d   1       2.423   7.164  -1.094  0.00  0.00     0.024 A 
ATOM     16  C   UNL d   1       2.791   7.703   0.135  0.00  0.00     0.003 A 
ATOM     17  C   UNL d   1       2.461   7.028   1.304  0.00  0.00     0.024 A 
ATOM     18  C   UNL d   1       1.763   5.815   1.248  0.00  0.00     0.042 A 
ATOM     19 CL   UNL d   1       1.419   5.051   2.763  0.00  0.00    -0.084 Cl
ENDBRANCH  11  12
ENDBRANCH  10  11
ENDBRANCH   5  10
BRANCH   4  20
ATOM     20  O   UNL d   1      -2.602   0.484   0.525  0.00  0.00    -0.344 OA
ATOM     21  H   UNL d   1      -3.021  -0.348   0.793  0.00  0.00     0.219 HD
ENDBRANCH   4  20
BRANCH   3  22
ATOM     22  O   UNL d   1      -1.527  -2.230   0.105  0.00  0.00    -0.304 OA
BRANCH  22  23
ATOM     23  C   UNL d   1      -2.744  -2.361  -0.525  0.00  0.00     0.076 A 
ATOM     24  C   UNL d   1      -3.164  -1.629  -1.638  0.00  0.00     0.039 A 
ATOM     25  C   UNL d   1      -4.470  -1.783  -2.118  0.00  0.00     0.026 A 
ATOM     26  C   UNL d   1      -5.332  -2.698  -1.516  0.00  0.00     0.034 A 
ATOM     27  C   UNL d   1      -4.892  -3.484  -0.454  0.00  0.00     0.026 A 
ATOM     28 CL   UNL d   1      -6.950  -2.851  -2.077  0.00  0.00    -0.084 Cl
ATOM     29  C   UNL d   1      -3.595  -3.317   0.036  0.00  0.00     0.039 A 
ENDBRANCH  22  23
ENDBRANCH   3  22
TORSDOF 6
