REMARK  11 active torsions:
REMARK  status: ('A' for Active; 'I' for Inactive)
REMARK    1  A    between atoms: N_3  and  C_1 
REMARK       I    between atoms: C_7  and  N_3 
REMARK    2  A    between atoms: N_9  and  N_3 
REMARK    3  A    between atoms: C_21  and  C_6 
REMARK    4  A    between atoms: C_10  and  C_7 
REMARK       I    between atoms: C_15  and  N_9 
REMARK    5  A    between atoms: C_11  and  C_16 
REMARK    6  A    between atoms: C_12  and  C_17 
REMARK    7  A    between atoms: C_13  and  C_18 
REMARK    8  A    between atoms: C_14  and  C_19 
REMARK    9  A    between atoms: C_20  and  C_15 
REMARK   10  A    between atoms: O_47  and  C_21 
REMARK   11  A    between atoms: C_50  and  O_47 
ROOT
ATOM      1  N   UNL d   1       1.186  -2.934   0.391  0.00  0.00    -0.114 NA
ATOM      2  C   UNL d   1       2.471  -3.527   0.402  0.00  0.00     0.256 C 
ATOM      3  O   UNL d   1       3.543  -2.933   0.284  0.00  0.00    -0.272 OA
ENDROOT
BRANCH   1   4
ATOM      4  C   UNL d   1       1.158  -1.557   0.213  0.00  0.00     0.095 A 
ATOM      5  C   UNL d   1       1.489  -0.762  -0.857  0.00  0.00     0.048 A 
ATOM      6  C   UNL d   1       1.200   0.634  -0.597  0.00  0.00    -0.018 A 
ATOM      7  C   UNL d   1       2.037  -1.234  -2.126  0.00  0.00     0.163 C 
ATOM      8  C   UNL d   1       1.476   1.686  -1.647  0.00  0.00     0.050 C 
ATOM      9  C   UNL d   1       0.687   0.824   0.686  0.00  0.00     0.089 A 
ATOM     10  C   UNL d   1       1.706   1.093  -3.070  0.00  0.00    -0.037 C 
ATOM     11  C   UNL d   1       2.633  -0.145  -3.004  0.00  0.00     0.093 C 
ATOM     12  C   UNL d   1       2.366   2.162  -3.961  0.00  0.00     0.015 C 
ATOM     13  C   UNL d   1       0.359   0.706  -3.720  0.00  0.00     0.015 C 
ATOM     14  S   UNL d   1       0.547  -0.679   1.521  0.00  0.00    -0.068 SA
ATOM     15  O   UNL d   1       2.008  -2.411  -2.474  0.00  0.00    -0.292 OA
BRANCH   9  16
ATOM     16  C   UNL d   1       0.273   2.015   1.421  0.00  0.00     0.300 C 
ATOM     17  O   UNL d   1      -0.099   2.042   2.588  0.00  0.00    -0.259 OA
BRANCH  16  18
ATOM     18  O   UNL d   1       0.358   3.132   0.638  0.00  0.00    -0.317 OA
BRANCH  18  19
ATOM     19  C   UNL d   1       0.052   4.370   1.303  0.00  0.00     0.174 C 
ATOM     20  C   UNL d   1      -1.442   4.646   1.294  0.00  0.00     0.034 C 
ENDBRANCH  18  19
ENDBRANCH  16  18
ENDBRANCH   9  16
ENDBRANCH   1   4
BRANCH   1  21
ATOM     21  N   UNL d   1       0.263  -3.602  -0.451  0.00  0.00    -0.273 N 
ATOM     22  C   UNL d   1      -0.894  -4.109   0.096  0.00  0.00     0.266 C 
ATOM     23  O   UNL d   1      -1.383  -3.803   1.174  0.00  0.00    -0.266 OA
ATOM     24  H   UNL d   1       0.654  -3.926  -1.334  0.00  0.00     0.185 HD
BRANCH  22  25
ATOM     25  C   UNL d   1      -1.419  -5.262  -0.662  0.00  0.00     0.035 A 
ATOM     26  C   UNL d   1      -1.538  -6.456   0.052  0.00  0.00     0.033 A 
ATOM     27  C   UNL d   1      -1.637  -7.673  -0.631  0.00  0.00     0.049 A 
ATOM     28  C   UNL d   1      -1.705  -7.658  -2.034  0.00  0.00     0.032 A 
ATOM     29  C   UNL d   1      -1.643  -6.453  -2.759  0.00  0.00     0.049 A 
ATOM     30  C   UNL d   1      -1.513  -5.245  -2.058  0.00  0.00     0.033 A 
BRANCH  27  31
ATOM     31  C   UNL d   1      -1.572  -8.964   0.147  0.00  0.00     0.417 C 
ATOM     32  F   UNL d   1      -1.288 -10.041  -0.635  0.00  0.00    -0.166 F 
ATOM     33  F   UNL d   1      -0.597  -8.932   1.095  0.00  0.00    -0.166 F 
ATOM     34  F   UNL d   1      -2.730  -9.252   0.794  0.00  0.00    -0.166 F 
ENDBRANCH  27  31
BRANCH  29  35
ATOM     35  C   UNL d   1      -1.639  -6.455  -4.271  0.00  0.00     0.417 C 
ATOM     36  F   UNL d   1      -1.377  -7.679  -4.804  0.00  0.00    -0.166 F 
ATOM     37  F   UNL d   1      -2.824  -6.053  -4.800  0.00  0.00    -0.166 F 
ATOM     38  F   UNL d   1      -0.693  -5.618  -4.780  0.00  0.00    -0.166 F 
ENDBRANCH  29  35
ENDBRANCH  22  25
ENDBRANCH   1  21
BRANCH   2  39
ATOM     39  C   UNL d   1       2.534  -5.003   0.634  0.00  0.00     0.030 A 
ATOM     40  C   UNL d   1       3.323  -5.811  -0.201  0.00  0.00     0.032 A 
ATOM     41  C   UNL d   1       3.504  -7.176   0.088  0.00  0.00     0.049 A 
ATOM     42  C   UNL d   1       2.918  -7.707   1.251  0.00  0.00     0.032 A 
ATOM     43  C   UNL d   1       2.167  -6.896   2.122  0.00  0.00     0.049 A 
ATOM     44  C   UNL d   1       1.950  -5.550   1.784  0.00  0.00     0.032 A 
BRANCH  41  45
ATOM     45  C   UNL d   1       4.354  -8.075  -0.786  0.00  0.00     0.417 C 
ATOM     46  F   UNL d   1       4.839  -7.459  -1.898  0.00  0.00    -0.166 F 
ATOM     47  F   UNL d   1       5.435  -8.568  -0.124  0.00  0.00    -0.166 F 
ATOM     48  F   UNL d   1       3.662  -9.160  -1.232  0.00  0.00    -0.166 F 
ENDBRANCH  41  45
BRANCH  43  49
ATOM     49  C   UNL d   1       1.665  -7.470   3.430  0.00  0.00     0.417 C 
ATOM     50  F   UNL d   1       1.237  -6.519   4.303  0.00  0.00    -0.166 F 
ATOM     51  F   UNL d   1       0.626  -8.329   3.266  0.00  0.00    -0.166 F 
ATOM     52  F   UNL d   1       2.631  -8.171   4.086  0.00  0.00    -0.166 F 
ENDBRANCH  43  49
ENDBRANCH   2  39
TORSDOF 11
