REMARK  5 active torsions:
REMARK  status: ('A' for Active; 'I' for Inactive)
REMARK    1  A    between atoms: C_12  and  C_2 
REMARK    2  A    between atoms: N_13  and  C_6 
REMARK    3  A    between atoms: C_15  and  N_13 
REMARK    4  A    between atoms: N_14  and  C_16 
REMARK    5  A    between atoms: C_16  and  C_15 
ROOT
ATOM      1  C   UNL d   1       0.260   0.972   0.040  0.00  0.00     0.053 A 
ATOM      2  C   UNL d   1      -0.978   1.746   0.022  0.00  0.00    -0.003 A 
ATOM      3  C   UNL d   1      -2.088   0.921  -0.056  0.00  0.00     0.065 A 
ATOM      4  C   UNL d   1      -0.023  -0.384  -0.079  0.00  0.00     0.089 A 
ATOM      5  S   UNL d   1      -1.687  -0.732  -0.117  0.00  0.00    -0.082 SA
ATOM      6  C   UNL d   1       1.639   1.290   0.124  0.00  0.00     0.116 A 
ATOM      7  N   UNL d   1       0.857  -1.395  -0.158  0.00  0.00    -0.346 N 
ATOM      8  HN  UNL d   1       0.590  -2.377  -0.230  1.00  0.00     0.167 HD
ATOM      9  N   UNL d   1       2.544   0.291  -0.012  0.00  0.00    -0.338 N 
ATOM     10  HN  UNL d   1       3.543   0.500  -0.025  1.00  0.00     0.168 HD
ATOM     11  C   UNL d   1       2.117  -0.970  -0.130  0.00  0.00     0.182 A 
ENDROOT
BRANCH   6  12
ATOM     12  N   UNL d   1       2.132   2.560   0.376  0.00  0.00    -0.374 N 
ATOM     13  H   UNL d   1       1.464   3.293   0.589  0.00  0.00     0.161 HD
BRANCH  12  14
ATOM     14  C   UNL d   1       3.296   2.973  -0.396  0.00  0.00     0.151 C 
BRANCH  14  15
ATOM     15  C   UNL d   1       3.517   4.503  -0.292  0.00  0.00     0.290 C 
BRANCH  15  16
ATOM     16  N   UNL d   1       3.492   5.048   1.082  0.00  0.00     0.081 N 
ATOM     17  C   UNL d   1       4.571   4.489   1.897  0.00  0.00     0.309 C 
ATOM     18  C   UNL d   1       3.578   6.507   1.057  0.00  0.00     0.309 C 
ENDBRANCH  15  16
ENDBRANCH  14  15
ENDBRANCH  12  14
ENDBRANCH   6  12
BRANCH   2  19
ATOM     19  C   UNL d   1      -1.166   3.201   0.020  0.00  0.00    -0.024 A 
ATOM     20  C   UNL d   1      -0.392   4.020  -0.811  0.00  0.00     0.012 A 
ATOM     21  C   UNL d   1      -0.524   5.410  -0.768  0.00  0.00     0.001 A 
ATOM     22  C   UNL d   1      -1.479   5.994   0.060  0.00  0.00     0.000 A 
ATOM     23  C   UNL d   1      -2.302   5.189   0.844  0.00  0.00     0.001 A 
ATOM     24  C   UNL d   1      -2.140   3.801   0.833  0.00  0.00     0.012 A 
ENDBRANCH   2  19
TORSDOF 5
