REMARK  0 active torsions:
REMARK  status: ('A' for Active; 'I' for Inactive)
ROOT
ATOM      1  C   UNL d   1       0.013   0.825  -0.340  0.00  0.00     0.138 C 
ATOM      2  C   UNL d   1       0.286   3.712   0.312  0.00  0.00     0.138 C 
ATOM      3  C   UNL d   1      -0.052   1.805  -1.524  0.00  0.00     0.075 C 
ATOM      4  C   UNL d   1       0.144   3.337  -1.167  0.00  0.00     0.075 C 
ATOM      5  C   UNL d   1      -0.340   1.462   0.971  0.00  0.00     0.075 C 
ATOM      6  C   UNL d   1       0.686   2.584   1.212  0.00  0.00     0.075 C 
ATOM      7  C   UNL d   1       1.380   3.714  -2.022  0.00  0.00     0.020 C 
ATOM      8  C   UNL d   1       1.035   1.570  -2.598  0.00  0.00     0.020 C 
ATOM      9  C   UNL d   1      -0.373   0.751   2.328  0.00  0.00     0.020 C 
ATOM     10  C   UNL d   1       0.687   2.698   2.751  0.00  0.00     0.020 C 
ATOM     11  C   UNL d   1       2.594   2.922  -1.587  0.00  0.00    -0.025 C 
ATOM     12  C   UNL d   1       2.391   1.644  -1.940  0.00  0.00    -0.025 C 
ATOM     13  C   UNL d   1       1.003   0.420   2.866  0.00  0.00    -0.025 C 
ATOM     14  C   UNL d   1       1.615   1.575   3.181  0.00  0.00    -0.025 C 
ATOM     15  C   UNL d   1       1.062   2.934  -3.306  0.00  0.00     0.018 C 
ATOM     16  C   UNL d   1      -0.624   2.019   3.181  0.00  0.00     0.018 C 
ATOM     17  O   UNL d   1       0.150   4.864   0.710  0.00  0.00    -0.297 OA
ATOM     18  O   UNL d   1       0.200  -0.379  -0.477  0.00  0.00    -0.297 OA
ENDROOT
TORSDOF 0
