REMARK  4 active torsions:
REMARK  status: ('A' for Active; 'I' for Inactive)
REMARK       I    between atoms: N_2  and  C_1 
REMARK       I    between atoms: N_3  and  C_1 
REMARK    1  A    between atoms: C_11  and  N_3 
REMARK    2  A    between atoms: C_10  and  N_4 
REMARK    3  A    between atoms: C_12  and  C_10 
REMARK    4  A    between atoms: C_13  and  C_12 
ROOT
ATOM      1  C   UNL d   1       1.006   0.065   0.106  0.00  0.00     0.323 C 
ATOM      2  N   UNL d   1       0.428  -0.544   1.211  0.00  0.00    -0.331 N 
ATOM      3  N   UNL d   1       0.580  -0.391  -1.119  0.00  0.00    -0.309 N 
ATOM      4  N   UNL d   1      -0.181  -2.119   3.638  0.00  0.00     0.091 N 
ATOM      5  O   UNL d   1       1.851   0.948   0.253  0.00  0.00    -0.247 OA
ATOM      6  C   UNL d   1       0.815  -0.048   2.541  0.00  0.00     0.158 C 
ATOM      7  C   UNL d   1      -0.681  -1.508   1.226  0.00  0.00     0.158 C 
ATOM      8  C   UNL d   1      -0.447  -2.614   2.272  0.00  0.00     0.292 C 
ATOM      9  C   UNL d   1       0.973  -1.190   3.566  0.00  0.00     0.292 C 
ATOM     10  H   UNL d   1      -0.201  -1.017  -1.135  0.00  0.00     0.170 HD
ENDROOT
BRANCH   3  11
ATOM     11  C   UNL d   1       1.041   0.005  -2.393  0.00  0.00     0.036 A 
ATOM     12  C   UNL d   1       2.106   0.882  -2.606  0.00  0.00     0.029 A 
ATOM     13  C   UNL d   1       2.478   1.249  -3.901  0.00  0.00     0.002 A 
ATOM     14  C   UNL d   1       1.794   0.733  -4.999  0.00  0.00     0.000 A 
ATOM     15  C   UNL d   1       0.747  -0.161  -4.802  0.00  0.00     0.002 A 
ATOM     16  C   UNL d   1       0.374  -0.526  -3.506  0.00  0.00     0.029 A 
ENDBRANCH   3  11
BRANCH   4  17
ATOM     17  C   UNL d   1      -1.346  -1.461   4.266  0.00  0.00     0.277 C 
BRANCH  17  18
ATOM     18  C   UNL d   1      -2.546  -2.402   4.456  0.00  0.00     0.068 C 
BRANCH  18  19
ATOM     19  C   UNL d   1      -3.726  -1.706   5.087  0.00  0.00    -0.057 A 
ATOM     20  C   UNL d   1      -4.665  -1.038   4.286  0.00  0.00     0.007 A 
ATOM     21  C   UNL d   1      -5.775  -0.425   4.866  0.00  0.00     0.001 A 
ATOM     22  C   UNL d   1      -5.953  -0.466   6.247  0.00  0.00     0.000 A 
ATOM     23  C   UNL d   1      -5.013  -1.110   7.051  0.00  0.00     0.001 A 
ATOM     24  C   UNL d   1      -3.903  -1.725   6.475  0.00  0.00     0.007 A 
ENDBRANCH  18  19
ENDBRANCH  17  18
ENDBRANCH   4  17
TORSDOF 4
