REMARK  0 active torsions:
REMARK  status: ('A' for Active; 'I' for Inactive)
ROOT
ATOM      1  C   UNL d   1      -2.432  -0.554  -0.051  0.00  0.00     0.045 C 
ATOM      2  N   UNL d   1      -1.207  -1.416  -0.052  0.00  0.00    -0.261 NA
ATOM      3  N   UNL d   1      -1.852  -1.033  -3.119  0.00  0.00    -0.284 N 
ATOM      4  C   UNL d   1      -3.111  -1.087  -2.531  0.00  0.00     0.031 C 
ATOM      5  C   UNL d   1      -3.370  -0.876  -1.227  0.00  0.00     0.026 C 
ATOM      6  C   UNL d   1      -0.664  -1.413  -2.505  0.00  0.00     0.242 C 
ATOM      7  C   UNL d   1      -1.945   0.983   0.073  0.00  0.00     0.005 C 
ATOM      8  C   UNL d   1      -4.143  -1.309  -3.661  0.00  0.00     0.025 C 
ATOM      9  C   UNL d   1      -1.968  -0.819  -4.509  0.00  0.00     0.050 A 
ATOM     10  C   UNL d   1      -0.115  -0.547   0.217  0.00  0.00     0.019 A 
ATOM     11  C   UNL d   1      -0.888  -2.243  -1.228  0.00  0.00     0.200 C 
ATOM     12  C   UNL d   1      -3.304  -0.997  -4.888  0.00  0.00    -0.017 A 
ATOM     13  C   UNL d   1      -0.449   0.802   0.194  0.00  0.00    -0.026 A 
ATOM     14  O   UNL d   1       0.465  -1.244  -2.971  0.00  0.00    -0.271 OA
ATOM     15  C   UNL d   1      -3.214  -1.015   1.215  0.00  0.00     0.038 C 
ATOM     16  C   UNL d   1      -2.288   1.861  -1.143  0.00  0.00     0.022 C 
ATOM     17  C   UNL d   1      -2.440   1.724   1.334  0.00  0.00     0.022 C 
ATOM     18  C   UNL d   1      -5.373  -0.402  -3.580  0.00  0.00     0.027 C 
ATOM     19  C   UNL d   1      -4.548  -2.793  -3.672  0.00  0.00     0.027 C 
ATOM     20  C   UNL d   1      -0.991  -0.516  -5.441  0.00  0.00     0.031 A 
ATOM     21  C   UNL d   1       1.205  -0.947   0.368  0.00  0.00     0.024 A 
ATOM     22  C   UNL d   1      -3.676  -0.941  -6.223  0.00  0.00     0.011 A 
ATOM     23  C   UNL d   1       0.553   1.771   0.223  0.00  0.00     0.010 A 
ATOM     24  C   UNL d   1      -1.367  -0.414  -6.782  0.00  0.00     0.002 A 
ATOM     25  C   UNL d   1       1.887   1.368   0.303  0.00  0.00     0.001 A 
ATOM     26  C   UNL d   1       2.215   0.010   0.396  0.00  0.00     0.002 A 
ATOM     27  C   UNL d   1      -2.696  -0.645  -7.173  0.00  0.00     0.001 A 
ENDROOT
TORSDOF 0
