REMARK  1 active torsions:
REMARK  status: ('A' for Active; 'I' for Inactive)
REMARK    1  A    between atoms: S_12  and  C_7 
ROOT
ATOM      1  C   UNL d   1       0.251   0.742   0.005  0.00  0.00     0.100 A 
ATOM      2  N   UNL d   1      -2.108   0.755   0.014  0.00  0.00    -0.298 N 
ATOM      3  C   UNL d   1       0.242  -0.621   0.007  0.00  0.00     0.063 A 
ATOM      4  C   UNL d   1      -0.944   1.532   0.007  0.00  0.00     0.268 A 
ATOM      5  N   UNL d   1      -0.949  -1.358   0.009  0.00  0.00    -0.335 N 
ATOM      6  HN  UNL d   1      -0.962  -2.378   0.008  1.00  0.00     0.168 HD
ATOM      7  C   UNL d   1      -2.036  -0.645   0.013  0.00  0.00     0.149 A 
ATOM      8  S   UNL d   1       1.817   1.383   0.001  0.00  0.00    -0.094 SA
ATOM      9  C   UNL d   1       1.545  -1.195   0.006  0.00  0.00    -0.027 A 
ATOM     10  C   UNL d   1       2.502  -0.190   0.002  0.00  0.00     0.059 A 
ATOM     11  O   UNL d   1      -0.952   2.759   0.002  0.00  0.00    -0.266 OA
ATOM     12  C   UNL d   1      -3.372   1.484   0.022  0.00  0.00     0.161 C 
ATOM     13  C   UNL d   1       1.872  -2.649   0.007  0.00  0.00     0.051 C 
ENDROOT
BRANCH   7  14
ATOM     14  S   UNL d   1      -3.583  -1.500   0.015  0.00  0.00    -0.098 SA
ATOM     15  C   UNL d   1      -3.073  -3.229   0.004  0.00  0.00     0.099 C 
ENDBRANCH   7  14
TORSDOF 1
