REMARK  5 active torsions:
REMARK  status: ('A' for Active; 'I' for Inactive)
REMARK    1  A    between atoms: C_7  and  C_1 
REMARK    2  A    between atoms: C_10  and  C_5 
REMARK    3  A    between atoms: S_9  and  C_7 
REMARK    4  A    between atoms: C_8  and  C_11 
REMARK    5  A    between atoms: C_20  and  S_9 
ROOT
ATOM      1  C   UNL d   1      -0.205  -1.081   0.379  0.00  0.00     0.086 C 
ATOM      2  S   UNL d   1       1.226  -0.208   0.744  0.00  0.00    -0.065 SA
ATOM      3  N   UNL d   1      -0.803   1.165   0.042  0.00  0.00    -0.352 N 
ATOM      4  HN  UNL d   1      -1.420   1.952  -0.159  1.00  0.00     0.166 HD
ATOM      5  C   UNL d   1       0.490   1.268   0.280  0.00  0.00     0.085 C 
ATOM      6  C   UNL d   1      -1.214  -0.164   0.101  0.00  0.00     0.028 C 
ATOM      7  C   UNL d   1      -2.647  -0.458  -0.183  0.00  0.00     0.070 C 
ENDROOT
BRANCH   1   8
ATOM      8  C   UNL d   1      -0.291  -2.538   0.389  0.00  0.00     0.232 C 
ATOM      9  O   UNL d   1      -1.343  -3.147   0.218  0.00  0.00    -0.279 OA
BRANCH   8  10
ATOM     10  S   UNL d   1       1.253  -3.382   0.558  0.00  0.00    -0.047 SA
BRANCH  10  11
ATOM     11  C   UNL d   1       0.942  -5.082   0.963  0.00  0.00     0.008 A 
ATOM     12  C   UNL d   1      -0.249  -5.586   1.488  0.00  0.00     0.020 A 
ATOM     13  C   UNL d   1      -0.380  -6.947   1.788  0.00  0.00     0.020 A 
ATOM     14  C   UNL d   1       0.693  -7.811   1.589  0.00  0.00     0.011 A 
ATOM     15  C   UNL d   1       1.900  -7.325   1.101  0.00  0.00     0.020 A 
ATOM     16 BR   UNL d   1       0.510  -9.648   1.990  0.00  0.00    -0.051 Br
ATOM     17  C   UNL d   1       2.020  -5.968   0.789  0.00  0.00     0.020 A 
ENDBRANCH  10  11
ENDBRANCH   8  10
ENDBRANCH   1   8
BRANCH   5  18
ATOM     18  C   UNL d   1       1.278   2.512   0.166  0.00  0.00    -0.002 A 
ATOM     19  C   UNL d   1       2.685   2.525   0.203  0.00  0.00     0.015 A 
ATOM     20  C   UNL d   1       3.407   3.712   0.050  0.00  0.00     0.017 A 
ATOM     21  C   UNL d   1       2.743   4.927  -0.148  0.00  0.00     0.048 A 
ATOM     22  C   UNL d   1       1.342   4.928  -0.186  0.00  0.00     0.017 A 
ATOM     23  C   UNL d   1       0.622   3.735  -0.033  0.00  0.00     0.015 A 
BRANCH  21  24
ATOM     24  C   UNL d   1       3.515   6.211  -0.326  0.00  0.00     0.417 C 
ATOM     25  F   UNL d   1       4.866   6.047  -0.250  0.00  0.00    -0.166 F 
ATOM     26  F   UNL d   1       3.280   6.798  -1.532  0.00  0.00    -0.166 F 
ATOM     27  F   UNL d   1       3.200   7.144   0.614  0.00  0.00    -0.166 F 
ENDBRANCH  21  24
ENDBRANCH   5  18
TORSDOF 5
