REMARK  3 active torsions:
REMARK  status: ('A' for Active; 'I' for Inactive)
REMARK    1  A    between atoms: S_7  and  C_1 
REMARK    2  A    between atoms: C_8  and  S_7 
REMARK    3  A    between atoms: C_9  and  C_8 
ROOT
ATOM      1  C   UNL d   1      -2.317  -0.077   0.011  0.00  0.00     0.145 A 
ATOM      2  N   UNL d   1      -1.654  -1.076  -0.518  0.00  0.00    -0.335 N 
ATOM      3  HN  UNL d   1      -2.035  -1.907  -0.972  1.00  0.00     0.168 HD
ATOM      4  N   UNL d   1      -1.491   0.873   0.534  0.00  0.00    -0.335 N 
ATOM      5  C   UNL d   1      -0.327  -0.756  -0.327  0.00  0.00     0.061 A 
ATOM      6  C   UNL d   1      -0.197   0.457   0.347  0.00  0.00     0.061 A 
ATOM      7  C   UNL d   1       0.831  -1.455  -0.699  0.00  0.00     0.032 A 
ATOM      8  C   UNL d   1       1.037   1.014   0.694  0.00  0.00     0.032 A 
ATOM      9  C   UNL d   1       2.083  -0.916  -0.365  0.00  0.00     0.002 A 
ATOM     10  C   UNL d   1       2.179   0.295   0.323  0.00  0.00     0.002 A 
ATOM     11  H   UNL d   1      -1.794   1.724   0.983  0.00  0.00     0.168 HD
ENDROOT
BRANCH   1  12
ATOM     12  S   UNL d   1      -4.027   0.140   0.087  0.00  0.00    -0.089 SA
BRANCH  12  13
ATOM     13  C   UNL d   1      -4.589  -1.584  -0.027  0.00  0.00     0.121 C 
BRANCH  13  14
ATOM     14  C   UNL d   1      -6.097  -1.691  -0.074  0.00  0.00    -0.049 A 
ATOM     15  C   UNL d   1      -6.768  -1.728  -1.306  0.00  0.00     0.008 A 
ATOM     16  C   UNL d   1      -8.160  -1.853  -1.355  0.00  0.00     0.001 A 
ATOM     17  C   UNL d   1      -8.896  -1.935  -0.176  0.00  0.00     0.000 A 
ATOM     18  C   UNL d   1      -8.244  -1.884   1.055  0.00  0.00     0.001 A 
ATOM     19  C   UNL d   1      -6.853  -1.760   1.107  0.00  0.00     0.008 A 
ENDBRANCH  13  14
ENDBRANCH  12  13
ENDBRANCH   1  12
TORSDOF 3
