REMARK  2 active torsions:
REMARK  status: ('A' for Active; 'I' for Inactive)
REMARK    1  A    between atoms: C_10  and  N_1 
REMARK    2  A    between atoms: C_2  and  C_11 
ROOT
ATOM      1  C   UNL d   1       1.301   2.241  -1.077  0.00  0.00     0.046 A 
ATOM      2  C   UNL d   1       2.291   2.904  -3.245  0.00  0.00    -0.004 A 
ATOM      3  C   UNL d   1       1.776   1.932  -2.368  0.00  0.00     0.044 A 
ATOM      4  C   UNL d   1       1.382   3.579  -0.677  0.00  0.00     0.030 A 
ATOM      5  C   UNL d   1       2.324   4.231  -2.820  0.00  0.00     0.014 A 
ATOM      6  C   UNL d   1       1.876   4.565  -1.542  0.00  0.00     0.003 A 
ENDROOT
BRANCH   1   7
ATOM      7  N   UNL d   1       0.893   1.163  -0.209  0.00  0.00    -0.252 N 
ATOM      8  C   UNL d   1       0.682   1.341   1.153  0.00  0.00     0.232 C 
ATOM      9  C   UNL d   1       0.987   0.112   1.992  0.00  0.00     0.113 C 
ATOM     10  O   UNL d   1       0.331   2.377   1.718  0.00  0.00    -0.273 OA
ATOM     11  C   UNL d   1       0.396  -1.181   1.431  0.00  0.00    -0.031 C 
ATOM     12  C   UNL d   1       0.721  -1.269  -0.056  0.00  0.00     0.113 C 
ATOM     13  C   UNL d   1       1.042  -2.383   2.144  0.00  0.00     0.016 C 
ATOM     14  C   UNL d   1      -1.125  -1.228   1.658  0.00  0.00     0.016 C 
ATOM     15  C   UNL d   1       0.381   0.004  -0.793  0.00  0.00     0.232 C 
ATOM     16  O   UNL d   1      -0.292  -0.048  -1.820  0.00  0.00    -0.273 OA
ENDBRANCH   1   7
BRANCH   2  17
ATOM     17  C   UNL d   1       2.726   2.491  -4.583  0.00  0.00     0.077 A 
ATOM     18  C   UNL d   1       3.778   2.953  -5.417  0.00  0.00     0.057 A 
ATOM     19  C   UNL d   1       3.707   2.222  -6.577  0.00  0.00     0.131 A 
ATOM     20 BR   UNL d   1       5.068   4.260  -5.047  0.00  0.00    -0.047 Br
ATOM     21  N   UNL d   1       2.667   1.365  -6.394  0.00  0.00    -0.306 N 
ATOM     22  N   UNL d   1       2.075   1.486  -5.200  0.00  0.00    -0.297 N 
ATOM     23  C   UNL d   1       2.175   0.389  -7.336  0.00  0.00     0.177 C 
ATOM     24  HN  UNL d   1       1.298   0.935  -4.835  1.00  0.00     0.187 HD
ENDBRANCH   2  17
TORSDOF 2
