REMARK  4 active torsions:
REMARK  status: ('A' for Active; 'I' for Inactive)
REMARK    1  A    between atoms: C_8  and  C_3 
REMARK    2  A    between atoms: C_12  and  C_4 
REMARK    3  A    between atoms: C_17  and  C_11 
REMARK    4  A    between atoms: C_20  and  C_17 
ROOT
ATOM      1  N   UNL d   1       0.351   0.664   0.006  0.00  0.00    -0.202 N 
ATOM      2  C   UNL d   1       0.322  -0.715   0.026  0.00  0.00     0.144 A 
ATOM      3  C   UNL d   1       2.408   0.058  -0.025  0.00  0.00     0.147 A 
ATOM      4  C   UNL d   1       1.633  -1.154   0.023  0.00  0.00     0.053 A 
ATOM      5  N   UNL d   1       1.613   1.151  -0.017  0.00  0.00    -0.284 N 
ATOM      6  HN  UNL d   1       1.901   2.129  -0.027  1.00  0.00     0.187 HD
ATOM      7  C   UNL d   1      -0.788   1.487   0.013  0.00  0.00     0.270 A 
ATOM      8  N   UNL d   1      -0.892  -1.323   0.055  0.00  0.00    -0.344 N 
ATOM      9  C   UNL d   1      -2.076   0.746   0.020  0.00  0.00     0.101 A 
ATOM     10  C   UNL d   1      -2.077  -0.600   0.040  0.00  0.00     0.016 A 
ATOM     11  O   UNL d   1      -0.714   2.711   0.006  0.00  0.00    -0.266 OA
ATOM     12  H   UNL d   1      -0.978  -2.334   0.128  0.00  0.00     0.167 HD
ENDROOT
BRANCH   4  13
ATOM     13  C   UNL d   1       2.025  -2.560   0.071  0.00  0.00    -0.020 A 
ATOM     14  C   UNL d   1       1.331  -3.531  -0.668  0.00  0.00     0.012 A 
ATOM     15  C   UNL d   1       1.684  -4.882  -0.590  0.00  0.00     0.001 A 
ATOM     16  C   UNL d   1       2.767  -5.274   0.192  0.00  0.00     0.000 A 
ATOM     17  C   UNL d   1       3.481  -4.321   0.911  0.00  0.00     0.001 A 
ATOM     18  C   UNL d   1       3.098  -2.977   0.870  0.00  0.00     0.012 A 
ENDBRANCH   4  13
BRANCH   3  19
ATOM     19  C   UNL d   1       3.908   0.229  -0.087  0.00  0.00     0.434 C 
ATOM     20  F   UNL d   1       4.585  -0.936  -0.266  0.00  0.00    -0.165 F 
ATOM     21  F   UNL d   1       4.293   1.038  -1.112  0.00  0.00    -0.165 F 
ATOM     22  F   UNL d   1       4.402   0.780   1.055  0.00  0.00    -0.165 F 
ENDBRANCH   3  19
BRANCH  10  23
ATOM     23  C   UNL d   1      -3.376  -1.380   0.024  0.00  0.00     0.057 C 
BRANCH  23  24
ATOM     24  C   UNL d   1      -3.572  -2.316   1.222  0.00  0.00     0.002 C 
ATOM     25  C   UNL d   1      -3.592  -1.589   2.558  0.00  0.00     0.005 C 
ENDBRANCH  23  24
ENDBRANCH  10  23
TORSDOF 4
