REMARK  3 active torsions:
REMARK  status: ('A' for Active; 'I' for Inactive)
REMARK    1  A    between atoms: N_10  and  C_3 
REMARK    2  A    between atoms: S_8  and  C_4 
REMARK    3  A    between atoms: C_11  and  S_8 
ROOT
ATOM      1  N   UNL d   1      -0.048  -1.010  -0.274  0.00  0.00    -0.336 N 
ATOM      2  HN  UNL d   1      -0.041  -2.026  -0.369  1.00  0.00     0.168 HD
ATOM      3  C   UNL d   1       1.091  -0.316  -0.209  0.00  0.00     0.154 A 
ATOM      4  C   UNL d   1      -1.257   1.061  -0.063  0.00  0.00     0.043 A 
ATOM      5  N   UNL d   1       1.164   1.005  -0.056  0.00  0.00    -0.342 N 
ATOM      6  HN  UNL d   1       2.058   1.492   0.010  1.00  0.00     0.167 HD
ATOM      7  C   UNL d   1      -1.215  -0.319  -0.210  0.00  0.00     0.026 A 
ATOM      8  C   UNL d   1      -0.015   1.664   0.008  0.00  0.00     0.111 A 
ATOM      9  C   UNL d   1      -2.450  -1.172  -0.258  0.00  0.00     0.070 C 
ENDROOT
BRANCH   4  10
ATOM     10  S   UNL d   1      -2.736   2.027   0.094  0.00  0.00    -0.087 SA
BRANCH  10  11
ATOM     11  C   UNL d   1      -2.968   2.696  -1.547  0.00  0.00     0.005 A 
ATOM     12  C   UNL d   1      -2.745   1.949  -2.709  0.00  0.00     0.019 A 
ATOM     13  C   UNL d   1      -2.994   2.500  -3.968  0.00  0.00     0.001 A 
ATOM     14  C   UNL d   1      -3.478   3.801  -4.080  0.00  0.00     0.000 A 
ATOM     15  C   UNL d   1      -3.710   4.554  -2.931  0.00  0.00     0.001 A 
ATOM     16  C   UNL d   1      -3.459   4.003  -1.671  0.00  0.00     0.019 A 
ENDBRANCH  10  11
ENDBRANCH   4  10
BRANCH   3  17
ATOM     17  N   UNL d   1       2.271  -1.029  -0.239  0.00  0.00    -0.274 NA
ATOM     18  H   UNL d   1       2.101  -1.973   0.074  0.00  0.00     0.127 HD
ATOM     19  H   UNL d   1       2.993  -0.505   0.238  0.00  0.00     0.127 HD
ENDBRANCH   3  17
TORSDOF 3
