REMARK  3 active torsions:
REMARK  status: ('A' for Active; 'I' for Inactive)
REMARK    1  A    between atoms: C_2  and  C_1 
REMARK    2  A    between atoms: S_3  and  C_7 
REMARK    3  A    between atoms: C_8  and  S_3 
ROOT
ATOM      1  C   UNL d   1       0.211  -0.511   1.198  0.00  0.00     0.009 A 
ATOM      2  C   UNL d   1       0.702  -0.287   2.490  0.00  0.00     0.016 A 
ATOM      3  C   UNL d   1      -0.988  -1.212   1.025  0.00  0.00     0.016 A 
ATOM      4  C   UNL d   1      -1.221  -1.426   3.434  0.00  0.00     0.005 A 
ATOM      5  C   UNL d   1      -0.020  -0.728   3.602  0.00  0.00     0.020 A 
ATOM      6  C   UNL d   1      -1.700  -1.665   2.142  0.00  0.00     0.020 A 
ENDROOT
BRANCH   4   7
ATOM      7  S   UNL d   1      -2.167  -1.931   4.853  0.00  0.00    -0.091 SA
BRANCH   7   8
ATOM      8  C   UNL d   1      -1.645  -3.614   5.148  0.00  0.00     0.005 A 
ATOM      9  C   UNL d   1      -0.340  -4.066   4.920  0.00  0.00     0.019 A 
ATOM     10  C   UNL d   1       0.025  -5.377   5.241  0.00  0.00     0.001 A 
ATOM     11  C   UNL d   1      -0.909  -6.247   5.799  0.00  0.00     0.000 A 
ATOM     12  C   UNL d   1      -2.210  -5.811   6.029  0.00  0.00     0.001 A 
ATOM     13  C   UNL d   1      -2.575  -4.501   5.706  0.00  0.00     0.019 A 
ENDBRANCH   7   8
ENDBRANCH   4   7
BRANCH   1  14
ATOM     14  C   UNL d   1       0.992   0.012   0.045  0.00  0.00     0.155 C 
ATOM     15  O   UNL d   1       2.205   0.169   0.155  0.00  0.00    -0.293 OA
ATOM     16  C   UNL d   1       0.271   0.350  -1.234  0.00  0.00     0.096 C 
ENDBRANCH   1  14
TORSDOF 3
