REMARK  4 active torsions:
REMARK  status: ('A' for Active; 'I' for Inactive)
REMARK    1  A    between atoms: C_7  and  C_1 
REMARK    2  A    between atoms: N_9  and  C_2 
REMARK    3  A    between atoms: O_10  and  C_7 
REMARK    4  A    between atoms: C_12  and  O_10 
ROOT
ATOM      1  C   UNL d   1      -0.208  -1.257   0.001  0.00  0.00     0.096 A 
ATOM      2  C   UNL d   1       1.079  -0.737   0.017  0.00  0.00     0.102 A 
ATOM      3  N   UNL d   1      -0.664   1.062   0.080  0.00  0.00    -0.328 N 
ATOM      4  HN  UNL d   1      -1.209   1.923   0.112  1.00  0.00     0.174 HD
ATOM      5  S   UNL d   1       0.981   0.972   0.070  0.00  0.00     0.004 SA
ATOM      6  C   UNL d   1      -1.171  -0.172   0.039  0.00  0.00     0.031 A 
ATOM      7  C   UNL d   1      -2.659  -0.288   0.023  0.00  0.00     0.070 C 
ENDROOT
BRANCH   1   8
ATOM      8  C   UNL d   1      -0.482  -2.688  -0.094  0.00  0.00     0.298 C 
ATOM      9  O   UNL d   1       0.389  -3.544  -0.194  0.00  0.00    -0.259 OA
BRANCH   8  10
ATOM     10  O   UNL d   1      -1.819  -2.959  -0.139  0.00  0.00    -0.318 OA
BRANCH  10  11
ATOM     11  C   UNL d   1      -2.185  -4.235  -0.678  0.00  0.00     0.174 C 
ATOM     12  C   UNL d   1      -2.298  -4.088  -2.185  0.00  0.00     0.034 C 
ENDBRANCH  10  11
ENDBRANCH   8  10
ENDBRANCH   1   8
BRANCH   2  13
ATOM     13  N   UNL d   1       2.260  -1.390  -0.014  0.00  0.00    -0.392 N 
ATOM     14  H   UNL d   1       2.299  -2.410  -0.007  0.00  0.00     0.156 HD
ATOM     15  H   UNL d   1       3.149  -0.908   0.053  0.00  0.00     0.156 HD
ENDBRANCH   2  13
TORSDOF 4
