REMARK  6 active torsions:
REMARK  status: ('A' for Active; 'I' for Inactive)
REMARK    1  A    between atoms: N_2  and  C_1 
REMARK    2  A    between atoms: C_7  and  C_12 
REMARK       I    between atoms: N_9  and  C_7 
REMARK    3  A    between atoms: C_12  and  N_8 
REMARK    4  A    between atoms: C_19  and  N_9 
REMARK    5  A    between atoms: C_20  and  C_14 
REMARK    6  A    between atoms: C_23  and  C_20 
ROOT
ATOM      1  N   UNL d   1       0.524   2.548  -0.142  0.00  0.00    -0.214 N 
ATOM      2  N   UNL d   1       0.880   5.494   0.032  0.00  0.00     0.100 N 
ATOM      3  C   UNL d   1      -0.091   3.281   0.963  0.00  0.00     0.171 C 
ATOM      4  C   UNL d   1       1.780   3.127  -0.620  0.00  0.00     0.171 C 
ATOM      5  C   UNL d   1       1.577   4.630  -0.964  0.00  0.00     0.293 C 
ATOM      6  C   UNL d   1      -0.315   4.757   0.540  0.00  0.00     0.293 C 
ENDROOT
BRANCH   1   7
ATOM      7  C   UNL d   1       0.442   1.164  -0.076  0.00  0.00     0.679 A 
ATOM      8  N   UNL d   1      -0.575   0.615   0.610  0.00  0.00    -0.201 N 
ATOM      9  C   UNL d   1      -0.690  -0.728   0.616  0.00  0.00     0.114 A 
ATOM     10  HN  UNL d   1      -1.243   1.199   1.113  1.00  0.00     0.183 HD
ATOM     11  C   UNL d   1       0.180  -1.576  -0.026  0.00  0.00    -0.026 A 
ATOM     12  C   UNL d   1       1.183  -0.928  -0.708  0.00  0.00     0.114 A 
ATOM     13  N   UNL d   1       1.333   0.414  -0.747  0.00  0.00    -0.201 N 
ATOM     14  HN  UNL d   1       2.097   0.844  -1.267  1.00  0.00     0.183 HD
BRANCH  11  15
ATOM     15  C   UNL d   1       0.028  -3.067   0.012  0.00  0.00     0.041 C 
BRANCH  15  16
ATOM     16  C   UNL d   1       1.220  -3.759   0.679  0.00  0.00     0.000 C 
ATOM     17  C   UNL d   1       1.028  -5.266   0.750  0.00  0.00     0.005 C 
ENDBRANCH  15  16
ENDBRANCH  11  15
ENDBRANCH   1   7
BRANCH   2  18
ATOM     18  C   UNL d   1       1.739   5.868   1.175  0.00  0.00     0.375 C 
BRANCH  18  19
ATOM     19  C   UNL d   1       2.928   6.766   0.818  0.00  0.00     0.250 C 
ATOM     20  N   UNL d   1       2.703   7.689  -0.190  0.00  0.00    -0.326 N 
ATOM     21  H   UNL d   1       1.792   7.624  -0.639  0.00  0.00     0.169 HD
ATOM     22  O   UNL d   1       3.953   6.676   1.497  0.00  0.00    -0.271 OA
BRANCH  20  23
ATOM     23  C   UNL d   1       3.580   8.724  -0.603  0.00  0.00     0.034 A 
ATOM     24  C   UNL d   1       4.872   8.884  -0.087  0.00  0.00     0.029 A 
ATOM     25  C   UNL d   1       5.677   9.964  -0.469  0.00  0.00     0.002 A 
ATOM     26  C   UNL d   1       5.202  10.896  -1.381  0.00  0.00     0.000 A 
ATOM     27  C   UNL d   1       3.933  10.737  -1.930  0.00  0.00     0.002 A 
ATOM     28  C   UNL d   1       3.126   9.649  -1.546  0.00  0.00     0.029 A 
ENDBRANCH  20  23
ENDBRANCH  18  19
ENDBRANCH   2  18
TORSDOF 6
