REMARK  2 active torsions:
REMARK  status: ('A' for Active; 'I' for Inactive)
REMARK    1  A    between atoms: S_5  and  C_1 
REMARK    2  A    between atoms: C_7  and  C_3 
REMARK       I    between atoms: N_13  and  C_7 
ROOT
ATOM      1  C   UNL d   1      -1.188   1.533   0.007  0.00  0.00     0.111 A 
ATOM      2  S   UNL d   1      -2.634   0.609  -0.006  0.00  0.00    -0.071 SA
ATOM      3  C   UNL d   1      -1.803  -0.888   0.015  0.00  0.00     0.081 A 
ATOM      4  C   UNL d   1      -0.085   0.701   0.020  0.00  0.00    -0.000 A 
ATOM      5  C   UNL d   1      -0.429  -0.694   0.021  0.00  0.00    -0.023 A 
ATOM      6  C   UNL d   1       1.284   1.106   0.021  0.00  0.00     0.010 A 
ATOM      7  C   UNL d   1       2.283   0.209   0.006  0.00  0.00    -0.025 A 
ATOM      8  C   UNL d   1       0.614  -1.781   0.029  0.00  0.00     0.045 A 
ATOM      9  C   UNL d   1       2.071  -1.281  -0.020  0.00  0.00     0.032 A 
ENDROOT
BRANCH   3  10
ATOM     10  C   UNL d   1      -2.527  -2.155   0.021  0.00  0.00     0.256 C 
ATOM     11  O   UNL d   1      -1.994  -3.261   0.027  0.00  0.00    -0.267 OA
ATOM     12  N   UNL d   1      -3.893  -2.088   0.026  0.00  0.00    -0.365 N 
ATOM     13  H   UNL d   1      -4.387  -1.209  -0.024  0.00  0.00     0.159 HD
ATOM     14  H   UNL d   1      -4.408  -2.957  -0.002  0.00  0.00     0.159 HD
ENDBRANCH   3  10
BRANCH   1  15
ATOM     15  S   UNL d   1      -1.440   3.297  -0.029  0.00  0.00     0.179 S 
ATOM     16  O   UNL d   1      -0.130   3.900   0.112  0.00  0.00    -0.222 OA
ATOM     17  O   UNL d   1      -2.274   3.555  -1.185  0.00  0.00    -0.222 OA
ATOM     18  C   UNL d   1      -2.367   3.658   1.441  0.00  0.00     0.167 C 
ENDBRANCH   1  15
TORSDOF 2
