REMARK  2 active torsions:
REMARK  status: ('A' for Active; 'I' for Inactive)
REMARK       I    between atoms: N_2  and  C_1 
REMARK    1  A    between atoms: C_8  and  C_1 
REMARK       I    between atoms: C_4  and  N_2 
REMARK    2  A    between atoms: C_3  and  N_5 
REMARK       I    between atoms: N_5  and  C_4 
ROOT
ATOM      1  C   UNL d   1       0.593  -0.617   0.003  0.00  0.00     0.260 C 
ATOM      2  N   UNL d   1      -0.115  -0.306   1.145  0.00  0.00    -0.275 N 
ATOM      3  C   UNL d   1       0.273  -0.482   2.452  0.00  0.00     0.327 C 
ATOM      4  N   UNL d   1       1.283  -1.382   2.663  0.00  0.00    -0.303 N 
ATOM      5  O   UNL d   1       1.611  -1.302  -0.013  0.00  0.00    -0.267 OA
ATOM      6  O   UNL d   1      -0.283   0.186   3.320  0.00  0.00    -0.247 OA
ATOM      7  H   UNL d   1      -0.907   0.315   1.067  0.00  0.00     0.173 HD
ATOM      8  H   UNL d   1       1.947  -1.498   1.895  0.00  0.00     0.171 HD
ENDROOT
BRANCH   4   9
ATOM      9  C   UNL d   1       1.602  -1.968   3.911  0.00  0.00     0.114 A 
ATOM     10  C   UNL d   1       0.662  -2.168   4.928  0.00  0.00     0.149 A 
ATOM     11  C   UNL d   1       1.008  -2.793   6.125  0.00  0.00     0.087 A 
ATOM     12  F   UNL d   1      -0.633  -1.867   4.751  0.00  0.00    -0.203 F 
ATOM     13  C   UNL d   1       2.312  -3.231   6.306  0.00  0.00     0.122 A 
ATOM     14  C   UNL d   1       3.267  -3.066   5.315  0.00  0.00     0.087 A 
ATOM     15  F   UNL d   1       2.644  -3.849   7.448  0.00  0.00    -0.206 F 
ATOM     16  C   UNL d   1       2.901  -2.445   4.120  0.00  0.00     0.149 A 
ATOM     17  F   UNL d   1       3.833  -2.290   3.168  0.00  0.00    -0.203 F 
ENDBRANCH   4   9
BRANCH   1  18
ATOM     18  C   UNL d   1       0.010  -0.107  -1.271  0.00  0.00     0.044 A 
ATOM     19  C   UNL d   1      -0.160   1.278  -1.502  0.00  0.00    -0.046 A 
ATOM     20  C   UNL d   1      -0.587   1.701  -2.775  0.00  0.00     0.008 A 
ATOM     21  C   UNL d   1       0.146   2.370  -0.512  0.00  0.00     0.049 C 
ATOM     22  C   UNL d   1      -0.839   0.786  -3.793  0.00  0.00     0.001 A 
ATOM     23  C   UNL d   1      -0.706  -0.575  -3.548  0.00  0.00     0.008 A 
ATOM     24  C   UNL d   1      -0.307  -1.042  -2.285  0.00  0.00    -0.046 A 
ATOM     25  C   UNL d   1      -0.203  -2.533  -2.095  0.00  0.00     0.049 C 
ENDBRANCH   1  18
TORSDOF 2
