REMARK  9 active torsions:
REMARK  status: ('A' for Active; 'I' for Inactive)
REMARK    1  A    between atoms: N_6  and  S_1 
REMARK    2  A    between atoms: C_10  and  S_1 
REMARK    3  A    between atoms: S_2  and  N_7 
REMARK    4  A    between atoms: C_9  and  S_2 
REMARK    5  A    between atoms: C_3  and  C_8 
REMARK    6  A    between atoms: C_4  and  C_14 
REMARK    7  A    between atoms: C_5  and  C_13 
REMARK    8  A    between atoms: C_12  and  N_6 
REMARK    9  A    between atoms: N_7  and  C_11 
ROOT
ATOM      1  C   UNL d   1       2.404  -0.862   4.021  0.00  0.00     0.051 A 
ATOM      2  C   UNL d   1       0.022  -0.824   4.478  0.00  0.00     0.045 A 
ATOM      3  C   UNL d   1       0.867   0.194   2.465  0.00  0.00     0.025 A 
ATOM      4  C   UNL d   1       1.320  -1.163   4.862  0.00  0.00     0.046 A 
ATOM      5  C   UNL d   1       2.166  -0.159   2.827  0.00  0.00     0.040 A 
ATOM      6  C   UNL d   1      -0.211  -0.183   3.264  0.00  0.00     0.054 A 
ENDROOT
BRANCH   2   7
ATOM      7  N   UNL d   1      -1.074  -1.185   5.295  0.00  0.00    -0.281 N 
ATOM      8  H   UNL d   1      -1.591  -2.047   5.128  0.00  0.00     0.179 HD
BRANCH   7   9
ATOM      9  S   UNL d   1      -1.643  -0.161   6.493  0.00  0.00     0.263 S 
ATOM     10  O   UNL d   1      -2.782  -0.825   7.088  0.00  0.00    -0.200 OA
ATOM     11  O   UNL d   1      -0.522   0.284   7.295  0.00  0.00    -0.200 OA
BRANCH   9  12
ATOM     12  C   UNL d   1      -2.253   1.238   5.579  0.00  0.00     0.080 A 
ATOM     13  C   UNL d   1      -1.413   2.342   5.365  0.00  0.00     0.041 A 
ATOM     14  C   UNL d   1      -1.882   3.454   4.648  0.00  0.00     0.049 A 
ATOM     15  C   UNL d   1      -3.199   3.441   4.158  0.00  0.00     0.016 A 
ATOM     16  C   UNL d   1      -4.042   2.353   4.403  0.00  0.00     0.002 A 
ATOM     17  C   UNL d   1      -3.573   1.252   5.122  0.00  0.00     0.025 A 
BRANCH  14  18
ATOM     18  C   UNL d   1      -0.996   4.652   4.400  0.00  0.00     0.417 C 
ATOM     19  F   UNL d   1       0.234   4.545   4.973  0.00  0.00    -0.166 F 
ATOM     20  F   UNL d   1      -0.771   4.852   3.071  0.00  0.00    -0.166 F 
ATOM     21  F   UNL d   1      -1.534   5.809   4.870  0.00  0.00    -0.166 F 
ENDBRANCH  14  18
ENDBRANCH   9  12
ENDBRANCH   7   9
ENDBRANCH   2   7
BRANCH   3  22
ATOM     22  N   UNL d   1       0.634   0.854   1.217  0.00  0.00    -0.181 NA
ATOM     23  H   UNL d   1      -0.165   1.489   1.249  0.00  0.00     0.146 HD
BRANCH  22  24
ATOM     24  S   UNL d   1       0.461  -0.213  -0.101  0.00  0.00     0.245 S 
ATOM     25  O   UNL d   1      -0.751  -0.976   0.120  0.00  0.00    -0.206 OA
ATOM     26  O   UNL d   1       1.732  -0.853  -0.359  0.00  0.00    -0.206 OA
BRANCH  24  27
ATOM     27  C   UNL d   1       0.131   0.929  -1.425  0.00  0.00     0.075 A 
ATOM     28  C   UNL d   1      -1.194   1.274  -1.722  0.00  0.00     0.041 A 
ATOM     29  C   UNL d   1      -1.474   2.117  -2.809  0.00  0.00     0.049 A 
ATOM     30  C   UNL d   1      -0.406   2.599  -3.586  0.00  0.00     0.016 A 
ATOM     31  C   UNL d   1       0.913   2.247  -3.285  0.00  0.00     0.002 A 
ATOM     32  C   UNL d   1       1.185   1.408  -2.205  0.00  0.00     0.025 A 
BRANCH  29  33
ATOM     33  C   UNL d   1      -2.894   2.493  -3.163  0.00  0.00     0.417 C 
ATOM     34  F   UNL d   1      -3.819   1.958  -2.318  0.00  0.00    -0.166 F 
ATOM     35  F   UNL d   1      -3.097   3.839  -3.130  0.00  0.00    -0.166 F 
ATOM     36  F   UNL d   1      -3.247   2.088  -4.412  0.00  0.00    -0.166 F 
ENDBRANCH  29  33
ENDBRANCH  24  27
ENDBRANCH  22  24
ENDBRANCH   3  22
BRANCH   1  37
ATOM     37  C   UNL d   1       3.807  -1.310   4.352  0.00  0.00     0.417 C 
ATOM     38  F   UNL d   1       3.888  -2.046   5.495  0.00  0.00    -0.166 F 
ATOM     39  F   UNL d   1       4.342  -2.089   3.372  0.00  0.00    -0.166 F 
ATOM     40  F   UNL d   1       4.665  -0.267   4.513  0.00  0.00    -0.166 F 
ENDBRANCH   1  37
TORSDOF 9
