REMARK  5 active torsions:
REMARK  status: ('A' for Active; 'I' for Inactive)
REMARK    1  A    between atoms: N_2  and  S_1 
REMARK    2  A    between atoms: C_4  and  S_1 
REMARK    3  A    between atoms: C_3  and  C_6 
REMARK       I    between atoms: C_5  and  N_7 
REMARK    4  A    between atoms: C_14  and  C_5 
REMARK    5  A    between atoms: N_7  and  C_18 
ROOT
ATOM      1  N   UNL d   1       0.527   1.583   0.101  0.00  0.00    -0.307 N 
ATOM      2  C   UNL d   1      -0.822   1.883  -0.438  0.00  0.00     0.137 C 
ATOM      3  C   UNL d   1       1.561   2.622  -0.094  0.00  0.00     0.137 C 
ATOM      4  C   UNL d   1      -0.219   4.360  -0.408  0.00  0.00     0.087 C 
ATOM      5  C   UNL d   1       1.048   3.979   0.360  0.00  0.00     0.045 C 
ATOM      6  C   UNL d   1      -1.286   3.303  -0.115  0.00  0.00     0.045 C 
ENDROOT
BRANCH   1   7
ATOM      7  S   UNL d   1       1.073  -0.026  -0.155  0.00  0.00     0.260 S 
ATOM      8  O   UNL d   1       2.516  -0.036  -0.258  0.00  0.00    -0.200 OA
ATOM      9  O   UNL d   1       0.230  -0.642  -1.153  0.00  0.00    -0.200 OA
BRANCH   7  10
ATOM     10  C   UNL d   1       0.678  -0.735   1.426  0.00  0.00     0.080 A 
ATOM     11  C   UNL d   1       1.344  -0.248   2.558  0.00  0.00     0.041 A 
ATOM     12  C   UNL d   1       1.019  -0.744   3.827  0.00  0.00     0.049 A 
ATOM     13  C   UNL d   1       0.018  -1.724   3.933  0.00  0.00     0.016 A 
ATOM     14  C   UNL d   1      -0.619  -2.225   2.793  0.00  0.00     0.002 A 
ATOM     15  C   UNL d   1      -0.284  -1.737   1.531  0.00  0.00     0.025 A 
BRANCH  12  16
ATOM     16  C   UNL d   1       1.719  -0.234   5.063  0.00  0.00     0.417 C 
ATOM     17  F   UNL d   1       2.738   0.629   4.794  0.00  0.00    -0.166 F 
ATOM     18  F   UNL d   1       0.876   0.434   5.898  0.00  0.00    -0.166 F 
ATOM     19  F   UNL d   1       2.264  -1.238   5.804  0.00  0.00    -0.166 F 
ENDBRANCH  12  16
ENDBRANCH   7  10
ENDBRANCH   1   7
BRANCH   4  20
ATOM     20  N   UNL d   1       0.029   4.513  -1.842  0.00  0.00    -0.356 N 
ATOM     21  C   UNL d   1       0.874   5.485  -2.342  0.00  0.00     0.222 C 
ATOM     22  O   UNL d   1       1.359   6.359  -1.632  0.00  0.00    -0.273 OA
ATOM     23  H   UNL d   1      -0.442   3.901  -2.495  0.00  0.00     0.162 HD
BRANCH  21  24
ATOM     24  C   UNL d   1       1.140   5.378  -3.850  0.00  0.00     0.078 C 
ATOM     25  C   UNL d   1       1.692   4.002  -4.257  0.00  0.00     0.014 C 
ATOM     26  C   UNL d   1       3.131   3.790  -3.789  0.00  0.00     0.001 C 
ATOM     27  C   UNL d   1       4.055   4.890  -4.297  0.00  0.00     0.000 C 
ATOM     28  C   UNL d   1       3.540   6.279  -3.935  0.00  0.00     0.001 C 
ATOM     29  C   UNL d   1       2.081   6.488  -4.350  0.00  0.00     0.014 C 
ENDBRANCH  21  24
ENDBRANCH   4  20
TORSDOF 5
