REMARK  6 active torsions:
REMARK  status: ('A' for Active; 'I' for Inactive)
REMARK    1  A    between atoms: N_3  and  S_1 
REMARK    2  A    between atoms: C_6  and  S_1 
REMARK    3  A    between atoms: C_7  and  N_3 
REMARK    4  A    between atoms: C_4  and  O_14 
REMARK    5  A    between atoms: C_15  and  C_9 
REMARK    6  A    between atoms: O_14  and  C_21 
ROOT
ATOM      1  C   UNL d   1       4.040   2.090  -7.041  0.00  0.00     0.100 A 
ATOM      2  C   UNL d   1       3.322   2.271  -5.847  0.00  0.00     0.098 A 
ATOM      3  C   UNL d   1       3.656   1.061  -7.966  0.00  0.00     0.104 C 
ATOM      4  N   UNL d   1       3.340   0.241  -8.724  0.00  0.00    -0.191 NA
ATOM      5  C   UNL d   1       5.125   2.935  -7.315  0.00  0.00     0.057 A 
ATOM      6 CL   UNL d   1       6.079   2.780  -8.750  0.00  0.00    -0.083 Cl
ATOM      7  C   UNL d   1       3.639   3.340  -4.994  0.00  0.00     0.039 A 
ATOM      8  C   UNL d   1       4.730   4.160  -5.265  0.00  0.00     0.005 A 
ATOM      9  C   UNL d   1       5.478   3.952  -6.420  0.00  0.00     0.025 A 
ENDROOT
BRANCH   2  10
ATOM     10  O   UNL d   1       2.274   1.411  -5.573  0.00  0.00    -0.309 OA
BRANCH  10  11
ATOM     11  C   UNL d   1       2.024   1.056  -4.263  0.00  0.00     0.076 A 
ATOM     12  C   UNL d   1       0.685   0.861  -3.914  0.00  0.00     0.039 A 
ATOM     13  C   UNL d   1       0.343   0.507  -2.604  0.00  0.00     0.027 A 
ATOM     14  C   UNL d   1       1.349   0.359  -1.642  0.00  0.00     0.075 A 
ATOM     15  C   UNL d   1       2.692   0.514  -1.996  0.00  0.00     0.027 A 
ATOM     16  C   UNL d   1       3.029   0.839  -3.312  0.00  0.00     0.039 A 
BRANCH  14  17
ATOM     17  S   UNL d   1       0.940  -0.168   0.014  0.00  0.00     0.245 S 
ATOM     18  O   UNL d   1      -0.342  -0.832  -0.056  0.00  0.00    -0.206 OA
ATOM     19  O   UNL d   1       2.114  -0.821   0.555  0.00  0.00    -0.206 OA
BRANCH  17  20
ATOM     20  N   UNL d   1       0.680   1.332   0.787  0.00  0.00    -0.181 NA
ATOM     21  H   UNL d   1      -0.303   1.569   0.649  0.00  0.00     0.146 HD
BRANCH  20  22
ATOM     22  C   UNL d   1       1.016   1.363   2.190  0.00  0.00     0.028 A 
ATOM     23  C   UNL d   1       0.092   1.055   3.197  0.00  0.00    -0.039 A 
ATOM     24  C   UNL d   1       0.507   1.141   4.544  0.00  0.00     0.016 A 
ATOM     25  C   UNL d   1      -1.344   0.704   2.933  0.00  0.00     0.050 C 
ATOM     26  C   UNL d   1       1.824   1.479   4.916  0.00  0.00    -0.050 A 
ATOM     27  C   UNL d   1       2.729   1.734   3.877  0.00  0.00     0.010 A 
ATOM     28  C   UNL d   1       2.332   1.675   2.534  0.00  0.00     0.025 A 
BRANCH  26  29
ATOM     29  C   UNL d   1       2.213   1.556   6.406  0.00  0.00    -0.024 C 
ATOM     30  C   UNL d   1       3.696   1.920   6.641  0.00  0.00     0.019 C 
ATOM     31  C   UNL d   1       1.360   2.631   7.115  0.00  0.00     0.019 C 
ATOM     32  C   UNL d   1       1.966   0.195   7.093  0.00  0.00     0.019 C 
ENDBRANCH  26  29
ENDBRANCH  20  22
ENDBRANCH  17  20
ENDBRANCH  14  17
ENDBRANCH  10  11
ENDBRANCH   2  10
TORSDOF 6
