REMARK  8 active torsions:
REMARK  status: ('A' for Active; 'I' for Inactive)
REMARK    1  A    between atoms: N_6  and  C_1 
REMARK    2  A    between atoms: C_2  and  C_3 
REMARK    3  A    between atoms: N_7  and  C_10 
REMARK    4  A    between atoms: C_8  and  C_15 
REMARK    5  A    between atoms: C_15  and  N_12 
REMARK    6  A    between atoms: C_13  and  C_16 
REMARK    7  A    between atoms: O_30  and  C_13 
REMARK    8  A    between atoms: C_33  and  O_30 
ROOT
ATOM      1  N   UNL d   1       2.472   7.633   2.115  0.00  0.00    -0.363 N 
ATOM      2  N   UNL d   1       2.473   5.143   0.487  0.00  0.00     0.095 N 
ATOM      3  C   UNL d   1       1.214   6.909   1.873  0.00  0.00     0.154 C 
ATOM      4  C   UNL d   1       3.575   7.356   1.193  0.00  0.00     0.154 C 
ATOM      5  C   UNL d   1       3.708   5.853   0.860  0.00  0.00     0.292 C 
ATOM      6  C   UNL d   1       1.465   5.413   1.541  0.00  0.00     0.292 C 
ENDROOT
BRANCH   2   7
ATOM      7  C   UNL d   1       1.933   5.439  -0.854  0.00  0.00     0.313 C 
BRANCH   7   8
ATOM      8  C   UNL d   1       2.881   5.383  -2.057  0.00  0.00    -0.004 A 
ATOM      9  C   UNL d   1       3.197   4.259  -2.879  0.00  0.00     0.038 A 
ATOM     10  C   UNL d   1       3.940   4.568  -4.055  0.00  0.00     0.030 A 
ATOM     11  C   UNL d   1       4.369   5.853  -4.409  0.00  0.00     0.002 A 
ATOM     12  C   UNL d   1       4.104   6.913  -3.575  0.00  0.00     0.001 A 
ATOM     13  C   UNL d   1       3.365   6.678  -2.425  0.00  0.00     0.011 A 
BRANCH   9  14
ATOM     14  N   UNL d   1       2.913   2.895  -2.633  0.00  0.00    -0.380 N 
ATOM     15  C   UNL d   1       2.404   2.467  -1.332  0.00  0.00     0.124 C 
ATOM     16  C   UNL d   1       2.759   1.011  -1.055  0.00  0.00     0.034 C 
ATOM     17  C   UNL d   1       2.218   0.071  -2.123  0.00  0.00     0.088 C 
ATOM     18  C   UNL d   1       2.681   0.532  -3.500  0.00  0.00     0.034 C 
ATOM     19  C   UNL d   1       2.534   2.034  -3.778  0.00  0.00     0.124 C 
BRANCH  17  20
ATOM     20  C   UNL d   1       0.717  -0.145  -2.040  0.00  0.00     0.263 C 
ATOM     21  O   UNL d   1      -0.057  -0.119  -2.998  0.00  0.00    -0.265 OA
BRANCH  20  22
ATOM     22  O   UNL d   1       0.371  -0.492  -0.767  0.00  0.00    -0.322 OA
BRANCH  22  23
ATOM     23  C   UNL d   1      -0.978  -0.927  -0.537  0.00  0.00     0.174 C 
ATOM     24  C   UNL d   1      -0.992  -2.440  -0.418  0.00  0.00     0.034 C 
ENDBRANCH  22  23
ENDBRANCH  20  22
ENDBRANCH  17  20
ENDBRANCH   9  14
ENDBRANCH   7   8
ENDBRANCH   2   7
BRANCH   1  25
ATOM     25  C   UNL d   1       2.440   8.730   2.960  0.00  0.00     0.125 A 
ATOM     26  N   UNL d   1       1.584   8.620   4.013  0.00  0.00    -0.350 N 
ATOM     27  C   UNL d   1       1.599   9.542   5.006  0.00  0.00     0.106 A 
ATOM     28  HN  UNL d   1       0.928   7.839   4.055  1.00  0.00     0.166 HD
ATOM     29  C   UNL d   1       2.444  10.630   5.033  0.00  0.00     0.065 A 
ATOM     30  C   UNL d   1       3.260  10.813   3.922  0.00  0.00     0.045 A 
ATOM     31  C   UNL d   1       3.254   9.879   2.874  0.00  0.00     0.078 A 
ATOM     32 CL   UNL d   1       4.227  10.318   1.509  0.00  0.00    -0.080 Cl
BRANCH  29  33
ATOM     33  C   UNL d   1       2.459  11.547   6.213  0.00  0.00     0.418 C 
ATOM     34  F   UNL d   1       3.448  12.482   6.157  0.00  0.00    -0.166 F 
ATOM     35  F   UNL d   1       1.297  12.239   6.356  0.00  0.00    -0.166 F 
ATOM     36  F   UNL d   1       2.646  10.882   7.386  0.00  0.00    -0.166 F 
ENDBRANCH  29  33
ENDBRANCH   1  25
TORSDOF 8
