REMARK  3 active torsions:
REMARK  status: ('A' for Active; 'I' for Inactive)
REMARK    1  A    between atoms: C_2  and  C_1 
REMARK       I    between atoms: N_3  and  C_2 
REMARK    2  A    between atoms: N_8  and  N_3 
REMARK    3  A    between atoms: C_11  and  N_8 
ROOT
ATOM      1  C   UNL d   1       0.413   1.865   0.693  0.00  0.00     0.271 C 
ATOM      2  N   UNL d   1       1.465   2.751   0.483  0.00  0.00    -0.282 N 
ATOM      3  O   UNL d   1       0.468   0.724   0.246  0.00  0.00    -0.266 OA
ATOM      4  H   UNL d   1       1.332   3.756   0.575  0.00  0.00     0.184 HD
ENDROOT
BRANCH   2   5
ATOM      5  N   UNL d   1       2.436   2.352  -0.447  0.00  0.00    -0.203 NA
ATOM      6  H   UNL d   1       2.333   1.356  -0.688  0.00  0.00     0.153 HD
BRANCH   5   7
ATOM      7  C   UNL d   1       3.780   2.683  -0.146  0.00  0.00     0.029 A 
ATOM      8  C   UNL d   1       4.779   2.196  -1.002  0.00  0.00     0.049 A 
ATOM      9  C   UNL d   1       6.116   2.586  -0.857  0.00  0.00     0.041 A 
ATOM     10 CL   UNL d   1       7.269   1.948  -1.977  0.00  0.00    -0.084 Cl
ATOM     11  C   UNL d   1       6.495   3.483   0.150  0.00  0.00    -0.040 A 
ATOM     12  C   UNL d   1       5.502   3.967   1.011  0.00  0.00     0.010 A 
ATOM     13  C   UNL d   1       7.914   3.952   0.305  0.00  0.00     0.050 C 
ATOM     14  C   UNL d   1       4.162   3.583   0.855  0.00  0.00     0.026 A 
ENDBRANCH   5   7
ENDBRANCH   2   5
BRANCH   1  15
ATOM     15  C   UNL d   1      -0.763   2.362   1.484  0.00  0.00     0.093 A 
ATOM     16  C   UNL d   1      -0.734   3.640   2.063  0.00  0.00     0.133 A 
ATOM     17  F   UNL d   1       0.307   4.466   1.872  0.00  0.00    -0.205 F 
ATOM     18  C   UNL d   1      -1.776   4.122   2.860  0.00  0.00     0.043 A 
ATOM     19  C   UNL d   1      -2.892   3.330   3.093  0.00  0.00     0.005 A 
ATOM     20  C   UNL d   1      -2.960   2.066   2.513  0.00  0.00     0.025 A 
ATOM     21  C   UNL d   1      -1.910   1.579   1.712  0.00  0.00     0.052 A 
ATOM     22 CL   UNL d   1      -2.169  -0.001   1.057  0.00  0.00    -0.083 Cl
ENDBRANCH   1  15
TORSDOF 3
