REMARK  5 active torsions:
REMARK  status: ('A' for Active; 'I' for Inactive)
REMARK    1  A    between atoms: C_5  and  S_1 
REMARK    2  A    between atoms: C_10  and  S_1 
REMARK    3  A    between atoms: C_2  and  C_3 
REMARK    4  A    between atoms: C_13  and  C_5 
REMARK    5  A    between atoms: N_8  and  C_13 
ROOT
ATOM      1  C   UNL d   1      -0.772   2.696  -5.714  0.00  0.00     0.113 C 
ATOM      2  C   UNL d   1       0.678   2.882  -5.388  0.00  0.00     0.051 C 
ATOM      3  N   UNL d   1      -1.809   2.934  -4.997  0.00  0.00    -0.384 N 
ATOM      4  HN  UNL d   1      -2.700   2.769  -5.464  1.00  0.00     0.159 HD
ATOM      5  N   UNL d   1       0.434   2.849  -2.981  0.00  0.00    -0.387 N 
ATOM      6  C   UNL d   1       1.160   2.830  -4.147  0.00  0.00     0.088 C 
ATOM      7  C   UNL d   1      -1.914   3.401  -3.621  0.00  0.00     0.139 C 
ATOM      8  C   UNL d   1      -0.658   3.829  -2.871  0.00  0.00     0.141 C 
ENDROOT
BRANCH   5   9
ATOM      9  C   UNL d   1       0.950   2.258  -1.735  0.00  0.00     0.137 C 
BRANCH   9  10
ATOM     10  C   UNL d   1       0.428   0.836  -1.597  0.00  0.00     0.165 C 
BRANCH  10  11
ATOM     11  S   UNL d   1       1.083   0.102  -0.123  0.00  0.00     0.177 S 
ATOM     12  O   UNL d   1       0.544   0.818   1.016  0.00  0.00    -0.223 OA
ATOM     13  O   UNL d   1       2.518  -0.048  -0.290  0.00  0.00    -0.223 OA
BRANCH  11  14
ATOM     14  C   UNL d   1       0.377  -1.532  -0.105  0.00  0.00     0.059 A 
ATOM     15  C   UNL d   1       1.088  -2.601  -0.654  0.00  0.00     0.024 A 
ATOM     16  C   UNL d   1       0.551  -3.889  -0.590  0.00  0.00     0.008 A 
ATOM     17  C   UNL d   1      -0.687  -4.115   0.029  0.00  0.00    -0.062 A 
ATOM     18  C   UNL d   1      -1.381  -3.034   0.587  0.00  0.00     0.008 A 
ATOM     19  C   UNL d   1      -1.240  -5.509   0.105  0.00  0.00     0.048 C 
ATOM     20  C   UNL d   1      -0.852  -1.742   0.526  0.00  0.00     0.024 A 
ENDBRANCH  11  14
ENDBRANCH  10  11
ENDBRANCH   9  10
ENDBRANCH   5   9
BRANCH   1  21
ATOM     21  C   UNL d   1      -1.019   2.079  -7.109  0.00  0.00     0.432 C 
ATOM     22  F   UNL d   1       0.129   1.868  -7.817  0.00  0.00    -0.165 F 
ATOM     23  F   UNL d   1      -1.632   0.864  -7.029  0.00  0.00    -0.165 F 
ATOM     24  F   UNL d   1      -1.806   2.862  -7.897  0.00  0.00    -0.165 F 
ENDBRANCH   1  21
TORSDOF 5
