REMARK  6 active torsions:
REMARK  status: ('A' for Active; 'I' for Inactive)
REMARK    1  A    between atoms: C_5  and  C_1 
REMARK    2  A    between atoms: C_2  and  C_6 
REMARK    3  A    between atoms: S_4  and  C_2 
REMARK    4  A    between atoms: C_3  and  O_7 
REMARK    5  A    between atoms: C_19  and  S_4 
REMARK    6  A    between atoms: O_7  and  C_20 
ROOT
ATOM      1  C   UNL d   1      -0.835  -5.170  -1.302  0.00  0.00     0.224 C 
ATOM      2  O   UNL d   1      -1.188  -4.884  -0.162  0.00  0.00    -0.279 OA
ENDROOT
BRANCH   1   3
ATOM      3  C   UNL d   1       0.620  -5.371  -1.598  0.00  0.00     0.021 A 
ATOM      4  C   UNL d   1       1.137  -5.494  -2.893  0.00  0.00     0.017 A 
ATOM      5  C   UNL d   1       2.506  -5.718  -3.086  0.00  0.00     0.017 A 
ATOM      6  C   UNL d   1       3.384  -5.815  -1.997  0.00  0.00     0.048 A 
ATOM      7  C   UNL d   1       2.868  -5.669  -0.702  0.00  0.00     0.017 A 
ATOM      8  C   UNL d   1       1.499  -5.444  -0.506  0.00  0.00     0.017 A 
BRANCH   6   9
ATOM      9  C   UNL d   1       4.849  -6.094  -2.227  0.00  0.00     0.417 C 
ATOM     10  F   UNL d   1       5.590  -6.114  -1.086  0.00  0.00    -0.166 F 
ATOM     11  F   UNL d   1       5.433  -5.166  -3.036  0.00  0.00    -0.166 F 
ATOM     12  F   UNL d   1       5.058  -7.298  -2.829  0.00  0.00    -0.166 F 
ENDBRANCH   6   9
ENDBRANCH   1   3
BRANCH   1  13
ATOM     13  S   UNL d   1      -2.000  -5.499  -2.579  0.00  0.00    -0.048 SA
BRANCH  13  14
ATOM     14  C   UNL d   1      -3.103  -4.098  -2.604  0.00  0.00     0.008 A 
ATOM     15  C   UNL d   1      -3.733  -3.784  -3.819  0.00  0.00     0.021 A 
ATOM     16  C   UNL d   1      -4.649  -2.724  -3.920  0.00  0.00     0.038 A 
ATOM     17  C   UNL d   1      -4.932  -1.941  -2.803  0.00  0.00     0.078 A 
ATOM     18  C   UNL d   1      -4.335  -2.272  -1.586  0.00  0.00     0.038 A 
ATOM     19  C   UNL d   1      -3.435  -3.337  -1.484  0.00  0.00     0.021 A 
BRANCH  17  20
ATOM     20  O   UNL d   1      -5.764  -0.869  -2.737  0.00  0.00    -0.255 OA
BRANCH  20  21
ATOM     21  C   UNL d   1      -6.135  -0.186  -3.922  0.00  0.00     0.530 C 
ATOM     22  F   UNL d   1      -5.213  -0.275  -4.903  0.00  0.00    -0.144 F 
ATOM     23  F   UNL d   1      -7.316  -0.656  -4.376  0.00  0.00    -0.144 F 
ATOM     24  F   UNL d   1      -6.290   1.124  -3.624  0.00  0.00    -0.144 F 
ENDBRANCH  20  21
ENDBRANCH  17  20
ENDBRANCH  13  14
ENDBRANCH   1  13
TORSDOF 6
