REMARK  5 active torsions:
REMARK  status: ('A' for Active; 'I' for Inactive)
REMARK    1  A    between atoms: N_5  and  C_1 
REMARK    2  A    between atoms: C_3  and  C_2 
REMARK       I    between atoms: N_6  and  C_3 
REMARK    3  A    between atoms: O_19  and  C_4 
REMARK       I    between atoms: C_8  and  N_6 
REMARK       I    between atoms: N_11  and  C_8 
REMARK    4  A    between atoms: O_21  and  C_9 
REMARK    5  A    between atoms: C_12  and  N_11 
ROOT
ATOM      1  C   UNL d   1       3.148  -2.511  -0.853  0.00  0.00     0.265 C 
ATOM      2  N   UNL d   1       4.274  -2.355  -1.651  0.00  0.00    -0.275 N 
ATOM      3  C   UNL d   1       5.059  -1.242  -2.003  0.00  0.00     0.327 C 
ATOM      4  N   UNL d   1       6.194  -1.695  -2.660  0.00  0.00    -0.308 N 
ATOM      5  O   UNL d   1       2.803  -3.644  -0.509  0.00  0.00    -0.267 OA
ATOM      6  O   UNL d   1       4.739  -0.075  -1.831  0.00  0.00    -0.247 OA
ATOM      7  H   UNL d   1       4.731  -3.240  -1.780  0.00  0.00     0.173 HD
ATOM      8  H   UNL d   1       5.996  -2.475  -3.266  0.00  0.00     0.170 HD
ENDROOT
BRANCH   1   9
ATOM      9  C   UNL d   1       2.393  -1.359  -0.342  0.00  0.00     0.102 C 
ATOM     10  C   UNL d   1       2.975  -0.501   0.602  0.00  0.00     0.119 C 
ATOM     11  C   UNL d   1       2.251   0.612   1.040  0.00  0.00     0.138 C 
ATOM     12  C   UNL d   1       0.923   0.819   0.644  0.00  0.00     0.061 C 
ATOM     13  C   UNL d   1       0.310  -0.108  -0.200  0.00  0.00     0.048 C 
ATOM     14  C   UNL d   1       1.029  -1.217  -0.670  0.00  0.00     0.104 C 
ATOM     15 BR   UNL d   1      -1.503   0.200  -0.673  0.00  0.00    -0.048 Br
BRANCH  10  16
ATOM     16  O   UNL d   1       4.221  -0.771   1.107  0.00  0.00    -0.352 OA
ATOM     17  C   UNL d   1       4.146  -1.701   2.192  0.00  0.00     0.210 C 
ENDBRANCH  10  16
BRANCH  11  18
ATOM     18  N   UNL d   1       2.838   1.565   1.969  0.00  0.00    -0.113 N 
ATOM     19  O   UNL d   1       3.991   1.960   1.757  0.00  0.00    -0.532 OA
ATOM     20  O   UNL d   1       2.120   1.937   2.909  0.00  0.00    -0.532 OA
ENDBRANCH  11  18
BRANCH  14  21
ATOM     21  O   UNL d   1       0.421  -2.158  -1.464  0.00  0.00    -0.353 OA
ATOM     22  C   UNL d   1      -0.324  -3.095  -0.672  0.00  0.00     0.210 C 
ENDBRANCH  14  21
ENDBRANCH   1   9
BRANCH   4  23
ATOM     23  C   UNL d   1       7.457  -1.087  -2.876  0.00  0.00     0.048 A 
ATOM     24  C   UNL d   1       8.122  -0.252  -1.949  0.00  0.00    -0.035 A 
ATOM     25  C   UNL d   1       9.482   0.071  -2.172  0.00  0.00     0.009 A 
ATOM     26  C   UNL d   1       7.555   0.316  -0.677  0.00  0.00     0.050 C 
ATOM     27  C   UNL d   1      10.186  -0.417  -3.267  0.00  0.00     0.001 A 
ATOM     28  C   UNL d   1       9.524  -1.191  -4.204  0.00  0.00     0.009 A 
ATOM     29  C   UNL d   1       8.162  -1.505  -4.041  0.00  0.00    -0.035 A 
ATOM     30  C   UNL d   1       7.528  -2.297  -5.158  0.00  0.00     0.050 C 
ENDBRANCH   4  23
TORSDOF 5
