REMARK  4 active torsions:
REMARK  status: ('A' for Active; 'I' for Inactive)
REMARK    1  A    between atoms: N_4  and  N_1 
REMARK    2  A    between atoms: C_9  and  C_8 
REMARK    3  A    between atoms: O_15  and  C_12 
REMARK    4  A    between atoms: C_18  and  O_15 
ROOT
ATOM      1  N   UNL d   1       3.524   1.249   1.271  0.00  0.00    -0.298 N 
ATOM      2  HN  UNL d   1       4.170   1.286   2.060  1.00  0.00     0.186 HD
ATOM      3  C   UNL d   1       3.967   1.147   0.061  0.00  0.00     0.122 C 
ENDROOT
BRANCH   1   4
ATOM      4  N   UNL d   1       2.172   1.306   1.475  0.00  0.00    -0.182 N 
ATOM      5  C   UNL d   1       1.644   1.014   2.716  0.00  0.00     0.280 A 
ATOM      6  C   UNL d   1       0.195   1.129   2.571  0.00  0.00     0.050 A 
ATOM      7  O   UNL d   1       2.182   0.691   3.762  0.00  0.00    -0.265 OA
ATOM      8  C   UNL d   1      -0.815   0.870   3.479  0.00  0.00     0.018 A 
ATOM      9  C   UNL d   1      -0.074   1.533   1.278  0.00  0.00     0.050 A 
ATOM     10  C   UNL d   1      -2.131   1.034   3.037  0.00  0.00     0.001 A 
ATOM     11  C   UNL d   1      -2.405   1.455   1.719  0.00  0.00     0.001 A 
ATOM     12  C   UNL d   1      -1.367   1.714   0.821  0.00  0.00     0.018 A 
ATOM     13  C   UNL d   1       1.197   1.676   0.573  0.00  0.00     0.280 A 
ATOM     14  O   UNL d   1       1.264   2.061  -0.581  0.00  0.00    -0.265 OA
ENDBRANCH   1   4
BRANCH   3  15
ATOM     15  C   UNL d   1       5.413   1.059  -0.206  0.00  0.00     0.014 A 
ATOM     16  C   UNL d   1       5.971   0.220  -1.181  0.00  0.00     0.080 A 
ATOM     17  C   UNL d   1       7.354   0.298  -1.410  0.00  0.00     0.037 A 
ATOM     18  C   UNL d   1       8.165   1.169  -0.679  0.00  0.00     0.003 A 
ATOM     19  C   UNL d   1       7.605   1.984   0.296  0.00  0.00     0.001 A 
ATOM     20  C   UNL d   1       6.234   1.928   0.535  0.00  0.00     0.015 A 
BRANCH  16  21
ATOM     21  O   UNL d   1       5.357  -0.691  -1.997  0.00  0.00    -0.351 OA
BRANCH  21  22
ATOM     22  C   UNL d   1       4.161  -1.329  -1.556  0.00  0.00     0.171 C 
ATOM     23  C   UNL d   1       4.072  -2.697  -2.212  0.00  0.00     0.034 C 
ENDBRANCH  21  22
ENDBRANCH  16  21
ENDBRANCH   3  15
TORSDOF 4
