REMARK  6 active torsions:
REMARK  status: ('A' for Active; 'I' for Inactive)
REMARK    1  A    between atoms: C_8  and  C_1 
REMARK    2  A    between atoms: C_13  and  C_7 
REMARK    3  A    between atoms: C_9  and  C_14 
REMARK       I    between atoms: C_10  and  N_11 
REMARK    4  A    between atoms: C_15  and  C_10 
REMARK    5  A    between atoms: N_11  and  C_12 
REMARK    6  A    between atoms: O_27  and  C_25 
ROOT
ATOM      1  C   UNL d   1      -0.301  -2.840   0.281  0.00  0.00     0.043 A 
ATOM      2  C   UNL d   1      -1.232  -2.931  -0.769  0.00  0.00     0.049 A 
ATOM      3  C   UNL d   1      -0.109  -4.011   1.081  0.00  0.00     0.018 A 
ATOM      4  C   UNL d   1      -1.821  -4.205  -1.022  0.00  0.00     0.030 A 
ATOM      5  C   UNL d   1      -0.728  -5.231   0.832  0.00  0.00     0.001 A 
ATOM      6  C   UNL d   1      -1.576  -5.336  -0.244  0.00  0.00     0.002 A 
ENDROOT
BRANCH   1   7
ATOM      7  C   UNL d   1       0.536  -1.714   0.715  0.00  0.00     0.177 A 
ATOM      8  O   UNL d   1       1.811  -2.111   1.085  0.00  0.00    -0.273 OA
ATOM      9  C   UNL d   1       2.215  -1.109   1.923  0.00  0.00     0.174 A 
ATOM     10  N   UNL d   1       1.358  -0.110   1.943  0.00  0.00    -0.277 N 
ATOM     11  N   UNL d   1       0.252  -0.523   1.200  0.00  0.00    -0.277 N 
ATOM     12  HN  UNL d   1       1.478   0.789   2.411  1.00  0.00     0.189 HD
ATOM     13  HN  UNL d   1      -0.613  -0.001   1.058  1.00  0.00     0.189 HD
BRANCH   9  14
ATOM     14  C   UNL d   1       3.366  -1.406   2.784  0.00  0.00     0.019 A 
ATOM     15  C   UNL d   1       3.867  -0.432   3.669  0.00  0.00     0.052 A 
ATOM     16  C   UNL d   1       4.881  -0.753   4.584  0.00  0.00     0.069 A 
ATOM     17  C   UNL d   1       5.413  -2.042   4.606  0.00  0.00     0.037 A 
ATOM     18  C   UNL d   1       4.935  -3.016   3.735  0.00  0.00     0.004 A 
ATOM     19  C   UNL d   1       3.922  -2.699   2.830  0.00  0.00     0.016 A 
BRANCH  16  20
ATOM     20  O   UNL d   1       5.435   0.098   5.500  0.00  0.00    -0.356 OA
ATOM     21  C   UNL d   1       4.700   1.279   5.799  0.00  0.00     0.210 C 
ENDBRANCH  16  20
ENDBRANCH   9  14
ENDBRANCH   1   7
BRANCH   2  22
ATOM     22  N   UNL d   1      -1.778  -1.960  -1.647  0.00  0.00    -0.322 N 
ATOM     23  C   UNL d   1      -1.616  -0.605  -1.800  0.00  0.00     0.256 C 
ATOM     24  O   UNL d   1      -0.741   0.084  -1.299  0.00  0.00    -0.267 OA
ATOM     25  H   UNL d   1      -2.523  -2.342  -2.203  0.00  0.00     0.169 HD
BRANCH  23  26
ATOM     26  C   UNL d   1      -2.675   0.054  -2.672  0.00  0.00     0.032 A 
ATOM     27  C   UNL d   1      -3.460  -0.650  -3.605  0.00  0.00     0.018 A 
ATOM     28  C   UNL d   1      -4.491  -0.012  -4.312  0.00  0.00     0.017 A 
ATOM     29  C   UNL d   1      -4.747   1.351  -4.131  0.00  0.00     0.048 A 
ATOM     30  C   UNL d   1      -3.942   2.066  -3.229  0.00  0.00     0.017 A 
ATOM     31  C   UNL d   1      -2.921   1.425  -2.510  0.00  0.00     0.018 A 
BRANCH  29  32
ATOM     32  C   UNL d   1      -5.873   2.035  -4.875  0.00  0.00     0.417 C 
ATOM     33  F   UNL d   1      -6.447   1.248  -5.825  0.00  0.00    -0.166 F 
ATOM     34  F   UNL d   1      -6.885   2.417  -4.048  0.00  0.00    -0.166 F 
ATOM     35  F   UNL d   1      -5.468   3.163  -5.521  0.00  0.00    -0.166 F 
ENDBRANCH  29  32
ENDBRANCH  23  26
ENDBRANCH   2  22
TORSDOF 6
