REMARK  2 active torsions:
REMARK  status: ('A' for Active; 'I' for Inactive)
REMARK       I    between atoms: C_2  and  N_5 
REMARK    1  A    between atoms: C_9  and  C_2 
REMARK    2  A    between atoms: N_5  and  C_6 
ROOT
ATOM      1  C   UNL d   1       2.989   3.983   3.816  0.00  0.00     0.252 C 
ATOM      2  N   UNL d   1       2.671   3.375   2.625  0.00  0.00    -0.352 N 
ATOM      3  O   UNL d   1       2.205   4.670   4.464  0.00  0.00    -0.268 OA
ATOM      4  H   UNL d   1       3.226   2.572   2.358  0.00  0.00     0.163 HD
ENDROOT
BRANCH   2   5
ATOM      5  C   UNL d   1       1.276   3.272   2.157  0.00  0.00     0.088 C 
ATOM      6  C   UNL d   1       1.221   2.582   0.752  0.00  0.00     0.050 C 
ATOM      7  C   UNL d   1       0.899   0.993   0.723  0.00  0.00     0.081 C 
ATOM      8  N   UNL d   1       1.785   0.844   1.883  0.00  0.00    -0.408 N 
ATOM      9  C   UNL d   1      -0.082  -0.119   1.311  0.00  0.00     0.027 C 
ATOM     10  C   UNL d   1       0.974   0.961   3.098  0.00  0.00     0.081 C 
ATOM     11  C   UNL d   1       2.813  -0.169   1.792  0.00  0.00     0.144 C 
ATOM     12  C   UNL d   1       0.443   2.416   3.123  0.00  0.00     0.050 C 
ATOM     13  C   UNL d   1      -0.146  -0.005   2.828  0.00  0.00     0.027 C 
ENDBRANCH   2   5
BRANCH   1  14
ATOM     14  C   UNL d   1       4.358   3.730   4.354  0.00  0.00     0.032 A 
ATOM     15  C   UNL d   1       5.450   3.451   3.520  0.00  0.00     0.018 A 
ATOM     16  C   UNL d   1       6.729   3.333   4.061  0.00  0.00     0.025 A 
ATOM     17  C   UNL d   1       6.928   3.482   5.435  0.00  0.00     0.034 A 
ATOM     18  C   UNL d   1       5.846   3.718   6.279  0.00  0.00     0.025 A 
ATOM     19 CL   UNL d   1       8.518   3.408   6.086  0.00  0.00    -0.084 Cl
ATOM     20  C   UNL d   1       4.561   3.841   5.739  0.00  0.00     0.018 A 
ENDBRANCH   1  14
TORSDOF 2
