REMARK  1 active torsions:
REMARK  status: ('A' for Active; 'I' for Inactive)
REMARK    1  A    between atoms: C_13  and  C_6 
ROOT
ATOM      1  C   UNL d   1       1.132  -0.750  -0.026  0.00  0.00     0.080 A 
ATOM      2  C   UNL d   1       2.261  -1.638  -0.101  0.00  0.00     0.191 A 
ATOM      3  N   UNL d   1       2.518  -2.422  -1.130  0.00  0.00    -0.318 N 
ATOM      4  HN  UNL d   1       1.977  -2.532  -1.988  1.00  0.00     0.169 HD
ATOM      5  C   UNL d   1       0.788   0.143   0.976  0.00  0.00     0.061 A 
ATOM      6  C   UNL d   1       3.685  -3.055  -0.774  0.00  0.00     0.138 A 
ATOM      7  S   UNL d   1      -0.008  -0.702  -1.310  0.00  0.00    -0.095 SA
ATOM      8  N   UNL d   1       4.146  -2.698   0.433  0.00  0.00    -0.242 N 
ATOM      9  HN  UNL d   1       4.983  -3.031   0.912  1.00  0.00     0.196 HD
ATOM     10  O   UNL d   1       3.213  -1.765   0.878  0.00  0.00    -0.216 OA
ATOM     11  C   UNL d   1      -0.409   0.889   0.677  0.00  0.00    -0.032 A 
ATOM     12  C   UNL d   1      -0.930   0.506  -0.544  0.00  0.00     0.059 A 
ATOM     13 CL   UNL d   1       1.667   0.384   2.436  0.00  0.00    -0.082 Cl
ATOM     14  C   UNL d   1      -1.043   1.945   1.525  0.00  0.00     0.050 C 
ENDROOT
BRANCH   6  15
ATOM     15  C   UNL d   1       4.342  -4.012  -1.659  0.00  0.00     0.010 A 
ATOM     16  C   UNL d   1       3.796  -4.291  -2.922  0.00  0.00     0.017 A 
ATOM     17  C   UNL d   1       4.420  -5.194  -3.787  0.00  0.00     0.025 A 
ATOM     18  C   UNL d   1       5.597  -5.827  -3.394  0.00  0.00     0.034 A 
ATOM     19  C   UNL d   1       6.151  -5.566  -2.143  0.00  0.00     0.025 A 
ATOM     20 CL   UNL d   1       6.370  -6.933  -4.460  0.00  0.00    -0.084 Cl
ATOM     21  C   UNL d   1       5.527  -4.661  -1.278  0.00  0.00     0.017 A 
ENDBRANCH   6  15
TORSDOF 1
