REMARK  8 active torsions:
REMARK  status: ('A' for Active; 'I' for Inactive)
REMARK    1  A    between atoms: C_2  and  S_1 
REMARK    2  A    between atoms: N_4  and  S_1 
REMARK    3  A    between atoms: S_3  and  C_12 
REMARK    4  A    between atoms: C_9  and  S_3 
REMARK    5  A    between atoms: C_6  and  N_4 
REMARK    6  A    between atoms: C_12  and  C_22 
REMARK    7  A    between atoms: S_20  and  C_15 
REMARK    8  A    between atoms: C_22  and  S_20 
ROOT
ATOM      1  C   UNL d   1       0.759  -2.770  -0.009  0.00  0.00     0.059 A 
ATOM      2  C   UNL d   1       2.124  -3.026  -0.248  0.00  0.00     0.027 A 
ATOM      3  C   UNL d   1      -0.195  -3.784  -0.195  0.00  0.00     0.031 A 
ATOM      4  C   UNL d   1       2.478  -4.299  -0.733  0.00  0.00     0.021 A 
ATOM      5  C   UNL d   1       0.181  -5.034  -0.684  0.00  0.00     0.002 A 
ATOM      6  C   UNL d   1       1.518  -5.289  -0.960  0.00  0.00     0.002 A 
ENDROOT
BRANCH   1   7
ATOM      7  N   UNL d   1       0.258  -1.503   0.398  0.00  0.00    -0.279 N 
ATOM      8  H   UNL d   1      -0.239  -1.429   1.281  0.00  0.00     0.179 HD
BRANCH   7   9
ATOM      9  S   UNL d   1      -0.066  -0.275  -0.705  0.00  0.00     0.266 S 
ATOM     10  O   UNL d   1      -0.652   0.773   0.111  0.00  0.00    -0.200 OA
ATOM     11  O   UNL d   1       1.105   0.006  -1.502  0.00  0.00    -0.200 OA
BRANCH   9  12
ATOM     12  C   UNL d   1      -1.343  -0.829  -1.798  0.00  0.00     0.118 A 
ATOM     13  C   UNL d   1      -1.053  -1.734  -2.817  0.00  0.00     0.142 A 
ATOM     14  C   UNL d   1      -2.007  -2.050  -3.787  0.00  0.00     0.086 A 
ATOM     15  F   UNL d   1       0.145  -2.323  -2.906  0.00  0.00    -0.204 F 
ATOM     16  C   UNL d   1      -3.245  -1.422  -3.754  0.00  0.00     0.119 A 
ATOM     17  C   UNL d   1      -3.553  -0.503  -2.756  0.00  0.00     0.044 A 
ATOM     18  F   UNL d   1      -4.147  -1.687  -4.708  0.00  0.00    -0.206 F 
ATOM     19  C   UNL d   1      -2.604  -0.206  -1.773  0.00  0.00     0.031 A 
ENDBRANCH   9  12
ENDBRANCH   7   9
ENDBRANCH   1   7
BRANCH   2  20
ATOM     20  S   UNL d   1       3.502  -1.880  -0.111  0.00  0.00    -0.127 SA
BRANCH  20  21
ATOM     21  C   UNL d   1       3.310  -1.114   1.536  0.00  0.00     0.095 C 
BRANCH  21  22
ATOM     22  C   UNL d   1       4.444  -0.137   1.825  0.00  0.00     0.156 C 
BRANCH  22  23
ATOM     23  S   UNL d   1       5.928  -0.843   2.504  0.00  0.00     0.176 S 
ATOM     24  O   UNL d   1       6.806   0.252   2.863  0.00  0.00    -0.223 OA
ATOM     25  O   UNL d   1       5.529  -1.814   3.509  0.00  0.00    -0.223 OA
BRANCH  23  26
ATOM     26  C   UNL d   1       6.765  -1.722   1.208  0.00  0.00     0.059 A 
ATOM     27  C   UNL d   1       7.032  -1.085  -0.007  0.00  0.00     0.025 A 
ATOM     28  C   UNL d   1       7.678  -1.789  -1.027  0.00  0.00     0.025 A 
ATOM     29  C   UNL d   1       8.075  -3.111  -0.817  0.00  0.00     0.034 A 
ATOM     30  C   UNL d   1       7.847  -3.732   0.411  0.00  0.00     0.025 A 
ATOM     31 CL   UNL d   1       8.855  -3.979  -2.081  0.00  0.00    -0.084 Cl
ATOM     32  C   UNL d   1       7.190  -3.037   1.429  0.00  0.00     0.025 A 
ENDBRANCH  23  26
ENDBRANCH  22  23
ENDBRANCH  21  22
ENDBRANCH  20  21
ENDBRANCH   2  20
TORSDOF 8
