REMARK  4 active torsions:
REMARK  status: ('A' for Active; 'I' for Inactive)
REMARK    1  A    between atoms: C_5  and  C_1 
REMARK    2  A    between atoms: O_11  and  N_6 
REMARK    3  A    between atoms: C_21  and  O_11 
REMARK    4  A    between atoms: C_14  and  C_21 
ROOT
ATOM      1  C   UNL d   1      -3.608   1.309  -0.155  0.00  0.00     0.038 C 
ATOM      2  N   UNL d   1      -3.759   2.602  -0.129  0.00  0.00    -0.270 N 
ATOM      3  HN  UNL d   1      -4.658   3.084  -0.150  1.00  0.00     0.194 HD
ATOM      4  C   UNL d   1      -2.238   0.655  -0.094  0.00  0.00     0.071 C 
ENDROOT
BRANCH   1   5
ATOM      5  C   UNL d   1      -4.819   0.433  -0.236  0.00  0.00    -0.011 A 
ATOM      6  C   UNL d   1      -5.957   0.902  -0.915  0.00  0.00     0.023 A 
ATOM      7  C   UNL d   1      -7.078   0.086  -0.969  0.00  0.00    -0.022 A 
ATOM      8  C   UNL d   1      -8.373   0.293  -1.653  0.00  0.00     0.068 C 
ATOM      9  C   UNL d   1      -7.074  -1.166  -0.376  0.00  0.00     0.075 A 
ATOM     10  C   UNL d   1      -9.169  -0.845  -1.012  0.00  0.00     0.180 C 
ATOM     11  O   UNL d   1      -8.249  -1.853  -0.529  0.00  0.00    -0.350 OA
ATOM     12  C   UNL d   1      -5.971  -1.654   0.290  0.00  0.00     0.038 A 
ATOM     13  C   UNL d   1      -4.837  -0.841   0.369  0.00  0.00     0.016 A 
ENDBRANCH   1   5
BRANCH   2  14
ATOM     14  O   UNL d   1      -2.506   3.242  -0.067  0.00  0.00    -0.276 OA
BRANCH  14  15
ATOM     15  C   UNL d   1      -2.655   4.529   0.531  0.00  0.00     0.239 C 
BRANCH  15  16
ATOM     16  C   UNL d   1      -1.296   5.185   0.603  0.00  0.00    -0.032 A 
ATOM     17  C   UNL d   1      -0.590   5.478  -0.575  0.00  0.00     0.011 A 
ATOM     18  C   UNL d   1       0.668   6.083  -0.519  0.00  0.00     0.024 A 
ATOM     19  C   UNL d   1       1.228   6.399   0.717  0.00  0.00     0.034 A 
ATOM     20  C   UNL d   1       0.542   6.114   1.895  0.00  0.00     0.024 A 
ATOM     21 CL   UNL d   1       2.778   7.144   0.789  0.00  0.00    -0.084 Cl
ATOM     22  C   UNL d   1      -0.717   5.508   1.839  0.00  0.00     0.011 A 
ENDBRANCH  15  16
ENDBRANCH  14  15
ENDBRANCH   2  14
TORSDOF 4
