REMARK  6 active torsions:
REMARK  status: ('A' for Active; 'I' for Inactive)
REMARK    1  A    between atoms: S_6  and  C_1 
REMARK    2  A    between atoms: C_10  and  C_3 
REMARK    3  A    between atoms: N_8  and  S_6 
REMARK       I    between atoms: C_7  and  N_8 
REMARK       I    between atoms: N_11  and  C_7 
REMARK    4  A    between atoms: O_19  and  C_10 
REMARK    5  A    between atoms: C_12  and  N_11 
REMARK    6  A    between atoms: C_25  and  O_19 
ROOT
ATOM      1  S   UNL d   1      -1.375   3.793   0.245  0.00  0.00    -0.085 SA
ATOM      2  C   UNL d   1      -0.173   2.628  -0.508  0.00  0.00     0.108 C 
ENDROOT
BRANCH   1   3
ATOM      3  C   UNL d   1      -1.068   5.081  -0.908  0.00  0.00     0.061 C 
ATOM      4  S   UNL d   1       0.023   6.280  -0.360  0.00  0.00    -0.075 SA
ATOM      5  C   UNL d   1       0.202   6.967  -1.912  0.00  0.00     0.088 C 
ATOM      6  C   UNL d   1      -0.678   6.389  -2.817  0.00  0.00    -0.022 A 
ATOM      7  C   UNL d   1      -1.429   5.297  -2.227  0.00  0.00    -0.004 A 
ATOM      8  C   UNL d   1      -0.801   6.762  -4.269  0.00  0.00     0.045 A 
ATOM      9  C   UNL d   1      -2.311   4.533  -3.056  0.00  0.00     0.010 A 
ATOM     10  C   UNL d   1      -2.463   4.779  -4.367  0.00  0.00    -0.025 A 
ATOM     11  C   UNL d   1      -1.735   5.865  -5.101  0.00  0.00     0.032 A 
BRANCH   5  12
ATOM     12  C   UNL d   1       1.223   7.974  -2.161  0.00  0.00     0.300 C 
ATOM     13  O   UNL d   1       1.458   8.497  -3.247  0.00  0.00    -0.259 OA
BRANCH  12  14
ATOM     14  O   UNL d   1       1.972   8.202  -1.041  0.00  0.00    -0.317 OA
BRANCH  14  15
ATOM     15  C   UNL d   1       3.248   8.819  -1.230  0.00  0.00     0.174 C 
ATOM     16  C   UNL d   1       4.277   7.732  -1.488  0.00  0.00     0.034 C 
ENDBRANCH  14  15
ENDBRANCH  12  14
ENDBRANCH   5  12
ENDBRANCH   1   3
BRANCH   1  17
ATOM     17  N   UNL d   1      -2.645   3.200  -0.326  0.00  0.00    -0.287 N 
ATOM     18  C   UNL d   1      -2.906   1.901  -0.089  0.00  0.00     0.330 C 
ATOM     19  N   UNL d   1      -2.698   1.498   1.220  0.00  0.00    -0.307 N 
ATOM     20  O   UNL d   1      -3.340   1.147  -0.960  0.00  0.00    -0.246 OA
ATOM     21  H   UNL d   1      -2.530   2.272   1.854  0.00  0.00     0.170 HD
ATOM     22  HN  UNL d   1      -3.288   3.770  -0.876  1.00  0.00     0.178 HD
BRANCH  19  23
ATOM     23  C   UNL d   1      -2.485   0.194   1.713  0.00  0.00     0.058 A 
ATOM     24  C   UNL d   1      -2.264   0.001   3.087  0.00  0.00     0.060 A 
ATOM     25 CL   UNL d   1      -2.323   1.315   4.213  0.00  0.00    -0.082 Cl
ATOM     26  C   UNL d   1      -1.977  -1.274   3.595  0.00  0.00     0.026 A 
ATOM     27  C   UNL d   1      -1.895  -2.368   2.735  0.00  0.00     0.002 A 
ATOM     28  C   UNL d   1      -2.103  -2.188   1.372  0.00  0.00     0.002 A 
ATOM     29  C   UNL d   1      -2.399  -0.918   0.867  0.00  0.00     0.031 A 
ENDBRANCH  19  23
ENDBRANCH   1  17
TORSDOF 6
