REMARK  9 active torsions:
REMARK  status: ('A' for Active; 'I' for Inactive)
REMARK    1  A    between atoms: O_8  and  S_1 
REMARK    2  A    between atoms: C_9  and  S_1 
REMARK    3  A    between atoms: C_2  and  C_4 
REMARK    4  A    between atoms: C_5  and  N_3 
REMARK    5  A    between atoms: C_18  and  O_8 
REMARK    6  A    between atoms: N_10  and  C_22 
REMARK    7  A    between atoms: C_25  and  C_18 
REMARK    8  A    between atoms: C_22  and  C_25 
REMARK    9  A    between atoms: O_31  and  C_25 
ROOT
ATOM      1  N   UNL d   1      -3.214   3.607   4.330  0.00  0.00    -0.364 N 
ATOM      2  N   UNL d   1      -1.770   1.564   2.754  0.00  0.00     0.094 N 
ATOM      3  C   UNL d   1      -1.782   3.757   4.066  0.00  0.00     0.154 C 
ATOM      4  C   UNL d   1      -3.781   2.262   4.221  0.00  0.00     0.154 C 
ATOM      5  C   UNL d   1      -3.253   1.538   2.948  0.00  0.00     0.292 C 
ATOM      6  C   UNL d   1      -1.385   2.995   2.785  0.00  0.00     0.292 C 
ENDROOT
BRANCH   2   7
ATOM      7  C   UNL d   1      -1.130   0.721   3.795  0.00  0.00     0.306 C 
BRANCH   7   8
ATOM      8  C   UNL d   1       0.398   0.470   3.702  0.00  0.00     0.171 C 
BRANCH   8   9
ATOM      9  C   UNL d   1       1.326   1.606   4.159  0.00  0.00     0.223 C 
BRANCH   9  10
ATOM     10  O   UNL d   1       0.953   2.207   5.393  0.00  0.00    -0.269 OA
BRANCH  10  11
ATOM     11  S   UNL d   1       1.280   1.381   6.762  0.00  0.00     0.298 S 
ATOM     12  O   UNL d   1       2.710   1.161   6.821  0.00  0.00    -0.193 OA
ATOM     13  O   UNL d   1       0.339   0.284   6.827  0.00  0.00    -0.193 OA
BRANCH  11  14
ATOM     14  C   UNL d   1       0.872   2.463   8.106  0.00  0.00     0.086 A 
ATOM     15  C   UNL d   1       0.528   3.800   7.906  0.00  0.00     0.026 A 
ATOM     16  C   UNL d   1       0.129   4.570   9.004  0.00  0.00     0.008 A 
ATOM     17  C   UNL d   1       0.068   4.010  10.290  0.00  0.00    -0.062 A 
ATOM     18  C   UNL d   1       0.452   2.677  10.476  0.00  0.00     0.008 A 
ATOM     19  C   UNL d   1      -0.434   4.823  11.449  0.00  0.00     0.048 C 
ATOM     20  C   UNL d   1       0.851   1.903   9.389  0.00  0.00     0.026 A 
ENDBRANCH  11  14
ENDBRANCH  10  11
ENDBRANCH   9  10
ENDBRANCH   8   9
BRANCH   8  21
ATOM     21  O   UNL d   1       0.759   0.082   2.372  0.00  0.00    -0.392 OA
ATOM     22  H   UNL d   1       0.154   0.565   1.775  0.00  0.00     0.210 HD
ENDBRANCH   8  21
ENDBRANCH   7   8
ENDBRANCH   2   7
BRANCH   1  23
ATOM     23  C   UNL d   1      -3.941   4.710   4.703  0.00  0.00     0.103 A 
ATOM     24  N   UNL d   1      -3.521   5.921   4.271  0.00  0.00    -0.352 N 
ATOM     25  C   UNL d   1      -4.250   7.022   4.569  0.00  0.00     0.106 A 
ATOM     26  HN  UNL d   1      -2.664   6.003   3.725  1.00  0.00     0.166 HD
ATOM     27  C   UNL d   1      -5.403   7.001   5.329  0.00  0.00     0.063 A 
ATOM     28  C   UNL d   1      -5.819   5.761   5.805  0.00  0.00     0.021 A 
ATOM     29  C   UNL d   1      -5.090   4.615   5.486  0.00  0.00     0.049 A 
BRANCH  27  30
ATOM     30  C   UNL d   1      -6.156   8.258   5.625  0.00  0.00     0.418 C 
ATOM     31  F   UNL d   1      -5.614   9.370   5.056  0.00  0.00    -0.166 F 
ATOM     32  F   UNL d   1      -7.445   8.209   5.190  0.00  0.00    -0.166 F 
ATOM     33  F   UNL d   1      -6.224   8.520   6.960  0.00  0.00    -0.166 F 
ENDBRANCH  27  30
ENDBRANCH   1  23
TORSDOF 9
