REMARK  7 active torsions:
REMARK  status: ('A' for Active; 'I' for Inactive)
REMARK    1  A    between atoms: C_3  and  C_1 
REMARK    2  A    between atoms: C_4  and  C_1 
REMARK    3  A    between atoms: N_9  and  C_2 
REMARK    4  A    between atoms: O_15  and  C_3 
REMARK    5  A    between atoms: N_5  and  C_4 
REMARK    6  A    between atoms: C_8  and  N_9 
REMARK    7  A    between atoms: C_19  and  O_15 
ROOT
ATOM      1  C   UNL d   1       1.069  -0.067   0.026  0.00  0.00     0.117 C 
ATOM      2  C   UNL d   1       0.406   0.091  -1.134  0.00  0.00     0.116 C 
ENDROOT
BRANCH   2   3
ATOM      3  N   UNL d   1       0.935   0.190  -2.403  0.00  0.00    -0.362 N 
ATOM      4  H   UNL d   1       1.943   0.081  -2.498  0.00  0.00     0.165 HD
BRANCH   3   5
ATOM      5  C   UNL d   1       0.262   0.447  -3.614  0.00  0.00     0.074 A 
ATOM      6  C   UNL d   1       0.852  -0.017  -4.799  0.00  0.00     0.074 A 
ATOM      7  C   UNL d   1       0.195   0.129  -6.023  0.00  0.00     0.118 A 
ATOM      8  F   UNL d   1       0.773  -0.341  -7.136  0.00  0.00    -0.206 F 
ATOM      9  C   UNL d   1      -1.048   0.738  -6.102  0.00  0.00     0.045 A 
ATOM     10  C   UNL d   1      -1.649   1.209  -4.937  0.00  0.00     0.047 A 
ATOM     11  C   UNL d   1      -1.001   1.055  -3.710  0.00  0.00     0.143 A 
ATOM     12  F   UNL d   1      -1.609   1.550  -2.622  0.00  0.00    -0.204 F 
ENDBRANCH   3   5
ENDBRANCH   2   3
BRANCH   1  13
ATOM     13  C   UNL d   1       0.341  -0.138   1.305  0.00  0.00     0.304 C 
ATOM     14  O   UNL d   1      -0.870  -0.039   1.425  0.00  0.00    -0.258 OA
BRANCH  13  15
ATOM     15  O   UNL d   1       1.234  -0.249   2.322  0.00  0.00    -0.317 OA
BRANCH  15  16
ATOM     16  C   UNL d   1       0.744   0.091   3.624  0.00  0.00     0.174 C 
ATOM     17  C   UNL d   1       0.911   1.590   3.803  0.00  0.00     0.034 C 
ENDBRANCH  15  16
ENDBRANCH  13  15
ENDBRANCH   1  13
BRANCH   1  18
ATOM     18  C   UNL d   1       2.590  -0.067   0.026  0.00  0.00    -0.029 C 
BRANCH  18  19
ATOM     19  N   UNL d   1       3.850  -0.067   0.026  0.00  0.00    -0.365 N 
ATOM     20  HN2 UNL d   1       2.830  -0.067   0.026  1.00  0.00     0.165 HD
ATOM     21  HN1 UNL d   1       4.870  -0.067   0.026  1.00  0.00     0.165 HD
ENDBRANCH  18  19
ENDBRANCH   1  18
TORSDOF 7
