REMARK  6 active torsions:
REMARK  status: ('A' for Active; 'I' for Inactive)
REMARK       I    between atoms: N_2  and  C_1 
REMARK    1  A    between atoms: C_9  and  C_1 
REMARK    2  A    between atoms: N_3  and  N_2 
REMARK    3  A    between atoms: C_8  and  N_3 
REMARK    4  A    between atoms: C_10  and  C_4 
REMARK    5  A    between atoms: C_13  and  C_9 
REMARK    6  A    between atoms: C_14  and  C_13 
ROOT
ATOM      1  C   UNL d   1       1.086   0.239  -0.535  0.00  0.00     0.232 C 
ATOM      2  N   UNL d   1       0.173  -0.699  -0.986  0.00  0.00    -0.287 N 
ATOM      3  O   UNL d   1       2.304   0.074  -0.653  0.00  0.00    -0.272 OA
ATOM      4  H   UNL d   1      -0.709  -0.799  -0.492  0.00  0.00     0.184 HD
ENDROOT
BRANCH   2   5
ATOM      5  N   UNL d   1       0.743  -1.937  -1.373  0.00  0.00    -0.203 NA
ATOM      6  H   UNL d   1       1.766  -1.842  -1.438  0.00  0.00     0.153 HD
BRANCH   5   7
ATOM      7  C   UNL d   1       0.213  -2.491  -2.566  0.00  0.00     0.027 A 
ATOM      8  C   UNL d   1       1.031  -3.333  -3.335  0.00  0.00     0.026 A 
ATOM      9  C   UNL d   1       0.531  -4.013  -4.451  0.00  0.00     0.009 A 
ATOM     10  C   UNL d   1      -0.816  -3.898  -4.817  0.00  0.00    -0.055 A 
ATOM     11  C   UNL d   1      -1.642  -3.075  -4.041  0.00  0.00     0.009 A 
ATOM     12  C   UNL d   1      -1.136  -2.390  -2.925  0.00  0.00     0.026 A 
BRANCH  10  13
ATOM     13  C   UNL d   1      -1.387  -4.657  -6.003  0.00  0.00     0.010 C 
ATOM     14  C   UNL d   1      -0.735  -4.224  -7.319  0.00  0.00     0.015 C 
ATOM     15  C   UNL d   1      -1.269  -6.173  -5.815  0.00  0.00     0.015 C 
ENDBRANCH  10  13
ENDBRANCH   5   7
ENDBRANCH   2   5
BRANCH   1  16
ATOM     16  C   UNL d   1       0.533   1.549  -0.005  0.00  0.00     0.108 C 
BRANCH  16  17
ATOM     17  C   UNL d   1      -0.875   1.549   0.583  0.00  0.00     0.048 C 
BRANCH  17  18
ATOM     18  C   UNL d   1      -1.129   0.761   1.849  0.00  0.00    -0.058 A 
ATOM     19  C   UNL d   1      -0.121   0.414   2.758  0.00  0.00     0.007 A 
ATOM     20  C   UNL d   1      -0.435  -0.247   3.950  0.00  0.00     0.001 A 
ATOM     21  C   UNL d   1      -1.757  -0.563   4.253  0.00  0.00     0.000 A 
ATOM     22  C   UNL d   1      -2.770  -0.219   3.364  0.00  0.00     0.001 A 
ATOM     23  C   UNL d   1      -2.458   0.441   2.173  0.00  0.00     0.007 A 
ENDBRANCH  17  18
ENDBRANCH  16  17
ENDBRANCH   1  16
TORSDOF 6
