REMARK  8 active torsions:
REMARK  status: ('A' for Active; 'I' for Inactive)
REMARK    1  A    between atoms: C_6  and  S_1 
REMARK    2  A    between atoms: C_11  and  S_1 
REMARK    3  A    between atoms: C_2  and  C_3 
REMARK    4  A    between atoms: S_5  and  C_2 
REMARK    5  A    between atoms: C_4  and  S_14 
REMARK    6  A    between atoms: C_13  and  S_5 
REMARK    7  A    between atoms: C_15  and  C_6 
REMARK    8  A    between atoms: S_14  and  C_15 
ROOT
ATOM      1  C   UNL d   1       0.505   1.327  -5.480  0.00  0.00     0.054 A 
ATOM      2  C   UNL d   1       1.617   0.487  -5.403  0.00  0.00     0.084 A 
ATOM      3  N   UNL d   1       2.269   0.052  -6.512  0.00  0.00    -0.360 N 
ATOM      4  HN  UNL d   1       3.040  -0.612  -6.442  1.00  0.00     0.166 HD
ATOM      5  C   UNL d   1       0.174   1.876  -6.727  0.00  0.00     0.020 A 
ATOM      6  C   UNL d   1       1.865   0.527  -7.711  0.00  0.00     0.089 A 
ATOM      7  C   UNL d   1       0.870   1.475  -7.862  0.00  0.00     0.018 A 
ENDROOT
BRANCH   2   8
ATOM      8  S   UNL d   1       2.440   0.198  -3.840  0.00  0.00    -0.110 SA
BRANCH   8   9
ATOM      9  C   UNL d   1       3.578  -1.181  -4.207  0.00  0.00     0.096 C 
BRANCH   9  10
ATOM     10  C   UNL d   1       4.733  -1.044  -3.235  0.00  0.00     0.156 C 
BRANCH  10  11
ATOM     11  S   UNL d   1       5.777  -2.480  -3.262  0.00  0.00     0.176 S 
ATOM     12  O   UNL d   1       6.397  -2.570  -4.573  0.00  0.00    -0.223 OA
ATOM     13  O   UNL d   1       5.046  -3.596  -2.697  0.00  0.00    -0.223 OA
BRANCH  11  14
ATOM     14  C   UNL d   1       7.047  -2.030  -2.103  0.00  0.00     0.059 A 
ATOM     15  C   UNL d   1       6.888  -2.342  -0.752  0.00  0.00     0.023 A 
ATOM     16  C   UNL d   1       7.864  -1.945   0.161  0.00  0.00     0.002 A 
ATOM     17  C   UNL d   1       8.993  -1.251  -0.281  0.00  0.00     0.000 A 
ATOM     18  C   UNL d   1       9.155  -0.961  -1.637  0.00  0.00     0.002 A 
ATOM     19  C   UNL d   1       8.184  -1.353  -2.556  0.00  0.00     0.023 A 
ENDBRANCH  11  14
ENDBRANCH  10  11
ENDBRANCH   9  10
ENDBRANCH   8   9
ENDBRANCH   2   8
BRANCH   1  20
ATOM     20  C   UNL d   1      -0.351   1.686  -4.326  0.00  0.00     0.222 C 
ATOM     21  O   UNL d   1      -0.717   2.844  -4.176  0.00  0.00    -0.280 OA
BRANCH  20  22
ATOM     22  S   UNL d   1      -0.953   0.338  -3.362  0.00  0.00    -0.078 SA
BRANCH  22  23
ATOM     23  C   UNL d   1      -2.072   1.090  -2.119  0.00  0.00     0.005 C 
ATOM     24  C   UNL d   1      -3.308   1.683  -2.802  0.00  0.00     0.026 C 
ATOM     25  C   UNL d   1      -2.533  -0.067  -1.204  0.00  0.00     0.026 C 
ATOM     26  C   UNL d   1      -1.353   2.121  -1.241  0.00  0.00     0.026 C 
ENDBRANCH  22  23
ENDBRANCH  20  22
ENDBRANCH   1  20
TORSDOF 8
