REMARK  1 active torsions:
REMARK  status: ('A' for Active; 'I' for Inactive)
REMARK    1  A    between atoms: C_2  and  N_1 
REMARK       I    between atoms: C_4  and  N_1 
ROOT
ATOM      1  C   UNL d   1       0.357   1.431   0.081  0.00  0.00     0.073 A 
ATOM      2  C   UNL d   1       0.638   2.573  -0.684  0.00  0.00     0.144 A 
ATOM      3  C   UNL d   1      -0.116   3.738  -0.551  0.00  0.00     0.063 A 
ATOM      4  C   UNL d   1      -0.753   1.463   0.937  0.00  0.00     0.034 A 
ATOM      5  C   UNL d   1      -1.182   3.766   0.339  0.00  0.00     0.014 A 
ATOM      6  F   UNL d   1       1.576   2.565  -1.640  0.00  0.00    -0.204 F 
ATOM      7  C   UNL d   1      -1.515   2.630   1.073  0.00  0.00     0.021 A 
ATOM      8 BR   UNL d   1      -2.196   5.348   0.540  0.00  0.00    -0.051 Br
ENDROOT
BRANCH   1   9
ATOM      9  N   UNL d   1       1.103   0.230   0.038  0.00  0.00    -0.325 N 
ATOM     10  C   UNL d   1       2.423   0.108  -0.355  0.00  0.00     0.218 C 
ATOM     11  O   UNL d   1       3.198   1.024  -0.609  0.00  0.00    -0.274 OA
ATOM     12  C   UNL d   1       2.910  -1.320  -0.381  0.00  0.00     0.117 C 
ATOM     13  H   UNL d   1       0.699  -0.567   0.514  0.00  0.00     0.169 HD
ENDBRANCH   1   9
TORSDOF 1
