REMARK  3 active torsions:
REMARK  status: ('A' for Active; 'I' for Inactive)
REMARK    1  A    between atoms: N_2  and  S_1 
REMARK    2  A    between atoms: C_5  and  S_1 
REMARK    3  A    between atoms: C_3  and  N_2 
ROOT
ATOM      1  C   UNL d   1       2.353  -0.627   1.043  0.00  0.00     0.074 A 
ATOM      2  N   UNL d   1       6.195  -2.397   4.374  0.00  0.00    -0.191 NA
ATOM      3  C   UNL d   1       5.363  -2.027   3.655  0.00  0.00     0.099 C 
ATOM      4  C   UNL d   1       3.698  -0.360   0.762  0.00  0.00     0.026 A 
ATOM      5  C   UNL d   1       1.992  -1.361   2.175  0.00  0.00     0.026 A 
ATOM      6  C   UNL d   1       4.341  -1.567   2.761  0.00  0.00     0.044 A 
ATOM      7  C   UNL d   1       2.992  -1.835   3.031  0.00  0.00     0.024 A 
ATOM      8  C   UNL d   1       4.691  -0.831   1.622  0.00  0.00     0.024 A 
ENDROOT
BRANCH   1   9
ATOM      9  S   UNL d   1       1.091   0.104   0.025  0.00  0.00     0.242 S 
ATOM     10  O   UNL d   1       0.157   0.741   0.926  0.00  0.00    -0.206 OA
ATOM     11  O   UNL d   1       1.770   0.832  -1.023  0.00  0.00    -0.206 OA
BRANCH   9  12
ATOM     12  N   UNL d   1       0.285  -1.232  -0.630  0.00  0.00    -0.202 NA
ATOM     13  H   UNL d   1      -0.718  -1.026  -0.619  0.00  0.00     0.141 HD
BRANCH  12  14
ATOM     14  C   UNL d   1       0.773  -1.766  -1.928  0.00  0.00     0.163 C 
ATOM     15  C   UNL d   1       0.590  -0.728  -3.042  0.00  0.00     0.236 C 
ATOM     16  N   UNL d   1       1.351  -0.879  -4.166  0.00  0.00    -0.360 N 
ATOM     17  O   UNL d   1      -0.252   0.166  -2.985  0.00  0.00    -0.272 OA
ATOM     18  C   UNL d   1       1.952  -2.125  -4.582  0.00  0.00     0.122 C 
ATOM     19  H   UNL d   1       1.159  -0.173  -4.868  0.00  0.00     0.162 HD
ATOM     20  C   UNL d   1       0.899  -3.222  -4.712  0.00  0.00     0.020 C 
ATOM     21  C   UNL d   1       0.556  -3.898  -3.380  0.00  0.00     0.004 C 
ATOM     22  C   UNL d   1      -0.064  -3.001  -2.300  0.00  0.00     0.030 C 
ENDBRANCH  12  14
ENDBRANCH   9  12
ENDBRANCH   1   9
TORSDOF 3
