REMARK  5 active torsions:
REMARK  status: ('A' for Active; 'I' for Inactive)
REMARK    1  A    between atoms: C_7  and  C_1 
REMARK    2  A    between atoms: O_11  and  C_4 
REMARK    3  A    between atoms: C_8  and  C_6 
REMARK    4  A    between atoms: O_13  and  C_7 
REMARK    5  A    between atoms: C_18  and  O_13 
ROOT
ATOM      1  C   UNL d   1      -0.145   1.104  -0.018  0.00  0.00     0.133 A 
ATOM      2  N   UNL d   1      -0.584  -1.192  -0.091  0.00  0.00    -0.329 N 
ATOM      3  HN  UNL d   1      -1.153  -2.037  -0.149  1.00  0.00     0.168 HD
ATOM      4  C   UNL d   1      -1.073   0.087  -0.073  0.00  0.00     0.164 A 
ATOM      5  S   UNL d   1       1.426   0.406  -0.010  0.00  0.00    -0.061 SA
ATOM      6  C   UNL d   1       0.733  -1.169  -0.021  0.00  0.00     0.087 A 
ENDROOT
BRANCH   6   7
ATOM      7  C   UNL d   1       1.571  -2.378   0.010  0.00  0.00    -0.001 A 
ATOM      8  C   UNL d   1       2.829  -2.416   0.635  0.00  0.00     0.038 A 
ATOM      9  C   UNL d   1       3.574  -3.597   0.648  0.00  0.00     0.035 A 
ATOM     10 CL   UNL d   1       5.107  -3.626   1.429  0.00  0.00    -0.084 Cl
ATOM     11  C   UNL d   1       3.086  -4.752   0.044  0.00  0.00     0.024 A 
ATOM     12  C   UNL d   1       1.838  -4.732  -0.574  0.00  0.00     0.003 A 
ATOM     13  C   UNL d   1       1.087  -3.555  -0.587  0.00  0.00     0.014 A 
ENDBRANCH   6   7
BRANCH   1  14
ATOM     14  C   UNL d   1      -0.280   2.535   0.087  0.00  0.00     0.304 C 
ATOM     15  O   UNL d   1       0.641   3.333   0.215  0.00  0.00    -0.259 OA
BRANCH  14  16
ATOM     16  O   UNL d   1      -1.596   2.886   0.120  0.00  0.00    -0.317 OA
BRANCH  16  17
ATOM     17  C   UNL d   1      -1.884   4.164   0.698  0.00  0.00     0.174 C 
ATOM     18  C   UNL d   1      -2.011   3.977   2.200  0.00  0.00     0.034 C 
ENDBRANCH  16  17
ENDBRANCH  14  16
ENDBRANCH   1  14
BRANCH   4  19
ATOM     19  O   UNL d   1      -2.396   0.290  -0.076  0.00  0.00    -0.345 OA
ATOM     20  H   UNL d   1      -2.807  -0.592  -0.079  0.00  0.00     0.219 HD
ENDBRANCH   4  19
TORSDOF 5
