REMARK  2 active torsions:
REMARK  status: ('A' for Active; 'I' for Inactive)
REMARK    1  A    between atoms: C_5  and  N_1 
REMARK    2  A    between atoms: N_12  and  C_11 
ROOT
ATOM      1  C   UNL d   1       2.134  -1.502   0.033  0.00  0.00     0.141 A 
ATOM      2  N   UNL d   1       3.070  -1.441   1.001  0.00  0.00    -0.282 N 
ATOM      3  HN  UNL d   1       2.960  -0.778   1.768  1.00  0.00     0.188 HD
ATOM      4  N   UNL d   1       4.186  -2.273   0.964  0.00  0.00    -0.284 N 
ATOM      5  HN  UNL d   1       4.894  -2.192   1.694  1.00  0.00     0.188 HD
ATOM      6  C   UNL d   1       4.350  -3.184  -0.016  0.00  0.00     0.118 A 
ATOM      7  C   UNL d   1       2.293  -2.385  -1.022  0.00  0.00     0.055 A 
ATOM      8  C   UNL d   1       3.406  -3.225  -1.040  0.00  0.00     0.053 A 
ENDROOT
BRANCH   1   9
ATOM      9  N   UNL d   1       0.954  -0.695   0.106  0.00  0.00    -0.243 N 
ATOM     10  N   UNL d   1      -0.033  -0.866  -0.830  0.00  0.00    -0.297 N 
ATOM     11  C   UNL d   1      -1.043  -0.089  -0.432  0.00  0.00     0.024 A 
ATOM     12  HN  UNL d   1      -0.002  -1.462  -1.657  1.00  0.00     0.187 HD
ATOM     13  C   UNL d   1      -2.317  -0.056  -1.189  0.00  0.00     0.070 C 
ATOM     14  C   UNL d   1      -0.710   0.632   0.724  0.00  0.00     0.052 A 
ATOM     15  C   UNL d   1       0.585   0.267   1.040  0.00  0.00     0.034 A 
ATOM     16  C   UNL d   1       1.414   0.784   2.158  0.00  0.00     0.070 C 
ENDBRANCH   1   9
BRANCH   6  17
ATOM     17  N   UNL d   1       5.446  -4.037  -0.047  0.00  0.00    -0.365 N 
ATOM     18  C   UNL d   1       6.673  -3.636   0.656  0.00  0.00     0.134 C 
ATOM     19  C   UNL d   1       6.880  -4.316   2.013  0.00  0.00     0.093 C 
ATOM     20  S   UNL d   1       6.861  -6.135   1.890  0.00  0.00    -0.166 SA
ATOM     21  C   UNL d   1       5.250  -6.279   1.059  0.00  0.00     0.093 C 
ATOM     22  C   UNL d   1       5.207  -5.476  -0.244  0.00  0.00     0.134 C 
ENDBRANCH   6  17
TORSDOF 2
