REMARK  2 active torsions:
REMARK  status: ('A' for Active; 'I' for Inactive)
REMARK    1  A    between atoms: C_7  and  C_2 
REMARK    2  A    between atoms: S_14  and  C_3 
ROOT
ATOM      1  C   UNL d   1      -0.472  -1.438   0.000  0.00  0.00     0.135 C 
ATOM      2  C   UNL d   1       0.456   1.415   0.100  0.00  0.00     0.187 C 
ATOM      3  C   UNL d   1      -1.484  -0.554   0.100  0.00  0.00     0.065 C 
ATOM      4  S   UNL d   1      -1.260   1.119   0.533  0.00  0.00    -0.091 SA
ATOM      5  N   UNL d   1       1.286   0.258   0.286  0.00  0.00    -0.338 N 
ATOM      6  C   UNL d   1       0.944  -1.050   0.215  0.00  0.00     0.265 C 
ATOM      7  C   UNL d   1      -0.685  -2.816  -0.295  0.00  0.00     0.107 C 
ATOM      8  N   UNL d   1      -0.897  -3.938  -0.511  0.00  0.00    -0.191 NA
ATOM      9  O   UNL d   1       1.833  -1.892   0.314  0.00  0.00    -0.267 OA
ATOM     10  H   UNL d   1       2.284   0.411   0.378  0.00  0.00     0.164 HD
ENDROOT
BRANCH   3  11
ATOM     11  S   UNL d   1      -3.158  -0.990  -0.234  0.00  0.00    -0.126 SA
ATOM     12  C   UNL d   1      -3.593  -1.923   1.256  0.00  0.00     0.096 C 
ENDBRANCH   3  11
BRANCH   2  13
ATOM     13  C   UNL d   1       0.647   2.068  -1.260  0.00  0.00    -0.003 A 
ATOM     14  C   UNL d   1       1.013   3.425  -1.392  0.00  0.00     0.044 A 
ATOM     15  C   UNL d   1       1.183   4.014  -2.652  0.00  0.00     0.048 A 
ATOM     16 CL   UNL d   1       1.287   4.452  -0.027  0.00  0.00    -0.084 Cl
ATOM     17  C   UNL d   1       0.983   3.260  -3.801  0.00  0.00     0.035 A 
ATOM     18  C   UNL d   1       0.617   1.922  -3.704  0.00  0.00     0.024 A 
ATOM     19 CL   UNL d   1       1.190   3.984  -5.346  0.00  0.00    -0.084 Cl
ATOM     20  C   UNL d   1       0.452   1.331  -2.446  0.00  0.00     0.013 A 
ENDBRANCH   2  13
TORSDOF 2
