REMARK  6 active torsions:
REMARK  status: ('A' for Active; 'I' for Inactive)
REMARK    1  A    between atoms: C_6  and  C_1 
REMARK    2  A    between atoms: C_7  and  C_2 
REMARK    3  A    between atoms: C_11  and  N_3 
REMARK       I    between atoms: N_10  and  C_7 
REMARK    4  A    between atoms: C_9  and  O_13 
REMARK    5  A    between atoms: C_19  and  N_10 
REMARK    6  A    between atoms: O_13  and  C_23 
ROOT
ATOM      1  C   UNL d   1       1.037  -0.554  -0.512  0.00  0.00     0.157 A 
ATOM      2  C   UNL d   1      -0.192  -1.128  -0.161  0.00  0.00     0.082 A 
ATOM      3  N   UNL d   1       0.958   0.804  -0.197  0.00  0.00    -0.251 N 
ATOM      4  N   UNL d   1      -0.241   1.093   0.373  0.00  0.00    -0.303 N 
ATOM      5  HN  UNL d   1      -0.548   1.993   0.742  1.00  0.00     0.186 HD
ATOM      6  C   UNL d   1      -0.929  -0.039   0.348  0.00  0.00     0.127 A 
ENDROOT
BRANCH   2   7
ATOM      7  C   UNL d   1      -0.757  -2.491  -0.183  0.00  0.00     0.259 C 
ATOM      8  N   UNL d   1       0.096  -3.510  -0.535  0.00  0.00    -0.323 N 
ATOM      9  H   UNL d   1       1.029  -3.268  -0.834  0.00  0.00     0.169 HD
ATOM     10  O   UNL d   1      -1.929  -2.652   0.139  0.00  0.00    -0.267 OA
BRANCH   8  11
ATOM     11  C   UNL d   1      -0.113  -4.903  -0.406  0.00  0.00     0.035 A 
ATOM     12  C   UNL d   1      -1.288  -5.494   0.059  0.00  0.00     0.032 A 
ATOM     13  C   UNL d   1      -1.371  -6.885   0.239  0.00  0.00     0.039 A 
ATOM     14  C   UNL d   1      -0.289  -7.706  -0.077  0.00  0.00     0.078 A 
ATOM     15  C   UNL d   1       0.881  -7.114  -0.558  0.00  0.00     0.039 A 
ATOM     16  C   UNL d   1       0.969  -5.730  -0.725  0.00  0.00     0.032 A 
BRANCH  14  17
ATOM     17  O   UNL d   1      -0.226  -9.063   0.007  0.00  0.00    -0.255 OA
BRANCH  17  18
ATOM     18  C   UNL d   1      -1.351  -9.790   0.464  0.00  0.00     0.530 C 
ATOM     19  F   UNL d   1      -2.497  -9.388  -0.128  0.00  0.00    -0.144 F 
ATOM     20  F   UNL d   1      -1.168 -11.092   0.154  0.00  0.00    -0.144 F 
ATOM     21  F   UNL d   1      -1.472  -9.687   1.804  0.00  0.00    -0.144 F 
ENDBRANCH  17  18
ENDBRANCH  14  17
ENDBRANCH   8  11
ENDBRANCH   2   7
BRANCH   1  22
ATOM     22  C   UNL d   1       2.264  -1.136  -1.067  0.00  0.00     0.435 C 
ATOM     23  F   UNL d   1       2.273  -2.494  -1.012  0.00  0.00    -0.165 F 
ATOM     24  F   UNL d   1       2.418  -0.831  -2.377  0.00  0.00    -0.165 F 
ATOM     25  F   UNL d   1       3.381  -0.749  -0.409  0.00  0.00    -0.165 F 
ENDBRANCH   1  22
BRANCH   3  26
ATOM     26  C   UNL d   1       1.874   1.910  -0.352  0.00  0.00     0.057 A 
ATOM     27  C   UNL d   1       2.987   1.896  -1.200  0.00  0.00     0.033 A 
ATOM     28  C   UNL d   1       3.821   3.019  -1.307  0.00  0.00     0.026 A 
ATOM     29  C   UNL d   1       3.548   4.172  -0.580  0.00  0.00     0.034 A 
ATOM     30  C   UNL d   1       2.446   4.214   0.263  0.00  0.00     0.026 A 
ATOM     31 CL   UNL d   1       4.564   5.548  -0.741  0.00  0.00    -0.084 Cl
ATOM     32  C   UNL d   1       1.614   3.094   0.373  0.00  0.00     0.033 A 
ENDBRANCH   3  26
TORSDOF 6
