REMARK  1 active torsions:
REMARK  status: ('A' for Active; 'I' for Inactive)
REMARK    1  A    between atoms: C_2  and  N_1 
ROOT
ATOM      1  C   UNL d   1      -0.754  -2.462   0.016  0.00  0.00     0.080 A 
ATOM      2  N   UNL d   1      -2.308  -1.686  -3.155  0.00  0.00    -0.191 NA
ATOM      3  N   UNL d   1       0.972  -2.646   3.184  0.00  0.00    -0.191 NA
ATOM      4  C   UNL d   1      -1.957  -2.244  -2.200  0.00  0.00     0.102 C 
ATOM      5  C   UNL d   1       0.367  -2.927   2.234  0.00  0.00     0.102 C 
ATOM      6  C   UNL d   1      -1.566  -2.980  -1.026  0.00  0.00     0.073 A 
ATOM      7  C   UNL d   1      -0.370  -3.333   1.068  0.00  0.00     0.073 A 
ATOM      8  C   UNL d   1      -0.784  -4.679   1.057  0.00  0.00     0.025 A 
ATOM      9  C   UNL d   1      -1.974  -4.328  -0.996  0.00  0.00     0.025 A 
ATOM     10  C   UNL d   1      -1.583  -5.175   0.035  0.00  0.00     0.003 A 
ENDROOT
BRANCH   1  11
ATOM     11  N   UNL d   1      -0.327  -1.091   0.005  0.00  0.00    -0.330 N 
ATOM     12  C   UNL d   1      -1.039  -0.005  -0.469  0.00  0.00     0.097 A 
ATOM     13  C   UNL d   1      -0.294   1.143  -0.307  0.00  0.00     0.019 A 
ATOM     14  C   UNL d   1       0.912   0.770   0.310  0.00  0.00     0.019 A 
ATOM     15  C   UNL d   1       0.878  -0.598   0.471  0.00  0.00     0.097 A 
ENDBRANCH   1  11
TORSDOF 1
