REMARK  12 active torsions:
REMARK  status: ('A' for Active; 'I' for Inactive)
REMARK       I    between atoms: N_2  and  C_1 
REMARK    1  A    between atoms: O_6  and  C_1 
REMARK    2  A    between atoms: C_4  and  N_2 
REMARK    3  A    between atoms: O_7  and  C_3 
REMARK    4  A    between atoms: C_4  and  C_3 
REMARK    5  A    between atoms: C_10  and  C_4 
REMARK    6  A    between atoms: C_5  and  C_13 
REMARK    7  A    between atoms: O_17  and  C_5 
REMARK    8  A    between atoms: C_12  and  O_6 
REMARK    9  A    between atoms: C_14  and  O_7 
REMARK   10  A    between atoms: C_22  and  C_10 
REMARK   11  A    between atoms: C_13  and  C_15 
REMARK   12  A    between atoms: C_16  and  C_14 
ROOT
ATOM      1  C   UNL d   1      -0.036  -2.490   1.090  0.00  0.00     0.282 C 
ATOM      2  O   UNL d   1      -0.583  -2.920   0.074  0.00  0.00    -0.263 OA
ENDROOT
BRANCH   1   3
ATOM      3  O   UNL d   1      -0.708  -1.913   2.119  0.00  0.00    -0.315 OA
BRANCH   3   4
ATOM      4  C   UNL d   1      -2.123  -1.732   1.909  0.00  0.00     0.217 C 
BRANCH   4   5
ATOM      5  C   UNL d   1      -2.938  -2.285   3.059  0.00  0.00    -0.034 A 
ATOM      6  C   UNL d   1      -2.781  -1.777   4.354  0.00  0.00     0.010 A 
ATOM      7  C   UNL d   1      -3.642  -2.170   5.384  0.00  0.00     0.008 A 
ATOM      8  C   UNL d   1      -4.674  -3.089   5.145  0.00  0.00    -0.048 A 
ATOM      9  C   UNL d   1      -4.803  -3.635   3.861  0.00  0.00     0.008 A 
ATOM     10  C   UNL d   1      -3.944  -3.237   2.830  0.00  0.00     0.010 A 
BRANCH   8  11
ATOM     11  C   UNL d   1      -5.670  -3.432   6.234  0.00  0.00     0.148 C 
BRANCH  11  12
ATOM     12  C   UNL d   1      -5.095  -4.037   7.500  0.00  0.00     0.143 C 
ATOM     13  O   UNL d   1      -5.606  -3.881   8.596  0.00  0.00    -0.650 OA
BRANCH  12  14
ATOM     14  O   UNL d   1      -4.018  -4.835   7.316  0.00  0.00    -0.776 OA
ATOM     15  H   UNL d   1      -3.708  -4.880   6.390  0.00  0.00     0.167 HD
ENDBRANCH  12  14
ENDBRANCH  11  12
ENDBRANCH   8  11
ENDBRANCH   4   5
ENDBRANCH   3   4
ENDBRANCH   1   3
BRANCH   1  16
ATOM     16  C   UNL d   1       1.469  -2.728   1.352  0.00  0.00     0.187 C 
BRANCH  16  17
ATOM     17  C   UNL d   1       2.253  -1.822   2.332  0.00  0.00     0.039 C 
BRANCH  17  18
ATOM     18  C   UNL d   1       1.802  -1.519   3.804  0.00  0.00    -0.020 C 
ATOM     19  C   UNL d   1       1.364  -2.675   4.710  0.00  0.00     0.009 C 
ATOM     20  C   UNL d   1       2.961  -0.806   4.538  0.00  0.00     0.009 C 
ENDBRANCH  17  18
ENDBRANCH  16  17
BRANCH  16  21
ATOM     21  N   UNL d   1       2.101  -2.900  -0.026  0.00  0.00    -0.323 N 
ATOM     22  C   UNL d   1       2.859  -2.031  -0.799  0.00  0.00     0.362 C 
ATOM     23  O   UNL d   1       3.343  -0.995  -0.409  0.00  0.00    -0.238 OA
ATOM     24  H   UNL d   1       1.646  -3.595  -0.604  0.00  0.00     0.165 HD
BRANCH  22  25
ATOM     25  O   UNL d   1       3.003  -2.539  -2.063  0.00  0.00    -0.294 OA
BRANCH  25  26
ATOM     26  C   UNL d   1       3.926  -2.002  -3.087  0.00  0.00     0.061 C 
ATOM     27  C   UNL d   1       5.384  -2.047  -2.600  0.00  0.00     0.046 C 
ATOM     28  C   UNL d   1       3.787  -2.930  -4.319  0.00  0.00     0.046 C 
ATOM     29  C   UNL d   1       3.599  -0.578  -3.561  0.00  0.00     0.046 C 
ENDBRANCH  25  26
ENDBRANCH  22  25
ENDBRANCH  16  21
ENDBRANCH   1  16
TORSDOF 12
