REMARK  2 active torsions:
REMARK  status: ('A' for Active; 'I' for Inactive)
REMARK    1  A    between atoms: C_2  and  C_1 
REMARK       I    between atoms: N_7  and  C_2 
REMARK    2  A    between atoms: C_12  and  N_7 
ROOT
ATOM      1  C   UNL d   1       2.412  -1.923   0.028  0.00  0.00     0.259 C 
ATOM      2  N   UNL d   1       2.450  -3.306   0.057  0.00  0.00    -0.323 N 
ATOM      3  O   UNL d   1       1.392  -1.244  -0.060  0.00  0.00    -0.267 OA
ATOM      4  H   UNL d   1       3.339  -3.745   0.268  0.00  0.00     0.169 HD
ENDROOT
BRANCH   2   5
ATOM      5  C   UNL d   1       1.327  -4.161  -0.018  0.00  0.00     0.036 A 
ATOM      6  C   UNL d   1       0.071  -3.736  -0.460  0.00  0.00     0.048 A 
ATOM      7  C   UNL d   1      -0.981  -4.633  -0.388  0.00  0.00     0.050 A 
ATOM      8  C   UNL d   1      -2.375  -4.419  -0.753  0.00  0.00     0.294 A 
ATOM      9  C   UNL d   1      -0.835  -5.916   0.089  0.00  0.00    -0.018 A 
ATOM     10  O   UNL d   1      -3.036  -5.578  -0.448  0.00  0.00    -0.313 OA
ATOM     11  O   UNL d   1      -2.859  -3.419  -1.240  0.00  0.00    -0.259 OA
ATOM     12  C   UNL d   1      -2.156  -6.573   0.116  0.00  0.00     0.218 A 
ATOM     13  C   UNL d   1       0.409  -6.380   0.473  0.00  0.00     0.012 A 
ATOM     14  C   UNL d   1       1.496  -5.497   0.404  0.00  0.00     0.030 A 
ENDBRANCH   2   5
BRANCH   1  15
ATOM     15  C   UNL d   1       3.706  -1.193   0.154  0.00  0.00     0.071 A 
ATOM     16  C   UNL d   1       4.949  -1.826   0.160  0.00  0.00     0.135 A 
ATOM     17  C   UNL d   1       6.131  -1.091   0.233  0.00  0.00     0.085 A 
ATOM     18  F   UNL d   1       5.042  -3.164   0.098  0.00  0.00    -0.205 F 
ATOM     19  C   UNL d   1       6.065   0.294   0.310  0.00  0.00     0.119 A 
ATOM     20  C   UNL d   1       4.843   0.953   0.328  0.00  0.00     0.043 A 
ATOM     21  F   UNL d   1       7.197   1.006   0.366  0.00  0.00    -0.206 F 
ATOM     22  C   UNL d   1       3.663   0.211   0.251  0.00  0.00     0.023 A 
ENDBRANCH   1  15
TORSDOF 2
