REMARK  5 active torsions:
REMARK  status: ('A' for Active; 'I' for Inactive)
REMARK    1  A    between atoms: C_2  and  N_1 
REMARK    2  A    between atoms: N_13  and  C_4 
REMARK    3  A    between atoms: C_17  and  N_13 
REMARK    4  A    between atoms: C_14  and  C_16 
REMARK    5  A    between atoms: C_16  and  C_17 
ROOT
ATOM      1  C   UNL d   1      -0.812  -0.612  -3.076  0.00  0.00     0.125 A 
ATOM      2  N   UNL d   1       1.774  -4.706  -3.281  0.00  0.00    -0.191 NA
ATOM      3  C   UNL d   1      -0.517   0.020  -1.852  0.00  0.00     0.041 A 
ATOM      4  C   UNL d   1       1.287  -3.699  -2.986  0.00  0.00     0.099 C 
ATOM      5  C   UNL d   1      -0.228  -1.830  -3.468  0.00  0.00     0.060 A 
ATOM      6  C   UNL d   1       0.678  -2.453  -2.614  0.00  0.00     0.047 A 
ATOM      7  C   UNL d   1       0.386  -0.649  -1.012  0.00  0.00     0.027 A 
ATOM      8  C   UNL d   1       0.988  -1.858  -1.390  0.00  0.00     0.024 A 
ENDROOT
BRANCH   1   9
ATOM      9  N   UNL d   1      -1.690   0.028  -4.041  0.00  0.00    -0.114 N 
ATOM     10  O   UNL d   1      -2.873   0.193  -3.718  0.00  0.00    -0.532 OA
ATOM     11  O   UNL d   1      -1.201   0.286  -5.151  0.00  0.00    -0.532 OA
ENDBRANCH   1   9
BRANCH   3  12
ATOM     12  N   UNL d   1      -1.155   1.209  -1.460  0.00  0.00    -0.291 NA
ATOM     13  H   UNL d   1      -2.121   1.006  -1.179  0.00  0.00     0.127 HD
BRANCH  12  14
ATOM     14  C   UNL d   1      -0.492   2.066  -0.461  0.00  0.00     0.098 C 
BRANCH  14  15
ATOM     15  C   UNL d   1      -1.083   3.477  -0.490  0.00  0.00     0.071 C 
BRANCH  15  16
ATOM     16  C   UNL d   1      -0.316   4.398   0.426  0.00  0.00     0.010 A 
ATOM     17  N   UNL d   1      -0.288   4.075   1.743  0.00  0.00    -0.369 N 
ATOM     18  C   UNL d   1       0.395   4.897   2.572  0.00  0.00     0.088 A 
ATOM     19  HN  UNL d   1      -0.765   3.245   2.095  1.00  0.00     0.165 HD
ATOM     20  C   UNL d   1       1.064   6.034   2.153  0.00  0.00     0.017 A 
ATOM     21  C   UNL d   1       1.027   6.352   0.802  0.00  0.00     0.003 A 
ATOM     22  C   UNL d   1       0.326   5.528  -0.076  0.00  0.00     0.025 A 
ENDBRANCH  15  16
ENDBRANCH  14  15
ENDBRANCH  12  14
ENDBRANCH   3  12
TORSDOF 5
