REMARK  6 active torsions:
REMARK  status: ('A' for Active; 'I' for Inactive)
REMARK    1  A    between atoms: C_13  and  C_1 
REMARK    2  A    between atoms: C_3  and  C_2 
REMARK    3  A    between atoms: O_21  and  C_13 
REMARK    4  A    between atoms: N_14  and  N_17 
REMARK    5  A    between atoms: C_16  and  C_20 
REMARK    6  A    between atoms: C_25  and  O_21 
ROOT
ATOM      1  C   UNL d   1      -1.592   2.201  -0.074  0.00  0.00     0.077 A 
ATOM      2  N   UNL d   1      -2.562   2.396   0.881  0.00  0.00    -0.333 N 
ATOM      3  HN  UNL d   1      -2.842   1.702   1.575  1.00  0.00     0.168 HD
ATOM      4  C   UNL d   1      -3.080   3.602   0.777  0.00  0.00     0.163 A 
ATOM      5  S   UNL d   1      -2.447   4.539  -0.528  0.00  0.00    -0.062 SA
ATOM      6  C   UNL d   1      -1.364   3.266  -0.916  0.00  0.00     0.085 A 
ATOM      7  N   UNL d   1      -4.012   4.128   1.617  0.00  0.00    -0.280 N 
ATOM      8  H   UNL d   1      -4.282   5.091   1.439  0.00  0.00     0.189 HD
ENDROOT
BRANCH   7   9
ATOM      9  N   UNL d   1      -4.138   3.636   2.880  0.00  0.00    -0.309 N 
ATOM     10  C   UNL d   1      -5.009   4.205   3.649  0.00  0.00     0.120 C 
ATOM     11  HN  UNL d   1      -3.571   2.854   3.206  1.00  0.00     0.186 HD
BRANCH  10  12
ATOM     12  C   UNL d   1      -5.135   3.782   5.062  0.00  0.00     0.002 A 
ATOM     13  C   UNL d   1      -6.098   4.322   5.919  0.00  0.00     0.045 A 
ATOM     14 CL   UNL d   1      -7.265   5.487   5.405  0.00  0.00    -0.083 Cl
ATOM     15  C   UNL d   1      -6.139   3.916   7.259  0.00  0.00     0.024 A 
ATOM     16  C   UNL d   1      -5.224   2.979   7.744  0.00  0.00     0.002 A 
ATOM     17  C   UNL d   1      -4.269   2.434   6.892  0.00  0.00     0.001 A 
ATOM     18  C   UNL d   1      -4.224   2.832   5.556  0.00  0.00     0.014 A 
ENDBRANCH  10  12
ENDBRANCH   7   9
BRANCH   1  19
ATOM     19  C   UNL d   1      -0.853   0.918  -0.156  0.00  0.00     0.128 A 
ATOM     20  C   UNL d   1      -1.069  -0.183   0.636  0.00  0.00     0.079 A 
ATOM     21  C   UNL d   1      -0.109  -1.135   0.212  0.00  0.00     0.132 A 
ATOM     22  N   UNL d   1       0.629  -0.640  -0.798  0.00  0.00    -0.255 N 
ATOM     23  O   UNL d   1       0.157   0.640  -1.025  0.00  0.00    -0.235 OA
ATOM     24  HN  UNL d   1       1.383  -1.113  -1.295  1.00  0.00     0.195 HD
BRANCH  21  25
ATOM     25  C   UNL d   1       0.129  -2.454   0.792  0.00  0.00     0.311 C 
ATOM     26  O   UNL d   1      -0.529  -2.895   1.731  0.00  0.00    -0.258 OA
BRANCH  25  27
ATOM     27  O   UNL d   1       1.202  -3.088   0.240  0.00  0.00    -0.317 OA
BRANCH  27  28
ATOM     28  C   UNL d   1       1.739  -4.177   1.001  0.00  0.00     0.175 C 
ATOM     29  C   UNL d   1       2.705  -3.614   2.029  0.00  0.00     0.034 C 
ENDBRANCH  27  28
ENDBRANCH  25  27
ENDBRANCH  21  25
ENDBRANCH   1  19
TORSDOF 6
