REMARK  4 active torsions:
REMARK  status: ('A' for Active; 'I' for Inactive)
REMARK    1  A    between atoms: C_2  and  S_1 
REMARK    2  A    between atoms: N_3  and  S_1 
REMARK    3  A    between atoms: C_13  and  N_3 
REMARK    4  A    between atoms: N_5  and  C_6 
REMARK       I    between atoms: C_12  and  N_5 
ROOT
ATOM      1  S   UNL d   1       0.862  -0.027   0.071  0.00  0.00     0.263 S 
ATOM      2  O   UNL d   1       0.042  -0.596   1.123  0.00  0.00    -0.200 OA
ATOM      3  O   UNL d   1       2.305  -0.071   0.147  0.00  0.00    -0.200 OA
ENDROOT
BRANCH   1   4
ATOM      4  C   UNL d   1       0.382   1.667  -0.156  0.00  0.00     0.081 A 
ATOM      5  C   UNL d   1      -0.865   2.103   0.300  0.00  0.00     0.051 A 
ATOM      6  C   UNL d   1      -1.256   3.425   0.065  0.00  0.00     0.062 A 
ATOM      7 CL   UNL d   1      -2.835   3.908   0.583  0.00  0.00    -0.082 Cl
ATOM      8  C   UNL d   1      -0.407   4.324  -0.613  0.00  0.00     0.056 A 
ATOM      9  C   UNL d   1       0.855   3.870  -1.015  0.00  0.00     0.033 A 
ATOM     10  C   UNL d   1       1.252   2.550  -0.791  0.00  0.00     0.027 A 
BRANCH   8  11
ATOM     11  N   UNL d   1      -0.847   5.652  -0.852  0.00  0.00    -0.326 N 
ATOM     12  C   UNL d   1      -0.271   6.562  -1.720  0.00  0.00     0.218 C 
ATOM     13  O   UNL d   1       0.676   6.345  -2.471  0.00  0.00    -0.274 OA
ATOM     14  C   UNL d   1      -0.920   7.920  -1.710  0.00  0.00     0.117 C 
ATOM     15  H   UNL d   1      -1.730   5.902  -0.418  0.00  0.00     0.169 HD
ENDBRANCH   8  11
ENDBRANCH   1   4
BRANCH   1  16
ATOM     16  N   UNL d   1       0.440  -0.724  -1.398  0.00  0.00    -0.281 N 
ATOM     17  H   UNL d   1       1.120  -1.387  -1.764  0.00  0.00     0.179 HD
BRANCH  16  18
ATOM     18  C   UNL d   1      -0.925  -0.849  -1.756  0.00  0.00     0.045 A 
ATOM     19  C   UNL d   1      -1.486   0.126  -2.580  0.00  0.00     0.069 A 
ATOM     20  C   UNL d   1      -2.833   0.046  -2.925  0.00  0.00     0.104 A 
ATOM     21  O   UNL d   1      -3.326   1.061  -3.703  0.00  0.00    -0.346 OA
ATOM     22  C   UNL d   1      -3.607  -1.030  -2.484  0.00  0.00     0.102 A 
ATOM     23  C   UNL d   1      -4.757   1.082  -3.681  0.00  0.00     0.202 C 
ATOM     24  C   UNL d   1      -5.318  -0.317  -3.881  0.00  0.00     0.202 C 
ATOM     25  O   UNL d   1      -4.931  -1.183  -2.807  0.00  0.00    -0.346 OA
ATOM     26  C   UNL d   1      -3.041  -2.007  -1.664  0.00  0.00     0.042 A 
ATOM     27  C   UNL d   1      -1.695  -1.917  -1.296  0.00  0.00     0.033 A 
ENDBRANCH  16  18
ENDBRANCH   1  16
TORSDOF 4
