REMARK  8 active torsions:
REMARK  status: ('A' for Active; 'I' for Inactive)
REMARK    1  A    between atoms: C_8  and  C_1 
REMARK    2  A    between atoms: C_2  and  C_7 
REMARK    3  A    between atoms: C_3  and  C_5 
REMARK    4  A    between atoms: C_4  and  C_6 
REMARK    5  A    between atoms: N_16  and  C_11 
REMARK    6  A    between atoms: C_12  and  N_15 
REMARK    7  A    between atoms: C_13  and  C_17 
REMARK       I    between atoms: N_15  and  C_13 
REMARK       I    between atoms: C_14  and  N_16 
REMARK    8  A    between atoms: C_18  and  C_14 
ROOT
ATOM      1  C   UNL d   1       0.652  -2.878  -0.497  0.00  0.00     0.080 C 
ATOM      2  C   UNL d   1       0.392  -3.884  -1.343  0.00  0.00     0.080 C 
ENDROOT
BRANCH   1   3
ATOM      3  C   UNL d   1       1.591  -3.167   0.611  0.00  0.00     0.245 C 
ATOM      4  N   UNL d   1       1.839  -2.089   1.438  0.00  0.00    -0.324 N 
ATOM      5  H   UNL d   1       1.242  -1.274   1.355  0.00  0.00     0.169 HD
ATOM      6  O   UNL d   1       2.049  -4.297   0.736  0.00  0.00    -0.268 OA
BRANCH   4   7
ATOM      7  C   UNL d   1       2.774  -2.107   2.498  0.00  0.00     0.036 A 
ATOM      8  C   UNL d   1       3.781  -3.072   2.582  0.00  0.00     0.045 A 
ATOM      9  C   UNL d   1       4.647  -3.144   3.680  0.00  0.00     0.050 A 
ATOM     10  C   UNL d   1       4.521  -2.192   4.697  0.00  0.00     0.032 A 
ATOM     11  C   UNL d   1       3.544  -1.184   4.620  0.00  0.00     0.050 A 
ATOM     12  C   UNL d   1       2.686  -1.138   3.502  0.00  0.00     0.045 A 
BRANCH   9  13
ATOM     13  C   UNL d   1       5.670  -4.252   3.731  0.00  0.00     0.417 C 
ATOM     14  F   UNL d   1       6.307  -4.342   4.931  0.00  0.00    -0.166 F 
ATOM     15  F   UNL d   1       5.124  -5.479   3.507  0.00  0.00    -0.166 F 
ATOM     16  F   UNL d   1       6.648  -4.099   2.797  0.00  0.00    -0.166 F 
ENDBRANCH   9  13
BRANCH  11  17
ATOM     17  C   UNL d   1       3.388  -0.178   5.737  0.00  0.00     0.417 C 
ATOM     18  F   UNL d   1       4.194  -0.425   6.807  0.00  0.00    -0.166 F 
ATOM     19  F   UNL d   1       3.673   1.091   5.338  0.00  0.00    -0.166 F 
ATOM     20  F   UNL d   1       2.118  -0.142   6.227  0.00  0.00    -0.166 F 
ENDBRANCH  11  17
ENDBRANCH   4   7
ENDBRANCH   1   3
BRANCH   2  21
ATOM     21  C   UNL d   1      -0.515  -3.675  -2.494  0.00  0.00     0.245 C 
ATOM     22  N   UNL d   1      -0.716  -4.839  -3.211  0.00  0.00    -0.324 N 
ATOM     23  H   UNL d   1      -0.248  -5.676  -2.884  0.00  0.00     0.169 HD
ATOM     24  O   UNL d   1      -1.002  -2.574  -2.700  0.00  0.00    -0.268 OA
BRANCH  22  25
ATOM     25  C   UNL d   1      -1.594  -5.012  -4.300  0.00  0.00     0.036 A 
ATOM     26  C   UNL d   1      -2.317  -3.966  -4.873  0.00  0.00     0.045 A 
ATOM     27  C   UNL d   1      -3.256  -4.201  -5.888  0.00  0.00     0.050 A 
ATOM     28  C   UNL d   1      -3.431  -5.507  -6.366  0.00  0.00     0.032 A 
ATOM     29  C   UNL d   1      -2.694  -6.572  -5.826  0.00  0.00     0.050 A 
ATOM     30  C   UNL d   1      -1.771  -6.309  -4.797  0.00  0.00     0.045 A 
BRANCH  27  31
ATOM     31  C   UNL d   1      -4.052  -3.043  -6.441  0.00  0.00     0.417 C 
ATOM     32  F   UNL d   1      -5.190  -3.437  -7.078  0.00  0.00    -0.166 F 
ATOM     33  F   UNL d   1      -3.347  -2.313  -7.346  0.00  0.00    -0.166 F 
ATOM     34  F   UNL d   1      -4.453  -2.169  -5.477  0.00  0.00    -0.166 F 
ENDBRANCH  27  31
BRANCH  29  35
ATOM     35  C   UNL d   1      -2.892  -7.986  -6.319  0.00  0.00     0.417 C 
ATOM     36  F   UNL d   1      -3.921  -8.115  -7.200  0.00  0.00    -0.166 F 
ATOM     37  F   UNL d   1      -1.790  -8.473  -6.953  0.00  0.00    -0.166 F 
ATOM     38  F   UNL d   1      -3.156  -8.856  -5.305  0.00  0.00    -0.166 F 
ENDBRANCH  29  35
ENDBRANCH  22  25
ENDBRANCH   2  21
TORSDOF 8
