REMARK  3 active torsions:
REMARK  status: ('A' for Active; 'I' for Inactive)
REMARK    1  A    between atoms: C_3  and  C_1 
REMARK    2  A    between atoms: C_4  and  C_2 
REMARK       I    between atoms: N_14  and  C_4 
REMARK    3  A    between atoms: C_16  and  N_14 
ROOT
ATOM      1  C   UNL d   1      -0.940  -0.324   0.285  0.00  0.00     0.136 A 
ATOM      2  C   UNL d   1       0.202  -1.113   0.162  0.00  0.00     0.093 A 
ATOM      3  O   UNL d   1      -0.552   0.988   0.290  0.00  0.00    -0.235 OA
ATOM      4  N   UNL d   1       0.807   1.094   0.191  0.00  0.00    -0.264 N 
ATOM      5  HN  UNL d   1       1.358   1.953   0.194  1.00  0.00     0.194 HD
ATOM      6  C   UNL d   1       1.268  -0.155   0.089  0.00  0.00     0.047 A 
ATOM      7  C   UNL d   1       2.729  -0.315  -0.116  0.00  0.00     0.071 C 
ENDROOT
BRANCH   2   8
ATOM      8  C   UNL d   1       0.236  -2.565   0.018  0.00  0.00     0.261 C 
ATOM      9  N   UNL d   1       1.424  -3.147   0.427  0.00  0.00    -0.323 N 
ATOM     10  H   UNL d   1       2.028  -2.583   1.014  0.00  0.00     0.169 HD
ATOM     11  O   UNL d   1      -0.723  -3.175  -0.440  0.00  0.00    -0.267 OA
BRANCH   9  12
ATOM     12  C   UNL d   1       1.947  -4.403   0.051  0.00  0.00     0.035 A 
ATOM     13  C   UNL d   1       1.290  -5.300  -0.797  0.00  0.00     0.031 A 
ATOM     14  C   UNL d   1       1.921  -6.487  -1.199  0.00  0.00     0.026 A 
ATOM     15  C   UNL d   1       3.209  -6.779  -0.757  0.00  0.00     0.034 A 
ATOM     16  C   UNL d   1       3.868  -5.901   0.097  0.00  0.00     0.026 A 
ATOM     17 CL   UNL d   1       3.994  -8.218  -1.279  0.00  0.00    -0.084 Cl
ATOM     18  C   UNL d   1       3.234  -4.720   0.503  0.00  0.00     0.031 A 
ENDBRANCH   9  12
ENDBRANCH   2   8
BRANCH   1  19
ATOM     19  C   UNL d   1      -2.331  -0.628   0.414  0.00  0.00     0.079 A 
ATOM     20  C   UNL d   1      -3.405  -0.116  -0.302  0.00  0.00     0.040 A 
ATOM     21  N   UNL d   1      -4.655  -0.477   0.192  0.00  0.00    -0.296 N 
ATOM     22  C   UNL d   1      -3.372   0.769  -1.496  0.00  0.00     0.071 C 
ATOM     23  N   UNL d   1      -4.559  -1.256   1.256  0.00  0.00    -0.061 NA
ATOM     24  HN  UNL d   1      -5.540  -0.176  -0.217  1.00  0.00     0.183 HD
ATOM     25  S   UNL d   1      -2.976  -1.591   1.674  0.00  0.00     0.004 SA
ENDBRANCH   1  19
TORSDOF 3
