REMARK  5 active torsions:
REMARK  status: ('A' for Active; 'I' for Inactive)
REMARK    1  A    between atoms: C_2  and  N_1 
REMARK    2  A    between atoms: O_4  and  C_3 
REMARK    3  A    between atoms: C_5  and  O_4 
REMARK    4  A    between atoms: C_20  and  C_15 
REMARK    5  A    between atoms: O_19  and  C_20 
ROOT
ATOM      1  C   UNL d   1       0.244  -1.083   0.594  0.00  0.00     0.137 A 
ATOM      2  C   UNL d   1       0.747  -1.407   1.857  0.00  0.00     0.109 A 
ATOM      3  C   UNL d   1      -1.030  -1.498   0.181  0.00  0.00     0.048 A 
ATOM      4  C   UNL d   1      -0.086  -2.102   2.742  0.00  0.00     0.040 A 
ATOM      5  C   UNL d   1      -1.831  -2.255   1.048  0.00  0.00    -0.032 A 
ATOM      6  C   UNL d   1      -1.350  -2.539   2.334  0.00  0.00     0.012 A 
ENDROOT
BRANCH   2   7
ATOM      7  O   UNL d   1       2.007  -0.989   2.218  0.00  0.00    -0.307 OA
BRANCH   7   8
ATOM      8  C   UNL d   1       2.781  -1.826   2.997  0.00  0.00     0.098 A 
ATOM      9  C   UNL d   1       3.560  -1.262   4.016  0.00  0.00     0.069 A 
ATOM     10  C   UNL d   1       4.337  -2.076   4.843  0.00  0.00     0.050 A 
ATOM     11 CL   UNL d   1       3.565   0.440   4.301  0.00  0.00    -0.081 Cl
ATOM     12  C   UNL d   1       4.338  -3.455   4.646  0.00  0.00     0.035 A 
ATOM     13  C   UNL d   1       3.596  -4.025   3.613  0.00  0.00     0.026 A 
ATOM     14 CL   UNL d   1       5.265  -4.466   5.684  0.00  0.00    -0.084 Cl
ATOM     15  C   UNL d   1       2.836  -3.209   2.773  0.00  0.00     0.041 A 
ENDBRANCH   7   8
ENDBRANCH   2   7
BRANCH   1  16
ATOM     16  N   UNL d   1       1.035  -0.297  -0.332  0.00  0.00    -0.113 N 
ATOM     17  O   UNL d   1       2.146  -0.744  -0.652  0.00  0.00    -0.532 OA
ATOM     18  O   UNL d   1       0.524   0.744  -0.765  0.00  0.00    -0.532 OA
ENDBRANCH   1  16
BRANCH   5  19
ATOM     19  C   UNL d   1      -3.193  -2.727   0.621  0.00  0.00     0.203 C 
BRANCH  19  20
ATOM     20  O   UNL d   1      -3.070  -3.473  -0.580  0.00  0.00    -0.396 OA
ATOM     21  H   UNL d   1      -3.956  -3.812  -0.792  0.00  0.00     0.209 HD
ENDBRANCH  19  20
ENDBRANCH   5  19
TORSDOF 5
