REMARK  6 active torsions:
REMARK  status: ('A' for Active; 'I' for Inactive)
REMARK    1  A    between atoms: C_7  and  C_2 
REMARK    2  A    between atoms: S_16  and  C_10 
REMARK    3  A    between atoms: C_15  and  C_20 
REMARK       I    between atoms: N_21  and  C_15 
REMARK    4  A    between atoms: C_20  and  S_16 
REMARK    5  A    between atoms: C_18  and  C_26 
REMARK    6  A    between atoms: C_26  and  N_21 
ROOT
ATOM      1  C   UNL d   1       3.786   0.396   0.073  0.00  0.00     0.053 A 
ATOM      2  N   UNL d   1       4.479  -0.083  -0.982  0.00  0.00    -0.336 N 
ATOM      3  HN  UNL d   1       4.012  -0.549  -1.760  1.00  0.00     0.168 HD
ATOM      4  C   UNL d   1       5.812   0.081  -0.960  0.00  0.00     0.145 A 
ATOM      5  N   UNL d   1       6.491   0.685   0.024  0.00  0.00    -0.347 N 
ATOM      6  HN  UNL d   1       7.505   0.785  -0.007  1.00  0.00     0.167 HD
ATOM      7  C   UNL d   1       4.401   1.024   1.137  0.00  0.00     0.048 A 
ATOM      8  C   UNL d   1       5.767   1.150   1.054  0.00  0.00     0.092 A 
ENDROOT
BRANCH   1   9
ATOM      9  C   UNL d   1       2.320   0.234  -0.046  0.00  0.00     0.039 A 
ATOM     10  S   UNL d   1       1.292   1.437   0.674  0.00  0.00    -0.079 SA
ATOM     11  C   UNL d   1      -0.062   0.677   0.086  0.00  0.00     0.057 A 
ATOM     12  C   UNL d   1       0.185  -0.431  -0.634  0.00  0.00     0.002 A 
ATOM     13  S   UNL d   1      -1.676   1.068   0.235  0.00  0.00    -0.093 SA
ATOM     14  C   UNL d   1       1.571  -0.759  -0.716  0.00  0.00    -0.030 A 
ATOM     15  C   UNL d   1      -0.991  -1.032  -1.165  0.00  0.00    -0.043 A 
ATOM     16  C   UNL d   1       2.205  -1.939  -1.379  0.00  0.00     0.050 C 
ATOM     17  C   UNL d   1      -1.178  -2.218  -2.049  0.00  0.00     0.049 C 
ATOM     18  C   UNL d   1      -2.094  -0.293  -0.730  0.00  0.00     0.058 A 
ENDBRANCH   1   9
BRANCH   4  19
ATOM     19  S   UNL d   1       6.771  -0.573  -2.301  0.00  0.00    -0.085 SA
BRANCH  19  20
ATOM     20  C   UNL d   1       5.560  -0.469  -3.651  0.00  0.00     0.185 C 
BRANCH  20  21
ATOM     21  C   UNL d   1       5.213   0.976  -3.959  0.00  0.00     0.227 C 
ATOM     22  O   UNL d   1       5.943   1.697  -4.631  0.00  0.00    -0.273 OA
ATOM     23  N   UNL d   1       4.010   1.401  -3.426  0.00  0.00    -0.357 N 
ATOM     24  H   UNL d   1       3.588   0.829  -2.701  0.00  0.00     0.162 HD
BRANCH  23  25
ATOM     25  C   UNL d   1       3.614   2.786  -3.482  0.00  0.00     0.149 C 
BRANCH  25  26
ATOM     26  C   UNL d   1       2.190   2.832  -3.929  0.00  0.00    -0.018 C 
ATOM     27  C   UNL d   1       1.194   3.417  -3.251  0.00  0.00     0.008 C 
ENDBRANCH  25  26
ENDBRANCH  23  25
ENDBRANCH  20  21
ENDBRANCH  19  20
ENDBRANCH   4  19
TORSDOF 6
