REMARK  5 active torsions:
REMARK  status: ('A' for Active; 'I' for Inactive)
REMARK    1  A    between atoms: S_2  and  N_1 
REMARK    2  A    between atoms: C_10  and  S_2 
REMARK    3  A    between atoms: C_6  and  C_3 
REMARK    4  A    between atoms: C_12  and  C_6 
REMARK    5  A    between atoms: C_13  and  C_6 
ROOT
ATOM      1  N   UNL d   1       0.492  -0.560  -0.826  0.00  0.00    -0.181 N 
ATOM      2  C   UNL d   1      -0.352  -1.075   0.155  0.00  0.00     0.060 A 
ATOM      3  N   UNL d   1       0.762   0.766  -0.633  0.00  0.00    -0.295 N 
ATOM      4  HN  UNL d   1       1.318   1.384  -1.225  1.00  0.00     0.187 HD
ATOM      5  C   UNL d   1      -0.547  -0.028   1.044  0.00  0.00     0.047 A 
ATOM      6  C   UNL d   1       0.135   1.068   0.500  0.00  0.00     0.110 A 
ENDROOT
BRANCH   2   7
ATOM      7  C   UNL d   1      -0.905  -2.488   0.183  0.00  0.00     0.104 C 
BRANCH   7   8
ATOM      8  C   UNL d   1      -0.447  -3.222   1.456  0.00  0.00    -0.044 A 
ATOM      9  C   UNL d   1      -1.134  -3.089   2.678  0.00  0.00     0.008 A 
ATOM     10  C   UNL d   1      -0.738  -3.814   3.804  0.00  0.00     0.001 A 
ATOM     11  C   UNL d   1       0.357  -4.670   3.733  0.00  0.00     0.000 A 
ATOM     12  C   UNL d   1       1.064  -4.795   2.539  0.00  0.00     0.001 A 
ATOM     13  C   UNL d   1       0.669  -4.073   1.410  0.00  0.00     0.008 A 
ENDBRANCH   7   8
BRANCH   7  14
ATOM     14  C   UNL d   1      -2.433  -2.586  -0.032  0.00  0.00    -0.044 A 
ATOM     15  C   UNL d   1      -3.260  -1.477  -0.281  0.00  0.00     0.008 A 
ATOM     16  C   UNL d   1      -4.642  -1.626  -0.435  0.00  0.00     0.001 A 
ATOM     17  C   UNL d   1      -5.226  -2.887  -0.362  0.00  0.00     0.000 A 
ATOM     18  C   UNL d   1      -4.427  -4.004  -0.146  0.00  0.00     0.001 A 
ATOM     19  C   UNL d   1      -3.046  -3.857   0.008  0.00  0.00     0.008 A 
ENDBRANCH   7  14
ENDBRANCH   2   7
BRANCH   1  20
ATOM     20  S   UNL d   1       1.173  -1.506  -2.113  0.00  0.00     0.282 S 
ATOM     21  O   UNL d   1       2.057  -2.455  -1.463  0.00  0.00    -0.198 OA
ATOM     22  O   UNL d   1       0.027  -1.937  -2.896  0.00  0.00    -0.198 OA
BRANCH  20  23
ATOM     23  C   UNL d   1       2.162  -0.410  -3.101  0.00  0.00     0.081 A 
ATOM     24  C   UNL d   1       3.222   0.298  -2.525  0.00  0.00     0.025 A 
ATOM     25  C   UNL d   1       4.008   1.136  -3.320  0.00  0.00     0.002 A 
ATOM     26  C   UNL d   1       3.750   1.250  -4.686  0.00  0.00     0.000 A 
ATOM     27  C   UNL d   1       2.707   0.525  -5.264  0.00  0.00     0.002 A 
ATOM     28  C   UNL d   1       1.911  -0.309  -4.475  0.00  0.00     0.025 A 
ENDBRANCH  20  23
ENDBRANCH   1  20
TORSDOF 5
