REMARK  3 active torsions:
REMARK  status: ('A' for Active; 'I' for Inactive)
REMARK    1  A    between atoms: N_2  and  S_1 
REMARK    2  A    between atoms: C_7  and  S_1 
REMARK       I    between atoms: C_3  and  N_2 
REMARK       I    between atoms: N_10  and  C_3 
REMARK    3  A    between atoms: C_14  and  N_10 
ROOT
ATOM      1  N   UNL d   1       0.544   0.064   1.530  0.00  0.00    -0.232 N 
ATOM      2  C   UNL d   1       0.946  -0.919   2.423  0.00  0.00     0.334 C 
ATOM      3  N   UNL d   1       1.754  -1.949   1.995  0.00  0.00    -0.308 N 
ATOM      4  O   UNL d   1       0.563  -0.926   3.585  0.00  0.00    -0.246 OA
ATOM      5  H   UNL d   1       0.781   0.028   0.552  0.00  0.00     0.183 HD
ATOM      6  H   UNL d   1       1.789  -2.671   2.707  0.00  0.00     0.170 HD
ENDROOT
BRANCH   1   7
ATOM      7  S   UNL d   1      -0.777   1.043   1.695  0.00  0.00     0.266 S 
ATOM      8  O   UNL d   1      -1.926   0.209   1.976  0.00  0.00    -0.200 OA
ATOM      9  O   UNL d   1      -0.762   1.878   0.509  0.00  0.00    -0.200 OA
BRANCH   7  10
ATOM     10  C   UNL d   1      -0.469   2.110   3.074  0.00  0.00     0.080 A 
ATOM     11  C   UNL d   1       0.428   3.174   2.946  0.00  0.00     0.026 A 
ATOM     12  C   UNL d   1       0.454   4.171   3.926  0.00  0.00     0.008 A 
ATOM     13  C   UNL d   1      -0.424   4.119   5.019  0.00  0.00    -0.062 A 
ATOM     14  C   UNL d   1      -1.277   3.017   5.161  0.00  0.00     0.008 A 
ATOM     15  C   UNL d   1      -0.498   5.268   5.982  0.00  0.00     0.048 C 
ATOM     16  C   UNL d   1      -1.299   2.013   4.194  0.00  0.00     0.026 A 
ENDBRANCH   7  10
ENDBRANCH   1   7
BRANCH   3  17
ATOM     17  C   UNL d   1       2.281  -2.281   0.730  0.00  0.00     0.037 C 
ATOM     18  C   UNL d   1       2.499  -1.366  -0.296  0.00  0.00     0.048 C 
ATOM     19  C   UNL d   1       2.804  -1.859  -1.554  0.00  0.00     0.050 A 
ATOM     20  C   UNL d   1       2.914  -1.114  -2.798  0.00  0.00     0.294 A 
ATOM     21  C   UNL d   1       3.001  -3.195  -1.812  0.00  0.00    -0.018 A 
ATOM     22  O   UNL d   1       3.165  -2.029  -3.778  0.00  0.00    -0.313 OA
ATOM     23  O   UNL d   1       2.775   0.085  -2.926  0.00  0.00    -0.259 OA
ATOM     24  C   UNL d   1       3.244  -3.375  -3.257  0.00  0.00     0.218 A 
ATOM     25  C   UNL d   1       2.935  -4.110  -0.781  0.00  0.00     0.012 C 
ATOM     26  C   UNL d   1       2.571  -3.646   0.494  0.00  0.00     0.030 C 
ENDBRANCH   3  17
TORSDOF 3
