REMARK  2 active torsions:
REMARK  status: ('A' for Active; 'I' for Inactive)
REMARK    1  A    between atoms: C_2  and  C_1 
REMARK    2  A    between atoms: C_3  and  C_2 
ROOT
ATOM      1  C   UNL d   1       2.000   0.815   1.620  0.00  0.00     0.173 C 
ATOM      2  O   UNL d   1       1.775  -0.084   2.431  0.00  0.00    -0.291 OA
ENDROOT
BRANCH   1   3
ATOM      3  C   UNL d   1       1.567   0.651   0.163  0.00  0.00     0.095 C 
ATOM      4  C   UNL d   1       0.209   1.268  -0.076  0.00  0.00     0.126 C 
ATOM      5  C   UNL d   1      -0.717   0.094  -0.001  0.00  0.00     0.259 C 
ATOM      6  O   UNL d   1      -1.933   0.170   0.060  0.00  0.00    -0.265 OA
ATOM      7  O   UNL d   1      -0.025  -1.073  -0.074  0.00  0.00    -0.321 OA
ATOM      8  C   UNL d   1       1.367  -0.800  -0.219  0.00  0.00     0.191 C 
ENDBRANCH   1   3
BRANCH   1   9
ATOM      9  C   UNL d   1       2.686   2.043   2.026  0.00  0.00     0.051 A 
ATOM     10  S   UNL d   1       2.793   3.427   1.023  0.00  0.00    -0.098 SA
ATOM     11  C   UNL d   1       3.684   4.299   2.189  0.00  0.00     0.050 A 
ATOM     12  C   UNL d   1       3.901   3.559   3.329  0.00  0.00     0.009 A 
ATOM     13  C   UNL d   1       3.315   2.264   3.239  0.00  0.00     0.023 A 
ENDBRANCH   1   9
TORSDOF 2
