REMARK  3 active torsions:
REMARK  status: ('A' for Active; 'I' for Inactive)
REMARK    1  A    between atoms: C_6  and  N_1 
REMARK    2  A    between atoms: C_13  and  C_2 
REMARK    3  A    between atoms: C_8  and  C_11 
ROOT
ATOM      1  C   UNL d   1       2.106  -1.455  -0.030  0.00  0.00     0.128 A 
ATOM      2  N   UNL d   1       3.014  -1.335   0.972  0.00  0.00    -0.345 N 
ATOM      3  HN  UNL d   1       2.886  -0.636   1.704  1.00  0.00     0.167 HD
ATOM      4  C   UNL d   1       3.380  -3.226  -1.046  0.00  0.00     0.053 A 
ATOM      5  C   UNL d   1       2.247  -2.402  -1.041  0.00  0.00     0.066 A 
ATOM      6  C   UNL d   1       4.088  -2.152   0.984  0.00  0.00     0.007 A 
ATOM      7  C   UNL d   1       4.310  -3.097  -0.007  0.00  0.00     0.041 A 
ATOM      8  C   UNL d   1       5.051  -1.988   2.121  0.00  0.00     0.068 C 
ENDROOT
BRANCH   1   9
ATOM      9  N   UNL d   1       0.975  -0.567  -0.054  0.00  0.00    -0.244 N 
ATOM     10  C   UNL d   1       0.718   0.530   0.768  0.00  0.00     0.047 A 
ATOM     11  C   UNL d   1      -0.526   1.029   0.395  0.00  0.00     0.050 A 
ATOM     12  C   UNL d   1       1.683   1.002   1.802  0.00  0.00     0.071 C 
ATOM     13  C   UNL d   1      -0.910   0.205  -0.681  0.00  0.00     0.124 A 
ATOM     14  N   UNL d   1      -0.016  -0.735  -0.973  0.00  0.00    -0.303 N 
ATOM     15  HN  UNL d   1      -0.062  -1.429  -1.719  1.00  0.00     0.186 HD
BRANCH  11  16
ATOM     16  C   UNL d   1      -1.244   2.159   0.987  0.00  0.00     0.159 C 
ATOM     17  O   UNL d   1      -0.794   2.785   1.947  0.00  0.00    -0.293 OA
ATOM     18  C   UNL d   1      -2.570   2.591   0.409  0.00  0.00     0.097 C 
ENDBRANCH  11  16
ENDBRANCH   1   9
BRANCH   4  19
ATOM     19  C   UNL d   1       3.624  -4.212  -2.156  0.00  0.00     0.417 C 
ATOM     20  F   UNL d   1       2.636  -4.240  -3.093  0.00  0.00    -0.166 F 
ATOM     21  F   UNL d   1       4.774  -3.946  -2.835  0.00  0.00    -0.166 F 
ATOM     22  F   UNL d   1       3.746  -5.489  -1.701  0.00  0.00    -0.166 F 
ENDBRANCH   4  19
TORSDOF 3
