REMARK  3 active torsions:
REMARK  status: ('A' for Active; 'I' for Inactive)
REMARK    1  A    between atoms: C_7  and  N_1 
REMARK    2  A    between atoms: C_6  and  N_2 
REMARK    3  A    between atoms: C_9  and  C_7 
ROOT
ATOM      1  N   UNL d   1      -0.157  -1.140  -0.028  0.00  0.00    -0.258 N 
ATOM      2  N   UNL d   1       0.840   0.919   0.100  0.00  0.00    -0.226 N 
ATOM      3  C   UNL d   1       1.031  -0.463   0.215  0.00  0.00     0.343 C 
ATOM      4  C   UNL d   1      -1.244  -0.355  -0.300  0.00  0.00     0.311 C 
ATOM      5  S   UNL d   1      -0.726   1.319  -0.435  0.00  0.00     0.060 SA
ATOM      6  O   UNL d   1       2.083  -1.002   0.542  0.00  0.00    -0.245 OA
ATOM      7  O   UNL d   1      -2.412  -0.699  -0.403  0.00  0.00    -0.258 OA
ENDROOT
BRANCH   2   8
ATOM      8  C   UNL d   1       1.896   1.840  -0.064  0.00  0.00     0.079 A 
ATOM      9  C   UNL d   1       2.637   1.891  -1.261  0.00  0.00     0.062 A 
ATOM     10 CL   UNL d   1       2.332   0.814  -2.582  0.00  0.00    -0.082 Cl
ATOM     11  C   UNL d   1       3.628   2.861  -1.439  0.00  0.00     0.026 A 
ATOM     12  C   UNL d   1       3.901   3.776  -0.425  0.00  0.00     0.002 A 
ATOM     13  C   UNL d   1       3.188   3.720   0.772  0.00  0.00     0.009 A 
ATOM     14  C   UNL d   1       2.182   2.758   0.970  0.00  0.00    -0.032 A 
ATOM     15  C   UNL d   1       1.476   2.754   2.300  0.00  0.00     0.050 C 
ENDBRANCH   2   8
BRANCH   1  16
ATOM     16  C   UNL d   1      -0.300  -2.558   0.218  0.00  0.00     0.142 C 
BRANCH  16  17
ATOM     17  C   UNL d   1      -0.464  -3.418  -1.005  0.00  0.00     0.004 A 
ATOM     18  C   UNL d   1       0.573  -3.431  -2.102  0.00  0.00     0.007 A 
ATOM     19  C   UNL d   1      -0.812  -2.920  -2.390  0.00  0.00     0.007 A 
ENDBRANCH  16  17
ENDBRANCH   1  16
TORSDOF 3
