REMARK  2 active torsions:
REMARK  status: ('A' for Active; 'I' for Inactive)
REMARK       I    between atoms: N_2  and  C_1 
REMARK       I    between atoms: N_4  and  C_1 
REMARK    1  A    between atoms: C_3  and  N_2 
REMARK    2  A    between atoms: C_8  and  N_4 
ROOT
ATOM      1  C   UNL d   1       1.024  -0.091  -0.336  0.00  0.00     0.326 C 
ATOM      2  N   UNL d   1       2.377  -0.250  -0.124  0.00  0.00    -0.287 N 
ATOM      3  N   UNL d   1       0.283  -0.983   0.427  0.00  0.00    -0.307 N 
ATOM      4  O   UNL d   1       0.512   0.731  -1.087  0.00  0.00    -0.247 OA
ATOM      5  H   UNL d   1       2.706  -1.077   0.355  0.00  0.00     0.172 HD
ATOM      6  H   UNL d   1       0.628  -1.126   1.368  0.00  0.00     0.170 HD
ENDROOT
BRANCH   2   7
ATOM      7  C   UNL d   1       3.309   0.562  -0.736  0.00  0.00     0.175 A 
ATOM      8  C   UNL d   1       4.676   0.492  -0.758  0.00  0.00     0.077 A 
ATOM      9  C   UNL d   1       5.064   1.594  -1.543  0.00  0.00     0.119 A 
ATOM     10  N   UNL d   1       4.019   2.305  -1.963  0.00  0.00    -0.270 N 
ATOM     11  O   UNL d   1       2.908   1.652  -1.454  0.00  0.00    -0.220 OA
ATOM     12  HN  UNL d   1       4.033   3.149  -2.536  1.00  0.00     0.194 HD
ENDBRANCH   2   7
BRANCH   3  13
ATOM     13  C   UNL d   1      -1.126  -1.078   0.283  0.00  0.00     0.058 A 
ATOM     14  C   UNL d   1      -1.951  -1.131   1.417  0.00  0.00     0.062 A 
ATOM     15  C   UNL d   1      -3.334  -1.266   1.284  0.00  0.00     0.050 A 
ATOM     16 CL   UNL d   1      -1.285  -0.962   3.003  0.00  0.00    -0.082 Cl
ATOM     17  C   UNL d   1      -3.893  -1.376   0.012  0.00  0.00     0.035 A 
ATOM     18  C   UNL d   1      -3.090  -1.315  -1.124  0.00  0.00     0.026 A 
ATOM     19 CL   UNL d   1      -5.591  -1.599  -0.157  0.00  0.00    -0.084 Cl
ATOM     20  C   UNL d   1      -1.708  -1.156  -0.989  0.00  0.00     0.033 A 
ENDBRANCH   3  13
TORSDOF 2
