REMARK  5 active torsions:
REMARK  status: ('A' for Active; 'I' for Inactive)
REMARK    1  A    between atoms: C_6  and  C_1 
REMARK       I    between atoms: N_2  and  C_3 
REMARK       I    between atoms: C_4  and  N_2 
REMARK       I    between atoms: C_3  and  N_7 
REMARK    2  A    between atoms: C_8  and  C_4 
REMARK    3  A    between atoms: N_5  and  C_6 
REMARK    4  A    between atoms: N_7  and  N_5 
REMARK    5  A    between atoms: C_16  and  N_5 
ROOT
ATOM      1  N   UNL d   1      -1.956   2.821  -0.398  0.00  0.00    -0.284 N 
ENDROOT
BRANCH   1   2
ATOM      2  C   UNL d   1      -0.999   1.981  -1.147  0.00  0.00     0.193 C 
BRANCH   2   3
ATOM      3  C   UNL d   1      -1.368   1.777  -2.599  0.00  0.00     0.022 A 
ATOM      4  C   UNL d   1      -2.477   1.035  -3.025  0.00  0.00     0.045 A 
ATOM      5 CL   UNL d   1      -3.450   0.117  -1.933  0.00  0.00    -0.084 Cl
ATOM      6  C   UNL d   1      -2.804   0.952  -4.388  0.00  0.00     0.024 A 
ATOM      7  C   UNL d   1      -2.016   1.583  -5.349  0.00  0.00     0.005 A 
ATOM      8  C   UNL d   1      -0.876   2.267  -4.949  0.00  0.00     0.043 A 
ATOM      9  C   UNL d   1      -0.558   2.343  -3.595  0.00  0.00     0.126 A 
ATOM     10  F   UNL d   1       0.558   3.004  -3.251  0.00  0.00    -0.205 F 
ENDBRANCH   2   3
ENDBRANCH   1   2
BRANCH   1  11
ATOM     11  N   UNL d   1      -2.590   2.188   0.701  0.00  0.00    -0.248 N 
ATOM     12  C   UNL d   1      -3.956   2.253   0.800  0.00  0.00     0.341 C 
ATOM     13  N   UNL d   1      -4.510   1.810   1.981  0.00  0.00    -0.274 N 
ATOM     14  O   UNL d   1      -4.729   2.677  -0.058  0.00  0.00    -0.245 OA
ATOM     15  C   UNL d   1      -3.930   1.116   3.028  0.00  0.00     0.259 C 
ATOM     16  H   UNL d   1      -5.502   1.966   1.958  0.00  0.00     0.173 HD
ATOM     17  O   UNL d   1      -2.718   0.980   3.163  0.00  0.00    -0.267 OA
ATOM     18  H   UNL d   1      -2.022   1.991   1.524  0.00  0.00     0.192 HD
BRANCH  15  19
ATOM     19  C   UNL d   1      -4.875   0.589   4.070  0.00  0.00     0.034 A 
ATOM     20  C   UNL d   1      -6.256   0.460   3.844  0.00  0.00     0.044 A 
ATOM     21  C   UNL d   1      -7.096   0.007   4.865  0.00  0.00     0.073 A 
ATOM     22 CL   UNL d   1      -8.790  -0.105   4.569  0.00  0.00    -0.081 Cl
ATOM     23  C   UNL d   1      -6.568  -0.342   6.104  0.00  0.00     0.138 A 
ATOM     24  C   UNL d   1      -5.199  -0.251   6.334  0.00  0.00     0.045 A 
ATOM     25  F   UNL d   1      -7.364  -0.774   7.093  0.00  0.00    -0.204 F 
ATOM     26  C   UNL d   1      -4.353   0.213   5.320  0.00  0.00     0.020 A 
ENDBRANCH  15  19
ENDBRANCH   1  11
BRANCH   1  27
ATOM     27  C   UNL d   1      -1.823   4.225  -0.330  0.00  0.00     0.051 A 
ATOM     28  C   UNL d   1      -1.375   4.978  -1.427  0.00  0.00     0.031 A 
ATOM     29  C   UNL d   1      -1.311   6.378  -1.406  0.00  0.00     0.002 A 
ATOM     30  C   UNL d   1      -1.702   7.074  -0.272  0.00  0.00     0.000 A 
ATOM     31  C   UNL d   1      -2.148   6.368   0.836  0.00  0.00     0.002 A 
ATOM     32  C   UNL d   1      -2.205   4.968   0.804  0.00  0.00     0.031 A 
ENDBRANCH   1  27
TORSDOF 5
