REMARK  4 active torsions:
REMARK  status: ('A' for Active; 'I' for Inactive)
REMARK    1  A    between atoms: N_10  and  C_3 
REMARK    2  A    between atoms: O_14  and  C_8 
REMARK    3  A    between atoms: C_11  and  N_10 
REMARK    4  A    between atoms: O_15  and  N_12 
ROOT
ATOM      1  N   UNL d   1       1.796  -0.050  -0.018  0.00  0.00    -0.154 N 
ATOM      2  HN  UNL d   1       2.815  -0.076  -0.025  1.00  0.00     0.188 HD
ATOM      3  C   UNL d   1       1.117   1.089  -0.053  0.00  0.00     0.687 A 
ATOM      4  N   UNL d   1      -0.213   1.155  -0.045  0.00  0.00    -0.180 N 
ATOM      5  HN  UNL d   1      -0.710   2.045  -0.072  1.00  0.00     0.185 HD
ATOM      6  N   UNL d   1      -0.266  -1.203   0.040  0.00  0.00    -0.311 N 
ATOM      7  HN  UNL d   1      -0.787  -2.079   0.076  1.00  0.00     0.170 HD
ATOM      8  C   UNL d   1       1.062  -1.153   0.028  0.00  0.00     0.238 A 
ATOM      9  C   UNL d   1      -0.858  -0.013   0.000  0.00  0.00     0.096 A 
ATOM     10  C   UNL d   1      -2.354   0.024   0.019  0.00  0.00     0.089 C 
ENDROOT
BRANCH   3  11
ATOM     11  N   UNL d   1       1.790   2.298  -0.101  0.00  0.00    -0.186 N 
ATOM     12  H   UNL d   1       1.193   3.107  -0.126  0.00  0.00     0.185 HD
BRANCH  11  13
ATOM     13  C   UNL d   1       3.133   2.464  -0.115  0.00  0.00     0.221 C 
ATOM     14  N   UNL d   1       3.721   3.617  -0.161  0.00  0.00    -0.264 N 
ATOM     15  HN  UNL d   1       3.253   4.522  -0.192  1.00  0.00     0.194 HD
BRANCH  14  16
ATOM     16  O   UNL d   1       5.107   3.414  -0.162  0.00  0.00    -0.289 OA
ATOM     17  H   UNL d   1       5.454   4.324  -0.199  0.00  0.00     0.244 HD
ENDBRANCH  14  16
ENDBRANCH  11  13
ENDBRANCH   3  11
BRANCH   8  18
ATOM     18  O   UNL d   1       1.797  -2.318   0.066  0.00  0.00    -0.327 OA
ATOM     19  C   UNL d   1       0.997  -3.490   0.105  0.00  0.00     0.213 C 
ENDBRANCH   8  18
TORSDOF 4
