REMARK  4 active torsions:
REMARK  status: ('A' for Active; 'I' for Inactive)
REMARK    1  A    between atoms: C_8  and  C_1 
REMARK       I    between atoms: N_9  and  C_1 
REMARK    2  A    between atoms: C_2  and  C_7 
REMARK       I    between atoms: N_10  and  C_2 
REMARK    3  A    between atoms: C_11  and  N_9 
REMARK    4  A    between atoms: C_12  and  N_10 
ROOT
ATOM      1  C   UNL d   1       0.904  -0.898   2.255  0.00  0.00     0.080 C 
ATOM      2  C   UNL d   1       0.408  -0.237   1.195  0.00  0.00     0.080 C 
ENDROOT
BRANCH   1   3
ATOM      3  C   UNL d   1       0.012  -1.222   3.396  0.00  0.00     0.245 C 
ATOM      4  N   UNL d   1       0.685  -1.812   4.450  0.00  0.00    -0.324 N 
ATOM      5  H   UNL d   1       1.696  -1.822   4.416  0.00  0.00     0.169 HD
ATOM      6  O   UNL d   1      -1.181  -0.963   3.335  0.00  0.00    -0.268 OA
BRANCH   4   7
ATOM      7  C   UNL d   1       0.095  -2.429   5.578  0.00  0.00     0.036 A 
ATOM      8  C   UNL d   1      -1.274  -2.677   5.689  0.00  0.00     0.053 A 
ATOM      9  C   UNL d   1      -1.790  -3.366   6.793  0.00  0.00     0.042 A 
ATOM     10 CL   UNL d   1      -3.497  -3.639   6.842  0.00  0.00    -0.084 Cl
ATOM     11  C   UNL d   1      -0.946  -3.827   7.812  0.00  0.00    -0.040 A 
ATOM     12  C   UNL d   1       0.423  -3.541   7.718  0.00  0.00     0.011 A 
ATOM     13  C   UNL d   1      -1.472  -4.592   8.993  0.00  0.00     0.050 C 
ATOM     14  C   UNL d   1       0.940  -2.860   6.609  0.00  0.00     0.030 A 
ENDBRANCH   4   7
ENDBRANCH   1   3
BRANCH   2  15
ATOM     15  C   UNL d   1       1.277  -0.043   0.005  0.00  0.00     0.245 C 
ATOM     16  N   UNL d   1       0.633   0.600  -1.034  0.00  0.00    -0.324 N 
ATOM     17  H   UNL d   1      -0.305   0.942  -0.867  0.00  0.00     0.169 HD
ATOM     18  O   UNL d   1       2.429  -0.459   0.016  0.00  0.00    -0.268 OA
BRANCH  16  19
ATOM     19  C   UNL d   1       1.110   0.739  -2.361  0.00  0.00     0.036 A 
ATOM     20  C   UNL d   1       2.331   0.223  -2.800  0.00  0.00     0.053 A 
ATOM     21  C   UNL d   1       2.688   0.281  -4.152  0.00  0.00     0.042 A 
ATOM     22 CL   UNL d   1       4.208  -0.406  -4.612  0.00  0.00    -0.084 Cl
ATOM     23  C   UNL d   1       1.831   0.855  -5.098  0.00  0.00    -0.040 A 
ATOM     24  C   UNL d   1       0.640   1.439  -4.645  0.00  0.00     0.011 A 
ATOM     25  C   UNL d   1       2.151   0.840  -6.566  0.00  0.00     0.050 C 
ATOM     26  C   UNL d   1       0.283   1.379  -3.291  0.00  0.00     0.030 A 
ENDBRANCH  16  19
ENDBRANCH   2  15
TORSDOF 4
