REMARK  5 active torsions:
REMARK  status: ('A' for Active; 'I' for Inactive)
REMARK    1  A    between atoms: S_9  and  C_1 
REMARK       I    between atoms: C_6  and  N_7 
REMARK    2  A    between atoms: C_13  and  C_6 
REMARK    3  A    between atoms: N_7  and  C_10 
REMARK    4  A    between atoms: C_11  and  S_9 
REMARK    5  A    between atoms: O_24  and  C_19 
ROOT
ATOM      1  C   UNL d   1      -4.879  -2.164   0.755  0.00  0.00     0.052 C 
ATOM      2  C   UNL d   1      -5.100  -1.690  -0.555  0.00  0.00     0.034 C 
ATOM      3  C   UNL d   1      -5.599  -3.297   1.190  0.00  0.00     0.031 C 
ATOM      4  C   UNL d   1      -6.161  -2.247  -1.302  0.00  0.00     0.021 C 
ATOM      5  C   UNL d   1      -6.918  -3.313  -0.818  0.00  0.00     0.002 C 
ATOM      6  C   UNL d   1      -6.608  -3.867   0.414  0.00  0.00     0.002 C 
ENDROOT
BRANCH   1   7
ATOM      7  N   UNL d   1      -4.015  -1.623   1.744  0.00  0.00    -0.322 N 
ATOM      8  C   UNL d   1      -3.684  -0.294   1.935  0.00  0.00     0.256 C 
ATOM      9  O   UNL d   1      -3.975   0.655   1.218  0.00  0.00    -0.267 OA
ATOM     10  H   UNL d   1      -3.920  -2.204   2.567  0.00  0.00     0.169 HD
BRANCH   8  11
ATOM     11  C   UNL d   1      -3.052  -0.006   3.257  0.00  0.00     0.032 A 
ATOM     12  C   UNL d   1      -2.228  -0.931   3.913  0.00  0.00     0.020 A 
ATOM     13  C   UNL d   1      -1.834  -0.696   5.236  0.00  0.00     0.038 A 
ATOM     14  C   UNL d   1      -2.252   0.462   5.895  0.00  0.00     0.068 A 
ATOM     15  C   UNL d   1      -2.978   1.431   5.207  0.00  0.00     0.038 A 
ATOM     16  C   UNL d   1      -3.381   1.198   3.892  0.00  0.00     0.020 A 
BRANCH  14  17
ATOM     17  O   UNL d   1      -1.976   0.739   7.205  0.00  0.00    -0.356 OA
ATOM     18  C   UNL d   1      -2.058  -0.396   8.066  0.00  0.00     0.210 C 
ENDBRANCH  14  17
ENDBRANCH   8  11
ENDBRANCH   1   7
BRANCH   2  19
ATOM     19  S   UNL d   1      -4.111  -0.519  -1.484  0.00  0.00    -0.063 SA
BRANCH  19  20
ATOM     20  C   UNL d   1      -2.498  -1.125  -1.165  0.00  0.00     0.118 A 
ATOM     21  N   UNL d   1      -2.233  -2.394  -0.939  0.00  0.00    -0.344 N 
ATOM     22  C   UNL d   1      -0.896  -2.541  -0.618  0.00  0.00     0.050 A 
ATOM     23  HN  UNL d   1      -2.911  -3.154  -0.993  1.00  0.00     0.167 HD
ATOM     24  C   UNL d   1      -0.265  -3.743  -0.235  0.00  0.00     0.032 A 
ATOM     25  C   UNL d   1      -0.136  -1.371  -0.667  0.00  0.00     0.035 A 
ATOM     26  C   UNL d   1       1.091  -3.736   0.113  0.00  0.00     0.026 A 
ATOM     27  C   UNL d   1       1.819  -2.551   0.064  0.00  0.00     0.035 A 
ATOM     28  C   UNL d   1       1.230  -1.352  -0.341  0.00  0.00     0.045 A 
ATOM     29 CL   UNL d   1       3.478  -2.558   0.526  0.00  0.00    -0.084 Cl
ATOM     30  S   UNL d   1      -1.147  -0.069  -1.157  0.00  0.00    -0.063 SA
ENDBRANCH  19  20
ENDBRANCH   2  19
TORSDOF 5
