REMARK  5 active torsions:
REMARK  status: ('A' for Active; 'I' for Inactive)
REMARK    1  A    between atoms: C_12  and  C_1 
REMARK    2  A    between atoms: C_11  and  C_2 
REMARK    3  A    between atoms: O_10  and  C_4 
REMARK    4  A    between atoms: C_7  and  O_10 
REMARK    5  A    between atoms: N_16  and  C_14 
ROOT
ATOM      1  C   UNL d   1       1.352  -0.194   0.142  0.00  0.00    -0.051 A 
ATOM      2  C   UNL d   1      -0.900  -1.155   0.029  0.00  0.00    -0.051 A 
ATOM      3  C   UNL d   1       0.496  -1.307   0.069  0.00  0.00     0.015 A 
ATOM      4  C   UNL d   1      -0.597   1.261   0.093  0.00  0.00     0.079 A 
ATOM      5  C   UNL d   1      -1.433   0.141   0.068  0.00  0.00     0.044 A 
ATOM      6  C   UNL d   1       0.786   1.091   0.154  0.00  0.00     0.044 A 
ENDROOT
BRANCH   4   7
ATOM      7  O   UNL d   1      -1.059   2.561   0.145  0.00  0.00    -0.294 OA
BRANCH   7   8
ATOM      8  C   UNL d   1      -2.249   2.853  -0.509  0.00  0.00     0.148 A 
ATOM      9  N   UNL d   1      -2.538   2.231  -1.673  0.00  0.00    -0.345 N 
ATOM     10  C   UNL d   1      -3.740   2.514  -2.226  0.00  0.00     0.113 A 
ATOM     11  HN  UNL d   1      -1.884   1.582  -2.112  1.00  0.00     0.167 HD
ATOM     12  C   UNL d   1      -4.691   3.366  -1.668  0.00  0.00     0.021 A 
ATOM     13  C   UNL d   1      -4.299   4.073  -0.532  0.00  0.00     0.029 A 
ATOM     14  C   UNL d   1      -3.069   3.805   0.071  0.00  0.00     0.058 A 
BRANCH  12  15
ATOM     15  N   UNL d   1      -5.881   3.678  -2.331  0.00  0.00    -0.302 NA
ATOM     16  H   UNL d   1      -6.609   4.035  -1.720  0.00  0.00     0.124 HD
ATOM     17  H   UNL d   1      -6.222   2.932  -2.932  0.00  0.00     0.124 HD
ENDBRANCH  12  15
ENDBRANCH   7   8
ENDBRANCH   4   7
BRANCH   1  18
ATOM     18  C   UNL d   1       2.856  -0.399   0.217  0.00  0.00     0.010 C 
ATOM     19  C   UNL d   1       3.579   0.233  -0.975  0.00  0.00     0.015 C 
ATOM     20  C   UNL d   1       3.428   0.122   1.538  0.00  0.00     0.015 C 
ENDBRANCH   1  18
BRANCH   2  21
ATOM     21  C   UNL d   1      -1.847  -2.341  -0.029  0.00  0.00     0.010 C 
ATOM     22  C   UNL d   1      -1.580  -3.250  -1.231  0.00  0.00     0.015 C 
ATOM     23  C   UNL d   1      -1.815  -3.132   1.279  0.00  0.00     0.015 C 
ENDBRANCH   2  21
TORSDOF 5
