REMARK  6 active torsions:
REMARK  status: ('A' for Active; 'I' for Inactive)
REMARK    1  A    between atoms: C_8  and  S_1 
REMARK    2  A    between atoms: C_14  and  S_1 
REMARK    3  A    between atoms: N_2  and  C_3 
REMARK    4  A    between atoms: O_5  and  C_4 
REMARK    5  A    between atoms: C_6  and  O_5 
REMARK    6  A    between atoms: C_16  and  C_8 
ROOT
ATOM      1  C   UNL d   1       2.015   0.038  -4.774  0.00  0.00     0.137 A 
ATOM      2  C   UNL d   1       1.598   1.352  -5.012  0.00  0.00     0.109 A 
ATOM      3  C   UNL d   1       1.610  -0.673  -3.634  0.00  0.00     0.047 A 
ATOM      4  C   UNL d   1       0.770  -0.060  -2.693  0.00  0.00    -0.041 A 
ATOM      5  C   UNL d   1       0.689   1.921  -4.109  0.00  0.00     0.040 A 
ATOM      6  C   UNL d   1       0.308   1.238  -2.950  0.00  0.00     0.011 A 
ENDROOT
BRANCH   4   7
ATOM      7  C   UNL d   1       0.324  -0.797  -1.455  0.00  0.00     0.184 C 
BRANCH   7   8
ATOM      8  S   UNL d   1      -1.308  -1.466  -1.751  0.00  0.00     0.179 S 
ATOM      9  O   UNL d   1      -1.241  -2.397  -2.862  0.00  0.00    -0.222 OA
ATOM     10  O   UNL d   1      -2.267  -0.372  -1.757  0.00  0.00    -0.222 OA
BRANCH   8  11
ATOM     11  C   UNL d   1      -1.633  -2.424  -0.290  0.00  0.00     0.059 A 
ATOM     12  C   UNL d   1      -2.250  -1.820   0.809  0.00  0.00     0.023 A 
ATOM     13  C   UNL d   1      -2.582  -2.598   1.918  0.00  0.00     0.002 A 
ATOM     14  C   UNL d   1      -2.305  -3.966   1.921  0.00  0.00     0.000 A 
ATOM     15  C   UNL d   1      -1.690  -4.563   0.819  0.00  0.00     0.002 A 
ATOM     16  C   UNL d   1      -1.354  -3.793  -0.294  0.00  0.00     0.023 A 
ENDBRANCH   8  11
ENDBRANCH   7   8
ENDBRANCH   4   7
BRANCH   1  17
ATOM     17  N   UNL d   1       2.881  -0.641  -5.723  0.00  0.00    -0.113 N 
ATOM     18  O   UNL d   1       3.965  -0.106  -5.994  0.00  0.00    -0.532 OA
ATOM     19  O   UNL d   1       2.495  -1.733  -6.154  0.00  0.00    -0.532 OA
ENDBRANCH   1  17
BRANCH   2  20
ATOM     20  O   UNL d   1       2.081   2.015  -6.122  0.00  0.00    -0.307 OA
BRANCH  20  21
ATOM     21  C   UNL d   1       2.054   3.392  -6.131  0.00  0.00     0.098 A 
ATOM     22  C   UNL d   1       2.649   4.210  -5.157  0.00  0.00     0.069 A 
ATOM     23  C   UNL d   1       2.462   5.593  -5.201  0.00  0.00     0.050 A 
ATOM     24 CL   UNL d   1       3.630   3.580  -3.880  0.00  0.00    -0.081 Cl
ATOM     25  C   UNL d   1       1.751   6.161  -6.256  0.00  0.00     0.035 A 
ATOM     26  C   UNL d   1       1.244   5.363  -7.281  0.00  0.00     0.026 A 
ATOM     27 CL   UNL d   1       1.500   7.862  -6.295  0.00  0.00    -0.084 Cl
ATOM     28  C   UNL d   1       1.396   3.977  -7.219  0.00  0.00     0.041 A 
ENDBRANCH  20  21
ENDBRANCH   2  20
TORSDOF 6
