REMARK  6 active torsions:
REMARK  status: ('A' for Active; 'I' for Inactive)
REMARK    1  A    between atoms: C_11  and  C_2 
REMARK    2  A    between atoms: S_15  and  C_3 
REMARK    3  A    between atoms: C_12  and  C_11 
REMARK    4  A    between atoms: C_19  and  S_15 
REMARK    5  A    between atoms: C_16  and  C_19 
REMARK    6  A    between atoms: C_18  and  C_16 
ROOT
ATOM      1  N   UNL d   1       0.386   0.511  -0.549  0.00  0.00    -0.319 N 
ATOM      2  C   UNL d   1      -0.529   1.520  -0.333  0.00  0.00     0.101 A 
ATOM      3  C   UNL d   1      -0.356  -0.585  -0.910  0.00  0.00     0.162 A 
ATOM      4  N   UNL d   1      -1.742   1.024  -0.483  0.00  0.00    -0.287 N 
ATOM      5  HN  UNL d   1      -2.615   1.536  -0.354  1.00  0.00     0.188 HD
ATOM      6  N   UNL d   1      -1.633  -0.296  -0.841  0.00  0.00    -0.278 N 
ATOM      7  HN  UNL d   1      -2.406  -0.937  -1.021  1.00  0.00     0.189 HD
ATOM      8  C   UNL d   1       1.819   0.569  -0.408  0.00  0.00     0.159 C 
ENDROOT
BRANCH   2   9
ATOM      9  C   UNL d   1      -0.240   2.968  -0.078  0.00  0.00     0.103 C 
BRANCH   9  10
ATOM     10  C   UNL d   1      -0.268   3.374   1.399  0.00  0.00     0.151 C 
ATOM     11  C   UNL d   1      -1.554   2.990   2.113  0.00  0.00     0.236 C 
ATOM     12  N   UNL d   1      -2.668   3.766   1.982  0.00  0.00    -0.325 N 
ATOM     13  O   UNL d   1      -1.629   1.940   2.761  0.00  0.00    -0.272 OA
ATOM     14  C   UNL d   1      -2.714   5.094   1.538  0.00  0.00     0.051 A 
ATOM     15  H   UNL d   1      -3.513   3.345   2.350  0.00  0.00     0.169 HD
ATOM     16  C   UNL d   1      -1.555   5.835   1.280  0.00  0.00     0.028 A 
ATOM     17  C   UNL d   1      -3.973   5.700   1.428  0.00  0.00     0.031 A 
ATOM     18  S   UNL d   1       0.080   5.170   1.546  0.00  0.00    -0.113 SA
ATOM     19  C   UNL d   1      -1.675   7.177   0.893  0.00  0.00     0.021 A 
ATOM     20  C   UNL d   1      -2.934   7.774   0.770  0.00  0.00     0.002 A 
ATOM     21  C   UNL d   1      -4.082   7.036   1.043  0.00  0.00     0.002 A 
ENDBRANCH   9  10
ENDBRANCH   2   9
BRANCH   3  22
ATOM     22  S   UNL d   1       0.325  -2.109  -1.367  0.00  0.00    -0.085 SA
BRANCH  22  23
ATOM     23  C   UNL d   1      -1.161  -3.140  -1.570  0.00  0.00     0.166 C 
BRANCH  23  24
ATOM     24  C   UNL d   1      -1.759  -3.092  -2.970  0.00  0.00     0.169 C 
ATOM     25  O   UNL d   1      -1.329  -2.383  -3.878  0.00  0.00    -0.291 OA
BRANCH  24  26
ATOM     26  C   UNL d   1      -2.913  -4.012  -3.272  0.00  0.00     0.011 A 
ATOM     27  C   UNL d   1      -3.486  -4.849  -2.302  0.00  0.00     0.017 A 
ATOM     28  C   UNL d   1      -4.536  -5.712  -2.641  0.00  0.00     0.025 A 
ATOM     29  C   UNL d   1      -5.022  -5.744  -3.947  0.00  0.00     0.034 A 
ATOM     30  C   UNL d   1      -4.469  -4.915  -4.919  0.00  0.00     0.025 A 
ATOM     31 CL   UNL d   1      -6.307  -6.809  -4.358  0.00  0.00    -0.084 Cl
ATOM     32  C   UNL d   1      -3.418  -4.051  -4.581  0.00  0.00     0.017 A 
ENDBRANCH  24  26
ENDBRANCH  23  24
ENDBRANCH  22  23
ENDBRANCH   3  22
TORSDOF 6
