REMARK  2 active torsions:
REMARK  status: ('A' for Active; 'I' for Inactive)
REMARK    1  A    between atoms: C_8  and  C_1 
REMARK    2  A    between atoms: S_14  and  C_5 
ROOT
ATOM      1  C   UNL d   1      -0.185  -0.868  -0.398  0.00  0.00     0.132 A 
ATOM      2  N   UNL d   1      -0.344  -0.238  -1.615  0.00  0.00    -0.317 N 
ATOM      3  N   UNL d   1      -0.213   0.061   0.548  0.00  0.00    -0.285 N 
ATOM      4  HN  UNL d   1      -0.187  -0.116   1.552  1.00  0.00     0.188 HD
ATOM      5  C   UNL d   1      -0.343   1.107  -1.330  0.00  0.00     0.159 A 
ATOM      6  N   UNL d   1      -0.282   1.292  -0.039  0.00  0.00    -0.278 N 
ATOM      7  HN  UNL d   1      -0.284   2.191   0.443  1.00  0.00     0.189 HD
ATOM      8  C   UNL d   1      -0.514  -0.803  -2.929  0.00  0.00     0.160 C 
ENDROOT
BRANCH   1   9
ATOM      9  C   UNL d   1      -0.027  -2.332  -0.081  0.00  0.00     0.222 C 
ATOM     10  O   UNL d   1       0.366  -3.108  -1.226  0.00  0.00    -0.333 OA
ATOM     11  C   UNL d   1       1.723  -3.185  -1.402  0.00  0.00     0.103 A 
ATOM     12  C   UNL d   1       2.167  -3.803  -2.571  0.00  0.00     0.040 A 
ATOM     13  C   UNL d   1       2.644  -2.663  -0.495  0.00  0.00     0.102 A 
ATOM     14  C   UNL d   1       3.532  -3.830  -2.864  0.00  0.00     0.003 A 
ATOM     15  C   UNL d   1       4.445  -3.228  -1.997  0.00  0.00     0.003 A 
ATOM     16  C   UNL d   1       4.001  -2.646  -0.808  0.00  0.00     0.039 A 
ATOM     17  O   UNL d   1       2.284  -2.151   0.722  0.00  0.00    -0.345 OA
ATOM     18  C   UNL d   1       0.954  -2.557   1.077  0.00  0.00     0.216 C 
ENDBRANCH   1   9
BRANCH   5  19
ATOM     19  S   UNL d   1      -0.406   2.372  -2.506  0.00  0.00    -0.105 SA
ATOM     20  H   UNL d   1      -1.412   1.906  -3.256  0.00  0.00     0.110 HD
ENDBRANCH   5  19
TORSDOF 2
