REMARK  6 active torsions:
REMARK  status: ('A' for Active; 'I' for Inactive)
REMARK    1  A    between atoms: S_6  and  C_1 
REMARK    2  A    between atoms: N_14  and  C_3 
REMARK    3  A    between atoms: C_12  and  C_4 
REMARK    4  A    between atoms: C_13  and  C_5 
REMARK    5  A    between atoms: C_15  and  S_6 
REMARK    6  A    between atoms: C_20  and  C_15 
ROOT
ATOM      1  C   UNL d   1       0.452  -1.390  -0.135  0.00  0.00     0.096 C 
ATOM      2  C   UNL d   1       0.942   1.082  -0.091  0.00  0.00     0.070 C 
ATOM      3  C   UNL d   1      -0.857  -1.113  -0.277  0.00  0.00     0.139 C 
ATOM      4  C   UNL d   1      -0.390   1.256  -0.234  0.00  0.00     0.105 C 
ATOM      5  C   UNL d   1       1.466  -0.316   0.204  0.00  0.00     0.113 C 
ATOM      6  O   UNL d   1      -1.305   0.209  -0.193  0.00  0.00    -0.296 OA
ATOM      7  C   UNL d   1       1.895   2.153  -0.224  0.00  0.00     0.099 C 
ATOM      8  N   UNL d   1       2.671   3.008  -0.360  0.00  0.00    -0.192 NA
ENDROOT
BRANCH   5   9
ATOM      9  C   UNL d   1       1.916  -0.421   1.666  0.00  0.00    -0.044 A 
ATOM     10  C   UNL d   1       1.018  -0.221   2.732  0.00  0.00     0.008 A 
ATOM     11  C   UNL d   1       1.442  -0.343   4.057  0.00  0.00     0.001 A 
ATOM     12  C   UNL d   1       2.765  -0.672   4.337  0.00  0.00     0.000 A 
ATOM     13  C   UNL d   1       3.669  -0.863   3.295  0.00  0.00     0.001 A 
ATOM     14  C   UNL d   1       3.250  -0.734   1.968  0.00  0.00     0.008 A 
ENDBRANCH   5   9
BRANCH   4  15
ATOM     15  C   UNL d   1      -1.000   2.574  -0.440  0.00  0.00    -0.001 A 
ATOM     16  C   UNL d   1      -1.195   3.052  -1.740  0.00  0.00     0.014 A 
ATOM     17  C   UNL d   1      -1.659   4.351  -1.945  0.00  0.00     0.001 A 
ATOM     18  C   UNL d   1      -1.941   5.173  -0.855  0.00  0.00     0.000 A 
ATOM     19  C   UNL d   1      -1.771   4.694   0.444  0.00  0.00     0.001 A 
ATOM     20  C   UNL d   1      -1.303   3.396   0.653  0.00  0.00     0.014 A 
ENDBRANCH   4  15
BRANCH   1  21
ATOM     21  S   UNL d   1       1.026  -3.024  -0.321  0.00  0.00     0.176 S 
ATOM     22  O   UNL d   1       2.475  -3.033  -0.233  0.00  0.00    -0.223 OA
ATOM     23  O   UNL d   1       0.235  -3.893   0.534  0.00  0.00    -0.223 OA
BRANCH  21  24
ATOM     24  C   UNL d   1       0.629  -3.450  -2.015  0.00  0.00     0.145 C 
BRANCH  24  25
ATOM     25  C   UNL d   1       1.052  -4.882  -2.350  0.00  0.00     0.011 C 
ATOM     26  C   UNL d   1       0.662  -5.257  -3.772  0.00  0.00     0.006 C 
ENDBRANCH  24  25
ENDBRANCH  21  24
ENDBRANCH   1  21
BRANCH   3  27
ATOM     27  N   UNL d   1      -1.870  -2.023  -0.486  0.00  0.00    -0.282 NA
ATOM     28  H   UNL d   1      -1.700  -2.934  -0.046  0.00  0.00     0.126 HD
ATOM     29  H   UNL d   1      -2.772  -1.652  -0.190  0.00  0.00     0.126 HD
ENDBRANCH   3  27
TORSDOF 6
