REMARK  4 active torsions:
REMARK  status: ('A' for Active; 'I' for Inactive)
REMARK    1  A    between atoms: N_7  and  C_1 
REMARK    2  A    between atoms: C_8  and  C_6 
REMARK    3  A    between atoms: C_14  and  N_7 
REMARK    4  A    between atoms: C_12  and  C_8 
ROOT
ATOM      1  C   UNL d   1       2.314   0.797  -0.004  0.00  0.00     0.133 A 
ATOM      2  N   UNL d   1       1.120   1.438   0.021  0.00  0.00    -0.339 N 
ATOM      3  HN  UNL d   1       1.072   2.456   0.037  1.00  0.00     0.167 HD
ATOM      4  N   UNL d   1       1.236  -1.367  -0.014  0.00  0.00    -0.351 N 
ATOM      5  HN  UNL d   1       1.278  -2.386  -0.027  1.00  0.00     0.166 HD
ATOM      6  C   UNL d   1       2.368  -0.612  -0.017  0.00  0.00     0.077 A 
ATOM      7  C   UNL d   1       0.002   0.693   0.025  0.00  0.00     0.060 A 
ATOM      8  C   UNL d   1       0.058  -0.717   0.006  0.00  0.00     0.059 A 
ATOM      9  C   UNL d   1      -1.235   1.324   0.038  0.00  0.00     0.032 A 
ATOM     10  C   UNL d   1      -1.130  -1.438   0.007  0.00  0.00     0.032 A 
ATOM     11  C   UNL d   1      -2.422   0.593   0.032  0.00  0.00     0.002 A 
ATOM     12  C   UNL d   1      -2.369  -0.795   0.017  0.00  0.00     0.002 A 
ENDROOT
BRANCH   1  13
ATOM     13  N   UNL d   1       3.497   1.579  -0.069  0.00  0.00    -0.341 N 
ATOM     14  H   UNL d   1       3.955   1.393  -0.955  0.00  0.00     0.167 HD
BRANCH  13  15
ATOM     15  C   UNL d   1       3.603   2.937   0.314  0.00  0.00     0.035 A 
ATOM     16  C   UNL d   1       2.932   3.435   1.441  0.00  0.00     0.053 A 
ATOM     17  C   UNL d   1       3.093   4.762   1.836  0.00  0.00     0.036 A 
ATOM     18 CL   UNL d   1       2.254   5.349   3.221  0.00  0.00    -0.084 Cl
ATOM     19  C   UNL d   1       3.934   5.614   1.127  0.00  0.00     0.024 A 
ATOM     20  C   UNL d   1       4.629   5.128   0.021  0.00  0.00     0.004 A 
ATOM     21  C   UNL d   1       4.474   3.795  -0.374  0.00  0.00     0.029 A 
ENDBRANCH  13  15
ENDBRANCH   1  13
BRANCH   6  22
ATOM     22  C   UNL d   1       3.642  -1.365   0.016  0.00  0.00     0.035 C 
BRANCH  22  23
ATOM     23  C   UNL d   1       3.705  -2.707  -0.021  0.00  0.00     0.021 C 
ATOM     24  C   UNL d   1       4.930  -3.436   0.050  0.00  0.00     0.004 A 
ATOM     25  S   UNL d   1       4.873  -5.162  -0.059  0.00  0.00    -0.102 SA
ATOM     26  C   UNL d   1       6.243  -3.018   0.208  0.00  0.00     0.019 A 
ATOM     27  C   UNL d   1       6.563  -5.315   0.112  0.00  0.00     0.050 A 
ATOM     28  C   UNL d   1       7.179  -4.094   0.245  0.00  0.00     0.008 A 
ENDBRANCH  22  23
ENDBRANCH   6  22
TORSDOF 4
