REMARK  3 active torsions:
REMARK  status: ('A' for Active; 'I' for Inactive)
REMARK    1  A    between atoms: C_2  and  C_1 
REMARK    2  A    between atoms: C_14  and  N_3 
REMARK    3  A    between atoms: C_12  and  C_4 
ROOT
ATOM      1  C   UNL d   1      -0.466  -2.780   0.054  0.00  0.00     0.056 A 
ATOM      2  C   UNL d   1       0.066  -3.613   1.024  0.00  0.00     0.073 A 
ATOM      3  N   UNL d   1      -1.209  -4.890  -0.384  0.00  0.00    -0.310 N 
ATOM      4  HN  UNL d   1      -1.684  -5.692  -0.798  1.00  0.00     0.186 HD
ATOM      5  N   UNL d   1      -0.415  -4.861   0.697  0.00  0.00    -0.299 N 
ATOM      6  C   UNL d   1      -1.229  -3.619  -0.786  0.00  0.00     0.124 A 
ATOM      7  H   UNL d   1      -0.267  -5.729   1.201  0.00  0.00     0.187 HD
ENDROOT
BRANCH   1   8
ATOM      8  C   UNL d   1      -0.255  -1.318  -0.111  0.00  0.00     0.152 C 
ATOM      9  N   UNL d   1      -1.110  -0.399  -0.699  0.00  0.00    -0.224 N 
ATOM     10  N   UNL d   1      -0.388   0.707  -1.000  0.00  0.00     0.001 NA
ATOM     11  N   UNL d   1       0.779   0.546  -0.391  0.00  0.00    -0.007 NA
ATOM     12  N   UNL d   1       0.866  -0.692   0.191  0.00  0.00    -0.269 N 
ATOM     13  HN  UNL d   1       1.641  -1.056   0.745  1.00  0.00     0.185 HD
BRANCH   9  14
ATOM     14  C   UNL d   1      -2.517  -0.430  -0.862  0.00  0.00     0.056 A 
ATOM     15  C   UNL d   1      -3.314  -1.238  -0.035  0.00  0.00     0.031 A 
ATOM     16  C   UNL d   1      -4.700  -1.245  -0.189  0.00  0.00     0.002 A 
ATOM     17  C   UNL d   1      -5.297  -0.446  -1.161  0.00  0.00     0.000 A 
ATOM     18  C   UNL d   1      -4.512   0.376  -1.969  0.00  0.00     0.002 A 
ATOM     19  C   UNL d   1      -3.124   0.399  -1.813  0.00  0.00     0.031 A 
ENDBRANCH   9  14
ENDBRANCH   1   8
BRANCH   2  20
ATOM     20  C   UNL d   1       0.836  -3.384   2.248  0.00  0.00    -0.004 A 
ATOM     21  C   UNL d   1       0.589  -2.261   3.048  0.00  0.00     0.056 A 
ATOM     22  C   UNL d   1       1.270  -2.093   4.249  0.00  0.00     0.117 A 
ATOM     23  F   UNL d   1       1.010  -1.021   5.009  0.00  0.00    -0.206 F 
ATOM     24  C   UNL d   1       2.200  -3.028   4.684  0.00  0.00     0.042 A 
ATOM     25  C   UNL d   1       2.463  -4.146   3.898  0.00  0.00     0.004 A 
ATOM     26  C   UNL d   1       1.787  -4.321   2.685  0.00  0.00     0.014 A 
ENDBRANCH   2  20
TORSDOF 3
