REMARK  6 active torsions:
REMARK  status: ('A' for Active; 'I' for Inactive)
REMARK    1  A    between atoms: S_13  and  C_2 
REMARK    2  A    between atoms: C_8  and  C_5 
REMARK    3  A    between atoms: S_6  and  C_10 
REMARK    4  A    between atoms: C_9  and  S_6 
REMARK    5  A    between atoms: C_10  and  C_19 
REMARK    6  A    between atoms: C_19  and  S_13 
ROOT
ATOM      1  C   UNL d   1       0.489   0.718  -0.071  0.00  0.00     0.041 A 
ATOM      2  C   UNL d   1       1.855   0.915  -0.065  0.00  0.00     0.056 A 
ATOM      3  C   UNL d   1       0.153  -0.690  -0.048  0.00  0.00    -0.022 A 
ATOM      4  S   UNL d   1       2.707  -0.566  -0.055  0.00  0.00    -0.078 SA
ATOM      5  C   UNL d   1       1.279  -1.504  -0.013  0.00  0.00     0.058 A 
ATOM      6  C   UNL d   1      -0.550   1.754  -0.070  0.00  0.00     0.162 C 
ATOM      7  O   UNL d   1      -0.330   2.943  -0.290  0.00  0.00    -0.292 OA
ATOM      8  C   UNL d   1      -1.280  -1.155  -0.023  0.00  0.00     0.041 C 
ATOM      9  C   UNL d   1      -1.954   1.272   0.255  0.00  0.00     0.084 C 
ATOM     10  C   UNL d   1      -2.246  -0.047  -0.458  0.00  0.00     0.012 C 
ENDROOT
BRANCH   2  11
ATOM     11  S   UNL d   1       2.722   2.437   0.050  0.00  0.00    -0.121 SA
BRANCH  11  12
ATOM     12  C   UNL d   1       3.119   2.761  -1.695  0.00  0.00     0.095 C 
BRANCH  12  13
ATOM     13  C   UNL d   1       3.842   4.090  -1.870  0.00  0.00     0.156 C 
BRANCH  13  14
ATOM     14  S   UNL d   1       5.528   4.025  -1.298  0.00  0.00     0.176 S 
ATOM     15  O   UNL d   1       5.567   3.896   0.147  0.00  0.00    -0.223 OA
ATOM     16  O   UNL d   1       6.252   3.094  -2.143  0.00  0.00    -0.223 OA
BRANCH  14  17
ATOM     17  C   UNL d   1       6.161   5.654  -1.654  0.00  0.00     0.059 A 
ATOM     18  C   UNL d   1       5.991   6.673  -0.710  0.00  0.00     0.025 A 
ATOM     19  C   UNL d   1       6.570   7.923  -0.937  0.00  0.00     0.025 A 
ATOM     20  C   UNL d   1       7.319   8.140  -2.095  0.00  0.00     0.034 A 
ATOM     21  C   UNL d   1       7.489   7.119  -3.032  0.00  0.00     0.025 A 
ATOM     22 CL   UNL d   1       8.059   9.670  -2.356  0.00  0.00    -0.084 Cl
ATOM     23  C   UNL d   1       6.912   5.867  -2.813  0.00  0.00     0.025 A 
ENDBRANCH  14  17
ENDBRANCH  13  14
ENDBRANCH  12  13
ENDBRANCH  11  12
ENDBRANCH   2  11
BRANCH   5  24
ATOM     24  C   UNL d   1       1.316  -2.965   0.084  0.00  0.00     0.163 C 
ATOM     25  O   UNL d   1       0.313  -3.624   0.372  0.00  0.00    -0.292 OA
ATOM     26  C   UNL d   1       2.615  -3.703  -0.142  0.00  0.00     0.097 C 
ENDBRANCH   5  24
TORSDOF 6
