REMARK  3 active torsions:
REMARK  status: ('A' for Active; 'I' for Inactive)
REMARK    1  A    between atoms: C_10  and  C_1 
REMARK    2  A    between atoms: O_8  and  C_10 
REMARK    3  A    between atoms: C_9  and  O_8 
ROOT
ATOM      1  C   UNL d   1      -0.775   2.766   1.121  0.00  0.00     0.254 C 
ENDROOT
BRANCH   1   2
ATOM      2  O   UNL d   1      -0.633   3.434  -0.141  0.00  0.00    -0.342 OA
BRANCH   2   3
ATOM      3  C   UNL d   1      -0.386   4.781  -0.064  0.00  0.00     0.090 A 
ATOM      4  C   UNL d   1       0.541   5.337  -0.958  0.00  0.00     0.067 A 
ATOM      5 CL   UNL d   1       1.422   4.351  -2.070  0.00  0.00    -0.081 Cl
ATOM      6  C   UNL d   1       0.784   6.714  -0.962  0.00  0.00     0.026 A 
ATOM      7  C   UNL d   1       0.094   7.548  -0.083  0.00  0.00     0.002 A 
ATOM      8  C   UNL d   1      -0.841   7.005   0.796  0.00  0.00     0.003 A 
ATOM      9  C   UNL d   1      -1.086   5.629   0.802  0.00  0.00     0.038 A 
ENDBRANCH   2   3
ENDBRANCH   1   2
BRANCH   1  10
ATOM     10  C   UNL d   1      -1.002   1.305   0.940  0.00  0.00     0.134 A 
ATOM     11  N   UNL d   1       0.013   0.384   0.966  0.00  0.00    -0.269 N 
ATOM     12  N   UNL d   1      -0.556  -0.803   0.808  0.00  0.00    -0.005 NA
ATOM     13  HN  UNL d   1       1.008   0.575   1.085  1.00  0.00     0.185 HD
ATOM     14  N   UNL d   1      -1.864  -0.543   0.690  0.00  0.00    -0.225 N 
ATOM     15  N   UNL d   1      -2.217   0.749   0.793  0.00  0.00    -0.273 N 
ATOM     16  H   UNL d   1      -2.544  -1.283   0.545  0.00  0.00     0.205 HD
ATOM     17  HN  UNL d   1      -3.140   1.182   0.767  1.00  0.00     0.189 HD
ENDBRANCH   1  10
TORSDOF 3
