REMARK  6 active torsions:
REMARK  status: ('A' for Active; 'I' for Inactive)
REMARK    1  A    between atoms: S_18  and  C_3 
REMARK    2  A    between atoms: C_20  and  C_7 
REMARK    3  A    between atoms: C_9  and  S_18 
REMARK    4  A    between atoms: S_22  and  C_15 
REMARK    5  A    between atoms: O_24  and  C_20 
REMARK    6  A    between atoms: C_27  and  O_24 
ROOT
ATOM      1  C   UNL d   1       0.170  -0.826   0.087  0.00  0.00     0.051 A 
ATOM      2  C   UNL d   1       0.147   0.560  -0.035  0.00  0.00     0.135 A 
ATOM      3  C   UNL d   1      -1.070  -1.482   0.285  0.00  0.00     0.041 A 
ATOM      4  N   UNL d   1       2.328  -0.062  -0.167  0.00  0.00    -0.301 N 
ATOM      5  HN  UNL d   1       3.341  -0.017  -0.281  1.00  0.00     0.187 HD
ATOM      6  N   UNL d   1       1.451   0.959  -0.126  0.00  0.00    -0.280 N 
ATOM      7  C   UNL d   1      -2.228  -0.678   0.336  0.00  0.00     0.073 A 
ATOM      8  C   UNL d   1       1.560  -1.153  -0.022  0.00  0.00     0.037 A 
ATOM      9  N   UNL d   1      -0.932   1.366  -0.033  0.00  0.00    -0.349 N 
ATOM     10  HN  UNL d   1      -0.880   2.377  -0.160  1.00  0.00     0.167 HD
ATOM     11  C   UNL d   1      -2.093   0.697   0.156  0.00  0.00     0.108 A 
ATOM     12  C   UNL d   1       1.944   2.313  -0.111  0.00  0.00     0.179 C 
ATOM     13  C   UNL d   1       2.216  -2.485   0.018  0.00  0.00     0.070 C 
ENDROOT
BRANCH   3  14
ATOM     14  S   UNL d   1      -1.060  -3.254   0.421  0.00  0.00    -0.062 SA
BRANCH  14  15
ATOM     15  C   UNL d   1      -0.999  -3.382   2.170  0.00  0.00     0.134 A 
ATOM     16  S   UNL d   1      -1.690  -4.694   3.028  0.00  0.00    -0.037 SA
ATOM     17  C   UNL d   1      -1.195  -3.905   4.466  0.00  0.00     0.128 A 
ATOM     18  N   UNL d   1      -0.518  -2.793   4.273  0.00  0.00    -0.287 N 
ATOM     19  N   UNL d   1      -0.399  -2.490   2.930  0.00  0.00    -0.286 N 
ATOM     20  HN  UNL d   1      -0.128  -2.224   5.024  1.00  0.00     0.188 HD
ATOM     21  HN  UNL d   1       0.095  -1.673   2.571  1.00  0.00     0.188 HD
BRANCH  17  22
ATOM     22  S   UNL d   1      -1.557  -4.530   6.059  0.00  0.00    -0.108 SA
ATOM     23  C   UNL d   1      -0.997  -3.158   7.092  0.00  0.00     0.097 C 
ENDBRANCH  17  22
ENDBRANCH  14  15
ENDBRANCH   3  14
BRANCH   7  24
ATOM     24  C   UNL d   1      -3.568  -1.220   0.663  0.00  0.00     0.296 C 
ATOM     25  O   UNL d   1      -3.763  -2.193   1.374  0.00  0.00    -0.259 OA
BRANCH  24  26
ATOM     26  O   UNL d   1      -4.537  -0.461   0.091  0.00  0.00    -0.318 OA
BRANCH  26  27
ATOM     27  C   UNL d   1      -5.887  -0.844   0.403  0.00  0.00     0.174 C 
ATOM     28  C   UNL d   1      -6.320  -0.216   1.717  0.00  0.00     0.034 C 
ENDBRANCH  26  27
ENDBRANCH  24  26
ENDBRANCH   7  24
TORSDOF 6
