REMARK  4 active torsions:
REMARK  status: ('A' for Active; 'I' for Inactive)
REMARK    1  A    between atoms: S_3  and  C_4 
REMARK    2  A    between atoms: C_8  and  S_3 
REMARK    3  A    between atoms: C_5  and  C_8 
REMARK    4  A    between atoms: O_11  and  C_5 
ROOT
ATOM      1  C   UNL d   1      -1.209   0.050  -0.031  0.00  0.00     0.052 A 
ATOM      2  C   UNL d   1       0.035   0.694  -0.050  0.00  0.00     0.049 A 
ATOM      3  C   UNL d   1      -1.287  -1.354  -0.040  0.00  0.00     0.022 A 
ATOM      4  C   UNL d   1      -0.088  -2.090  -0.039  0.00  0.00     0.022 A 
ATOM      5  C   UNL d   1       1.208  -0.057  -0.060  0.00  0.00     0.035 A 
ATOM      6 CL   UNL d   1      -2.606   1.063   0.064  0.00  0.00    -0.083 Cl
ATOM      7  C   UNL d   1       1.152  -1.446  -0.056  0.00  0.00     0.025 A 
ATOM      8 CL   UNL d   1       2.735   0.734  -0.052  0.00  0.00    -0.084 Cl
ENDROOT
BRANCH   3   9
ATOM      9  S   UNL d   1      -2.794  -2.327   0.063  0.00  0.00    -0.118 SA
BRANCH   9  10
ATOM     10  C   UNL d   1      -3.662  -1.884  -1.485  0.00  0.00     0.189 C 
BRANCH  10  11
ATOM     11  C   UNL d   1      -2.870  -2.210  -2.733  0.00  0.00     0.149 C 
ATOM     12  O   UNL d   1      -3.003  -1.602  -3.788  0.00  0.00    -0.649 OA
BRANCH  11  13
ATOM     13  O   UNL d   1      -2.061  -3.287  -2.628  0.00  0.00    -0.776 OA
ATOM     14  H   UNL d   1      -2.079  -3.662  -1.722  0.00  0.00     0.167 HD
ENDBRANCH  11  13
ENDBRANCH  10  11
ENDBRANCH   9  10
ENDBRANCH   3   9
TORSDOF 4
