REMARK  4 active torsions:
REMARK  status: ('A' for Active; 'I' for Inactive)
REMARK    1  A    between atoms: S_9  and  C_1 
REMARK    2  A    between atoms: C_2  and  S_9 
REMARK    3  A    between atoms: N_12  and  C_6 
REMARK    4  A    between atoms: N_20  and  C_17 
ROOT
ATOM      1  C   UNL d   1       3.674  -3.818  -0.084  0.00  0.00     0.136 A 
ATOM      2  S   UNL d   1       2.868  -4.634  -1.356  0.00  0.00    -0.026 SA
ATOM      3  C   UNL d   1       2.941  -6.076  -0.398  0.00  0.00     0.166 A 
ATOM      4  N   UNL d   1       3.989  -4.589   0.934  0.00  0.00    -0.286 N 
ATOM      5  HN  UNL d   1       4.496  -4.266   1.758  1.00  0.00     0.188 HD
ATOM      6  N   UNL d   1       3.553  -5.887   0.757  0.00  0.00    -0.278 N 
ATOM      7  HN  UNL d   1       3.690  -6.625   1.448  1.00  0.00     0.189 HD
ENDROOT
BRANCH   1   8
ATOM      8  S   UNL d   1       4.267  -2.177  -0.164  0.00  0.00    -0.038 SA
BRANCH   8   9
ATOM      9  C   UNL d   1       2.767  -1.281  -0.282  0.00  0.00     0.120 A 
ATOM     10  N   UNL d   1       1.575  -1.830  -0.329  0.00  0.00    -0.344 N 
ATOM     11  C   UNL d   1       0.603  -0.848  -0.474  0.00  0.00     0.052 A 
ATOM     12  HN  UNL d   1       1.389  -2.831  -0.267  1.00  0.00     0.167 HD
ATOM     13  C   UNL d   1      -0.784  -1.069  -0.588  0.00  0.00     0.054 A 
ATOM     14  C   UNL d   1       1.082   0.463  -0.517  0.00  0.00     0.034 A 
ATOM     15  C   UNL d   1      -1.641   0.024  -0.745  0.00  0.00     0.036 A 
ATOM     16 CL   UNL d   1      -3.335  -0.242  -0.900  0.00  0.00    -0.084 Cl
ATOM     17  C   UNL d   1      -1.146   1.324  -0.783  0.00  0.00     0.025 A 
ATOM     18  C   UNL d   1       0.226   1.567  -0.666  0.00  0.00     0.023 A 
ATOM     19  S   UNL d   1       2.795   0.435  -0.367  0.00  0.00    -0.063 SA
ENDBRANCH   8   9
ENDBRANCH   1   8
BRANCH   3  20
ATOM     20  N   UNL d   1       2.396  -7.209  -0.913  0.00  0.00    -0.332 N 
ATOM     21  C   UNL d   1       2.576  -8.284  -0.219  0.00  0.00     0.179 C 
ATOM     22  HN  UNL d   1       1.879  -7.211  -1.792  1.00  0.00     0.168 HD
BRANCH  21  23
ATOM     23  N   UNL d   1       2.115  -9.542  -0.544  0.00  0.00    -0.386 N 
ATOM     24  C   UNL d   1       1.349  -9.790  -1.755  0.00  0.00     0.149 C 
ATOM     25  C   UNL d   1       2.383 -10.702   0.287  0.00  0.00     0.149 C 
ENDBRANCH  21  23
ENDBRANCH   3  20
TORSDOF 4
