REMARK  5 active torsions:
REMARK  status: ('A' for Active; 'I' for Inactive)
REMARK    1  A    between atoms: C_4  and  C_1 
REMARK    2  A    between atoms: S_5  and  C_2 
REMARK       I    between atoms: C_3  and  N_6 
REMARK       I    between atoms: N_7  and  C_3 
REMARK    3  A    between atoms: N_6  and  C_4 
REMARK    4  A    between atoms: C_10  and  S_5 
REMARK    5  A    between atoms: C_11  and  N_7 
ROOT
ATOM      1  C   UNL d   1       0.157   1.043   0.062  0.00  0.00    -0.002 A 
ATOM      2  C   UNL d   1       1.565   1.048  -0.139  0.00  0.00     0.015 A 
ATOM      3  C   UNL d   1      -0.484  -0.215   0.077  0.00  0.00     0.043 A 
ATOM      4 CL   UNL d   1      -2.208  -0.406   0.117  0.00  0.00    -0.084 Cl
ATOM      5  C   UNL d   1       2.280  -0.163  -0.197  0.00  0.00     0.019 A 
ATOM      6  C   UNL d   1       1.629  -1.386  -0.103  0.00  0.00     0.003 A 
ATOM      7  C   UNL d   1       0.246  -1.409   0.017  0.00  0.00     0.024 A 
ENDROOT
BRANCH   1   8
ATOM      8  C   UNL d   1      -0.583   2.364   0.155  0.00  0.00     0.166 C 
BRANCH   8   9
ATOM      9  N   UNL d   1      -1.798   2.378   0.947  0.00  0.00    -0.339 N 
ATOM     10  C   UNL d   1      -2.390   3.598   1.203  0.00  0.00     0.320 C 
ATOM     11  N   UNL d   1      -3.705   3.461   1.595  0.00  0.00    -0.309 N 
ATOM     12  O   UNL d   1      -1.789   4.653   1.040  0.00  0.00    -0.247 OA
ATOM     13  H   UNL d   1      -4.096   2.534   1.541  0.00  0.00     0.170 HD
ATOM     14  H   UNL d   1      -2.419   1.595   0.815  0.00  0.00     0.164 HD
BRANCH  11  15
ATOM     15  C   UNL d   1      -4.616   4.519   1.808  0.00  0.00     0.036 A 
ATOM     16  C   UNL d   1      -4.221   5.846   2.011  0.00  0.00     0.031 A 
ATOM     17  C   UNL d   1      -5.173   6.864   2.126  0.00  0.00     0.026 A 
ATOM     18  C   UNL d   1      -6.527   6.557   2.044  0.00  0.00     0.034 A 
ATOM     19  C   UNL d   1      -6.937   5.236   1.884  0.00  0.00     0.026 A 
ATOM     20 CL   UNL d   1      -7.696   7.816   2.129  0.00  0.00    -0.084 Cl
ATOM     21  C   UNL d   1      -5.983   4.217   1.781  0.00  0.00     0.031 A 
ENDBRANCH  11  15
ENDBRANCH   8   9
ENDBRANCH   1   8
BRANCH   2  22
ATOM     22  S   UNL d   1       2.589   2.516  -0.262  0.00  0.00    -0.090 SA
BRANCH  22  23
ATOM     23  C   UNL d   1       2.193   3.290  -1.823  0.00  0.00     0.005 A 
ATOM     24  C   UNL d   1       1.339   2.758  -2.796  0.00  0.00     0.020 A 
ATOM     25  C   UNL d   1       1.034   3.487  -3.953  0.00  0.00     0.025 A 
ATOM     26  C   UNL d   1       1.605   4.740  -4.160  0.00  0.00     0.034 A 
ATOM     27  C   UNL d   1       2.495   5.264  -3.229  0.00  0.00     0.025 A 
ATOM     28 CL   UNL d   1       1.206   5.645  -5.567  0.00  0.00    -0.084 Cl
ATOM     29  C   UNL d   1       2.785   4.540  -2.067  0.00  0.00     0.020 A 
ENDBRANCH  22  23
ENDBRANCH   2  22
TORSDOF 5
