REMARK  0 active torsions:
REMARK  status: ('A' for Active; 'I' for Inactive)
ROOT
ATOM      1  C   UNL d   1       0.001  -0.719  -0.003  0.00  0.00     0.056 A 
ATOM      2  C   UNL d   1       0.008   0.630  -0.000  0.00  0.00     0.001 A 
ATOM      3  S   UNL d   1       1.514  -1.421  -0.010  0.00  0.00    -0.093 SA
ATOM      4  S   UNL d   1      -1.519  -1.407   0.003  0.00  0.00    -0.093 SA
ATOM      5  C   UNL d   1       1.316   1.190  -0.020  0.00  0.00    -0.043 A 
ATOM      6  C   UNL d   1      -1.294   1.202   0.021  0.00  0.00    -0.043 A 
ATOM      7  C   UNL d   1       2.240   0.140  -0.017  0.00  0.00     0.058 A 
ATOM      8  C   UNL d   1      -2.228   0.163   0.015  0.00  0.00     0.058 A 
ATOM      9  C   UNL d   1       1.776   2.606  -0.043  0.00  0.00     0.049 C 
ATOM     10  C   UNL d   1      -1.740   2.623   0.049  0.00  0.00     0.049 C 
ENDROOT
TORSDOF 0
