REMARK  5 active torsions:
REMARK  status: ('A' for Active; 'I' for Inactive)
REMARK    1  A    between atoms: N_2  and  C_1 
REMARK    2  A    between atoms: C_3  and  O_5 
REMARK    3  A    between atoms: C_4  and  C_11 
REMARK    4  A    between atoms: O_5  and  C_6 
REMARK    5  A    between atoms: C_15  and  C_10 
ROOT
ATOM      1  C   UNL d   1      -0.763  -1.091   0.938  0.00  0.00     0.137 A 
ATOM      2  C   UNL d   1       0.551  -1.351   0.503  0.00  0.00     0.109 A 
ATOM      3  C   UNL d   1      -1.109   0.185   1.428  0.00  0.00     0.055 A 
ATOM      4  C   UNL d   1      -0.162   1.219   1.490  0.00  0.00     0.050 A 
ATOM      5  C   UNL d   1       1.466  -0.281   0.491  0.00  0.00     0.040 A 
ATOM      6  C   UNL d   1       1.130   0.969   1.018  0.00  0.00     0.019 A 
ENDROOT
BRANCH   2   7
ATOM      7  O   UNL d   1       0.926  -2.630   0.137  0.00  0.00    -0.305 OA
BRANCH   7   8
ATOM      8  C   UNL d   1       2.256  -2.990   0.218  0.00  0.00     0.115 C 
ATOM      9  C   UNL d   1       3.031  -2.843   1.375  0.00  0.00     0.047 C 
ATOM     10  C   UNL d   1       4.417  -3.047   1.327  0.00  0.00     0.030 C 
ATOM     11 BR   UNL d   1       2.303  -2.389   3.079  0.00  0.00    -0.048 Br
ATOM     12  C   UNL d   1       5.061  -3.536   0.178  0.00  0.00    -0.048 C 
ATOM     13  C   UNL d   1       4.245  -3.811  -0.935  0.00  0.00     0.034 C 
ATOM     14  C   UNL d   1       2.865  -3.538  -0.915  0.00  0.00     0.069 C 
ATOM     15 CL   UNL d   1       1.956  -3.884  -2.344  0.00  0.00    -0.081 Cl
BRANCH  12  16
ATOM     16  C   UNL d   1       6.591  -3.716   0.137  0.00  0.00    -0.024 C 
ATOM     17  C   UNL d   1       7.220  -2.437  -0.453  0.00  0.00     0.019 C 
ATOM     18  C   UNL d   1       7.197  -3.950   1.543  0.00  0.00     0.019 C 
ATOM     19  C   UNL d   1       7.029  -4.919  -0.728  0.00  0.00     0.019 C 
ENDBRANCH  12  16
ENDBRANCH   7   8
ENDBRANCH   2   7
BRANCH   1  20
ATOM     20  N   UNL d   1      -1.817  -2.121   0.912  0.00  0.00    -0.113 N 
ATOM     21  O   UNL d   1      -1.537  -3.265   0.551  0.00  0.00    -0.532 OA
ATOM     22  O   UNL d   1      -2.963  -1.768   1.256  0.00  0.00    -0.532 OA
ENDBRANCH   1  20
BRANCH   4  23
ATOM     23  C   UNL d   1      -0.508   2.582   2.042  0.00  0.00     0.417 C 
ATOM     24  F   UNL d   1      -1.821   2.719   2.368  0.00  0.00    -0.166 F 
ATOM     25  F   UNL d   1       0.194   2.878   3.169  0.00  0.00    -0.166 F 
ATOM     26  F   UNL d   1      -0.235   3.579   1.156  0.00  0.00    -0.166 F 
ENDBRANCH   4  23
TORSDOF 5
