REMARK  4 active torsions:
REMARK  status: ('A' for Active; 'I' for Inactive)
REMARK    1  A    between atoms: C_6  and  C_3 
REMARK    2  A    between atoms: C_9  and  O_13 
REMARK       I    between atoms: N_16  and  C_9 
REMARK    3  A    between atoms: O_13  and  C_10 
REMARK    4  A    between atoms: C_19  and  N_16 
ROOT
ATOM      1  C   UNL d   1       1.695  -3.039  -0.602  0.00  0.00    -0.006 C 
ATOM      2  C   UNL d   1       1.786  -5.819  -0.428  0.00  0.00     0.092 C 
ATOM      3  C   UNL d   1       0.855  -5.218  -1.288  0.00  0.00    -0.026 C 
ATOM      4  C   UNL d   1       2.809  -5.070   0.176  0.00  0.00    -0.026 C 
ATOM      5  C   UNL d   1       2.733  -3.670   0.099  0.00  0.00     0.023 C 
ATOM      6  C   UNL d   1       0.851  -3.819  -1.398  0.00  0.00     0.023 C 
ATOM      7  C   UNL d   1       3.980  -5.705   0.868  0.00  0.00     0.051 C 
ATOM      8  C   UNL d   1      -0.145  -6.011  -2.077  0.00  0.00     0.051 C 
ENDROOT
BRANCH   1   9
ATOM      9  C   UNL d   1       1.526  -1.553  -0.451  0.00  0.00     0.070 A 
ATOM     10  N   UNL d   1       2.620  -0.854  -0.349  0.00  0.00    -0.294 N 
ATOM     11  N   UNL d   1       2.553   0.505  -0.203  0.00  0.00    -0.261 N 
ATOM     12  HN  UNL d   1       3.527  -1.320  -0.377  1.00  0.00     0.187 HD
ATOM     13  C   UNL d   1       1.379   1.243  -0.222  0.00  0.00     0.272 A 
ATOM     14  C   UNL d   1       3.810   1.209  -0.046  0.00  0.00     0.181 C 
ATOM     15  C   UNL d   1       0.129   0.475  -0.321  0.00  0.00     0.046 A 
ATOM     16  O   UNL d   1       1.335   2.469  -0.134  0.00  0.00    -0.266 OA
ATOM     17  C   UNL d   1      -1.099   1.158  -0.300  0.00  0.00     0.018 A 
ATOM     18  C   UNL d   1       0.175  -0.917  -0.370  0.00  0.00     0.009 A 
ATOM     19  C   UNL d   1      -2.295   0.447  -0.310  0.00  0.00     0.001 A 
ATOM     20  C   UNL d   1      -2.264  -0.943  -0.295  0.00  0.00     0.001 A 
ATOM     21  C   UNL d   1      -1.038  -1.620  -0.299  0.00  0.00     0.015 A 
ENDBRANCH   1   9
BRANCH   2  22
ATOM     22  O   UNL d   1       1.432  -7.087   0.113  0.00  0.00    -0.260 OA
BRANCH  22  23
ATOM     23  C   UNL d   1       2.299  -8.159   0.114  0.00  0.00     0.370 C 
ATOM     24  N   UNL d   1       2.179  -9.009   1.190  0.00  0.00    -0.302 N 
ATOM     25  H   UNL d   1       2.923  -9.695   1.192  0.00  0.00     0.171 HD
ATOM     26  O   UNL d   1       3.171  -8.342  -0.732  0.00  0.00    -0.238 OA
BRANCH  24  27
ATOM     27  C   UNL d   1       1.344  -8.971   2.326  0.00  0.00     0.036 A 
ATOM     28  C   UNL d   1       0.193  -8.189   2.447  0.00  0.00     0.031 A 
ATOM     29  C   UNL d   1      -0.568  -8.213   3.627  0.00  0.00     0.026 A 
ATOM     30  C   UNL d   1      -0.180  -9.018   4.692  0.00  0.00     0.034 A 
ATOM     31  C   UNL d   1       0.959  -9.810   4.587  0.00  0.00     0.026 A 
ATOM     32 CL   UNL d   1      -1.111  -9.039   6.136  0.00  0.00    -0.084 Cl
ATOM     33  C   UNL d   1       1.710  -9.791   3.406  0.00  0.00     0.031 A 
ENDBRANCH  24  27
ENDBRANCH  22  23
ENDBRANCH   2  22
TORSDOF 4
