REMARK  5 active torsions:
REMARK  status: ('A' for Active; 'I' for Inactive)
REMARK    1  A    between atoms: C_5  and  C_1 
REMARK    2  A    between atoms: C_8  and  C_4 
REMARK       I    between atoms: N_10  and  C_5 
REMARK    3  A    between atoms: C_9  and  N_12 
REMARK    4  A    between atoms: N_18  and  C_9 
REMARK    5  A    between atoms: N_12  and  N_10 
ROOT
ATOM      1  C   UNL d   1       1.153   0.888   0.045  0.00  0.00     0.110 A 
ATOM      2  N   UNL d   1      -0.143   1.420  -0.011  0.00  0.00    -0.345 N 
ATOM      3  HN  UNL d   1      -0.362   2.415  -0.068  1.00  0.00     0.167 HD
ATOM      4  C   UNL d   1      -1.042   0.450   0.022  0.00  0.00     0.091 A 
ATOM      5  S   UNL d   1      -0.380  -1.139   0.130  0.00  0.00    -0.080 SA
ATOM      6  C   UNL d   1       1.198  -0.492   0.115  0.00  0.00     0.087 A 
ENDROOT
BRANCH   1   7
ATOM      7  C   UNL d   1       2.353   1.726   0.015  0.00  0.00     0.287 C 
ATOM      8  N   UNL d   1       2.091   3.078  -0.051  0.00  0.00    -0.262 N 
ATOM      9  H   UNL d   1       1.137   3.434  -0.019  0.00  0.00     0.190 HD
ATOM     10  O   UNL d   1       3.497   1.272   0.041  0.00  0.00    -0.264 OA
BRANCH   8  11
ATOM     11  N   UNL d   1       3.158   3.990  -0.077  0.00  0.00    -0.274 N 
ATOM     12  H   UNL d   1       4.081   3.554  -0.067  0.00  0.00     0.189 HD
BRANCH  11  13
ATOM     13  C   UNL d   1       3.017   5.272   0.438  0.00  0.00     0.186 C 
ATOM     14  S   UNL d   1       1.580   5.876   1.048  0.00  0.00    -0.040 SA
BRANCH  13  15
ATOM     15  N   UNL d   1       4.204   5.975   0.336  0.00  0.00    -0.370 N 
ATOM     16  C   UNL d   1       4.445   7.357   0.709  0.00  0.00     0.148 C 
ATOM     17  H   UNL d   1       4.929   5.545  -0.221  0.00  0.00     0.161 HD
ENDBRANCH  13  15
ENDBRANCH  11  13
ENDBRANCH   8  11
ENDBRANCH   1   7
BRANCH   4  18
ATOM     18  C   UNL d   1      -2.464   0.716  -0.056  0.00  0.00     0.038 A 
ATOM     19  S   UNL d   1      -3.668  -0.509   0.073  0.00  0.00    -0.099 SA
ATOM     20  C   UNL d   1      -4.945   0.599  -0.158  0.00  0.00     0.050 A 
ATOM     21  C   UNL d   1      -4.482   1.887  -0.315  0.00  0.00     0.008 A 
ATOM     22  C   UNL d   1      -3.058   1.954  -0.246  0.00  0.00     0.022 A 
ENDBRANCH   4  18
TORSDOF 5
