REMARK  4 active torsions:
REMARK  status: ('A' for Active; 'I' for Inactive)
REMARK    1  A    between atoms: C_10  and  C_3 
REMARK    2  A    between atoms: C_13  and  C_4 
REMARK    3  A    between atoms: C_7  and  C_12 
REMARK    4  A    between atoms: C_8  and  C_11 
ROOT
ATOM      1  N   UNL d   1       1.050   0.280  -0.682  0.00  0.00    -0.319 N 
ATOM      2  HN  UNL d   1       1.943   0.478  -1.134  1.00  0.00     0.169 HD
ATOM      3  C   UNL d   1       0.070   1.160  -0.307  0.00  0.00     0.138 A 
ATOM      4  C   UNL d   1       0.559  -0.880  -0.318  0.00  0.00     0.182 A 
ATOM      5  N   UNL d   1      -1.043   0.574   0.161  0.00  0.00    -0.242 N 
ATOM      6  HN  UNL d   1      -1.918   1.014   0.447  1.00  0.00     0.196 HD
ATOM      7  O   UNL d   1      -0.714  -0.793   0.163  0.00  0.00    -0.217 OA
ENDROOT
BRANCH   3   8
ATOM      8  C   UNL d   1       0.344   2.593  -0.322  0.00  0.00     0.011 A 
ATOM      9  C   UNL d   1       1.591   3.042  -0.787  0.00  0.00     0.031 A 
ATOM     10  C   UNL d   1       1.952   4.395  -0.746  0.00  0.00     0.049 A 
ATOM     11  C   UNL d   1       1.031   5.316  -0.226  0.00  0.00     0.032 A 
ATOM     12  C   UNL d   1      -0.230   4.896   0.235  0.00  0.00     0.049 A 
ATOM     13  C   UNL d   1      -0.563   3.528   0.184  0.00  0.00     0.031 A 
BRANCH  10  14
ATOM     14  C   UNL d   1       3.321   4.814  -1.227  0.00  0.00     0.417 C 
ATOM     15  F   UNL d   1       3.507   6.161  -1.223  0.00  0.00    -0.166 F 
ATOM     16  F   UNL d   1       4.319   4.295  -0.463  0.00  0.00    -0.166 F 
ATOM     17  F   UNL d   1       3.570   4.406  -2.501  0.00  0.00    -0.166 F 
ENDBRANCH  10  14
BRANCH  12  18
ATOM     18  C   UNL d   1      -1.218   5.885   0.811  0.00  0.00     0.417 C 
ATOM     19  F   UNL d   1      -0.805   7.181   0.706  0.00  0.00    -0.166 F 
ATOM     20  F   UNL d   1      -2.429   5.828   0.197  0.00  0.00    -0.166 F 
ATOM     21  F   UNL d   1      -1.450   5.674   2.134  0.00  0.00    -0.166 F 
ENDBRANCH  12  18
ENDBRANCH   3   8
BRANCH   4  22
ATOM     22  C   UNL d   1       1.283  -2.137  -0.207  0.00  0.00     0.018 A 
ATOM     23  C   UNL d   1       2.635  -2.133  -0.602  0.00  0.00     0.026 A 
ATOM     24  C   UNL d   1       3.420  -3.237  -0.339  0.00  0.00    -0.022 A 
ATOM     25  C   UNL d   1       4.865  -3.416  -0.567  0.00  0.00     0.068 A 
ATOM     26  C   UNL d   1       2.882  -4.353   0.265  0.00  0.00     0.075 A 
ATOM     27  C   UNL d   1       5.057  -4.812   0.031  0.00  0.00     0.180 A 
ATOM     28  O   UNL d   1       3.794  -5.347   0.496  0.00  0.00    -0.350 OA
ATOM     29  C   UNL d   1       1.548  -4.419   0.618  0.00  0.00     0.038 A 
ATOM     30  C   UNL d   1       0.741  -3.296   0.382  0.00  0.00     0.018 A 
ENDBRANCH   4  22
TORSDOF 4
