REMARK  4 active torsions:
REMARK  status: ('A' for Active; 'I' for Inactive)
REMARK    1  A    between atoms: C_5  and  C_3 
REMARK    2  A    between atoms: C_12  and  N_4 
REMARK       I    between atoms: N_10  and  C_5 
REMARK       I    between atoms: C_9  and  N_11 
REMARK    3  A    between atoms: C_13  and  C_9 
REMARK    4  A    between atoms: N_11  and  N_10 
ROOT
ATOM      1  N   UNL d   1       1.191  -0.613  -0.037  0.00  0.00    -0.286 N 
ATOM      2  HN  UNL d   1       2.090  -1.079  -0.156  1.00  0.00     0.188 HD
ATOM      3  C   UNL d   1       1.104   0.693   0.017  0.00  0.00     0.168 C 
ATOM      4  N   UNL d   1       0.016  -1.336   0.074  0.00  0.00    -0.267 N 
ATOM      5  C   UNL d   1      -0.220   1.396   0.232  0.00  0.00     0.206 C 
ATOM      6  C   UNL d   1      -1.436   0.586   0.100  0.00  0.00     0.076 C 
ATOM      7  C   UNL d   1      -1.225  -0.727   0.042  0.00  0.00     0.120 C 
ATOM      8  O   UNL d   1      -0.276   2.578   0.532  0.00  0.00    -0.286 OA
ENDROOT
BRANCH   3   9
ATOM      9  C   UNL d   1       2.378   1.498  -0.169  0.00  0.00     0.292 C 
ATOM     10  N   UNL d   1       3.511   0.967   0.415  0.00  0.00    -0.262 N 
ATOM     11  H   UNL d   1       3.528   0.058   0.876  0.00  0.00     0.190 HD
ATOM     12  O   UNL d   1       2.370   2.531  -0.827  0.00  0.00    -0.264 OA
BRANCH  10  13
ATOM     13  N   UNL d   1       4.734   1.638   0.236  0.00  0.00    -0.263 N 
ATOM     14  C   UNL d   1       5.764   1.384   1.122  0.00  0.00     0.270 C 
ATOM     15  O   UNL d   1       5.692   0.548   2.020  0.00  0.00    -0.266 OA
ATOM     16  H   UNL d   1       4.692   2.504  -0.304  0.00  0.00     0.190 HD
BRANCH  14  17
ATOM     17  C   UNL d   1       6.998   2.200   0.942  0.00  0.00     0.033 A 
ATOM     18  C   UNL d   1       7.751   2.555   2.069  0.00  0.00     0.019 A 
ATOM     19  C   UNL d   1       8.930   3.296   1.925  0.00  0.00     0.025 A 
ATOM     20  C   UNL d   1       9.365   3.666   0.652  0.00  0.00     0.034 A 
ATOM     21  C   UNL d   1       8.633   3.299  -0.476  0.00  0.00     0.025 A 
ATOM     22 CL   UNL d   1      10.819   4.566   0.473  0.00  0.00    -0.084 Cl
ATOM     23  C   UNL d   1       7.448   2.567  -0.335  0.00  0.00     0.019 A 
ENDBRANCH  14  17
ENDBRANCH  10  13
ENDBRANCH   3   9
BRANCH   4  24
ATOM     24  C   UNL d   1       0.157  -2.762   0.145  0.00  0.00     0.056 A 
ATOM     25  C   UNL d   1      -0.802  -3.562   0.802  0.00  0.00     0.034 A 
ATOM     26  C   UNL d   1      -0.682  -4.955   0.852  0.00  0.00     0.044 A 
ATOM     27  C   UNL d   1       0.406  -5.566   0.246  0.00  0.00     0.116 A 
ATOM     28  C   UNL d   1       1.375  -4.810  -0.400  0.00  0.00     0.044 A 
ATOM     29  F   UNL d   1       0.517  -6.899   0.282  0.00  0.00    -0.206 F 
ATOM     30  C   UNL d   1       1.257  -3.415  -0.441  0.00  0.00     0.034 A 
ENDBRANCH   4  24
TORSDOF 4
