REMARK  7 active torsions:
REMARK  status: ('A' for Active; 'I' for Inactive)
REMARK    1  A    between atoms: C_4  and  C_11 
REMARK    2  A    between atoms: N_9  and  C_5 
REMARK    3  A    between atoms: S_10  and  C_5 
REMARK    4  A    between atoms: C_18  and  N_9 
REMARK    5  A    between atoms: C_11  and  S_14 
REMARK    6  A    between atoms: S_14  and  C_19 
REMARK    7  A    between atoms: C_19  and  C_18 
ROOT
ATOM      1  N   UNL d   1       0.771  -0.352  -0.003  0.00  0.00    -0.274 N 
ATOM      2  HN  UNL d   1       0.494  -1.204  -0.492  1.00  0.00     0.180 HD
ATOM      3  C   UNL d   1      -0.166   0.495   0.409  0.00  0.00     0.183 C 
ATOM      4  C   UNL d   1       2.018  -0.121   0.201  0.00  0.00     0.148 C 
ATOM      5  N   UNL d   1      -0.990   1.223   0.781  0.00  0.00    -0.172 NA
ENDROOT
BRANCH   4   6
ATOM      6  N   UNL d   1       2.708   0.893   0.812  0.00  0.00    -0.369 N 
ATOM      7  H   UNL d   1       3.718   0.782   0.833  0.00  0.00     0.161 HD
BRANCH   6   8
ATOM      8  C   UNL d   1       2.128   2.010   1.526  0.00  0.00     0.132 C 
BRANCH   8   9
ATOM      9  C   UNL d   1       3.159   2.850   2.282  0.00  0.00     0.093 C 
BRANCH   9  10
ATOM     10  S   UNL d   1       2.389   4.309   3.087  0.00  0.00    -0.163 SA
BRANCH  10  11
ATOM     11  C   UNL d   1       1.255   3.473   4.247  0.00  0.00     0.116 C 
BRANCH  11  12
ATOM     12  C   UNL d   1       0.313   4.429   4.936  0.00  0.00    -0.005 A 
ATOM     13  C   UNL d   1      -0.946   4.742   4.381  0.00  0.00     0.042 A 
ATOM     14 CL   UNL d   1      -1.462   4.119   2.852  0.00  0.00    -0.084 Cl
ATOM     15  C   UNL d   1      -1.850   5.574   5.051  0.00  0.00     0.024 A 
ATOM     16  C   UNL d   1      -1.509   6.131   6.279  0.00  0.00     0.003 A 
ATOM     17  C   UNL d   1      -0.260   5.864   6.830  0.00  0.00     0.024 A 
ATOM     18  C   UNL d   1       0.644   5.026   6.167  0.00  0.00     0.042 A 
ATOM     19 CL   UNL d   1       2.167   4.752   6.940  0.00  0.00    -0.084 Cl
ENDBRANCH  11  12
ENDBRANCH  10  11
ENDBRANCH   9  10
ENDBRANCH   8   9
ENDBRANCH   6   8
ENDBRANCH   4   6
BRANCH   4  20
ATOM     20  S   UNL d   1       3.149  -1.344  -0.407  0.00  0.00    -0.098 SA
ATOM     21  C   UNL d   1       1.999  -2.525  -1.157  0.00  0.00     0.099 C 
ENDBRANCH   4  20
TORSDOF 7
