REMARK  1 active torsions:
REMARK  status: ('A' for Active; 'I' for Inactive)
REMARK    1  A    between atoms: C_4  and  C_3 
ROOT
ATOM      1  N   UNL d   1       1.243   0.131   0.002  0.00  0.00    -0.317 N 
ATOM      2  HN  UNL d   1       2.255   0.255   0.015  1.00  0.00     0.169 HD
ATOM      3  C   UNL d   1       0.259   1.092  -0.017  0.00  0.00     0.157 A 
ATOM      4  C   UNL d   1       0.550  -0.992   0.001  0.00  0.00     0.189 A 
ATOM      5  N   UNL d   1      -0.991   0.612  -0.038  0.00  0.00    -0.241 N 
ATOM      6  HN  UNL d   1      -1.869   1.131  -0.056  1.00  0.00     0.196 HD
ATOM      7  O   UNL d   1      -0.803  -0.768  -0.030  0.00  0.00    -0.216 OA
ATOM      8  C   UNL d   1       1.147  -2.297   0.043  0.00  0.00     0.058 A 
ATOM      9  S   UNL d   1       0.195  -3.721   0.006  0.00  0.00    -0.098 SA
ATOM     10  C   UNL d   1       2.494  -2.596   0.125  0.00  0.00     0.024 A 
ATOM     11  C   UNL d   1       1.573  -4.728   0.102  0.00  0.00     0.050 A 
ATOM     12  C   UNL d   1       2.740  -4.001   0.165  0.00  0.00     0.009 A 
ENDROOT
BRANCH   3  13
ATOM     13  C   UNL d   1       0.606   2.515  -0.019  0.00  0.00     0.103 A 
ATOM     14  N   UNL d   1      -0.290   3.511   0.011  0.00  0.00    -0.257 N 
ATOM     15  O   UNL d   1       0.452   4.680  -0.014  0.00  0.00    -0.242 OA
ATOM     16  HN  UNL d   1      -1.306   3.426   0.044  1.00  0.00     0.195 HD
ATOM     17  C   UNL d   1       1.777   4.376  -0.058  0.00  0.00     0.074 A 
ATOM     18  C   UNL d   1       1.929   3.011  -0.054  0.00  0.00     0.070 A 
ATOM     19  C   UNL d   1       2.707   5.517  -0.103  0.00  0.00     0.079 C 
ENDBRANCH   3  13
TORSDOF 1
