REMARK  6 active torsions:
REMARK  status: ('A' for Active; 'I' for Inactive)
REMARK    1  A    between atoms: N_2  and  S_1 
REMARK    2  A    between atoms: C_9  and  S_1 
REMARK       I    between atoms: C_7  and  N_2 
REMARK    3  A    between atoms: N_4  and  C_16 
REMARK    4  A    between atoms: O_19  and  C_7 
REMARK    5  A    between atoms: C_16  and  C_23 
REMARK    6  A    between atoms: C_23  and  O_19 
ROOT
ATOM      1  O   UNL d   1       0.516   3.445   1.857  0.00  0.00    -0.302 OA
ENDROOT
BRANCH   1   2
ATOM      2  C   UNL d   1       0.876   2.145   1.717  0.00  0.00     0.374 C 
ATOM      3  N   UNL d   1       1.413   1.926   0.464  0.00  0.00    -0.226 N 
ATOM      4  H   UNL d   1       1.425   2.676  -0.214  0.00  0.00     0.184 HD
ATOM      5  O   UNL d   1       0.821   1.309   2.602  0.00  0.00    -0.237 OA
BRANCH   3   6
ATOM      6  S   UNL d   1       2.220   0.548   0.036  0.00  0.00     0.267 S 
ATOM      7  O   UNL d   1       3.198   0.238   1.051  0.00  0.00    -0.200 OA
ATOM      8  O   UNL d   1       2.612   0.726  -1.347  0.00  0.00    -0.200 OA
BRANCH   6   9
ATOM      9  C   UNL d   1       0.919  -0.648   0.068  0.00  0.00     0.080 A 
ATOM     10  C   UNL d   1      -0.138  -0.503  -0.834  0.00  0.00     0.026 A 
ATOM     11  C   UNL d   1      -1.226  -1.367  -0.753  0.00  0.00     0.008 A 
ATOM     12  C   UNL d   1      -1.254  -2.381   0.214  0.00  0.00    -0.062 A 
ATOM     13  C   UNL d   1      -0.172  -2.530   1.094  0.00  0.00     0.008 A 
ATOM     14  C   UNL d   1      -2.464  -3.261   0.327  0.00  0.00     0.048 C 
ATOM     15  C   UNL d   1       0.920  -1.665   1.023  0.00  0.00     0.026 A 
ENDBRANCH   6   9
ENDBRANCH   3   6
ENDBRANCH   1   2
BRANCH   1  16
ATOM     16  C   UNL d   1       0.681   3.934   3.199  0.00  0.00     0.202 C 
BRANCH  16  17
ATOM     17  C   UNL d   1       2.179   4.085   3.459  0.00  0.00     0.179 C 
BRANCH  17  18
ATOM     18  N   UNL d   1       2.497   4.660   4.749  0.00  0.00    -0.255 N 
ATOM     19  C   UNL d   1       2.655   6.040   4.858  0.00  0.00     0.273 A 
ATOM     20  C   UNL d   1       3.177   6.530   6.145  0.00  0.00     0.045 A 
ATOM     21  O   UNL d   1       2.408   6.834   3.954  0.00  0.00    -0.266 OA
ATOM     22  C   UNL d   1       3.464   7.883   6.341  0.00  0.00     0.018 A 
ATOM     23  C   UNL d   1       3.423   5.617   7.160  0.00  0.00    -0.004 A 
ATOM     24  C   UNL d   1       4.002   8.303   7.560  0.00  0.00     0.001 A 
ATOM     25  C   UNL d   1       4.250   7.375   8.576  0.00  0.00     0.001 A 
ATOM     26  C   UNL d   1       3.958   6.024   8.382  0.00  0.00     0.014 A 
ATOM     27  C   UNL d   1       3.121   4.216   6.906  0.00  0.00     0.119 A 
ATOM     28  N   UNL d   1       2.687   3.765   5.773  0.00  0.00    -0.306 N 
ATOM     29  HN  UNL d   1       2.492   2.772   5.644  1.00  0.00     0.186 HD
ENDBRANCH  17  18
ENDBRANCH  16  17
ENDBRANCH   1  16
TORSDOF 6
