REMARK  4 active torsions:
REMARK  status: ('A' for Active; 'I' for Inactive)
REMARK    1  A    between atoms: C_4  and  C_1 
REMARK    2  A    between atoms: C_2  and  C_3 
REMARK       I    between atoms: C_3  and  N_5 
REMARK    3  A    between atoms: N_5  and  C_4 
REMARK    4  A    between atoms: N_10  and  C_8 
ROOT
ATOM      1  C   UNL d   1      -1.493   4.156  -0.205  0.00  0.00     0.253 C 
ATOM      2  N   UNL d   1      -1.319   2.788  -0.152  0.00  0.00    -0.352 N 
ATOM      3  O   UNL d   1      -0.598   4.931   0.121  0.00  0.00    -0.268 OA
ATOM      4  H   UNL d   1      -2.093   2.160  -0.293  0.00  0.00     0.163 HD
ENDROOT
BRANCH   1   5
ATOM      5  C   UNL d   1      -2.848   4.670  -0.635  0.00  0.00     0.052 A 
ATOM      6  C   UNL d   1      -3.147   6.052  -0.533  0.00  0.00     0.021 A 
ATOM      7  C   UNL d   1      -4.418   6.507  -0.925  0.00  0.00     0.024 A 
ATOM      8  C   UNL d   1      -5.400   5.620  -1.365  0.00  0.00     0.002 A 
ATOM      9  C   UNL d   1      -5.113   4.266  -1.459  0.00  0.00     0.001 A 
ATOM     10  C   UNL d   1      -3.846   3.794  -1.105  0.00  0.00     0.019 A 
BRANCH   6  11
ATOM     11  N   UNL d   1      -2.169   7.029  -0.270  0.00  0.00    -0.302 NA
ATOM     12  H   UNL d   1      -1.324   6.627   0.154  0.00  0.00     0.124 HD
ATOM     13  H   UNL d   1      -2.504   7.854   0.214  0.00  0.00     0.124 HD
ENDBRANCH   6  11
ENDBRANCH   1   5
BRANCH   2  14
ATOM     14  C   UNL d   1      -0.069   2.155   0.224  0.00  0.00     0.165 C 
BRANCH  14  15
ATOM     15  C   UNL d   1       0.526   1.346  -0.909  0.00  0.00     0.003 A 
ATOM     16  C   UNL d   1       1.842   1.566  -1.361  0.00  0.00     0.043 A 
ATOM     17 CL   UNL d   1       2.878   2.769  -0.672  0.00  0.00    -0.084 Cl
ATOM     18  C   UNL d   1       2.395   0.794  -2.392  0.00  0.00     0.024 A 
ATOM     19  C   UNL d   1       1.653  -0.214  -2.998  0.00  0.00     0.003 A 
ATOM     20  C   UNL d   1       0.355  -0.458  -2.565  0.00  0.00     0.024 A 
ATOM     21  C   UNL d   1      -0.199   0.305  -1.528  0.00  0.00     0.043 A 
ATOM     22 CL   UNL d   1      -1.808  -0.121  -1.040  0.00  0.00    -0.084 Cl
ENDBRANCH  14  15
ENDBRANCH   2  14
TORSDOF 4
