REMARK  4 active torsions:
REMARK  status: ('A' for Active; 'I' for Inactive)
REMARK    1  A    between atoms: C_8  and  C_3 
REMARK    2  A    between atoms: C_12  and  C_4 
REMARK    3  A    between atoms: C_23  and  C_11 
REMARK    4  A    between atoms: C_24  and  C_23 
ROOT
ATOM      1  N   UNL d   1       0.342   0.649   0.007  0.00  0.00    -0.202 N 
ATOM      2  C   UNL d   1       0.312  -0.729   0.019  0.00  0.00     0.144 A 
ATOM      3  C   UNL d   1       2.401   0.043  -0.021  0.00  0.00     0.147 A 
ATOM      4  C   UNL d   1       1.624  -1.165   0.017  0.00  0.00     0.053 A 
ATOM      5  N   UNL d   1       1.606   1.135  -0.006  0.00  0.00    -0.284 N 
ATOM      6  HN  UNL d   1       1.895   2.113  -0.005  1.00  0.00     0.187 HD
ATOM      7  C   UNL d   1      -0.799   1.471   0.016  0.00  0.00     0.270 A 
ATOM      8  N   UNL d   1      -0.903  -1.335   0.040  0.00  0.00    -0.344 N 
ATOM      9  C   UNL d   1      -2.085   0.733   0.017  0.00  0.00     0.101 A 
ATOM     10  C   UNL d   1      -2.089  -0.613   0.032  0.00  0.00     0.016 A 
ATOM     11  O   UNL d   1      -0.725   2.697   0.010  0.00  0.00    -0.266 OA
ATOM     12  H   UNL d   1      -0.995  -2.346   0.112  0.00  0.00     0.167 HD
ENDROOT
BRANCH   4  13
ATOM     13  C   UNL d   1       2.021  -2.570   0.058  0.00  0.00    -0.020 A 
ATOM     14  C   UNL d   1       1.311  -3.548  -0.656  0.00  0.00     0.014 A 
ATOM     15  C   UNL d   1       1.674  -4.896  -0.578  0.00  0.00     0.020 A 
ATOM     16  C   UNL d   1       2.782  -5.272   0.174  0.00  0.00     0.011 A 
ATOM     17  C   UNL d   1       3.521  -4.312   0.860  0.00  0.00     0.020 A 
ATOM     18 BR   UNL d   1       3.278  -7.090   0.281  0.00  0.00    -0.051 Br
ATOM     19  C   UNL d   1       3.120  -2.976   0.827  0.00  0.00     0.014 A 
ENDBRANCH   4  13
BRANCH   3  20
ATOM     20  C   UNL d   1       3.906   0.210  -0.083  0.00  0.00     0.434 C 
ATOM     21  F   UNL d   1       4.584  -0.960  -0.214  0.00  0.00    -0.165 F 
ATOM     22  F   UNL d   1       4.296   0.974  -1.139  0.00  0.00    -0.165 F 
ATOM     23  F   UNL d   1       4.397   0.804   1.038  0.00  0.00    -0.165 F 
ENDBRANCH   3  20
BRANCH  10  24
ATOM     24  C   UNL d   1      -3.392  -1.390   0.023  0.00  0.00     0.057 C 
BRANCH  24  25
ATOM     25  C   UNL d   1      -3.580  -2.325   1.224  0.00  0.00     0.002 C 
ATOM     26  C   UNL d   1      -3.585  -1.598   2.560  0.00  0.00     0.005 C 
ENDBRANCH  24  25
ENDBRANCH  10  24
TORSDOF 4
