REMARK  4 active torsions:
REMARK  status: ('A' for Active; 'I' for Inactive)
REMARK    1  A    between atoms: N_2  and  C_1 
REMARK    2  A    between atoms: N_3  and  C_4 
REMARK    3  A    between atoms: C_5  and  O_9 
REMARK    4  A    between atoms: O_9  and  C_8 
ROOT
ATOM      1  C   UNL d   1      -0.992   1.187  -0.049  0.00  0.00     0.208 A 
ATOM      2  N   UNL d   1       0.382   1.162  -0.012  0.00  0.00    -0.339 N 
ATOM      3  HN  UNL d   1       0.922   2.025   0.047  1.00  0.00     0.167 HD
ATOM      4  C   UNL d   1      -1.777   0.033  -0.124  0.00  0.00     0.128 A 
ATOM      5  C   UNL d   1      -1.108  -1.196  -0.134  0.00  0.00     0.043 A 
ATOM      6  C   UNL d   1       0.993  -0.042  -0.055  0.00  0.00     0.007 A 
ATOM      7  C   UNL d   1       0.285  -1.235  -0.119  0.00  0.00     0.027 A 
ATOM      8  C   UNL d   1       2.492  -0.062  -0.006  0.00  0.00     0.068 C 
ENDROOT
BRANCH   4   9
ATOM      9  O   UNL d   1      -3.149   0.125  -0.073  0.00  0.00    -0.287 OA
BRANCH   9  10
ATOM     10  C   UNL d   1      -3.909  -0.774  -0.799  0.00  0.00     0.181 A 
ATOM     11  C   UNL d   1      -5.172  -1.157  -0.361  0.00  0.00     0.154 A 
ATOM     12  C   UNL d   1      -5.886  -2.101  -1.117  0.00  0.00     0.042 A 
ATOM     13  C   UNL d   1      -5.327  -2.606  -2.288  0.00  0.00     0.020 A 
ATOM     14  C   UNL d   1      -4.085  -2.139  -2.674  0.00  0.00     0.090 A 
ATOM     15  N   UNL d   1      -3.373  -1.240  -1.962  0.00  0.00    -0.345 N 
ATOM     16  HN  UNL d   1      -2.460  -0.918  -2.284  1.00  0.00     0.167 HD
BRANCH  11  17
ATOM     17  N   UNL d   1      -5.767  -0.634   0.866  0.00  0.00    -0.111 N 
ATOM     18  O   UNL d   1      -5.109   0.139   1.572  0.00  0.00    -0.532 OA
ATOM     19  O   UNL d   1      -6.915  -1.014   1.143  0.00  0.00    -0.532 OA
ENDBRANCH  11  17
ENDBRANCH   9  10
ENDBRANCH   4   9
BRANCH   1  20
ATOM     20  N   UNL d   1      -1.709   2.468   0.020  0.00  0.00    -0.095 N 
ATOM     21  O   UNL d   1      -2.466   2.757  -0.921  0.00  0.00    -0.530 OA
ATOM     22  O   UNL d   1      -1.489   3.187   1.008  0.00  0.00    -0.530 OA
ENDBRANCH   1  20
TORSDOF 4
