REMARK  3 active torsions:
REMARK  status: ('A' for Active; 'I' for Inactive)
REMARK    1  A    between atoms: C_5  and  C_1 
REMARK    2  A    between atoms: C_6  and  C_2 
REMARK    3  A    between atoms: C_11  and  C_5 
ROOT
ATOM      1  C   UNL d   1       0.005  -1.258  -0.089  0.00  0.00     0.076 A 
ATOM      2  C   UNL d   1      -1.346  -0.775   0.055  0.00  0.00     0.083 A 
ATOM      3  N   UNL d   1      -1.333   0.555   0.238  0.00  0.00    -0.259 N 
ATOM      4  HN  UNL d   1      -2.142   1.149   0.422  1.00  0.00     0.195 HD
ATOM      5  O   UNL d   1      -0.031   0.964   0.133  0.00  0.00    -0.241 OA
ATOM      6  C   UNL d   1       0.774  -0.107  -0.066  0.00  0.00     0.089 A 
ATOM      7  C   UNL d   1       2.209   0.219  -0.209  0.00  0.00     0.080 C 
ENDROOT
BRANCH   1   8
ATOM      8  C   UNL d   1       0.457  -2.626  -0.281  0.00  0.00     0.197 C 
ATOM      9  O   UNL d   1      -0.202  -3.437  -0.931  0.00  0.00    -0.286 OA
BRANCH   8  10
ATOM     10  C   UNL d   1       1.736  -3.099   0.326  0.00  0.00     0.015 A 
ATOM     11  C   UNL d   1       2.416  -4.156  -0.291  0.00  0.00     0.015 A 
ATOM     12  C   UNL d   1       3.637  -4.605   0.216  0.00  0.00     0.001 A 
ATOM     13  C   UNL d   1       4.186  -3.999   1.345  0.00  0.00     0.000 A 
ATOM     14  C   UNL d   1       3.497  -2.974   1.991  0.00  0.00     0.001 A 
ATOM     15  C   UNL d   1       2.261  -2.542   1.502  0.00  0.00     0.015 A 
ENDBRANCH   8  10
ENDBRANCH   1   8
BRANCH   2  16
ATOM     16  C   UNL d   1      -2.615  -1.518   0.121  0.00  0.00     0.015 A 
ATOM     17  C   UNL d   1      -3.817  -1.048  -0.445  0.00  0.00     0.046 A 
ATOM     18 CL   UNL d   1      -3.933   0.401  -1.390  0.00  0.00    -0.083 Cl
ATOM     19  C   UNL d   1      -5.010  -1.774  -0.294  0.00  0.00     0.025 A 
ATOM     20  C   UNL d   1      -5.021  -2.984   0.396  0.00  0.00     0.002 A 
ATOM     21  C   UNL d   1      -3.842  -3.470   0.946  0.00  0.00     0.001 A 
ATOM     22  C   UNL d   1      -2.656  -2.739   0.822  0.00  0.00     0.015 A 
ENDBRANCH   2  16
TORSDOF 3
