REMARK  6 active torsions:
REMARK  status: ('A' for Active; 'I' for Inactive)
REMARK    1  A    between atoms: C_13  and  C_1 
REMARK    2  A    between atoms: S_14  and  C_2 
REMARK    3  A    between atoms: C_6  and  C_3 
REMARK    4  A    between atoms: C_12  and  C_9 
REMARK    5  A    between atoms: O_18  and  C_12 
REMARK    6  A    between atoms: C_21  and  O_18 
ROOT
ATOM      1  C   UNL d   1       1.198   0.070  -0.012  0.00  0.00     0.040 A 
ATOM      2  C   UNL d   1       0.262  -0.959   0.003  0.00  0.00     0.056 A 
ATOM      3  C   UNL d   1      -0.840   1.284   0.104  0.00  0.00     0.046 A 
ATOM      4  C   UNL d   1       0.546   1.386   0.056  0.00  0.00    -0.026 A 
ATOM      5  S   UNL d   1      -1.325  -0.350   0.145  0.00  0.00    -0.079 SA
ATOM      6  C   UNL d   1       1.320   2.676   0.061  0.00  0.00     0.050 C 
ENDROOT
BRANCH   3   7
ATOM      7  C   UNL d   1      -1.831   2.343   0.074  0.00  0.00     0.092 A 
ATOM      8  N   UNL d   1      -1.620   3.487  -0.544  0.00  0.00    -0.344 N 
ATOM      9  C   UNL d   1      -2.768   4.283  -0.522  0.00  0.00     0.115 A 
ATOM     10  HN  UNL d   1      -0.738   3.756  -0.979  1.00  0.00     0.167 HD
ATOM     11  C   UNL d   1      -3.830   3.723   0.164  0.00  0.00     0.087 A 
ATOM     12  S   UNL d   1      -3.395   2.196   0.790  0.00  0.00    -0.080 SA
BRANCH   9  13
ATOM     13  C   UNL d   1      -2.866   5.561  -1.226  0.00  0.00     0.310 C 
ATOM     14  O   UNL d   1      -3.905   6.202  -1.310  0.00  0.00    -0.258 OA
BRANCH  13  15
ATOM     15  O   UNL d   1      -1.692   5.907  -1.836  0.00  0.00    -0.317 OA
BRANCH  15  16
ATOM     16  C   UNL d   1      -1.794   6.926  -2.835  0.00  0.00     0.175 C 
ATOM     17  C   UNL d   1      -2.110   6.256  -4.160  0.00  0.00     0.034 C 
ENDBRANCH  15  16
ENDBRANCH  13  15
ENDBRANCH   9  13
ENDBRANCH   3   7
BRANCH   1  18
ATOM     18  C   UNL d   1       2.659  -0.087  -0.153  0.00  0.00     0.158 C 
ATOM     19  O   UNL d   1       3.304   0.704  -0.846  0.00  0.00    -0.293 OA
ATOM     20  C   UNL d   1       3.420  -1.143   0.611  0.00  0.00     0.097 C 
ENDBRANCH   1  18
BRANCH   2  21
ATOM     21  S   UNL d   1       0.573  -2.697  -0.170  0.00  0.00    -0.126 SA
ATOM     22  C   UNL d   1      -1.058  -3.467  -0.025  0.00  0.00     0.096 C 
ENDBRANCH   2  21
TORSDOF 6
