REMARK  3 active torsions:
REMARK  status: ('A' for Active; 'I' for Inactive)
REMARK    1  A    between atoms: C_10  and  C_6 
REMARK    2  A    between atoms: C_11  and  C_7 
REMARK    3  A    between atoms: N_8  and  C_9 
ROOT
ATOM      1  O   UNL d   1      -1.084   0.007  -0.073  0.00  0.00    -0.277 OA
ATOM      2  N   UNL d   1       1.041   0.684   0.132  0.00  0.00    -0.281 N 
ATOM      3  HN  UNL d   1       1.859   1.289   0.212  1.00  0.00     0.189 HD
ATOM      4  N   UNL d   1       1.033  -0.691   0.121  0.00  0.00    -0.277 N 
ATOM      5  HN  UNL d   1       1.845  -1.304   0.193  1.00  0.00     0.189 HD
ATOM      6  C   UNL d   1      -0.225  -1.062   0.000  0.00  0.00     0.174 A 
ATOM      7  C   UNL d   1      -0.215   1.068   0.018  0.00  0.00     0.148 A 
ENDROOT
BRANCH   6   8
ATOM      8  C   UNL d   1      -0.785  -2.407  -0.061  0.00  0.00     0.019 A 
ATOM      9  C   UNL d   1      -2.158  -2.642  -0.220  0.00  0.00     0.052 A 
ATOM     10  C   UNL d   1      -2.640  -3.961  -0.274  0.00  0.00     0.103 A 
ATOM     11  C   UNL d   1      -1.768  -5.052  -0.173  0.00  0.00     0.036 A 
ATOM     12  C   UNL d   1      -0.403  -4.822  -0.015  0.00  0.00     0.003 A 
ATOM     13  C   UNL d   1       0.081  -3.512   0.040  0.00  0.00     0.016 A 
BRANCH  10  14
ATOM     14  N   UNL d   1      -4.080  -4.204  -0.438  0.00  0.00    -0.116 N 
ATOM     15  O   UNL d   1      -4.823  -3.214  -0.506  0.00  0.00    -0.532 OA
ATOM     16  O   UNL d   1      -4.466  -5.378  -0.495  0.00  0.00    -0.532 OA
ENDBRANCH  10  14
ENDBRANCH   6   8
BRANCH   7  17
ATOM     17  C   UNL d   1      -0.776   2.460  -0.032  0.00  0.00     0.016 C 
ATOM     18  C   UNL d   1       0.369   3.481   0.117  0.00  0.00     0.023 C 
ATOM     19  C   UNL d   1      -1.479   2.698  -1.378  0.00  0.00     0.023 C 
ATOM     20  C   UNL d   1      -1.776   2.675   1.115  0.00  0.00     0.023 C 
ENDBRANCH   7  17
TORSDOF 3
