REMARK  7 active torsions:
REMARK  status: ('A' for Active; 'I' for Inactive)
REMARK    1  A    between atoms: S_15  and  C_2 
REMARK    2  A    between atoms: C_6  and  C_4 
REMARK       I    between atoms: N_10  and  C_6 
REMARK    3  A    between atoms: C_7  and  O_16 
REMARK       I    between atoms: C_8  and  N_11 
REMARK       I    between atoms: N_12  and  C_8 
REMARK    4  A    between atoms: N_11  and  N_10 
REMARK    5  A    between atoms: C_23  and  N_12 
REMARK    6  A    between atoms: O_25  and  N_13 
REMARK    7  A    between atoms: O_16  and  C_24 
ROOT
ATOM      1  C   UNL d   1       1.372  -2.889   0.405  0.00  0.00     0.277 C 
ATOM      2  N   UNL d   1       2.616  -3.439   0.658  0.00  0.00    -0.261 N 
ATOM      3  O   UNL d   1       0.379  -3.622   0.401  0.00  0.00    -0.265 OA
ATOM      4  H   UNL d   1       3.470  -2.887   0.732  0.00  0.00     0.190 HD
ENDROOT
BRANCH   2   5
ATOM      5  N   UNL d   1       2.695  -4.798   1.052  0.00  0.00    -0.248 N 
ATOM      6  C   UNL d   1       3.967  -5.333   1.189  0.00  0.00     0.339 C 
ATOM      7  N   UNL d   1       3.946  -6.673   1.498  0.00  0.00    -0.308 N 
ATOM      8  O   UNL d   1       4.959  -4.618   1.060  0.00  0.00    -0.245 OA
ATOM      9  H   UNL d   1       3.044  -7.073   1.709  0.00  0.00     0.170 HD
ATOM     10  H   UNL d   1       1.936  -5.378   0.706  0.00  0.00     0.192 HD
BRANCH   7  11
ATOM     11  C   UNL d   1       5.065  -7.532   1.635  0.00  0.00     0.036 A 
ATOM     12  C   UNL d   1       6.383  -7.132   1.406  0.00  0.00     0.032 A 
ATOM     13  C   UNL d   1       7.449  -8.040   1.508  0.00  0.00     0.039 A 
ATOM     14  C   UNL d   1       7.216  -9.359   1.876  0.00  0.00     0.078 A 
ATOM     15  C   UNL d   1       5.897  -9.766   2.103  0.00  0.00     0.039 A 
ATOM     16  C   UNL d   1       4.831  -8.863   1.990  0.00  0.00     0.032 A 
BRANCH  14  17
ATOM     17  O   UNL d   1       8.141 -10.343   2.040  0.00  0.00    -0.255 OA
BRANCH  17  18
ATOM     18  C   UNL d   1       9.517 -10.019   2.165  0.00  0.00     0.530 C 
ATOM     19  F   UNL d   1       9.739  -8.793   2.683  0.00  0.00    -0.144 F 
ATOM     20  F   UNL d   1      10.086 -10.921   2.999  0.00  0.00    -0.144 F 
ATOM     21  F   UNL d   1      10.128 -10.115   0.966  0.00  0.00    -0.144 F 
ENDBRANCH  17  18
ENDBRANCH  14  17
ENDBRANCH   7  11
ENDBRANCH   2   5
BRANCH   1  22
ATOM     22  C   UNL d   1       1.306  -1.443   0.179  0.00  0.00     0.082 A 
ATOM     23  C   UNL d   1       0.160  -0.673   0.038  0.00  0.00    -0.021 A 
ATOM     24  C   UNL d   1       0.437   0.755  -0.055  0.00  0.00     0.020 A 
ATOM     25  C   UNL d   1      -1.247  -1.211   0.056  0.00  0.00     0.041 C 
ATOM     26  C   UNL d   1       1.802   0.993  -0.065  0.00  0.00     0.054 A 
ATOM     27  C   UNL d   1      -0.678   1.722  -0.086  0.00  0.00     0.044 C 
ATOM     28  S   UNL d   1       2.703  -0.466   0.074  0.00  0.00    -0.076 SA
ATOM     29  N   UNL d   1      -0.459   2.971  -0.384  0.00  0.00    -0.271 N 
ATOM     30  C   UNL d   1      -2.054   1.161   0.275  0.00  0.00     0.060 C 
ATOM     31  HN  UNL d   1       0.452   3.357  -0.630  1.00  0.00     0.194 HD
ATOM     32  C   UNL d   1      -2.267  -0.179  -0.417  0.00  0.00     0.011 C 
BRANCH  26  33
ATOM     33  S   UNL d   1       2.668   2.530  -0.088  0.00  0.00    -0.126 SA
ATOM     34  C   UNL d   1       2.841   2.798  -1.867  0.00  0.00     0.096 C 
ENDBRANCH  26  33
BRANCH  29  35
ATOM     35  O   UNL d   1      -1.649   3.712  -0.320  0.00  0.00    -0.285 OA
ATOM     36  C   UNL d   1      -1.381   5.072  -0.634  0.00  0.00     0.237 C 
ENDBRANCH  29  35
ENDBRANCH   1  22
TORSDOF 7
