REMARK  3 active torsions:
REMARK  status: ('A' for Active; 'I' for Inactive)
REMARK       I    between atoms: N_4  and  C_1 
REMARK       I    between atoms: N_7  and  C_1 
REMARK    1  A    between atoms: C_2  and  C_3 
REMARK    2  A    between atoms: C_9  and  N_4 
REMARK    3  A    between atoms: C_5  and  N_7 
ROOT
ATOM      1  C   UNL d   1       0.923   0.060  -0.131  0.00  0.00     0.324 C 
ATOM      2  N   UNL d   1       0.373  -0.175   1.103  0.00  0.00    -0.309 N 
ATOM      3  N   UNL d   1       0.071   0.012  -1.205  0.00  0.00    -0.319 N 
ATOM      4  O   UNL d   1       2.110   0.285  -0.362  0.00  0.00    -0.247 OA
ATOM      5  H   UNL d   1      -0.542  -0.595   1.104  0.00  0.00     0.170 HD
ATOM      6  H   UNL d   1       0.578   0.131  -2.075  0.00  0.00     0.170 HD
ENDROOT
BRANCH   2   7
ATOM      7  C   UNL d   1       1.040  -0.153   2.346  0.00  0.00     0.037 A 
ATOM      8  C   UNL d   1       2.315   0.387   2.530  0.00  0.00     0.053 A 
ATOM      9  C   UNL d   1       2.928   0.322   3.782  0.00  0.00     0.036 A 
ATOM     10 CL   UNL d   1       4.509   0.973   3.994  0.00  0.00    -0.084 Cl
ATOM     11  C   UNL d   1       2.278  -0.267   4.863  0.00  0.00     0.024 A 
ATOM     12  C   UNL d   1       0.992  -0.777   4.697  0.00  0.00     0.004 A 
ATOM     13  C   UNL d   1       0.373  -0.711   3.446  0.00  0.00     0.029 A 
ENDBRANCH   2   7
BRANCH   3  14
ATOM     14  C   UNL d   1      -1.293  -0.108  -1.257  0.00  0.00     0.095 C 
ATOM     15  C   UNL d   1      -1.956  -0.154  -2.421  0.00  0.00     0.054 C 
BRANCH  15  16
ATOM     16  C   UNL d   1      -3.373  -0.263  -2.431  0.00  0.00     0.076 A 
ATOM     17  O   UNL d   1      -4.147  -0.335  -1.291  0.00  0.00    -0.323 OA
ATOM     18  C   UNL d   1      -5.447  -0.420  -1.658  0.00  0.00     0.142 A 
ATOM     19  C   UNL d   1      -5.559  -0.412  -3.023  0.00  0.00     0.027 A 
ATOM     20  C   UNL d   1      -4.237  -0.316  -3.520  0.00  0.00     0.039 A 
ENDBRANCH  15  16
ENDBRANCH   3  14
TORSDOF 3
