REMARK  5 active torsions:
REMARK  status: ('A' for Active; 'I' for Inactive)
REMARK    1  A    between atoms: C_14  and  C_2 
REMARK    2  A    between atoms: N_7  and  C_21 
REMARK    3  A    between atoms: N_17  and  C_8 
REMARK    4  A    between atoms: C_26  and  N_17 
REMARK    5  A    between atoms: C_21  and  C_26 
ROOT
ATOM      1  C   UNL d   1       0.194   0.980   0.013  0.00  0.00     0.053 A 
ATOM      2  C   UNL d   1      -1.069   1.723  -0.024  0.00  0.00    -0.003 A 
ATOM      3  C   UNL d   1      -2.153   0.858   0.001  0.00  0.00     0.065 A 
ATOM      4  C   UNL d   1      -0.051  -0.386   0.037  0.00  0.00     0.089 A 
ATOM      5  S   UNL d   1      -1.705  -0.782   0.084  0.00  0.00    -0.082 SA
ATOM      6  C   UNL d   1       1.567   1.338  -0.018  0.00  0.00     0.116 A 
ATOM      7  N   UNL d   1       0.857  -1.378   0.022  0.00  0.00    -0.346 N 
ATOM      8  HN  UNL d   1       0.619  -2.369   0.067  1.00  0.00     0.167 HD
ATOM      9  N   UNL d   1       2.498   0.361  -0.093  0.00  0.00    -0.338 N 
ATOM     10  HN  UNL d   1       3.487   0.596  -0.177  1.00  0.00     0.168 HD
ATOM     11  C   UNL d   1       2.106  -0.915  -0.057  0.00  0.00     0.182 A 
ENDROOT
BRANCH   6  12
ATOM     12  N   UNL d   1       1.985   2.649  -0.007  0.00  0.00    -0.374 N 
ATOM     13  H   UNL d   1       1.511   3.253   0.656  0.00  0.00     0.161 HD
BRANCH  12  14
ATOM     14  C   UNL d   1       3.305   3.044  -0.469  0.00  0.00     0.141 C 
BRANCH  14  15
ATOM     15  C   UNL d   1       3.195   4.467  -1.045  0.00  0.00     0.147 C 
BRANCH  15  16
ATOM     16  N   UNL d   1       4.387   4.961  -1.696  0.00  0.00    -0.331 N 
ATOM     17  C   UNL d   1       5.420   5.619  -1.044  0.00  0.00     0.318 C 
ATOM     18  N   UNL d   1       6.408   5.870  -1.988  0.00  0.00    -0.341 N 
ATOM     19  O   UNL d   1       5.467   5.947   0.125  0.00  0.00    -0.247 OA
ATOM     20  C   UNL d   1       5.935   5.559  -3.310  0.00  0.00     0.144 C 
ATOM     21  H   UNL d   1       7.154   6.510  -1.757  0.00  0.00     0.164 HD
ATOM     22  C   UNL d   1       4.757   4.627  -3.052  0.00  0.00     0.147 C 
ENDBRANCH  15  16
ENDBRANCH  14  15
ENDBRANCH  12  14
ENDBRANCH   6  12
BRANCH   2  23
ATOM     23  C   UNL d   1      -1.309   3.170  -0.152  0.00  0.00    -0.024 A 
ATOM     24  C   UNL d   1      -0.512   3.958  -0.987  0.00  0.00     0.013 A 
ATOM     25  C   UNL d   1      -0.695   5.342  -1.076  0.00  0.00     0.007 A 
ATOM     26  C   UNL d   1      -1.747   5.960  -0.399  0.00  0.00    -0.062 A 
ATOM     27  C   UNL d   1      -2.591   5.176   0.391  0.00  0.00     0.007 A 
ATOM     28  C   UNL d   1      -1.940   7.444  -0.511  0.00  0.00     0.048 C 
ATOM     29  C   UNL d   1      -2.366   3.799   0.524  0.00  0.00     0.013 A 
ENDBRANCH   2  23
TORSDOF 5
