REMARK  4 active torsions:
REMARK  status: ('A' for Active; 'I' for Inactive)
REMARK    1  A    between atoms: C_2  and  S_1 
REMARK    2  A    between atoms: C_3  and  S_1 
REMARK    3  A    between atoms: N_14  and  C_4 
REMARK    4  A    between atoms: C_19  and  N_14 
ROOT
ATOM      1  C   UNL d   1       0.524   1.272   1.117  0.00  0.00     0.159 C 
ATOM      2  C   UNL d   1      -0.294   2.260   0.716  0.00  0.00     0.123 C 
ATOM      3  C   UNL d   1       1.108   0.340   0.232  0.00  0.00     0.113 C 
ATOM      4  N   UNL d   1       1.581  -0.396  -0.530  0.00  0.00    -0.191 NA
ENDROOT
BRANCH   1   5
ATOM      5  S   UNL d   1       0.807   1.034   2.804  0.00  0.00     0.224 S 
ATOM      6  O   UNL d   1       0.416  -0.314   3.173  0.00  0.00    -0.216 OA
ATOM      7  O   UNL d   1       0.346   2.167   3.587  0.00  0.00    -0.216 OA
BRANCH   5   8
ATOM      8  C   UNL d   1       2.578   1.039   3.030  0.00  0.00     0.105 A 
ATOM      9  S   UNL d   1       3.413   2.450   2.538  0.00  0.00    -0.090 SA
ATOM     10  C   UNL d   1       4.912   1.829   3.083  0.00  0.00     0.051 A 
ATOM     11  C   UNL d   1       4.786   0.566   3.617  0.00  0.00     0.009 A 
ATOM     12  C   UNL d   1       3.438   0.108   3.583  0.00  0.00     0.032 A 
ENDBRANCH   5   8
ENDBRANCH   1   5
BRANCH   2  13
ATOM     13  N   UNL d   1      -0.758   2.530  -0.554  0.00  0.00    -0.364 N 
ATOM     14  H   UNL d   1      -0.586   1.833  -1.277  0.00  0.00     0.165 HD
BRANCH  13  15
ATOM     15  C   UNL d   1      -1.570   3.605  -0.964  0.00  0.00     0.034 A 
ATOM     16  C   UNL d   1      -1.567   4.851  -0.324  0.00  0.00     0.069 A 
ATOM     17  C   UNL d   1      -2.417   5.875  -0.753  0.00  0.00     0.104 A 
ATOM     18  O   UNL d   1      -2.324   7.072  -0.088  0.00  0.00    -0.346 OA
ATOM     19  C   UNL d   1      -3.292   5.662  -1.820  0.00  0.00     0.102 A 
ATOM     20  C   UNL d   1      -3.436   7.926  -0.380  0.00  0.00     0.202 C 
ATOM     21  C   UNL d   1      -3.747   7.930  -1.867  0.00  0.00     0.202 C 
ATOM     22  O   UNL d   1      -4.137   6.625  -2.308  0.00  0.00    -0.346 OA
ATOM     23  C   UNL d   1      -3.340   4.417  -2.437  0.00  0.00     0.042 A 
ATOM     24  C   UNL d   1      -2.480   3.399  -2.014  0.00  0.00     0.032 A 
ENDBRANCH  13  15
ENDBRANCH   2  13
TORSDOF 4
