REMARK  4 active torsions:
REMARK  status: ('A' for Active; 'I' for Inactive)
REMARK    1  A    between atoms: N_4  and  C_1 
REMARK    2  A    between atoms: S_7  and  C_2 
REMARK    3  A    between atoms: C_10  and  C_6 
REMARK    4  A    between atoms: C_9  and  S_7 
ROOT
ATOM      1  C   UNL d   1       1.546   0.690   0.226  0.00  0.00     0.128 A 
ATOM      2  C   UNL d   1       0.294   1.280   0.112  0.00  0.00     0.080 A 
ATOM      3  C   UNL d   1       1.449  -0.748   0.192  0.00  0.00     0.060 A 
ATOM      4  S   UNL d   1      -0.935   0.085  -0.050  0.00  0.00    -0.077 SA
ATOM      5  C   UNL d   1       0.161  -1.212   0.005  0.00  0.00     0.054 A 
ENDROOT
BRANCH   2   6
ATOM      6  S   UNL d   1      -0.169   2.981  -0.042  0.00  0.00    -0.079 SA
BRANCH   6   7
ATOM      7  C   UNL d   1      -0.517   3.388   1.675  0.00  0.00     0.029 A 
ATOM      8  C   UNL d   1      -1.781   3.244   2.284  0.00  0.00     0.072 A 
ATOM      9  C   UNL d   1      -1.974   3.704   3.600  0.00  0.00     0.057 A 
ATOM     10 CL   UNL d   1      -3.117   2.553   1.413  0.00  0.00    -0.081 Cl
ATOM     11 CL   UNL d   1      -3.494   3.574   4.421  0.00  0.00    -0.083 Cl
ATOM     12  C   UNL d   1      -0.930   4.316   4.300  0.00  0.00     0.026 A 
ATOM     13  C   UNL d   1       0.314   4.470   3.699  0.00  0.00     0.003 A 
ATOM     14  C   UNL d   1       0.516   4.012   2.396  0.00  0.00     0.021 A 
ENDBRANCH   6   7
ENDBRANCH   2   6
BRANCH   1  15
ATOM     15  N   UNL d   1       2.817   1.376   0.329  0.00  0.00    -0.114 N 
ATOM     16  O   UNL d   1       2.822   2.604   0.452  0.00  0.00    -0.532 OA
ATOM     17  O   UNL d   1       3.829   0.664   0.300  0.00  0.00    -0.532 OA
ENDBRANCH   1  15
BRANCH   5  18
ATOM     18  C   UNL d   1      -0.242  -2.609  -0.117  0.00  0.00     0.162 C 
ATOM     19  O   UNL d   1       0.537  -3.522   0.172  0.00  0.00    -0.292 OA
ATOM     20  C   UNL d   1      -1.617  -2.972  -0.628  0.00  0.00     0.097 C 
ENDBRANCH   5  18
TORSDOF 4
