REMARK  5 active torsions:
REMARK  status: ('A' for Active; 'I' for Inactive)
REMARK    1  A    between atoms: C_2  and  C_1 
REMARK       I    between atoms: N_5  and  C_2 
REMARK    2  A    between atoms: C_9  and  C_3 
REMARK    3  A    between atoms: O_15  and  C_4 
REMARK    4  A    between atoms: O_16  and  C_7 
REMARK    5  A    between atoms: O_17  and  C_8 
ROOT
ATOM      1  C   UNL d   1       1.065  -0.478  -1.619  0.00  0.00     0.113 C 
ATOM      2  C   UNL d   1       0.186  -0.717  -0.620  0.00  0.00     0.040 C 
ATOM      3  C   UNL d   1       0.645  -0.028  -2.892  0.00  0.00     0.105 C 
ATOM      4  N   UNL d   1       0.305   0.311  -3.956  0.00  0.00    -0.191 NA
ENDROOT
BRANCH   1   5
ATOM      5  C   UNL d   1       2.515  -0.637  -1.267  0.00  0.00     0.264 C 
ATOM      6  N   UNL d   1       3.443  -1.060  -2.205  0.00  0.00    -0.343 N 
ATOM      7  C   UNL d   1       3.230  -1.492  -3.598  0.00  0.00     0.152 C 
ATOM      8  C   UNL d   1       4.861  -1.089  -1.817  0.00  0.00     0.152 C 
ATOM      9  C   UNL d   1       3.954  -2.816  -3.890  0.00  0.00     0.187 C 
ATOM     10  O   UNL d   1       5.339  -2.761  -3.526  0.00  0.00    -0.388 OA
ATOM     11  C   UNL d   1       5.483  -2.452  -2.132  0.00  0.00     0.187 C 
ATOM     12  O   UNL d   1       2.854  -0.419  -0.099  0.00  0.00    -0.267 OA
ENDBRANCH   1   5
BRANCH   2  13
ATOM     13  C   UNL d   1      -1.269  -0.707  -0.783  0.00  0.00    -0.029 A 
ATOM     14  C   UNL d   1      -1.925  -1.918  -0.981  0.00  0.00     0.051 A 
ATOM     15  C   UNL d   1      -3.313  -1.970  -1.185  0.00  0.00     0.105 A 
ATOM     16  C   UNL d   1      -4.075  -0.775  -1.196  0.00  0.00     0.135 A 
ATOM     17  C   UNL d   1      -3.397   0.456  -1.030  0.00  0.00     0.105 A 
ATOM     18  C   UNL d   1      -2.007   0.470  -0.808  0.00  0.00     0.051 A 
BRANCH  15  19
ATOM     19  O   UNL d   1      -3.914  -3.173  -1.479  0.00  0.00    -0.353 OA
ATOM     20  C   UNL d   1      -3.370  -4.314  -0.815  0.00  0.00     0.210 C 
ENDBRANCH  15  19
BRANCH  16  21
ATOM     21  O   UNL d   1      -5.430  -0.698  -1.367  0.00  0.00    -0.351 OA
ATOM     22  C   UNL d   1      -6.253  -1.849  -1.253  0.00  0.00     0.210 C 
ENDBRANCH  16  21
BRANCH  17  23
ATOM     23  O   UNL d   1      -3.878   1.739  -1.076  0.00  0.00    -0.353 OA
ATOM     24  C   UNL d   1      -5.258   2.021  -1.214  0.00  0.00     0.210 C 
ENDBRANCH  17  23
ENDBRANCH   2  13
TORSDOF 5
