REMARK  7 active torsions:
REMARK  status: ('A' for Active; 'I' for Inactive)
REMARK    1  A    between atoms: C_3  and  N_1 
REMARK    2  A    between atoms: S_11  and  C_2 
REMARK    3  A    between atoms: O_30  and  C_6 
REMARK    4  A    between atoms: C_13  and  C_7 
REMARK    5  A    between atoms: C_14  and  C_8 
REMARK    6  A    between atoms: C_16  and  S_11 
REMARK    7  A    between atoms: C_15  and  C_12 
ROOT
ATOM      1  N   UNL d   1      -0.026  -1.329  -0.016  0.00  0.00    -0.254 N 
ATOM      2  C   UNL d   1       1.227  -0.807  -0.315  0.00  0.00     0.175 A 
ATOM      3  N   UNL d   1       1.150   0.486  -0.526  0.00  0.00    -0.276 N 
ATOM      4  HN  UNL d   1       1.932   1.105  -0.739  1.00  0.00     0.189 HD
ATOM      5  C   UNL d   1      -0.849  -0.207  -0.097  0.00  0.00     0.245 A 
ATOM      6  N   UNL d   1      -0.162   0.860  -0.410  0.00  0.00    -0.263 N 
ATOM      7  HN  UNL d   1      -0.535   1.799  -0.544  1.00  0.00     0.190 HD
ENDROOT
BRANCH   2   8
ATOM      8  S   UNL d   1       2.687  -1.718  -0.489  0.00  0.00    -0.034 SA
BRANCH   8   9
ATOM      9  C   UNL d   1       3.235  -1.110  -2.052  0.00  0.00     0.078 A 
ATOM     10  N   UNL d   1       2.499  -1.452  -3.128  0.00  0.00    -0.359 N 
ATOM     11  C   UNL d   1       2.948  -1.052  -4.333  0.00  0.00     0.106 A 
ATOM     12  HN  UNL d   1       1.639  -1.992  -3.033  1.00  0.00     0.166 HD
ATOM     13  C   UNL d   1       4.129  -0.342  -4.554  0.00  0.00     0.078 A 
ATOM     14  C   UNL d   1       4.927  -0.059  -3.429  0.00  0.00     0.067 A 
ATOM     15  C   UNL d   1       4.438  -0.426  -2.160  0.00  0.00     0.054 A 
BRANCH  13  16
ATOM     16  C   UNL d   1       4.443  -0.011  -5.985  0.00  0.00     0.419 C 
ATOM     17  F   UNL d   1       5.260   1.057  -6.158  0.00  0.00    -0.166 F 
ATOM     18  F   UNL d   1       5.019  -1.059  -6.633  0.00  0.00    -0.166 F 
ATOM     19  F   UNL d   1       3.319   0.288  -6.697  0.00  0.00    -0.166 F 
ENDBRANCH  13  16
BRANCH  14  20
ATOM     20  C   UNL d   1       6.276   0.623  -3.462  0.00  0.00     0.418 C 
ATOM     21  F   UNL d   1       6.885   0.624  -4.670  0.00  0.00    -0.166 F 
ATOM     22  F   UNL d   1       6.211   1.915  -3.049  0.00  0.00    -0.166 F 
ATOM     23  F   UNL d   1       7.160   0.010  -2.623  0.00  0.00    -0.166 F 
ENDBRANCH  14  20
ENDBRANCH   8   9
ENDBRANCH   2   8
BRANCH   1  24
ATOM     24  C   UNL d   1      -0.462  -2.682   0.179  0.00  0.00     0.060 A 
ATOM     25  C   UNL d   1       0.201  -3.640   0.981  0.00  0.00     0.075 A 
ATOM     26  C   UNL d   1      -0.305  -4.962   1.000  0.00  0.00     0.018 A 
ATOM     27  C   UNL d   1      -1.474  -5.315   0.330  0.00  0.00     0.001 A 
ATOM     28  C   UNL d   1      -2.159  -4.356  -0.398  0.00  0.00     0.002 A 
ATOM     29  C   UNL d   1      -1.650  -3.059  -0.492  0.00  0.00     0.031 A 
BRANCH  25  30
ATOM     30  C   UNL d   1       1.342  -3.384   1.943  0.00  0.00     0.419 C 
ATOM     31  F   UNL d   1       1.515  -2.075   2.264  0.00  0.00    -0.166 F 
ATOM     32  F   UNL d   1       1.147  -4.013   3.141  0.00  0.00    -0.166 F 
ATOM     33  F   UNL d   1       2.537  -3.853   1.492  0.00  0.00    -0.166 F 
ENDBRANCH  25  30
ENDBRANCH   1  24
BRANCH   5  34
ATOM     34  O   UNL d   1      -2.154  -0.154   0.168  0.00  0.00    -0.331 OA
ATOM     35  H   UNL d   1      -2.402  -0.919   0.704  0.00  0.00     0.221 HD
ENDBRANCH   5  34
TORSDOF 7
