REMARK  1 active torsions:
REMARK  status: ('A' for Active; 'I' for Inactive)
REMARK    1  A    between atoms: O_10  and  C_2 
ROOT
ATOM      1  C   UNL d   1       2.422  -0.706   0.014  0.00  0.00     0.120 A 
ATOM      2  C   UNL d   1       1.298  -1.428   0.037  0.00  0.00     0.084 A 
ATOM      3  C   UNL d   1       0.001  -0.758   0.051  0.00  0.00     0.032 A 
ATOM      4  C   UNL d   1       2.402   0.764   0.015  0.00  0.00     0.290 A 
ATOM      5  C   UNL d   1      -0.026   0.634   0.024  0.00  0.00     0.092 A 
ATOM      6  O   UNL d   1       1.165   1.386   0.020  0.00  0.00    -0.275 OA
ATOM      7  C   UNL d   1      -1.218  -1.447   0.065  0.00  0.00     0.024 A 
ATOM      8  O   UNL d   1       3.453   1.397   0.007  0.00  0.00    -0.260 OA
ATOM      9  C   UNL d   1      -1.223   1.346  -0.010  0.00  0.00     0.039 A 
ATOM     10  C   UNL d   1      -2.438  -0.752   0.034  0.00  0.00    -0.061 A 
ATOM     11  C   UNL d   1      -2.430   0.649  -0.016  0.00  0.00     0.009 A 
ATOM     12  C   UNL d   1      -3.742  -1.494   0.019  0.00  0.00     0.048 C 
ENDROOT
BRANCH   2  13
ATOM     13  O   UNL d   1       1.284  -2.805   0.025  0.00  0.00    -0.360 OA
ATOM     14  H   UNL d   1       2.198  -3.134  -0.031  0.00  0.00     0.217 HD
ENDBRANCH   2  13
TORSDOF 1
