REMARK  5 active torsions:
REMARK  status: ('A' for Active; 'I' for Inactive)
REMARK    1  A    between atoms: N_2  and  S_1 
REMARK    2  A    between atoms: C_7  and  S_1 
REMARK    3  A    between atoms: N_3  and  N_2 
REMARK    4  A    between atoms: C_5  and  C_6 
REMARK    5  A    between atoms: C_19  and  C_6 
ROOT
ATOM      1  N   UNL d   1       1.645   2.168  -1.852  0.00  0.00    -0.223 N 
ATOM      2  H   UNL d   1       2.043   2.909  -2.426  0.00  0.00     0.200 HD
ENDROOT
BRANCH   1   3
ATOM      3  S   UNL d   1       2.187   2.063  -0.239  0.00  0.00     0.276 S 
ATOM      4  O   UNL d   1       3.067   0.916  -0.113  0.00  0.00    -0.199 OA
ATOM      5  O   UNL d   1       1.061   2.259   0.646  0.00  0.00    -0.199 OA
BRANCH   3   6
ATOM      6  C   UNL d   1       3.201   3.519  -0.152  0.00  0.00     0.081 A 
ATOM      7  C   UNL d   1       2.650   4.716   0.309  0.00  0.00     0.026 A 
ATOM      8  C   UNL d   1       3.445   5.863   0.353  0.00  0.00     0.008 A 
ATOM      9  C   UNL d   1       4.785   5.814  -0.055  0.00  0.00    -0.062 A 
ATOM     10  C   UNL d   1       5.331   4.598  -0.487  0.00  0.00     0.008 A 
ATOM     11  C   UNL d   1       5.620   7.062  -0.020  0.00  0.00     0.048 C 
ATOM     12  C   UNL d   1       4.543   3.447  -0.533  0.00  0.00     0.026 A 
ENDBRANCH   3   6
ENDBRANCH   1   3
BRANCH   1  13
ATOM     13  N   UNL d   1       0.775   1.146  -2.342  0.00  0.00    -0.293 N 
ATOM     14  C   UNL d   1       0.333   1.186  -3.564  0.00  0.00     0.059 C 
ATOM     15  HN  UNL d   1       0.500   0.379  -1.728  1.00  0.00     0.187 HD
BRANCH  14  16
ATOM     16  C   UNL d   1      -0.536   0.104  -3.973  0.00  0.00     0.099 A 
ATOM     17  O   UNL d   1      -0.613  -0.239  -5.294  0.00  0.00    -0.321 OA
ATOM     18  C   UNL d   1      -1.462  -1.297  -5.383  0.00  0.00     0.142 A 
ATOM     19  C   UNL d   1      -1.966  -1.618  -4.145  0.00  0.00     0.027 A 
ATOM     20  C   UNL d   1      -1.357  -0.726  -3.232  0.00  0.00     0.041 A 
ENDBRANCH  14  16
BRANCH  14  21
ATOM     21  C   UNL d   1       0.632   2.279  -4.574  0.00  0.00     0.057 C 
ATOM     22  C   UNL d   1       1.891   2.003  -5.375  0.00  0.00     0.011 C 
ENDBRANCH  14  21
ENDBRANCH   1  13
TORSDOF 5
