REMARK  4 active torsions:
REMARK  status: ('A' for Active; 'I' for Inactive)
REMARK    1  A    between atoms: C_6  and  C_1 
REMARK    2  A    between atoms: S_20  and  C_2 
REMARK    3  A    between atoms: C_10  and  C_3 
REMARK       I    between atoms: C_13  and  N_7 
REMARK    4  A    between atoms: C_19  and  C_13 
ROOT
ATOM      1  C   UNL d   1       0.625   1.290  -0.034  0.00  0.00     0.023 A 
ATOM      2  C   UNL d   1      -0.764   1.295  -0.083  0.00  0.00     0.054 A 
ATOM      3  C   UNL d   1       0.158  -1.020   0.026  0.00  0.00     0.046 A 
ATOM      4  C   UNL d   1       1.172  -0.062   0.016  0.00  0.00    -0.028 A 
ATOM      5  S   UNL d   1      -1.389  -0.289  -0.058  0.00  0.00    -0.079 SA
ATOM      6  C   UNL d   1       2.643  -0.374   0.052  0.00  0.00     0.050 C 
ENDROOT
BRANCH   1   7
ATOM      7  C   UNL d   1       1.467   2.511  -0.033  0.00  0.00     0.062 A 
ATOM      8  N   UNL d   1       1.186   3.582   0.719  0.00  0.00    -0.291 N 
ATOM      9  N   UNL d   1       2.097   4.520   0.346  0.00  0.00    -0.231 N 
ATOM     10  HN  UNL d   1       0.450   3.673   1.419  1.00  0.00     0.187 HD
ATOM     11  C   UNL d   1       2.026   5.843   0.833  0.00  0.00     0.276 C 
ATOM     12  C   UNL d   1       3.015   4.003  -0.538  0.00  0.00     0.122 A 
ATOM     13  O   UNL d   1       2.731   6.686   0.279  0.00  0.00    -0.265 OA
ATOM     14  C   UNL d   1       2.631   2.712  -0.805  0.00  0.00     0.051 A 
BRANCH  11  15
ATOM     15  C   UNL d   1       1.186   6.270   1.987  0.00  0.00     0.034 A 
ATOM     16  C   UNL d   1       1.008   5.431   3.094  0.00  0.00     0.019 A 
ATOM     17  C   UNL d   1       0.304   5.880   4.209  0.00  0.00     0.025 A 
ATOM     18  C   UNL d   1      -0.220   7.171   4.227  0.00  0.00     0.034 A 
ATOM     19  C   UNL d   1      -0.049   8.016   3.130  0.00  0.00     0.025 A 
ATOM     20 CL   UNL d   1      -1.061   7.729   5.620  0.00  0.00    -0.084 Cl
ATOM     21  C   UNL d   1       0.661   7.570   2.012  0.00  0.00     0.019 A 
ENDBRANCH  11  15
ENDBRANCH   1   7
BRANCH   2  22
ATOM     22  S   UNL d   1      -1.828   2.704  -0.261  0.00  0.00    -0.126 SA
ATOM     23  C   UNL d   1      -3.283   2.241   0.708  0.00  0.00     0.096 C 
ENDBRANCH   2  22
BRANCH   3  24
ATOM     24  C   UNL d   1       0.279  -2.464   0.116  0.00  0.00     0.092 A 
ATOM     25  N   UNL d   1       1.279  -3.049   0.750  0.00  0.00    -0.353 N 
ATOM     26  C   UNL d   1       1.170  -4.426   0.683  0.00  0.00     0.012 A 
ATOM     27  HN  UNL d   1       2.032  -2.551   1.226  1.00  0.00     0.166 HD
ATOM     28  C   UNL d   1       2.217  -5.260   1.324  0.00  0.00     0.068 C 
ATOM     29  C   UNL d   1       0.059  -4.884   0.004  0.00  0.00     0.076 A 
ATOM     30  S   UNL d   1      -0.851  -3.563  -0.589  0.00  0.00    -0.081 SA
ENDBRANCH   3  24
TORSDOF 4
