REMARK  3 active torsions:
REMARK  status: ('A' for Active; 'I' for Inactive)
REMARK    1  A    between atoms: C_11  and  C_6 
REMARK    2  A    between atoms: C_17  and  C_10 
REMARK    3  A    between atoms: O_18  and  C_17 
ROOT
ATOM      1  N   UNL d   1      -0.290  -0.592   0.005  0.00  0.00    -0.203 N 
ATOM      2  C   UNL d   1      -0.224   0.786   0.005  0.00  0.00     0.133 A 
ATOM      3  N   UNL d   1      -1.575  -1.044   0.018  0.00  0.00    -0.288 N 
ATOM      4  HN  UNL d   1      -1.901  -2.010   0.015  1.00  0.00     0.188 HD
ATOM      5  C   UNL d   1      -1.510   1.247   0.034  0.00  0.00     0.083 A 
ATOM      6  C   UNL d   1      -2.312   0.078   0.035  0.00  0.00     0.069 A 
ATOM      7  C   UNL d   1       0.836  -1.435   0.000  0.00  0.00     0.270 A 
ATOM      8  C   UNL d   1       2.139  -0.708  -0.005  0.00  0.00     0.103 A 
ATOM      9  N   UNL d   1       0.988   1.382  -0.013  0.00  0.00    -0.342 N 
ATOM     10  C   UNL d   1       2.163   0.640  -0.010  0.00  0.00     0.040 A 
ATOM     11  O   UNL d   1       0.747  -2.656  -0.001  0.00  0.00    -0.266 OA
ATOM     12  H   UNL d   1       1.108   2.384   0.142  0.00  0.00     0.167 HD
ENDROOT
BRANCH   6  13
ATOM     13  C   UNL d   1      -3.814   0.053   0.050  0.00  0.00     0.033 A 
ATOM     14  S   UNL d   1      -4.794   1.456   0.057  0.00  0.00    -0.100 SA
ATOM     15  C   UNL d   1      -6.232   0.532   0.066  0.00  0.00     0.050 A 
ATOM     16  C   UNL d   1      -5.975  -0.820   0.066  0.00  0.00     0.008 A 
ATOM     17  C   UNL d   1      -4.575  -1.099   0.056  0.00  0.00     0.021 A 
ENDBRANCH   6  13
BRANCH  10  18
ATOM     18  C   UNL d   1       3.464   1.413  -0.007  0.00  0.00     0.224 C 
BRANCH  18  19
ATOM     19  O   UNL d   1       3.443   2.310   1.105  0.00  0.00    -0.390 OA
ATOM     20  C   UNL d   1       4.650   3.055   1.200  0.00  0.00     0.201 C 
ENDBRANCH  18  19
ENDBRANCH  10  18
TORSDOF 3
