REMARK  4 active torsions:
REMARK  status: ('A' for Active; 'I' for Inactive)
REMARK    1  A    between atoms: O_2  and  S_1 
REMARK    2  A    between atoms: C_4  and  S_1 
REMARK    3  A    between atoms: C_9  and  O_2 
REMARK    4  A    between atoms: N_3  and  C_5 
ROOT
ATOM      1  C   UNL d   1       2.707  -2.955  -2.946  0.00  0.00     0.033 A 
ATOM      2  C   UNL d   1       2.258  -2.173  -1.870  0.00  0.00     0.067 A 
ATOM      3  C   UNL d   1       0.923  -2.209  -1.435  0.00  0.00     0.091 A 
ATOM      4  C   UNL d   1       1.758  -3.786  -3.563  0.00  0.00     0.029 A 
ATOM      5  C   UNL d   1       0.437  -3.858  -3.118  0.00  0.00     0.005 A 
ATOM      6  C   UNL d   1       0.021  -3.079  -2.045  0.00  0.00     0.038 A 
ENDROOT
BRANCH   3   7
ATOM      7  O   UNL d   1       0.600  -1.348  -0.412  0.00  0.00    -0.229 OA
BRANCH   7   8
ATOM      8  S   UNL d   1      -0.949  -0.897  -0.151  0.00  0.00     0.303 S 
ATOM      9  O   UNL d   1      -1.608  -1.915   0.646  0.00  0.00    -0.193 OA
ATOM     10  O   UNL d   1      -1.533  -0.439  -1.399  0.00  0.00    -0.193 OA
BRANCH   8  11
ATOM     11  C   UNL d   1      -0.807   0.540   0.898  0.00  0.00     0.086 A 
ATOM     12  C   UNL d   1      -1.181   1.797   0.411  0.00  0.00     0.027 A 
ATOM     13  C   UNL d   1      -1.161   2.902   1.263  0.00  0.00     0.025 A 
ATOM     14  C   UNL d   1      -0.775   2.742   2.597  0.00  0.00     0.034 A 
ATOM     15  C   UNL d   1      -0.396   1.487   3.079  0.00  0.00     0.025 A 
ATOM     16 CL   UNL d   1      -0.787   4.098   3.654  0.00  0.00    -0.084 Cl
ATOM     17  C   UNL d   1      -0.413   0.378   2.231  0.00  0.00     0.027 A 
ENDBRANCH   8  11
ENDBRANCH   7   8
ENDBRANCH   3   7
BRANCH   1  18
ATOM     18  N   UNL d   1       3.998  -2.896  -3.439  0.00  0.00    -0.377 N 
ATOM     19  C   UNL d   1       4.875  -1.730  -3.258  0.00  0.00     0.149 C 
ATOM     20  C   UNL d   1       5.996  -2.048  -2.259  0.00  0.00     0.187 C 
ATOM     21  O   UNL d   1       6.737  -3.213  -2.660  0.00  0.00    -0.388 OA
ATOM     22  C   UNL d   1       5.867  -4.354  -2.738  0.00  0.00     0.187 C 
ATOM     23  C   UNL d   1       4.727  -4.141  -3.750  0.00  0.00     0.149 C 
ENDBRANCH   1  18
TORSDOF 4
