REMARK  3 active torsions:
REMARK  status: ('A' for Active; 'I' for Inactive)
REMARK    1  A    between atoms: C_6  and  C_1 
REMARK    2  A    between atoms: C_7  and  C_3 
REMARK    3  A    between atoms: O_13  and  C_6 
ROOT
ATOM      1  C   UNL d   1      -0.161  -1.292  -0.002  0.00  0.00     0.069 A 
ATOM      2  C   UNL d   1      -1.479  -0.745   0.058  0.00  0.00     0.059 A 
ATOM      3  C   UNL d   1      -1.380   0.635   0.031  0.00  0.00     0.093 A 
ATOM      4  C   UNL d   1       0.682  -0.195  -0.038  0.00  0.00     0.067 A 
ATOM      5  O   UNL d   1      -0.048   0.957  -0.046  0.00  0.00    -0.313 OA
ATOM      6  C   UNL d   1       2.147   0.017  -0.010  0.00  0.00     0.078 C 
ENDROOT
BRANCH   3   7
ATOM      7  C   UNL d   1      -2.412   1.636   0.097  0.00  0.00     0.038 A 
ATOM      8  S   UNL d   1      -4.077   1.237   0.203  0.00  0.00    -0.099 SA
ATOM      9  C   UNL d   1      -4.541   2.880   0.276  0.00  0.00     0.050 A 
ATOM     10  C   UNL d   1      -3.457   3.725   0.208  0.00  0.00     0.008 A 
ATOM     11  C   UNL d   1      -2.229   3.007   0.100  0.00  0.00     0.022 A 
ENDBRANCH   3   7
BRANCH   1  12
ATOM     12  C   UNL d   1       0.165  -2.706   0.044  0.00  0.00     0.178 C 
ATOM     13  O   UNL d   1      -0.554  -3.539   0.576  0.00  0.00    -0.646 OA
BRANCH  12  14
ATOM     14  O   UNL d   1       1.309  -3.064  -0.593  0.00  0.00    -0.773 OA
ATOM     15  H   UNL d   1       1.680  -2.344  -1.131  0.00  0.00     0.167 HD
ENDBRANCH  12  14
ENDBRANCH   1  12
TORSDOF 3
