REMARK  11 active torsions:
REMARK  status: ('A' for Active; 'I' for Inactive)
REMARK    1  A    between atoms: C_5  and  C_1 
REMARK    2  A    between atoms: S_12  and  C_6 
REMARK    3  A    between atoms: C_9  and  C_17 
REMARK    4  A    between atoms: C_10  and  C_20 
REMARK    5  A    between atoms: O_15  and  C_11 
REMARK    6  A    between atoms: C_16  and  S_12 
REMARK    7  A    between atoms: C_14  and  C_16 
REMARK    8  A    between atoms: C_19  and  C_14 
REMARK    9  A    between atoms: C_17  and  O_15 
REMARK   10  A    between atoms: C_20  and  O_29 
REMARK   11  A    between atoms: O_29  and  C_28 
ROOT
ATOM      1  C   UNL d   1      -0.719  -2.441   0.041  0.00  0.00     0.053 A 
ATOM      2  C   UNL d   1      -1.557  -2.882  -1.006  0.00  0.00     0.083 A 
ATOM      3  C   UNL d   1      -0.242  -3.409   0.957  0.00  0.00     0.055 A 
ATOM      4  C   UNL d   1      -1.812  -4.260  -1.141  0.00  0.00     0.040 A 
ATOM      5  C   UNL d   1      -0.570  -4.761   0.854  0.00  0.00     0.070 A 
ATOM      6  C   UNL d   1      -1.342  -5.187  -0.211  0.00  0.00     0.039 A 
ENDROOT
BRANCH   1   7
ATOM      7  C   UNL d   1      -0.345  -1.043   0.275  0.00  0.00     0.178 A 
ATOM      8  O   UNL d   1       0.772  -0.847   1.056  0.00  0.00    -0.267 OA
ATOM      9  C   UNL d   1       0.802   0.511   1.203  0.00  0.00     0.204 A 
ATOM     10  N   UNL d   1      -0.170   1.101   0.532  0.00  0.00    -0.272 N 
ATOM     11  N   UNL d   1      -0.903   0.098  -0.075  0.00  0.00    -0.277 N 
ATOM     12  HN  UNL d   1      -0.346   2.104   0.473  1.00  0.00     0.189 HD
ATOM     13  HN  UNL d   1      -1.717   0.218  -0.678  1.00  0.00     0.189 HD
BRANCH   9  14
ATOM     14  S   UNL d   1       2.000   1.314   2.172  0.00  0.00    -0.077 SA
BRANCH  14  15
ATOM     15  C   UNL d   1       1.046   2.742   2.771  0.00  0.00     0.166 C 
BRANCH  15  16
ATOM     16  C   UNL d   1      -0.140   2.319   3.624  0.00  0.00     0.169 C 
ATOM     17  O   UNL d   1      -0.128   1.296   4.311  0.00  0.00    -0.291 OA
BRANCH  16  18
ATOM     18  C   UNL d   1      -1.352   3.197   3.676  0.00  0.00     0.010 A 
ATOM     19  C   UNL d   1      -1.405   4.465   3.082  0.00  0.00     0.015 A 
ATOM     20  C   UNL d   1      -2.583   5.219   3.137  0.00  0.00     0.001 A 
ATOM     21  C   UNL d   1      -3.707   4.722   3.796  0.00  0.00     0.000 A 
ATOM     22  C   UNL d   1      -3.656   3.474   4.410  0.00  0.00     0.001 A 
ATOM     23  C   UNL d   1      -2.484   2.716   4.352  0.00  0.00     0.015 A 
ENDBRANCH  16  18
ENDBRANCH  15  16
ENDBRANCH  14  15
ENDBRANCH   9  14
ENDBRANCH   1   7
BRANCH   2  24
ATOM     24  O   UNL d   1      -2.103  -1.958  -1.872  0.00  0.00    -0.341 OA
BRANCH  24  25
ATOM     25  C   UNL d   1      -3.205  -2.439  -2.671  0.00  0.00     0.293 C 
BRANCH  25  26
ATOM     26  C   UNL d   1      -4.025  -1.344  -3.339  0.00  0.00     0.408 C 
ATOM     27  F   UNL d   1      -3.435  -0.134  -3.316  0.00  0.00    -0.169 F 
ATOM     28  F   UNL d   1      -4.255  -1.659  -4.639  0.00  0.00    -0.169 F 
ATOM     29  F   UNL d   1      -5.239  -1.229  -2.748  0.00  0.00    -0.169 F 
ENDBRANCH  25  26
ENDBRANCH  24  25
ENDBRANCH   2  24
BRANCH   5  30
ATOM     30  O   UNL d   1      -0.044  -5.564   1.824  0.00  0.00    -0.342 OA
BRANCH  30  31
ATOM     31  C   UNL d   1      -0.733  -6.795   2.080  0.00  0.00     0.293 C 
BRANCH  31  32
ATOM     32  C   UNL d   1       0.003  -7.638   3.116  0.00  0.00     0.408 C 
ATOM     33  F   UNL d   1       1.161  -7.079   3.528  0.00  0.00    -0.169 F 
ATOM     34  F   UNL d   1      -0.767  -7.842   4.210  0.00  0.00    -0.169 F 
ATOM     35  F   UNL d   1       0.302  -8.857   2.605  0.00  0.00    -0.169 F 
ENDBRANCH  31  32
ENDBRANCH  30  31
ENDBRANCH   5  30
TORSDOF 11
