REMARK  5 active torsions:
REMARK  status: ('A' for Active; 'I' for Inactive)
REMARK    1  A    between atoms: N_2  and  S_1 
REMARK    2  A    between atoms: C_9  and  S_1 
REMARK    3  A    between atoms: C_3  and  N_4 
REMARK    4  A    between atoms: C_25  and  C_14 
REMARK    5  A    between atoms: C_27  and  C_25 
ROOT
ATOM      1  N   UNL d   1       0.667  -1.107  -1.361  0.00  0.00    -0.205 NA
ATOM      2  N   UNL d   1       0.775  -2.533  -4.029  0.00  0.00    -0.216 N 
ATOM      3  C   UNL d   1       0.842  -0.417  -2.696  0.00  0.00     0.128 C 
ATOM      4  C   UNL d   1       0.208  -1.201  -3.858  0.00  0.00     0.157 C 
ATOM      5  C   UNL d   1       0.669  -3.575  -1.763  0.00  0.00     0.036 C 
ATOM      6  C   UNL d   1       1.480  -2.369  -1.307  0.00  0.00     0.109 C 
ATOM      7  C   UNL d   1       0.233  -3.614  -3.227  0.00  0.00     0.142 C 
ENDROOT
BRANCH   2   8
ATOM      8  C   UNL d   1       1.884  -2.731  -4.819  0.00  0.00     0.679 A 
ATOM      9  N   UNL d   1       2.402  -1.685  -5.485  0.00  0.00    -0.201 N 
ATOM     10  C   UNL d   1       3.435  -1.920  -6.324  0.00  0.00     0.114 A 
ATOM     11  HN  UNL d   1       2.027  -0.745  -5.361  1.00  0.00     0.183 HD
ATOM     12  C   UNL d   1       3.990  -3.161  -6.537  0.00  0.00    -0.026 A 
ATOM     13  C   UNL d   1       3.428  -4.158  -5.779  0.00  0.00     0.114 A 
ATOM     14  N   UNL d   1       2.398  -3.967  -4.926  0.00  0.00    -0.201 N 
ATOM     15  HN  UNL d   1       2.022  -4.741  -4.378  1.00  0.00     0.183 HD
BRANCH  12  16
ATOM     16  C   UNL d   1       5.117  -3.392  -7.499  0.00  0.00     0.041 C 
BRANCH  16  17
ATOM     17  C   UNL d   1       4.807  -4.390  -8.622  0.00  0.00     0.000 C 
ATOM     18  C   UNL d   1       3.694  -3.925  -9.552  0.00  0.00     0.005 C 
ENDBRANCH  16  17
ENDBRANCH  12  16
ENDBRANCH   2   8
BRANCH   1  19
ATOM     19  S   UNL d   1       1.001  -0.076  -0.015  0.00  0.00     0.243 S 
ATOM     20  O   UNL d   1       2.258   0.593  -0.286  0.00  0.00    -0.206 OA
ATOM     21  O   UNL d   1       0.808  -0.839   1.200  0.00  0.00    -0.206 OA
BRANCH  19  22
ATOM     22  C   UNL d   1      -0.300   1.134  -0.064  0.00  0.00     0.074 A 
ATOM     23  C   UNL d   1      -1.606   0.735   0.228  0.00  0.00     0.025 A 
ATOM     24  C   UNL d   1      -2.630   1.684   0.238  0.00  0.00     0.008 A 
ATOM     25  C   UNL d   1      -2.354   3.032  -0.035  0.00  0.00    -0.062 A 
ATOM     26  C   UNL d   1      -1.034   3.422  -0.303  0.00  0.00     0.008 A 
ATOM     27  C   UNL d   1      -3.469   4.037  -0.033  0.00  0.00     0.048 C 
ATOM     28  C   UNL d   1      -0.005   2.477  -0.314  0.00  0.00     0.025 A 
ENDBRANCH  19  22
ENDBRANCH   1  19
TORSDOF 5
