REMARK  4 active torsions:
REMARK  status: ('A' for Active; 'I' for Inactive)
REMARK    1  A    between atoms: C_4  and  C_1 
REMARK    2  A    between atoms: O_10  and  C_4 
REMARK    3  A    between atoms: O_11  and  C_6 
REMARK    4  A    between atoms: O_12  and  C_7 
ROOT
ATOM      1  C   UNL d   1       0.944  -1.209  -0.009  0.00  0.00     0.057 A 
ATOM      2  C   UNL d   1       0.311   0.035  -0.013  0.00  0.00     0.030 A 
ATOM      3  C   UNL d   1       2.352  -1.257   0.006  0.00  0.00     0.059 A 
ATOM      4  C   UNL d   1       1.085   1.200  -0.018  0.00  0.00     0.059 A 
ATOM      5  C   UNL d   1       3.136  -0.093   0.009  0.00  0.00     0.102 A 
ATOM      6  C   UNL d   1       2.489   1.153  -0.007  0.00  0.00     0.102 A 
ATOM      7 BR   UNL d   1      -1.572   0.272   0.027  0.00  0.00    -0.050 Br
ENDROOT
BRANCH   1   8
ATOM      8  C   UNL d   1       0.262  -2.532   0.020  0.00  0.00     0.177 C 
ATOM      9  O   UNL d   1       0.776  -3.507   0.545  0.00  0.00    -0.646 OA
BRANCH   8  10
ATOM     10  O   UNL d   1      -0.897  -2.611  -0.661  0.00  0.00    -0.773 OA
ATOM     11  H   UNL d   1      -1.234  -1.766  -1.014  0.00  0.00     0.167 HD
ENDBRANCH   8  10
ENDBRANCH   1   8
BRANCH   5  12
ATOM     12  O   UNL d   1       4.503  -0.116   0.030  0.00  0.00    -0.353 OA
ATOM     13  C   UNL d   1       5.165  -1.375   0.048  0.00  0.00     0.210 C 
ENDBRANCH   5  12
BRANCH   6  14
ATOM     14  O   UNL d   1       3.041   2.407  -0.008  0.00  0.00    -0.353 OA
ATOM     15  C   UNL d   1       4.455   2.541   0.008  0.00  0.00     0.210 C 
ENDBRANCH   6  14
TORSDOF 4
