REMARK  4 active torsions:
REMARK  status: ('A' for Active; 'I' for Inactive)
REMARK    1  A    between atoms: C_3  and  C_1 
REMARK    2  A    between atoms: C_10  and  C_2 
REMARK       I    between atoms: N_16  and  C_10 
REMARK    3  A    between atoms: N_14  and  N_16 
REMARK    4  A    between atoms: C_19  and  C_18 
ROOT
ATOM      1  C   UNL d   1      -1.293  -0.695   0.167  0.00  0.00     0.145 A 
ATOM      2  C   UNL d   1      -0.097  -1.403   0.063  0.00  0.00     0.096 A 
ATOM      3  O   UNL d   1      -1.059   0.613  -0.151  0.00  0.00    -0.234 OA
ATOM      4  N   UNL d   1       0.273   0.829  -0.364  0.00  0.00    -0.264 N 
ATOM      5  HN  UNL d   1       0.725   1.713  -0.597  1.00  0.00     0.194 HD
ATOM      6  C   UNL d   1       0.862  -0.361  -0.204  0.00  0.00     0.047 A 
ATOM      7  C   UNL d   1       2.345  -0.405  -0.278  0.00  0.00     0.071 C 
ENDROOT
BRANCH   2   8
ATOM      8  C   UNL d   1       0.225  -2.827   0.192  0.00  0.00     0.275 C 
ATOM      9  N   UNL d   1      -0.832  -3.711   0.310  0.00  0.00    -0.266 N 
ATOM     10  H   UNL d   1      -1.783  -3.373   0.424  0.00  0.00     0.190 HD
ATOM     11  O   UNL d   1       1.394  -3.207   0.145  0.00  0.00    -0.266 OA
BRANCH   9  12
ATOM     12  N   UNL d   1      -0.641  -5.062   0.200  0.00  0.00    -0.308 N 
ATOM     13  C   UNL d   1      -1.720  -5.768   0.313  0.00  0.00     0.118 C 
ATOM     14  HN  UNL d   1       0.277  -5.479   0.041  1.00  0.00     0.186 HD
BRANCH  13  15
ATOM     15  C   UNL d   1      -1.725  -7.234   0.124  0.00  0.00    -0.019 A 
ATOM     16  C   UNL d   1      -0.541  -7.930  -0.133  0.00  0.00     0.013 A 
ATOM     17  C   UNL d   1      -0.585  -9.305  -0.372  0.00  0.00     0.001 A 
ATOM     18  C   UNL d   1      -1.807  -9.979  -0.355  0.00  0.00     0.000 A 
ATOM     19  C   UNL d   1      -2.988  -9.285  -0.087  0.00  0.00     0.001 A 
ATOM     20  C   UNL d   1      -2.950  -7.910   0.154  0.00  0.00     0.013 A 
ENDBRANCH  13  15
ENDBRANCH   9  12
ENDBRANCH   2   8
BRANCH   1  21
ATOM     21  C   UNL d   1      -2.661  -1.095   0.609  0.00  0.00     0.094 A 
ATOM     22  N   UNL d   1      -3.001  -2.323   1.013  0.00  0.00    -0.258 N 
ATOM     23  O   UNL d   1      -4.298  -2.228   1.481  0.00  0.00    -0.242 OA
ATOM     24  HN  UNL d   1      -2.420  -3.161   0.981  1.00  0.00     0.195 HD
ATOM     25  C   UNL d   1      -4.732  -0.947   1.346  0.00  0.00     0.074 A 
ATOM     26  C   UNL d   1      -3.751  -0.201   0.742  0.00  0.00     0.068 A 
ATOM     27  C   UNL d   1      -6.067  -0.635   1.886  0.00  0.00     0.079 C 
ENDBRANCH   1  21
TORSDOF 4
