REMARK  4 active torsions:
REMARK  status: ('A' for Active; 'I' for Inactive)
REMARK    1  A    between atoms: C_7  and  C_9 
REMARK    2  A    between atoms: N_12  and  C_8 
REMARK    3  A    between atoms: N_18  and  N_12 
REMARK    4  A    between atoms: C_19  and  N_18 
ROOT
ATOM      1  N   UNL d   1      -3.168   1.212  -1.215  0.00  0.00    -0.310 N 
ATOM      2  H   UNL d   1      -2.810   2.117  -0.881  0.00  0.00     0.186 HD
ENDROOT
BRANCH   1   3
ATOM      3  C   UNL d   1      -2.451   0.117  -0.788  0.00  0.00     0.131 C 
ATOM      4  C   UNL d   1      -1.254   0.092  -0.183  0.00  0.00     0.131 C 
ATOM      5  C   UNL d   1      -0.646  -1.206   0.124  0.00  0.00     0.303 C 
ATOM      6  C   UNL d   1      -0.533   1.338   0.089  0.00  0.00     0.303 C 
ATOM      7  O   UNL d   1       0.693  -1.174   0.302  0.00  0.00    -0.279 OA
ATOM      8  O   UNL d   1      -1.283  -2.245   0.214  0.00  0.00    -0.259 OA
ATOM      9  C   UNL d   1       1.407  -0.026  -0.160  0.00  0.00     0.175 C 
ATOM     10  O   UNL d   1       0.801   1.206   0.231  0.00  0.00    -0.279 OA
ATOM     11  C   UNL d   1       1.586  -0.083  -1.683  0.00  0.00     0.080 C 
ATOM     12  C   UNL d   1       2.781  -0.064   0.506  0.00  0.00     0.080 C 
ATOM     13  O   UNL d   1      -1.087   2.428   0.169  0.00  0.00    -0.259 OA
ENDBRANCH   1   3
BRANCH   1  14
ATOM     14  N   UNL d   1      -4.330   1.197  -1.922  0.00  0.00    -0.301 N 
ATOM     15  H   UNL d   1      -4.391   0.449  -2.615  0.00  0.00     0.187 HD
BRANCH  14  16
ATOM     16  C   UNL d   1      -4.959   2.375  -2.393  0.00  0.00     0.048 A 
ATOM     17  C   UNL d   1      -5.814   2.295  -3.501  0.00  0.00     0.031 A 
ATOM     18  C   UNL d   1      -6.508   3.419  -3.961  0.00  0.00     0.018 A 
ATOM     19  C   UNL d   1      -6.382   4.650  -3.305  0.00  0.00     0.048 A 
ATOM     20  C   UNL d   1      -5.536   4.732  -2.191  0.00  0.00     0.018 A 
ATOM     21  C   UNL d   1      -4.840   3.606  -1.737  0.00  0.00     0.031 A 
BRANCH  19  22
ATOM     22  C   UNL d   1      -7.160   5.861  -3.759  0.00  0.00     0.417 C 
ATOM     23  F   UNL d   1      -7.941   5.630  -4.851  0.00  0.00    -0.166 F 
ATOM     24  F   UNL d   1      -8.001   6.329  -2.795  0.00  0.00    -0.166 F 
ATOM     25  F   UNL d   1      -6.354   6.907  -4.092  0.00  0.00    -0.166 F 
ENDBRANCH  19  22
ENDBRANCH  14  16
ENDBRANCH   1  14
TORSDOF 4
