REMARK  1 active torsions:
REMARK  status: ('A' for Active; 'I' for Inactive)
REMARK    1  A    between atoms: N_9  and  C_4 
ROOT
ATOM      1  N   UNL d   1       2.498  -0.618  -0.071  0.00  0.00    -0.299 N 
ATOM      2  HN  UNL d   1       3.410  -1.061  -0.184  1.00  0.00     0.171 HD
ATOM      3  C   UNL d   1       1.356  -1.377   0.085  0.00  0.00     0.260 C 
ATOM      4  C   UNL d   1       2.384   0.665  -0.069  0.00  0.00     0.158 C 
ATOM      5  C   UNL d   1       0.028  -0.700   0.051  0.00  0.00     0.059 A 
ATOM      6  N   UNL d   1       1.236   1.382   0.086  0.00  0.00    -0.332 N 
ATOM      7  C   UNL d   1       0.021   0.697   0.015  0.00  0.00     0.050 A 
ATOM      8  O   UNL d   1       1.383  -2.595   0.221  0.00  0.00    -0.267 OA
ATOM      9  C   UNL d   1      -1.167  -1.427   0.022  0.00  0.00     0.019 A 
ATOM     10  C   UNL d   1      -1.203   1.372  -0.012  0.00  0.00     0.030 A 
ATOM     11  C   UNL d   1      -2.383  -0.746  -0.048  0.00  0.00     0.001 A 
ATOM     12  C   UNL d   1      -2.400   0.651  -0.064  0.00  0.00     0.002 A 
ATOM     13  H   UNL d   1       1.236   2.340  -0.231  0.00  0.00     0.168 HD
ENDROOT
BRANCH   4  14
ATOM     14  N   UNL d   1       3.472   1.453  -0.267  0.00  0.00    -0.274 NA
ATOM     15  H   UNL d   1       4.326   0.903  -0.212  0.00  0.00     0.127 HD
ATOM     16  H   UNL d   1       3.525   2.276   0.317  0.00  0.00     0.127 HD
ENDBRANCH   4  14
TORSDOF 1
