REMARK  6 active torsions:
REMARK  status: ('A' for Active; 'I' for Inactive)
REMARK    1  A    between atoms: N_2  and  S_1 
REMARK    2  A    between atoms: C_12  and  S_1 
REMARK    3  A    between atoms: S_5  and  N_2 
REMARK    4  A    between atoms: C_4  and  N_10 
REMARK    5  A    between atoms: C_6  and  C_7 
REMARK    6  A    between atoms: C_19  and  C_20 
ROOT
ATOM      1  S   UNL d   1       0.524   1.455   2.126  0.00  0.00    -0.114 SA
ATOM      2  N   UNL d   1       3.314   2.899   2.389  0.00  0.00    -0.364 N 
ATOM      3  C   UNL d   1       0.907   3.238   2.247  0.00  0.00     0.105 C 
ATOM      4  C   UNL d   1       2.149   0.803   2.655  0.00  0.00     0.105 C 
ATOM      5  C   UNL d   1       2.271   3.656   1.693  0.00  0.00     0.135 C 
ATOM      6  C   UNL d   1       3.357   1.485   2.015  0.00  0.00     0.135 C 
ENDROOT
BRANCH   1   7
ATOM      7  N   UNL d   1       0.637   1.276   0.534  0.00  0.00    -0.264 N 
ATOM      8  HN  UNL d   1       0.611   2.075  -0.098  1.00  0.00     0.186 HD
BRANCH   7   9
ATOM      9  S   UNL d   1       0.808  -0.344  -0.053  0.00  0.00     0.267 S 
ATOM     10  O   UNL d   1       0.003  -1.250   0.746  0.00  0.00    -0.200 OA
ATOM     11  O   UNL d   1       2.214  -0.609  -0.284  0.00  0.00    -0.200 OA
BRANCH   9  12
ATOM     12  C   UNL d   1       0.043  -0.213  -1.645  0.00  0.00     0.080 A 
ATOM     13  C   UNL d   1       0.545   0.692  -2.579  0.00  0.00     0.026 A 
ATOM     14  C   UNL d   1      -0.057   0.776  -3.837  0.00  0.00     0.009 A 
ATOM     15  C   UNL d   1      -1.153  -0.041  -4.186  0.00  0.00    -0.051 A 
ATOM     16  C   UNL d   1      -1.625  -0.947  -3.220  0.00  0.00     0.009 A 
ATOM     17  C   UNL d   1      -1.037  -1.034  -1.958  0.00  0.00     0.026 A 
BRANCH  15  18
ATOM     18  C   UNL d   1      -1.793   0.078  -5.580  0.00  0.00    -0.024 C 
ATOM     19  C   UNL d   1      -2.970  -0.897  -5.809  0.00  0.00     0.019 C 
ATOM     20  C   UNL d   1      -2.340   1.508  -5.771  0.00  0.00     0.019 C 
ATOM     21  C   UNL d   1      -0.738  -0.217  -6.667  0.00  0.00     0.019 C 
ENDBRANCH  15  18
ENDBRANCH   9  12
ENDBRANCH   7   9
ENDBRANCH   1   7
BRANCH   2  22
ATOM     22  C   UNL d   1       4.535   3.519   2.620  0.00  0.00     0.125 A 
ATOM     23  N   UNL d   1       5.634   3.015   2.005  0.00  0.00    -0.350 N 
ATOM     24  C   UNL d   1       6.855   3.495   2.350  0.00  0.00     0.106 A 
ATOM     25  HN  UNL d   1       5.544   2.289   1.295  1.00  0.00     0.166 HD
ATOM     26  C   UNL d   1       7.060   4.478   3.302  0.00  0.00     0.065 A 
ATOM     27  C   UNL d   1       5.930   5.023   3.911  0.00  0.00     0.045 A 
ATOM     28  C   UNL d   1       4.662   4.547   3.574  0.00  0.00     0.078 A 
ATOM     29 CL   UNL d   1       3.321   5.176   4.471  0.00  0.00    -0.080 Cl
BRANCH  26  30
ATOM     30  C   UNL d   1       8.451   4.887   3.670  0.00  0.00     0.418 C 
ATOM     31  F   UNL d   1       8.494   5.841   4.641  0.00  0.00    -0.166 F 
ATOM     32  F   UNL d   1       9.192   3.847   4.138  0.00  0.00    -0.166 F 
ATOM     33  F   UNL d   1       9.142   5.397   2.615  0.00  0.00    -0.166 F 
ENDBRANCH  26  30
ENDBRANCH   2  22
TORSDOF 6
