REMARK  4 active torsions:
REMARK  status: ('A' for Active; 'I' for Inactive)
REMARK    1  A    between atoms: S_4  and  C_1 
REMARK    2  A    between atoms: C_5  and  S_4 
REMARK       I    between atoms: N_10  and  C_5 
REMARK    3  A    between atoms: C_16  and  N_10 
REMARK    4  A    between atoms: C_17  and  N_10 
ROOT
ATOM      1  C   UNL d   1       5.429  -1.709  -0.891  0.00  0.00     0.122 A 
ATOM      2  N   UNL d   1       5.530  -1.560  -2.192  0.00  0.00    -0.344 N 
ATOM      3  HN  UNL d   1       4.761  -1.653  -2.856  1.00  0.00     0.167 HD
ATOM      4  S   UNL d   1       6.862  -1.457   0.010  0.00  0.00    -0.063 SA
ATOM      5  C   UNL d   1       6.841  -1.259  -2.526  0.00  0.00     0.052 A 
ATOM      6  C   UNL d   1       7.725  -1.148  -1.449  0.00  0.00     0.034 A 
ATOM      7  C   UNL d   1       7.327  -1.049  -3.832  0.00  0.00     0.054 A 
ATOM      8  C   UNL d   1       9.079  -0.825  -1.631  0.00  0.00     0.023 A 
ATOM      9  C   UNL d   1       8.674  -0.732  -4.018  0.00  0.00     0.036 A 
ATOM     10  C   UNL d   1       9.540  -0.619  -2.936  0.00  0.00     0.025 A 
ATOM     11 CL   UNL d   1       9.269  -0.476  -5.613  0.00  0.00    -0.084 Cl
ENDROOT
BRANCH   1  12
ATOM     12  S   UNL d   1       3.876  -1.981  -0.142  0.00  0.00    -0.004 SA
BRANCH  12  13
ATOM     13  C   UNL d   1       3.803  -3.734  -0.288  0.00  0.00     0.288 C 
ATOM     14  N   UNL d   1       2.532  -4.317  -0.163  0.00  0.00    -0.343 N 
ATOM     15  O   UNL d   1       4.826  -4.402  -0.425  0.00  0.00    -0.260 OA
BRANCH  14  16
ATOM     16  C   UNL d   1       1.261  -3.585  -0.076  0.00  0.00     0.122 C 
ATOM     17  C   UNL d   1       0.669  -3.238  -1.434  0.00  0.00     0.026 C 
ENDBRANCH  14  16
BRANCH  14  18
ATOM     18  C   UNL d   1       2.460  -5.780  -0.194  0.00  0.00     0.122 C 
ATOM     19  C   UNL d   1       2.378  -6.359  -1.597  0.00  0.00     0.026 C 
ENDBRANCH  14  18
ENDBRANCH  12  13
ENDBRANCH   1  12
TORSDOF 4
