REMARK  1 active torsions:
REMARK  status: ('A' for Active; 'I' for Inactive)
REMARK    1  A    between atoms: O_13  and  C_5 
ROOT
ATOM      1  N   UNL d   1      -0.177   0.634   0.001  0.00  0.00    -0.230 N 
ATOM      2  C   UNL d   1      -0.233  -0.741  -0.001  0.00  0.00     0.176 A 
ATOM      3  N   UNL d   1       0.939   1.424   0.004  0.00  0.00    -0.296 N 
ATOM      4  HN  UNL d   1       0.905   2.443   0.006  1.00  0.00     0.187 HD
ATOM      5  C   UNL d   1       0.994  -1.429  -0.001  0.00  0.00     0.115 A 
ATOM      6  N   UNL d   1      -1.487  -1.142  -0.003  0.00  0.00    -0.281 N 
ATOM      7  HN  UNL d   1      -1.813  -2.108  -0.004  1.00  0.00     0.188 HD
ATOM      8  N   UNL d   1      -2.279  -0.012  -0.002  0.00  0.00    -0.293 N 
ATOM      9  HN  UNL d   1      -3.299   0.008  -0.003  1.00  0.00     0.187 HD
ATOM     10  C   UNL d   1       2.142  -0.747   0.002  0.00  0.00     0.066 A 
ATOM     11  C   UNL d   1      -1.482   1.036  -0.000  0.00  0.00     0.225 A 
ATOM     12  C   UNL d   1       2.048   0.743   0.005  0.00  0.00     0.025 A 
ATOM     13  C   UNL d   1       3.349   1.508   0.011  0.00  0.00     0.070 C 
ENDROOT
BRANCH   5  14
ATOM     14  O   UNL d   1       0.950  -2.803  -0.003  0.00  0.00    -0.357 OA
ATOM     15  H   UNL d   1       0.004  -3.056  -0.004  0.00  0.00     0.218 HD
ENDBRANCH   5  14
TORSDOF 1
