REMARK  8 active torsions:
REMARK  status: ('A' for Active; 'I' for Inactive)
REMARK    1  A    between atoms: C_5  and  C_1 
REMARK    2  A    between atoms: C_8  and  C_2 
REMARK       I    between atoms: N_12  and  C_8 
REMARK    3  A    between atoms: C_19  and  N_12 
REMARK    4  A    between atoms: C_20  and  C_19 
REMARK    5  A    between atoms: C_24  and  C_20 
REMARK    6  A    between atoms: C_21  and  C_22 
REMARK    7  A    between atoms: C_22  and  C_23 
REMARK    8  A    between atoms: C_23  and  C_24 
ROOT
ATOM      1  C   UNL d   1      -1.131  -0.753   0.395  0.00  0.00     0.086 A 
ATOM      2  C   UNL d   1       0.038  -1.291  -0.251  0.00  0.00     0.092 A 
ATOM      3  N   UNL d   1      -1.058   0.587   0.417  0.00  0.00    -0.259 N 
ATOM      4  HN  UNL d   1      -1.732   1.225   0.842  1.00  0.00     0.195 HD
ATOM      5  O   UNL d   1       0.093   0.937  -0.241  0.00  0.00    -0.241 OA
ATOM      6  C   UNL d   1       0.769  -0.173  -0.614  0.00  0.00     0.090 A 
ATOM      7  C   UNL d   1       2.033   0.081  -1.333  0.00  0.00     0.080 C 
ENDROOT
BRANCH   2   8
ATOM      8  C   UNL d   1       0.373  -2.680  -0.485  0.00  0.00     0.256 C 
ATOM      9  O   UNL d   1      -0.466  -3.496  -0.841  0.00  0.00    -0.267 OA
ATOM     10  N   UNL d   1       1.683  -3.012  -0.185  0.00  0.00    -0.357 N 
ATOM     11  H   UNL d   1       2.262  -2.322   0.269  0.00  0.00     0.162 HD
BRANCH  10  12
ATOM     12  C   UNL d   1       2.108  -4.397  -0.121  0.00  0.00     0.123 C 
BRANCH  12  13
ATOM     13  C   UNL d   1       2.397  -4.960  -1.508  0.00  0.00     0.020 C 
BRANCH  13  14
ATOM     14  C   UNL d   1       2.832  -6.424  -1.442  0.00  0.00     0.002 C 
BRANCH  14  15
ATOM     15  C   UNL d   1       3.114  -6.971  -2.841  0.00  0.00     0.000 C 
BRANCH  15  16
ATOM     16  C   UNL d   1       3.542  -8.437  -2.794  0.00  0.00    -0.000 C 
BRANCH  16  17
ATOM     17  C   UNL d   1       3.827  -8.976  -4.196  0.00  0.00    -0.005 C 
ATOM     18  C   UNL d   1       4.258 -10.433  -4.153  0.00  0.00     0.005 C 
ENDBRANCH  16  17
ENDBRANCH  15  16
ENDBRANCH  14  15
ENDBRANCH  13  14
ENDBRANCH  12  13
ENDBRANCH  10  12
ENDBRANCH   2   8
BRANCH   1  19
ATOM     19  C   UNL d   1      -2.279  -1.450   1.011  0.00  0.00     0.037 A 
ATOM     20  C   UNL d   1      -2.103  -2.559   1.867  0.00  0.00     0.048 A 
ATOM     21 CL   UNL d   1      -0.561  -3.054   2.493  0.00  0.00    -0.083 Cl
ATOM     22  C   UNL d   1      -3.201  -3.278   2.368  0.00  0.00     0.025 A 
ATOM     23  C   UNL d   1      -4.498  -2.852   2.117  0.00  0.00     0.003 A 
ATOM     24  C   UNL d   1      -4.699  -1.708   1.356  0.00  0.00     0.025 A 
ATOM     25  C   UNL d   1      -3.610  -1.025   0.786  0.00  0.00     0.048 A 
ATOM     26 CL   UNL d   1      -4.036   0.342  -0.195  0.00  0.00    -0.083 Cl
ENDBRANCH   1  19
TORSDOF 8
