REMARK  5 active torsions:
REMARK  status: ('A' for Active; 'I' for Inactive)
REMARK    1  A    between atoms: C_2  and  C_1 
REMARK    2  A    between atoms: C_3  and  C_1 
REMARK    3  A    between atoms: N_4  and  C_1 
REMARK    4  A    between atoms: N_5  and  C_1 
REMARK       I    between atoms: C_6  and  N_4 
REMARK    5  A    between atoms: C_7  and  N_5 
ROOT
ATOM      1  C   UNL d   1       0.667  -0.227  -0.083  0.00  0.00     0.290 C 
ENDROOT
BRANCH   1   2
ATOM      2  C   UNL d   1      -0.128  -0.045  -1.435  0.00  0.00     0.435 C 
ATOM      3  F   UNL d   1      -1.159  -0.897  -1.598  0.00  0.00    -0.167 F 
ATOM      4  F   UNL d   1      -0.628   1.219  -1.554  0.00  0.00    -0.167 F 
ATOM      5  F   UNL d   1       0.668  -0.189  -2.527  0.00  0.00    -0.167 F 
ENDBRANCH   1   2
BRANCH   1   6
ATOM      6  C   UNL d   1       0.276  -1.612   0.560  0.00  0.00     0.435 C 
ATOM      7  F   UNL d   1      -0.044  -2.571  -0.334  0.00  0.00    -0.167 F 
ATOM      8  F   UNL d   1       1.336  -2.099   1.275  0.00  0.00    -0.167 F 
ATOM      9  F   UNL d   1      -0.732  -1.547   1.459  0.00  0.00    -0.167 F 
ENDBRANCH   1   6
BRANCH   1  10
ATOM     10  N   UNL d   1       0.428   0.920   0.846  0.00  0.00    -0.324 N 
ATOM     11  C   UNL d   1      -0.862   1.251   1.180  0.00  0.00     0.215 C 
ATOM     12  O   UNL d   1      -1.830   0.580   0.824  0.00  0.00    -0.274 OA
ATOM     13  C   UNL d   1      -1.015   2.512   1.980  0.00  0.00     0.117 C 
ATOM     14  H   UNL d   1       1.075   1.692   0.728  0.00  0.00     0.165 HD
ENDBRANCH   1  10
BRANCH   1  15
ATOM     15  N   UNL d   1       2.167  -0.054  -0.218  0.00  0.00    -0.251 NA
ATOM     16  H   UNL d   1       2.562   0.067   0.715  0.00  0.00     0.130 HD
BRANCH  15  17
ATOM     17  C   UNL d   1       2.997  -0.951  -0.909  0.00  0.00     0.013 A 
ATOM     18  C   UNL d   1       2.569  -2.010  -1.712  0.00  0.00     0.065 A 
ATOM     19  C   UNL d   1       3.487  -2.833  -2.368  0.00  0.00     0.118 A 
ATOM     20  F   UNL d   1       3.035  -3.856  -3.105  0.00  0.00    -0.206 F 
ATOM     21  C   UNL d   1       4.850  -2.612  -2.272  0.00  0.00     0.042 A 
ATOM     22  C   UNL d   1       5.304  -1.542  -1.513  0.00  0.00     0.005 A 
ATOM     23  C   UNL d   1       4.385  -0.720  -0.845  0.00  0.00     0.024 A 
ENDBRANCH  15  17
ENDBRANCH   1  15
TORSDOF 5
