REMARK  7 active torsions:
REMARK  status: ('A' for Active; 'I' for Inactive)
REMARK    1  A    between atoms: C_8  and  C_1 
REMARK    2  A    between atoms: C_11  and  C_7 
REMARK    3  A    between atoms: N_10  and  C_9 
REMARK       I    between atoms: C_12  and  N_10 
REMARK    4  A    between atoms: C_22  and  C_12 
REMARK    5  A    between atoms: C_23  and  C_22 
REMARK    6  A    between atoms: C_25  and  C_23 
REMARK    7  A    between atoms: C_24  and  C_25 
ROOT
ATOM      1  C   UNL d   1      -0.624  -2.364   0.084  0.00  0.00     0.043 A 
ATOM      2  C   UNL d   1      -1.581  -2.703  -0.896  0.00  0.00     0.049 A 
ATOM      3  C   UNL d   1      -0.159  -3.372   0.951  0.00  0.00     0.018 A 
ATOM      4  C   UNL d   1      -1.994  -4.040  -1.023  0.00  0.00     0.030 A 
ATOM      5  C   UNL d   1      -0.602  -4.691   0.831  0.00  0.00     0.001 A 
ATOM      6  C   UNL d   1      -1.507  -5.026  -0.166  0.00  0.00     0.002 A 
ENDROOT
BRANCH   1   7
ATOM      7  C   UNL d   1      -0.154  -0.991   0.251  0.00  0.00     0.177 A 
ATOM      8  O   UNL d   1       0.943  -0.791   1.048  0.00  0.00    -0.273 OA
ATOM      9  C   UNL d   1       1.110   0.567   0.965  0.00  0.00     0.174 A 
ATOM     10  N   UNL d   1       0.205   1.141   0.200  0.00  0.00    -0.277 N 
ATOM     11  N   UNL d   1      -0.604   0.131  -0.278  0.00  0.00    -0.277 N 
ATOM     12  HN  UNL d   1       0.120   2.138  -0.001  1.00  0.00     0.189 HD
ATOM     13  HN  UNL d   1      -1.394   0.232  -0.915  1.00  0.00     0.189 HD
BRANCH   9  14
ATOM     14  C   UNL d   1       2.230   1.145   1.696  0.00  0.00     0.017 A 
ATOM     15  C   UNL d   1       3.201   0.342   2.317  0.00  0.00     0.017 A 
ATOM     16  C   UNL d   1       4.281   0.920   2.991  0.00  0.00     0.025 A 
ATOM     17  C   UNL d   1       4.396   2.307   3.055  0.00  0.00     0.034 A 
ATOM     18  C   UNL d   1       3.443   3.119   2.451  0.00  0.00     0.025 A 
ATOM     19 CL   UNL d   1       5.730   3.016   3.878  0.00  0.00    -0.084 Cl
ATOM     20  C   UNL d   1       2.367   2.539   1.776  0.00  0.00     0.017 A 
ENDBRANCH   9  14
ENDBRANCH   1   7
BRANCH   2  21
ATOM     21  N   UNL d   1      -2.102  -1.717  -1.772  0.00  0.00    -0.326 N 
ATOM     22  C   UNL d   1      -3.385  -1.738  -2.287  0.00  0.00     0.222 C 
ATOM     23  O   UNL d   1      -4.270  -2.531  -1.975  0.00  0.00    -0.273 OA
ATOM     24  H   UNL d   1      -1.633  -0.813  -1.780  0.00  0.00     0.169 HD
BRANCH  22  25
ATOM     25  C   UNL d   1      -3.634  -0.679  -3.341  0.00  0.00     0.103 C 
BRANCH  25  26
ATOM     26  C   UNL d   1      -2.993  -1.060  -4.675  0.00  0.00     0.009 C 
BRANCH  26  27
ATOM     27  C   UNL d   1      -3.525  -2.389  -5.224  0.00  0.00     0.000 C 
BRANCH  27  28
ATOM     28  C   UNL d   1      -2.859  -2.755  -6.549  0.00  0.00    -0.005 C 
ATOM     29  C   UNL d   1      -3.358  -4.094  -7.068  0.00  0.00     0.005 C 
ENDBRANCH  27  28
ENDBRANCH  26  27
ENDBRANCH  25  26
ENDBRANCH  22  25
ENDBRANCH   2  21
TORSDOF 7
