REMARK  4 active torsions:
REMARK  status: ('A' for Active; 'I' for Inactive)
REMARK    1  A    between atoms: C_3  and  N_1 
REMARK    2  A    between atoms: C_2  and  C_4 
REMARK    3  A    between atoms: C_4  and  C_7 
REMARK    4  A    between atoms: N_11  and  C_6 
ROOT
ATOM      1  C   UNL d   1       0.410   0.506   1.030  0.00  0.00     0.103 A 
ATOM      2  C   UNL d   1       0.733   1.728   1.639  0.00  0.00     0.051 A 
ATOM      3  C   UNL d   1      -0.152   2.311   2.564  0.00  0.00     0.016 A 
ATOM      4  C   UNL d   1      -0.791  -0.145   1.331  0.00  0.00     0.036 A 
ATOM      5  C   UNL d   1      -1.346   1.640   2.871  0.00  0.00     0.015 A 
ATOM      6  C   UNL d   1      -1.665   0.424   2.254  0.00  0.00     0.003 A 
ENDROOT
BRANCH   3   7
ATOM      7  C   UNL d   1       0.245   3.625   3.167  0.00  0.00     0.183 C 
ATOM      8  O   UNL d   1       1.349   4.096   2.907  0.00  0.00    -0.288 OA
BRANCH   7   9
ATOM      9  C   UNL d   1      -0.712   4.345   4.054  0.00  0.00     0.072 C 
ATOM     10  C   UNL d   1      -0.391   5.533   4.585  0.00  0.00     0.088 C 
BRANCH  10  11
ATOM     11  N   UNL d   1      -1.140   6.363   5.412  0.00  0.00    -0.398 N 
ATOM     12  C   UNL d   1      -2.497   6.082   5.876  0.00  0.00     0.148 C 
ATOM     13  C   UNL d   1      -0.603   7.637   5.900  0.00  0.00     0.148 C 
ENDBRANCH  10  11
ENDBRANCH   7   9
ENDBRANCH   3   7
BRANCH   1  14
ATOM     14  N   UNL d   1       1.338  -0.102   0.068  0.00  0.00    -0.116 N 
ATOM     15  O   UNL d   1       2.414   0.475  -0.141  0.00  0.00    -0.532 OA
ATOM     16  O   UNL d   1       0.991  -1.159  -0.477  0.00  0.00    -0.532 OA
ENDBRANCH   1  14
TORSDOF 4
