REMARK  0 active torsions:
REMARK  status: ('A' for Active; 'I' for Inactive)
ROOT
ATOM      1  C   UNL d   1       0.982  -0.682   0.010  0.00  0.00    -0.007 A 
ATOM      2  N   UNL d   1       2.745   0.682  -0.036  0.00  0.00    -0.365 N 
ATOM      3  C   UNL d   1       1.369   0.659  -0.007  0.00  0.00     0.042 A 
ATOM      4  C   UNL d   1       3.241  -0.595  -0.036  0.00  0.00     0.089 A 
ATOM      5  C   UNL d   1       2.172  -1.461  -0.002  0.00  0.00     0.030 A 
ATOM      6  C   UNL d   1      -0.391  -0.994   0.030  0.00  0.00     0.037 A 
ATOM      7  C   UNL d   1       0.448   1.713   0.001  0.00  0.00     0.032 A 
ATOM      8  C   UNL d   1      -1.321   0.050   0.030  0.00  0.00     0.035 A 
ATOM      9  C   UNL d   1      -0.911   1.382   0.018  0.00  0.00     0.026 A 
ATOM     10 CL   UNL d   1      -3.004  -0.318   0.038  0.00  0.00    -0.084 Cl
ATOM     11  H   UNL d   1       3.305   1.524  -0.058  0.00  0.00     0.165 HD
ENDROOT
TORSDOF 0
