REMARK  5 active torsions:
REMARK  status: ('A' for Active; 'I' for Inactive)
REMARK    1  A    between atoms: C_6  and  C_1 
REMARK    2  A    between atoms: C_5  and  C_13 
REMARK       I    between atoms: N_7  and  C_5 
REMARK    3  A    between atoms: C_12  and  N_7 
REMARK    4  A    between atoms: O_11  and  C_14 
REMARK    5  A    between atoms: C_13  and  O_11 
ROOT
ATOM      1  O   UNL d   1      -0.194  -6.648   1.316  0.00  0.00    -0.342 OA
ENDROOT
BRANCH   1   2
ATOM      2  C   UNL d   1      -0.094  -5.301   1.064  0.00  0.00     0.069 A 
ATOM      3  C   UNL d   1      -0.866  -4.832  -0.001  0.00  0.00     0.037 A 
ATOM      4  C   UNL d   1      -0.876  -3.471  -0.331  0.00  0.00     0.017 A 
ATOM      5  C   UNL d   1      -0.138  -2.553   0.425  0.00  0.00    -0.003 A 
ATOM      6  C   UNL d   1       0.648  -3.021   1.481  0.00  0.00     0.017 A 
ATOM      7  C   UNL d   1       0.670  -4.387   1.797  0.00  0.00     0.037 A 
BRANCH   5   8
ATOM      8  C   UNL d   1      -0.242  -1.115   0.090  0.00  0.00     0.076 C 
ATOM      9  N   UNL d   1      -0.549  -0.681  -1.093  0.00  0.00    -0.383 N 
ATOM     10  C   UNL d   1      -0.573   0.796  -1.082  0.00  0.00     0.131 C 
ATOM     11  HN  UNL d   1      -0.742  -1.269  -1.904  1.00  0.00     0.160 HD
ATOM     12  C   UNL d   1      -0.917   1.289   0.313  0.00  0.00     0.100 C 
ATOM     13  S   UNL d   1      -0.058   0.091   1.349  0.00  0.00    -0.110 SA
ENDBRANCH   5   8
ENDBRANCH   1   2
BRANCH   1  14
ATOM     14  C   UNL d   1       0.895  -7.201   2.043  0.00  0.00     0.278 C 
BRANCH  14  15
ATOM     15  C   UNL d   1       0.784  -8.690   2.385  0.00  0.00     0.246 C 
ATOM     16  N   UNL d   1      -0.395  -9.297   2.000  0.00  0.00    -0.325 N 
ATOM     17  H   UNL d   1      -1.006  -8.745   1.404  0.00  0.00     0.169 HD
ATOM     18  O   UNL d   1       1.721  -9.236   2.964  0.00  0.00    -0.271 OA
BRANCH  16  19
ATOM     19  C   UNL d   1      -0.752 -10.644   2.241  0.00  0.00     0.034 A 
ATOM     20  C   UNL d   1      -0.075 -11.466   3.151  0.00  0.00     0.031 A 
ATOM     21  C   UNL d   1      -0.430 -12.809   3.312  0.00  0.00     0.026 A 
ATOM     22  C   UNL d   1      -1.475 -13.340   2.565  0.00  0.00     0.034 A 
ATOM     23  C   UNL d   1      -2.185 -12.529   1.683  0.00  0.00     0.026 A 
ATOM     24 CL   UNL d   1      -1.883 -15.003   2.728  0.00  0.00    -0.084 Cl
ATOM     25  C   UNL d   1      -1.833 -11.181   1.531  0.00  0.00     0.031 A 
ENDBRANCH  16  19
ENDBRANCH  14  15
ENDBRANCH   1  14
TORSDOF 5
