REMARK  4 active torsions:
REMARK  status: ('A' for Active; 'I' for Inactive)
REMARK       I    between atoms: N_2  and  C_1 
REMARK       I    between atoms: N_3  and  C_1 
REMARK    1  A    between atoms: C_10  and  N_3 
REMARK    2  A    between atoms: C_9  and  N_4 
REMARK    3  A    between atoms: C_6  and  C_7 
REMARK    4  A    between atoms: C_15  and  C_9 
ROOT
ATOM      1  C   UNL d   1       0.900  -0.179  -0.125  0.00  0.00     0.322 C 
ATOM      2  N   UNL d   1       0.369   1.106   0.055  0.00  0.00    -0.332 N 
ATOM      3  N   UNL d   1       1.665  -0.343  -1.259  0.00  0.00    -0.309 N 
ATOM      4  N   UNL d   1      -1.677   3.450   0.607  0.00  0.00     0.094 N 
ATOM      5  O   UNL d   1       0.675  -1.075   0.690  0.00  0.00    -0.247 OA
ATOM      6  C   UNL d   1      -0.395   1.315   1.297  0.00  0.00     0.157 C 
ATOM      7  C   UNL d   1      -1.714   2.090   1.156  0.00  0.00     0.292 C 
ATOM      8  C   UNL d   1      -0.059   3.126  -1.397  0.00  0.00     0.050 C 
ATOM      9  C   UNL d   1       0.922   2.307  -0.564  0.00  0.00     0.129 C 
ATOM     10  C   UNL d   1      -1.456   3.427  -0.838  0.00  0.00     0.274 C 
ATOM     11  H   UNL d   1       1.538   0.343  -1.983  0.00  0.00     0.170 HD
ENDROOT
BRANCH   3  12
ATOM     12  C   UNL d   1       2.377  -1.502  -1.641  0.00  0.00     0.036 A 
ATOM     13  C   UNL d   1       2.513  -2.633  -0.841  0.00  0.00     0.030 A 
ATOM     14  C   UNL d   1       3.134  -3.785  -1.335  0.00  0.00     0.010 A 
ATOM     15  C   UNL d   1       3.661  -3.840  -2.637  0.00  0.00    -0.051 A 
ATOM     16  C   UNL d   1       3.595  -2.664  -3.400  0.00  0.00     0.010 A 
ATOM     17  C   UNL d   1       2.961  -1.514  -2.909  0.00  0.00     0.030 A 
BRANCH  15  18
ATOM     18  C   UNL d   1       4.232  -5.161  -3.175  0.00  0.00    -0.024 C 
ATOM     19  C   UNL d   1       4.764  -5.063  -4.622  0.00  0.00     0.019 C 
ATOM     20  C   UNL d   1       5.397  -5.639  -2.285  0.00  0.00     0.019 C 
ATOM     21  C   UNL d   1       3.117  -6.232  -3.171  0.00  0.00     0.019 C 
ENDBRANCH  15  18
ENDBRANCH   3  12
BRANCH   4  22
ATOM     22  C   UNL d   1      -0.839   4.415   1.318  0.00  0.00     0.311 C 
BRANCH  22  23
ATOM     23  C   UNL d   1      -1.189   4.639   2.775  0.00  0.00    -0.030 A 
ATOM     24  C   UNL d   1      -0.278   4.282   3.786  0.00  0.00     0.012 A 
ATOM     25  C   UNL d   1      -0.546   4.585   5.121  0.00  0.00     0.043 A 
ATOM     26  C   UNL d   1      -1.724   5.243   5.448  0.00  0.00     0.116 A 
ATOM     27  C   UNL d   1      -2.651   5.582   4.468  0.00  0.00     0.043 A 
ATOM     28  F   UNL d   1      -1.965   5.566   6.726  0.00  0.00    -0.206 F 
ATOM     29  C   UNL d   1      -2.387   5.274   3.132  0.00  0.00     0.012 A 
ENDBRANCH  22  23
ENDBRANCH   4  22
TORSDOF 4
