REMARK  3 active torsions:
REMARK  status: ('A' for Active; 'I' for Inactive)
REMARK       I    between atoms: N_2  and  C_1 
REMARK    1  A    between atoms: C_3  and  C_1 
REMARK       I    between atoms: C_4  and  N_2 
REMARK       I    between atoms: N_8  and  C_4 
REMARK    2  A    between atoms: C_5  and  N_9 
REMARK    3  A    between atoms: N_9  and  N_8 
ROOT
ATOM      1  C   UNL d   1       0.935   0.586  -4.696  0.00  0.00     0.264 C 
ATOM      2  N   UNL d   1       0.433   0.750  -3.409  0.00  0.00    -0.274 N 
ATOM      3  C   UNL d   1       1.115   0.733  -2.213  0.00  0.00     0.341 C 
ATOM      4  N   UNL d   1       2.476   0.486  -2.304  0.00  0.00    -0.248 N 
ATOM      5  O   UNL d   1       2.104   0.267  -4.887  0.00  0.00    -0.267 OA
ATOM      6  O   UNL d   1       0.503   0.943  -1.169  0.00  0.00    -0.245 OA
ATOM      7  H   UNL d   1      -0.554   0.930  -3.279  0.00  0.00     0.173 HD
ATOM      8  H   UNL d   1       2.926   0.614  -3.214  0.00  0.00     0.192 HD
ENDROOT
BRANCH   4   9
ATOM      9  N   UNL d   1       3.289   0.557  -1.168  0.00  0.00    -0.276 N 
ATOM     10  C   UNL d   1       3.610   1.890  -0.676  0.00  0.00     0.179 C 
BRANCH   9  11
ATOM     11  C   UNL d   1       4.285  -0.422  -0.989  0.00  0.00     0.136 A 
ATOM     12  N   UNL d   1       5.060  -0.363   0.120  0.00  0.00    -0.284 N 
ATOM     13  N   UNL d   1       5.937  -1.369   0.456  0.00  0.00    -0.304 N 
ATOM     14  HN  UNL d   1       4.991   0.454   0.727  1.00  0.00     0.188 HD
ATOM     15  C   UNL d   1       6.050  -2.447  -0.336  0.00  0.00     0.022 A 
ATOM     16  HN  UNL d   1       6.500  -1.295   1.304  1.00  0.00     0.186 HD
ATOM     17  C   UNL d   1       5.372  -2.510  -1.540  0.00  0.00     0.030 A 
ATOM     18  C   UNL d   1       6.881  -3.573   0.183  0.00  0.00     0.069 C 
ATOM     19  C   UNL d   1       4.467  -1.492  -1.859  0.00  0.00     0.053 A 
ENDBRANCH   9  11
ENDBRANCH   4   9
BRANCH   1  20
ATOM     20  C   UNL d   1      -0.005   0.795  -5.848  0.00  0.00     0.092 A 
ATOM     21  C   UNL d   1      -1.392   0.775  -5.643  0.00  0.00     0.133 A 
ATOM     22  F   UNL d   1      -1.900   0.607  -4.412  0.00  0.00    -0.205 F 
ATOM     23  C   UNL d   1      -2.301   0.926  -6.692  0.00  0.00     0.043 A 
ATOM     24  C   UNL d   1      -1.839   1.097  -7.990  0.00  0.00     0.005 A 
ATOM     25  C   UNL d   1      -0.466   1.136  -8.224  0.00  0.00     0.025 A 
ATOM     26  C   UNL d   1       0.449   0.994  -7.166  0.00  0.00     0.052 A 
ATOM     27 CL   UNL d   1       2.116   1.134  -7.612  0.00  0.00    -0.083 Cl
ENDBRANCH   1  20
TORSDOF 3
