REMARK  7 active torsions:
REMARK  status: ('A' for Active; 'I' for Inactive)
REMARK    1  A    between atoms: C_4  and  C_1 
REMARK       I    between atoms: N_9  and  C_1 
REMARK       I    between atoms: C_2  and  N_3 
REMARK    2  A    between atoms: N_3  and  C_5 
REMARK    3  A    between atoms: C_20  and  N_9 
REMARK    4  A    between atoms: C_13  and  O_18 
REMARK    5  A    between atoms: C_17  and  C_20 
REMARK    6  A    between atoms: C_23  and  C_17 
REMARK    7  A    between atoms: O_18  and  C_23 
ROOT
ATOM      1  C   UNL d   1       4.626  -0.814   0.324  0.00  0.00     0.046 C 
ENDROOT
BRANCH   1   2
ATOM      2  C   UNL d   1       3.126  -1.119   0.377  0.00  0.00     0.125 C 
BRANCH   2   3
ATOM      3  N   UNL d   1       2.666  -1.561   1.683  0.00  0.00    -0.357 N 
ATOM      4  C   UNL d   1       2.176  -0.695   2.637  0.00  0.00     0.251 C 
ATOM      5  O   UNL d   1       2.114   0.522   2.481  0.00  0.00    -0.268 OA
ATOM      6  H   UNL d   1       2.862  -2.515   1.956  0.00  0.00     0.162 HD
BRANCH   4   7
ATOM      7  C   UNL d   1       1.726  -1.315   3.919  0.00  0.00     0.032 A 
ATOM      8  C   UNL d   1       1.251  -2.635   3.974  0.00  0.00     0.020 A 
ATOM      9  C   UNL d   1       0.838  -3.181   5.192  0.00  0.00     0.043 A 
ATOM     10  C   UNL d   1       0.889  -2.407   6.346  0.00  0.00     0.116 A 
ATOM     11  C   UNL d   1       1.336  -1.092   6.306  0.00  0.00     0.043 A 
ATOM     12  F   UNL d   1       0.491  -2.936   7.510  0.00  0.00    -0.206 F 
ATOM     13  C   UNL d   1       1.752  -0.541   5.090  0.00  0.00     0.020 A 
ENDBRANCH   4   7
ENDBRANCH   2   3
ENDBRANCH   1   2
BRANCH   1  14
ATOM     14  C   UNL d   1       5.431  -2.028   0.766  0.00  0.00     0.177 C 
BRANCH  14  15
ATOM     15  O   UNL d   1       6.839  -1.829   0.601  0.00  0.00    -0.351 OA
BRANCH  15  16
ATOM     16  C   UNL d   1       7.605  -2.865   1.087  0.00  0.00     0.070 A 
ATOM     17  C   UNL d   1       7.186  -3.750   2.086  0.00  0.00     0.066 A 
ATOM     18  C   UNL d   1       7.999  -4.781   2.550  0.00  0.00     0.037 A 
ATOM     19  C   UNL d   1       9.271  -4.928   1.990  0.00  0.00     0.029 A 
ATOM     20  C   UNL d   1       9.714  -4.039   1.002  0.00  0.00     0.005 A 
ATOM     21  C   UNL d   1       8.886  -3.002   0.560  0.00  0.00     0.037 A 
BRANCH  18  22
ATOM     22  N   UNL d   1       7.595  -5.667   3.577  0.00  0.00    -0.327 N 
ATOM     23  C   UNL d   1       6.373  -5.674   4.236  0.00  0.00     0.218 C 
ATOM     24  O   UNL d   1       5.402  -4.957   4.010  0.00  0.00    -0.274 OA
ATOM     25  C   UNL d   1       6.287  -6.703   5.334  0.00  0.00     0.117 C 
ATOM     26  H   UNL d   1       8.279  -6.356   3.858  0.00  0.00     0.169 HD
ENDBRANCH  18  22
ENDBRANCH  15  16
ENDBRANCH  14  15
ENDBRANCH   1  14
TORSDOF 7
