REMARK  3 active torsions:
REMARK  status: ('A' for Active; 'I' for Inactive)
REMARK    1  A    between atoms: C_2  and  C_1 
REMARK       I    between atoms: C_3  and  N_4 
REMARK       I    between atoms: N_7  and  C_3 
REMARK    2  A    between atoms: N_4  and  C_8 
REMARK    3  A    between atoms: C_16  and  N_7 
ROOT
ATOM      1  C   UNL d   1       5.052  -1.134   0.358  0.00  0.00     0.325 C 
ATOM      2  N   UNL d   1       4.207  -0.077   0.438  0.00  0.00    -0.309 N 
ATOM      3  N   UNL d   1       4.569  -2.395   0.545  0.00  0.00    -0.309 N 
ATOM      4  O   UNL d   1       6.234  -0.839   0.163  0.00  0.00    -0.247 OA
ATOM      5  H   UNL d   1       4.782   0.758   0.439  0.00  0.00     0.170 HD
ATOM      6  H   UNL d   1       3.606  -2.476   0.820  0.00  0.00     0.170 HD
ENDROOT
BRANCH   2   7
ATOM      7  C   UNL d   1       2.828   0.165   0.412  0.00  0.00     0.037 A 
ATOM      8  C   UNL d   1       1.827  -0.737   0.049  0.00  0.00     0.047 A 
ATOM      9  C   UNL d   1       0.463  -0.330  -0.052  0.00  0.00     0.067 A 
ATOM     10  C   UNL d   1       0.128   0.993   0.267  0.00  0.00     0.026 A 
ATOM     11  C   UNL d   1       1.127   1.893   0.640  0.00  0.00     0.022 A 
ATOM     12 BR   UNL d   1      -1.632   1.702   0.211  0.00  0.00    -0.050 Br
ATOM     13  C   UNL d   1       2.457   1.485   0.698  0.00  0.00     0.031 A 
BRANCH   9  14
ATOM     14  C   UNL d   1      -0.530  -1.366  -0.529  0.00  0.00     0.418 C 
ATOM     15  F   UNL d   1      -1.777  -0.925  -0.830  0.00  0.00    -0.166 F 
ATOM     16  F   UNL d   1      -0.092  -1.988  -1.665  0.00  0.00    -0.166 F 
ATOM     17  F   UNL d   1      -0.698  -2.364   0.384  0.00  0.00    -0.166 F 
ENDBRANCH   9  14
ENDBRANCH   2   7
BRANCH   3  18
ATOM     18  C   UNL d   1       5.317  -3.596   0.501  0.00  0.00     0.036 A 
ATOM     19  C   UNL d   1       6.709  -3.650   0.352  0.00  0.00     0.029 A 
ATOM     20  C   UNL d   1       7.378  -4.876   0.277  0.00  0.00     0.002 A 
ATOM     21  C   UNL d   1       6.664  -6.066   0.350  0.00  0.00     0.000 A 
ATOM     22  C   UNL d   1       5.282  -6.028   0.519  0.00  0.00     0.002 A 
ATOM     23  C   UNL d   1       4.614  -4.800   0.605  0.00  0.00     0.029 A 
ENDBRANCH   3  18
TORSDOF 3
