REMARK  4 active torsions:
REMARK  status: ('A' for Active; 'I' for Inactive)
REMARK    1  A    between atoms: N_4  and  C_1 
REMARK    2  A    between atoms: N_7  and  C_2 
REMARK    3  A    between atoms: C_8  and  C_6 
REMARK    4  A    between atoms: C_12  and  N_7 
ROOT
ATOM      1  C   UNL d   1      -1.911   1.616  -1.313  0.00  0.00     0.137 A 
ATOM      2  C   UNL d   1      -0.859   2.528  -1.273  0.00  0.00     0.104 A 
ATOM      3  C   UNL d   1      -2.892   1.956  -2.308  0.00  0.00     0.061 A 
ATOM      4  S   UNL d   1      -1.110   3.753  -2.462  0.00  0.00    -0.067 SA
ATOM      5  C   UNL d   1      -2.547   3.067  -3.050  0.00  0.00     0.054 A 
ENDROOT
BRANCH   2   6
ATOM      6  N   UNL d   1       0.263   2.518  -0.478  0.00  0.00    -0.378 N 
ATOM      7  H   UNL d   1       0.370   1.712   0.147  0.00  0.00     0.160 HD
BRANCH   6   8
ATOM      8  C   UNL d   1       0.793   3.771   0.090  0.00  0.00     0.082 C 
ATOM      9  C   UNL d   1       2.004   4.277  -0.711  0.00  0.00     0.025 C 
ATOM     10  C   UNL d   1       3.346   3.645  -0.347  0.00  0.00     0.002 C 
ATOM     11  C   UNL d   1       3.578   3.555   1.155  0.00  0.00     0.000 C 
ATOM     12  C   UNL d   1       2.417   2.862   1.851  0.00  0.00     0.002 C 
ATOM     13  C   UNL d   1       1.105   3.592   1.584  0.00  0.00     0.025 C 
ENDBRANCH   6   8
ENDBRANCH   2   6
BRANCH   1  14
ATOM     14  N   UNL d   1      -2.030   0.462  -0.446  0.00  0.00    -0.113 N 
ATOM     15  O   UNL d   1      -1.063   0.168   0.267  0.00  0.00    -0.532 OA
ATOM     16  O   UNL d   1      -3.108  -0.151  -0.484  0.00  0.00    -0.532 OA
ENDBRANCH   1  14
BRANCH   5  17
ATOM     17  C   UNL d   1      -3.293   3.618  -4.179  0.00  0.00     0.162 C 
ATOM     18  O   UNL d   1      -4.413   3.195  -4.468  0.00  0.00    -0.292 OA
ATOM     19  C   UNL d   1      -2.691   4.705  -5.042  0.00  0.00     0.097 C 
ENDBRANCH   5  17
TORSDOF 4
