REMARK  5 active torsions:
REMARK  status: ('A' for Active; 'I' for Inactive)
REMARK    1  A    between atoms: C_2  and  S_1 
REMARK    2  A    between atoms: N_6  and  S_1 
REMARK    3  A    between atoms: C_5  and  N_6 
REMARK    4  A    between atoms: C_7  and  C_13 
REMARK    5  A    between atoms: N_12  and  C_9 
ROOT
ATOM      1  C   UNL d   1       0.774   2.461   0.890  0.00  0.00     0.050 A 
ATOM      2  C   UNL d   1       2.124   2.379   1.320  0.00  0.00     0.052 A 
ATOM      3  C   UNL d   1       0.419   4.591   2.041  0.00  0.00     0.049 A 
ATOM      4  C   UNL d   1      -0.055   3.545   1.246  0.00  0.00     0.043 A 
ATOM      5  C   UNL d   1       2.550   3.437   2.155  0.00  0.00     0.032 A 
ATOM      6  C   UNL d   1       1.734   4.523   2.497  0.00  0.00     0.018 A 
ENDROOT
BRANCH   1   7
ATOM      7  N   UNL d   1       0.174   1.437   0.089  0.00  0.00    -0.178 NA
ATOM      8  H   UNL d   1      -0.681   1.054   0.485  0.00  0.00     0.146 HD
BRANCH   7   9
ATOM      9  S   UNL d   1      -0.093   1.818  -1.537  0.00  0.00     0.263 S 
ATOM     10  O   UNL d   1      -1.328   2.573  -1.618  0.00  0.00    -0.204 OA
ATOM     11  O   UNL d   1       1.129   2.265  -2.169  0.00  0.00    -0.204 OA
BRANCH   9  12
ATOM     12  C   UNL d   1      -0.473   0.312  -2.331  0.00  0.00     0.161 A 
ATOM     13  N   UNL d   1      -0.417  -0.915  -1.682  0.00  0.00    -0.341 N 
ATOM     14  C   UNL d   1      -0.809  -1.791  -2.581  0.00  0.00     0.183 A 
ATOM     15  HN  UNL d   1      -0.134  -1.097  -0.719  1.00  0.00     0.167 HD
ATOM     16  N   UNL d   1      -1.135  -1.185  -3.762  0.00  0.00    -0.354 N 
ATOM     17  C   UNL d   1      -0.908   0.153  -3.631  0.00  0.00     0.134 A 
ATOM     18  C   UNL d   1      -1.667  -1.857  -4.921  0.00  0.00     0.156 C 
ENDBRANCH   9  12
ENDBRANCH   7   9
ENDBRANCH   1   7
BRANCH   2  19
ATOM     19  N   UNL d   1       3.017   1.318   1.080  0.00  0.00    -0.375 N 
ATOM     20  C   UNL d   1       4.421   1.676   0.751  0.00  0.00     0.149 C 
ATOM     21  C   UNL d   1       5.327   0.476   1.063  0.00  0.00     0.187 C 
ATOM     22  O   UNL d   1       4.967  -0.653   0.256  0.00  0.00    -0.388 OA
ATOM     23  C   UNL d   1       3.613  -1.039   0.534  0.00  0.00     0.187 C 
ATOM     24  C   UNL d   1       2.602   0.107   0.330  0.00  0.00     0.149 C 
ENDBRANCH   2  19
BRANCH   3  25
ATOM     25  C   UNL d   1      -0.455   5.758   2.420  0.00  0.00     0.417 C 
ATOM     26  F   UNL d   1      -1.718   5.682   1.917  0.00  0.00    -0.166 F 
ATOM     27  F   UNL d   1      -0.600   5.878   3.769  0.00  0.00    -0.166 F 
ATOM     28  F   UNL d   1       0.049   6.948   1.992  0.00  0.00    -0.166 F 
ENDBRANCH   3  25
TORSDOF 5
