REMARK  7 active torsions:
REMARK  status: ('A' for Active; 'I' for Inactive)
REMARK    1  A    between atoms: O_4  and  S_1 
REMARK    2  A    between atoms: C_8  and  S_1 
REMARK    3  A    between atoms: S_2  and  C_3 
REMARK    4  A    between atoms: C_13  and  S_2 
REMARK    5  A    between atoms: C_3  and  C_7 
REMARK    6  A    between atoms: N_5  and  O_4 
REMARK    7  A    between atoms: N_16  and  C_7 
ROOT
ATOM      1  N   UNL d   1       0.728  -2.585   0.070  0.00  0.00    -0.236 N 
ATOM      2  HN  UNL d   1       0.589  -1.680   0.520  1.00  0.00     0.197 HD
ATOM      3  C   UNL d   1       0.275  -3.703   0.549  0.00  0.00     0.110 C 
ENDROOT
BRANCH   1   4
ATOM      4  O   UNL d   1       1.437  -2.759  -1.145  0.00  0.00    -0.146 OA
BRANCH   4   5
ATOM      5  S   UNL d   1       1.466  -1.387  -2.060  0.00  0.00     0.318 S 
ATOM      6  O   UNL d   1       2.206  -0.348  -1.357  0.00  0.00    -0.191 OA
ATOM      7  O   UNL d   1       0.127  -1.137  -2.562  0.00  0.00    -0.191 OA
BRANCH   5   8
ATOM      8  C   UNL d   1       2.470  -1.804  -3.476  0.00  0.00     0.088 A 
ATOM      9  C   UNL d   1       1.921  -1.739  -4.766  0.00  0.00     0.027 A 
ATOM     10  C   UNL d   1       2.739  -1.964  -5.877  0.00  0.00     0.025 A 
ATOM     11  C   UNL d   1       4.093  -2.247  -5.696  0.00  0.00     0.034 A 
ATOM     12  C   UNL d   1       4.639  -2.312  -4.412  0.00  0.00     0.025 A 
ATOM     13 CL   UNL d   1       5.103  -2.500  -7.066  0.00  0.00    -0.084 Cl
ATOM     14  C   UNL d   1       3.828  -2.087  -3.295  0.00  0.00     0.027 A 
ENDBRANCH   5   8
ENDBRANCH   4   5
ENDBRANCH   1   4
BRANCH   3  15
ATOM     15  C   UNL d   1      -0.554  -3.597   1.813  0.00  0.00     0.218 C 
BRANCH  15  16
ATOM     16  S   UNL d   1      -2.221  -4.148   1.521  0.00  0.00     0.154 S 
ATOM     17  O   UNL d   1      -2.814  -3.336   0.476  0.00  0.00    -0.227 OA
ATOM     18  O   UNL d   1      -2.160  -5.596   1.386  0.00  0.00    -0.227 OA
BRANCH  16  19
ATOM     19  C   UNL d   1      -3.116  -3.803   3.054  0.00  0.00     0.101 C 
ATOM     20  C   UNL d   1      -3.112  -2.321   3.415  0.00  0.00     0.026 C 
ATOM     21  C   UNL d   1      -4.557  -4.301   2.928  0.00  0.00     0.026 C 
ENDBRANCH  16  19
ENDBRANCH  15  16
ENDBRANCH   3  15
BRANCH   3  22
ATOM     22  N   UNL d   1       0.542  -4.936   0.025  0.00  0.00    -0.387 N 
ATOM     23  H   UNL d   1       0.219  -5.792   0.467  0.00  0.00     0.157 HD
ATOM     24  H   UNL d   1       1.200  -5.021  -0.738  0.00  0.00     0.157 HD
ENDBRANCH   3  22
TORSDOF 7
