REMARK  7 active torsions:
REMARK  status: ('A' for Active; 'I' for Inactive)
REMARK    1  A    between atoms: C_12  and  S_1 
REMARK    2  A    between atoms: C_15  and  S_1 
REMARK    3  A    between atoms: C_3  and  S_19 
REMARK    4  A    between atoms: S_20  and  C_4 
REMARK    5  A    between atoms: C_9  and  C_12 
REMARK    6  A    between atoms: C_21  and  C_13 
REMARK    7  A    between atoms: S_19  and  C_21 
ROOT
ATOM      1  C   UNL d   1       0.875   2.011   1.829  0.00  0.00     0.065 A 
ATOM      2  N   UNL d   1       1.391   1.174   2.705  0.00  0.00    -0.355 N 
ATOM      3  HN  UNL d   1       1.532   0.177   2.543  1.00  0.00     0.166 HD
ATOM      4  C   UNL d   1       1.716   1.837   3.882  0.00  0.00     0.026 A 
ATOM      5  S   UNL d   1       0.854   3.657   2.324  0.00  0.00    -0.086 SA
ATOM      6  C   UNL d   1       1.507   3.204   3.840  0.00  0.00     0.077 A 
ENDROOT
BRANCH   1   7
ATOM      7  C   UNL d   1       0.424   1.617   0.468  0.00  0.00     0.210 C 
BRANCH   7   8
ATOM      8  S   UNL d   1      -1.319   1.250   0.555  0.00  0.00     0.181 S 
ATOM      9  O   UNL d   1      -2.045   2.482   0.802  0.00  0.00    -0.222 OA
ATOM     10  O   UNL d   1      -1.546   0.070   1.368  0.00  0.00    -0.222 OA
BRANCH   8  11
ATOM     11  C   UNL d   1      -1.717   0.758  -1.117  0.00  0.00     0.059 A 
ATOM     12  C   UNL d   1      -1.123  -0.392  -1.652  0.00  0.00     0.025 A 
ATOM     13  C   UNL d   1      -1.451  -0.793  -2.949  0.00  0.00     0.025 A 
ATOM     14  C   UNL d   1      -2.374  -0.057  -3.693  0.00  0.00     0.034 A 
ATOM     15  C   UNL d   1      -2.974   1.081  -3.153  0.00  0.00     0.025 A 
ATOM     16 CL   UNL d   1      -2.786  -0.565  -5.284  0.00  0.00    -0.084 Cl
ATOM     17  C   UNL d   1      -2.646   1.494  -1.860  0.00  0.00     0.025 A 
ENDBRANCH   8  11
ENDBRANCH   7   8
ENDBRANCH   1   7
BRANCH   4  18
ATOM     18  C   UNL d   1       2.268   1.036   5.019  0.00  0.00     0.139 C 
BRANCH  18  19
ATOM     19  S   UNL d   1       1.334   1.198   6.561  0.00  0.00    -0.097 SA
BRANCH  19  20
ATOM     20  C   UNL d   1      -0.277   0.676   6.117  0.00  0.00     0.129 A 
ATOM     21  S   UNL d   1      -0.665  -0.622   5.067  0.00  0.00    -0.038 SA
ATOM     22  C   UNL d   1      -2.315  -0.277   5.372  0.00  0.00     0.128 A 
ATOM     23  N   UNL d   1      -2.513   0.703   6.228  0.00  0.00    -0.287 N 
ATOM     24  N   UNL d   1      -1.325   1.254   6.666  0.00  0.00    -0.287 N 
ATOM     25  HN  UNL d   1      -3.435   1.018   6.531  1.00  0.00     0.188 HD
ATOM     26  HN  UNL d   1      -1.266   2.019   7.338  1.00  0.00     0.188 HD
BRANCH  22  27
ATOM     27  S   UNL d   1      -3.624  -1.175   4.639  0.00  0.00    -0.108 SA
ATOM     28  C   UNL d   1      -5.051  -0.344   5.372  0.00  0.00     0.097 C 
ENDBRANCH  22  27
ENDBRANCH  19  20
ENDBRANCH  18  19
ENDBRANCH   4  18
TORSDOF 7
