REMARK  3 active torsions:
REMARK  status: ('A' for Active; 'I' for Inactive)
REMARK       I    between atoms: N_2  and  C_1 
REMARK       I    between atoms: N_3  and  C_1 
REMARK    1  A    between atoms: C_10  and  N_3 
REMARK    2  A    between atoms: C_4  and  C_6 
REMARK    3  A    between atoms: C_6  and  N_5 
ROOT
ATOM      1  C   UNL d   1       0.718   0.075   0.478  0.00  0.00     0.322 C 
ATOM      2  N   UNL d   1       0.282  -0.879  -0.443  0.00  0.00    -0.332 N 
ATOM      3  N   UNL d   1       1.663  -0.357   1.382  0.00  0.00    -0.309 N 
ATOM      4  N   UNL d   1      -2.189  -2.574  -1.333  0.00  0.00     0.094 N 
ATOM      5  O   UNL d   1       0.278   1.223   0.447  0.00  0.00    -0.247 OA
ATOM      6  C   UNL d   1      -0.719  -0.460  -1.435  0.00  0.00     0.157 C 
ATOM      7  C   UNL d   1      -2.100  -1.109  -1.253  0.00  0.00     0.292 C 
ATOM      8  C   UNL d   1      -0.098  -3.326   0.012  0.00  0.00     0.050 C 
ATOM      9  C   UNL d   1       0.780  -2.240  -0.607  0.00  0.00     0.129 C 
ATOM     10  C   UNL d   1      -1.620  -3.225  -0.155  0.00  0.00     0.274 C 
ATOM     11  H   UNL d   1       1.897  -1.333   1.370  0.00  0.00     0.170 HD
ENDROOT
BRANCH   3  12
ATOM     12  C   UNL d   1       2.308   0.401   2.387  0.00  0.00     0.036 A 
ATOM     13  C   UNL d   1       2.040   1.747   2.654  0.00  0.00     0.031 A 
ATOM     14  C   UNL d   1       2.698   2.416   3.693  0.00  0.00     0.026 A 
ATOM     15  C   UNL d   1       3.640   1.745   4.465  0.00  0.00     0.034 A 
ATOM     16  C   UNL d   1       3.938   0.412   4.200  0.00  0.00     0.026 A 
ATOM     17 CL   UNL d   1       4.434   2.562   5.753  0.00  0.00    -0.084 Cl
ATOM     18  C   UNL d   1       3.272  -0.257   3.166  0.00  0.00     0.031 A 
ENDBRANCH   3  12
BRANCH   4  19
ATOM     19  C   UNL d   1      -1.806  -3.183  -2.610  0.00  0.00     0.311 C 
BRANCH  19  20
ATOM     20  C   UNL d   1      -2.556  -2.663  -3.830  0.00  0.00    -0.019 A 
ATOM     21  C   UNL d   1      -3.942  -2.911  -4.042  0.00  0.00    -0.018 A 
ATOM     22  C   UNL d   1      -4.548  -2.429  -5.234  0.00  0.00    -0.025 A 
ATOM     23  C   UNL d   1      -4.763  -3.619  -3.135  0.00  0.00     0.013 A 
ATOM     24  C   UNL d   1      -5.911  -2.670  -5.478  0.00  0.00     0.012 A 
ATOM     25  C   UNL d   1      -3.786  -1.714  -6.168  0.00  0.00     0.012 A 
ATOM     26  C   UNL d   1      -6.689  -3.377  -4.562  0.00  0.00     0.001 A 
ATOM     27  C   UNL d   1      -6.116  -3.847  -3.391  0.00  0.00     0.001 A 
ATOM     28  C   UNL d   1      -2.435  -1.466  -5.950  0.00  0.00     0.002 A 
ATOM     29  C   UNL d   1      -1.826  -1.940  -4.793  0.00  0.00     0.010 A 
ENDBRANCH  19  20
ENDBRANCH   4  19
TORSDOF 3
