REMARK  3 active torsions:
REMARK  status: ('A' for Active; 'I' for Inactive)
REMARK    1  A    between atoms: C_7  and  N_3 
REMARK    2  A    between atoms: N_4  and  C_8 
REMARK    3  A    between atoms: C_14  and  C_6 
ROOT
ATOM      1  N   UNL d   1       1.103   1.094   0.038  0.00  0.00    -0.294 N 
ATOM      2  HN  UNL d   1       1.574   1.993   0.142  1.00  0.00     0.187 HD
ATOM      3  N   UNL d   1      -0.272   1.045  -0.050  0.00  0.00    -0.224 N 
ATOM      4  C   UNL d   1      -1.010  -0.140  -0.002  0.00  0.00     0.243 C 
ATOM      5  C   UNL d   1       1.802   0.003  -0.011  0.00  0.00     0.037 C 
ATOM      6  C   UNL d   1      -0.223  -1.385   0.304  0.00  0.00     0.111 C 
ATOM      7  O   UNL d   1      -2.231  -0.241  -0.144  0.00  0.00    -0.271 OA
ATOM      8  C   UNL d   1       1.180  -1.348  -0.234  0.00  0.00     0.069 C 
ENDROOT
BRANCH   3   9
ATOM      9  C   UNL d   1      -0.886   2.342  -0.142  0.00  0.00     0.059 A 
ATOM     10  C   UNL d   1      -2.201   2.575   0.293  0.00  0.00     0.034 A 
ATOM     11  C   UNL d   1      -2.788   3.844   0.198  0.00  0.00     0.038 A 
ATOM     12  C   UNL d   1      -2.061   4.902  -0.353  0.00  0.00     0.103 A 
ATOM     13  C   UNL d   1      -0.747   4.702  -0.789  0.00  0.00     0.038 A 
ATOM     14  C   UNL d   1      -0.165   3.433  -0.667  0.00  0.00     0.034 A 
BRANCH  12  15
ATOM     15  N   UNL d   1      -2.679   6.228  -0.468  0.00  0.00    -0.116 N 
ATOM     16  O   UNL d   1      -2.008   7.132  -0.987  0.00  0.00    -0.532 OA
ATOM     17  O   UNL d   1      -3.832   6.368  -0.038  0.00  0.00    -0.532 OA
ENDBRANCH  12  15
ENDBRANCH   3   9
BRANCH   5  18
ATOM     18  C   UNL d   1       3.289   0.078   0.117  0.00  0.00    -0.012 A 
ATOM     19  C   UNL d   1       3.864   1.154   0.808  0.00  0.00     0.013 A 
ATOM     20  C   UNL d   1       5.248   1.224   0.971  0.00  0.00     0.001 A 
ATOM     21  C   UNL d   1       6.066   0.229   0.438  0.00  0.00     0.000 A 
ATOM     22  C   UNL d   1       5.502  -0.835  -0.266  0.00  0.00     0.001 A 
ATOM     23  C   UNL d   1       4.118  -0.910  -0.429  0.00  0.00     0.013 A 
ENDBRANCH   5  18
TORSDOF 3
