REMARK  1 active torsions:
REMARK  status: ('A' for Active; 'I' for Inactive)
REMARK    1  A    between atoms: C_2  and  N_1 
REMARK       I    between atoms: C_4  and  N_1 
ROOT
ATOM      1  C   UNL d   1       0.293  -0.306  -1.477  0.00  0.00     0.056 A 
ATOM      2  C   UNL d   1      -1.026   0.122  -1.748  0.00  0.00     0.063 A 
ATOM      3  C   UNL d   1      -1.820  -0.533  -2.690  0.00  0.00     0.068 A 
ATOM      4  C   UNL d   1       0.769  -1.444  -2.137  0.00  0.00     0.034 A 
ATOM      5  C   UNL d   1      -1.310  -1.639  -3.349  0.00  0.00     0.118 A 
ATOM      6 CL   UNL d   1      -1.700   1.499  -0.942  0.00  0.00    -0.082 Cl
ATOM      7  C   UNL d   1      -0.031  -2.106  -3.075  0.00  0.00     0.044 A 
ATOM      8  F   UNL d   1      -2.064  -2.278  -4.251  0.00  0.00    -0.206 F 
ENDROOT
BRANCH   1   9
ATOM      9  N   UNL d   1       1.038   0.404  -0.514  0.00  0.00    -0.326 N 
ATOM     10  C   UNL d   1       2.367   0.472  -0.223  0.00  0.00     0.218 C 
ATOM     11  O   UNL d   1       2.717   1.075   0.794  0.00  0.00    -0.274 OA
ATOM     12  C   UNL d   1       3.396  -0.115  -1.146  0.00  0.00     0.117 C 
ATOM     13  H   UNL d   1       0.496   1.028   0.080  0.00  0.00     0.169 HD
ENDBRANCH   1   9
TORSDOF 1
