REMARK  5 active torsions:
REMARK  status: ('A' for Active; 'I' for Inactive)
REMARK    1  A    between atoms: N_2  and  S_1 
REMARK    2  A    between atoms: C_4  and  N_2 
REMARK       I    between atoms: C_3  and  N_5 
REMARK    3  A    between atoms: C_9  and  C_3 
REMARK    4  A    between atoms: N_5  and  C_10 
REMARK    5  A    between atoms: C_22  and  C_20 
ROOT
ATOM      1  C   UNL d   1       1.016   2.907   0.303  0.00  0.00     0.030 A 
ATOM      2  C   UNL d   1      -0.044   3.799   0.546  0.00  0.00     0.054 A 
ATOM      3  C   UNL d   1       0.152   4.932   1.340  0.00  0.00     0.036 A 
ATOM      4  C   UNL d   1       2.283   3.131   0.861  0.00  0.00    -0.040 A 
ATOM      5  C   UNL d   1       2.457   4.241   1.697  0.00  0.00     0.011 A 
ATOM      6  C   UNL d   1       1.406   5.132   1.927  0.00  0.00     0.030 A 
ATOM      7  C   UNL d   1       3.463   2.239   0.606  0.00  0.00     0.050 C 
ENDROOT
BRANCH   3   8
ATOM      8  N   UNL d   1      -0.819   5.933   1.579  0.00  0.00    -0.323 N 
ATOM      9  C   UNL d   1      -2.097   6.024   1.061  0.00  0.00     0.256 C 
ATOM     10  O   UNL d   1      -2.657   5.193   0.356  0.00  0.00    -0.267 OA
ATOM     11  H   UNL d   1      -0.533   6.666   2.213  0.00  0.00     0.169 HD
BRANCH   9  12
ATOM     12  C   UNL d   1      -2.839   7.274   1.426  0.00  0.00     0.032 A 
ATOM     13  C   UNL d   1      -2.189   8.506   1.590  0.00  0.00     0.017 A 
ATOM     14  C   UNL d   1      -2.921   9.654   1.915  0.00  0.00     0.008 A 
ATOM     15  C   UNL d   1      -4.313   9.595   2.061  0.00  0.00    -0.059 A 
ATOM     16  C   UNL d   1      -4.960   8.363   1.891  0.00  0.00     0.008 A 
ATOM     17  C   UNL d   1      -4.230   7.214   1.568  0.00  0.00     0.017 A 
BRANCH  15  18
ATOM     18  C   UNL d   1      -5.105  10.838   2.388  0.00  0.00     0.034 C 
ATOM     19  C   UNL d   1      -5.300  11.029   3.884  0.00  0.00     0.010 C 
ENDBRANCH  15  18
ENDBRANCH   9  12
ENDBRANCH   3   8
BRANCH   1  20
ATOM     20  N   UNL d   1       0.804   1.788  -0.565  0.00  0.00    -0.185 NA
ATOM     21  H   UNL d   1       0.298   2.026  -1.422  0.00  0.00     0.146 HD
BRANCH  20  22
ATOM     22  S   UNL d   1       0.105   0.388   0.076  0.00  0.00     0.210 S 
ATOM     23  O   UNL d   1      -0.709  -0.146  -0.996  0.00  0.00    -0.211 OA
ATOM     24  O   UNL d   1      -0.443   0.640   1.389  0.00  0.00    -0.211 OA
ATOM     25  C   UNL d   1       1.516  -0.686   0.241  0.00  0.00     0.180 C 
ENDBRANCH  20  22
ENDBRANCH   1  20
TORSDOF 5
