REMARK  1 active torsions:
REMARK  status: ('A' for Active; 'I' for Inactive)
REMARK    1  A    between atoms: O_7  and  C_3 
ROOT
ATOM      1  C   UNL d   1      -0.324   0.642  -0.020  0.00  0.00    -0.018 A 
ATOM      2  C   UNL d   1      -0.093  -0.740  -0.021  0.00  0.00    -0.043 A 
ATOM      3  C   UNL d   1       0.728   1.552  -0.009  0.00  0.00     0.075 A 
ATOM      4  C   UNL d   1       1.200  -1.254  -0.009  0.00  0.00    -0.055 A 
ATOM      5  C   UNL d   1       2.031   1.044  -0.002  0.00  0.00     0.038 A 
ATOM      6  C   UNL d   1       2.261  -0.340  -0.002  0.00  0.00     0.010 A 
ATOM      7  C   UNL d   1      -1.374  -1.510  -0.042  0.00  0.00     0.040 A 
ATOM      8  C   UNL d   1      -1.787   0.953  -0.035  0.00  0.00     0.042 A 
ATOM      9  C   UNL d   1      -2.458  -0.426  -0.029  0.00  0.00     0.009 A 
ATOM     10  C   UNL d   1       1.494  -2.723  -0.012  0.00  0.00     0.049 C 
ENDROOT
BRANCH   3  11
ATOM     11  O   UNL d   1       0.394   2.877  -0.012  0.00  0.00    -0.355 OA
ATOM     12  C   UNL d   1       1.473   3.804  -0.002  0.00  0.00     0.210 C 
ENDBRANCH   3  11
TORSDOF 1
