REMARK  3 active torsions:
REMARK  status: ('A' for Active; 'I' for Inactive)
REMARK    1  A    between atoms: C_4  and  C_1 
REMARK    2  A    between atoms: C_12  and  C_4 
REMARK    3  A    between atoms: O_14  and  N_10 
ROOT
ATOM      1  C   UNL d   1       0.917  -0.159   2.360  0.00  0.00     0.065 C 
ATOM      2  C   UNL d   1       1.403   0.979   3.084  0.00  0.00     0.101 C 
ATOM      3  N   UNL d   1       1.788   1.911   3.657  0.00  0.00    -0.191 NA
ENDROOT
BRANCH   1   4
ATOM      4  C   UNL d   1       0.413  -0.053   1.100  0.00  0.00    -0.013 C 
ATOM      5  C   UNL d   1       0.401   1.227   0.381  0.00  0.00     0.034 C 
ATOM      6  C   UNL d   1      -0.279   1.398  -0.765  0.00  0.00     0.040 C 
ATOM      7 BR   UNL d   1      -0.274   3.046  -1.654  0.00  0.00    -0.049 Br
ATOM      8  C   UNL d   1      -1.067   0.259  -1.360  0.00  0.00     0.071 C 
ATOM      9  C   UNL d   1      -0.798  -1.086  -0.759  0.00  0.00     0.034 C 
ATOM     10  N   UNL d   1      -1.908   0.474  -2.332  0.00  0.00    -0.268 N 
ATOM     11  C   UNL d   1      -0.102  -1.218   0.378  0.00  0.00     0.015 C 
ATOM     12  HN  UNL d   1      -2.065   1.391  -2.752  1.00  0.00     0.194 HD
BRANCH  10  13
ATOM     13  O   UNL d   1      -2.573  -0.690  -2.736  0.00  0.00    -0.289 OA
ATOM     14  H   UNL d   1      -3.198  -0.348  -3.403  0.00  0.00     0.244 HD
ENDBRANCH  10  13
ENDBRANCH   1   4
BRANCH   1  15
ATOM     15  C   UNL d   1       0.960  -1.444   3.091  0.00  0.00    -0.015 A 
ATOM     16  C   UNL d   1       2.084  -2.276   2.987  0.00  0.00     0.013 A 
ATOM     17  C   UNL d   1       2.122  -3.494   3.670  0.00  0.00     0.001 A 
ATOM     18  C   UNL d   1       1.043  -3.885   4.460  0.00  0.00     0.000 A 
ATOM     19  C   UNL d   1      -0.077  -3.063   4.572  0.00  0.00     0.001 A 
ATOM     20  C   UNL d   1      -0.121  -1.845   3.890  0.00  0.00     0.013 A 
ENDBRANCH   1  15
TORSDOF 3
