REMARK  3 active torsions:
REMARK  status: ('A' for Active; 'I' for Inactive)
REMARK    1  A    between atoms: S_21  and  C_10 
REMARK    2  A    between atoms: C_17  and  C_16 
REMARK    3  A    between atoms: O_23  and  C_17 
ROOT
ATOM      1  S   UNL d   1       0.788   2.394   0.140  0.00  0.00     0.268 S 
ATOM      2  C   UNL d   1       1.542   0.861  -0.021  0.00  0.00     0.122 A 
ATOM      3  N   UNL d   1      -0.831   2.157  -0.318  0.00  0.00    -0.275 N 
ATOM      4  C   UNL d   1       0.811  -0.292  -0.036  0.00  0.00     0.071 A 
ATOM      5  C   UNL d   1      -1.443   0.870  -0.017  0.00  0.00     0.058 A 
ATOM      6  C   UNL d   1      -0.666  -0.314   0.013  0.00  0.00     0.020 A 
ATOM      7  N   UNL d   1       1.443  -1.496  -0.062  0.00  0.00    -0.335 N 
ATOM      8  HN  UNL d   1       0.911  -2.366  -0.073  1.00  0.00     0.168 HD
ATOM      9  C   UNL d   1      -2.851   0.765  -0.019  0.00  0.00     0.049 A 
ATOM     10  C   UNL d   1       2.791  -1.508  -0.072  0.00  0.00     0.144 A 
ATOM     11  C   UNL d   1       2.909   0.770  -0.056  0.00  0.00     0.118 A 
ATOM     12  O   UNL d   1       0.812   2.722   1.552  0.00  0.00    -0.200 OA
ATOM     13  O   UNL d   1       1.386   3.276  -0.839  0.00  0.00    -0.200 OA
ATOM     14  N   UNL d   1       3.557  -0.407  -0.082  0.00  0.00    -0.345 N 
ATOM     15  HN  UNL d   1       4.575  -0.461  -0.107  1.00  0.00     0.167 HD
ATOM     16  C   UNL d   1      -3.503  -0.474   0.049  0.00  0.00     0.041 A 
ATOM     17  C   UNL d   1      -1.346  -1.553   0.076  0.00  0.00     0.017 A 
ATOM     18  C   UNL d   1      -2.740  -1.637   0.092  0.00  0.00     0.018 A 
ATOM     19  C   UNL d   1      -1.635   3.393  -0.113  0.00  0.00     0.170 C 
ENDROOT
BRANCH  16  20
ATOM     20  C   UNL d   1      -4.993  -0.494   0.038  0.00  0.00     0.293 C 
ATOM     21  O   UNL d   1      -5.679   0.514   0.006  0.00  0.00    -0.259 OA
BRANCH  20  22
ATOM     22  O   UNL d   1      -5.449  -1.771   0.063  0.00  0.00    -0.323 OA
ATOM     23  C   UNL d   1      -6.872  -1.894   0.042  0.00  0.00     0.213 C 
ENDBRANCH  20  22
ENDBRANCH  16  20
BRANCH  10  24
ATOM     24  S   UNL d   1       3.580  -3.098  -0.044  0.00  0.00    -0.098 SA
ATOM     25  C   UNL d   1       5.321  -2.592  -0.007  0.00  0.00     0.099 C 
ENDBRANCH  10  24
TORSDOF 3
