REMARK  3 active torsions:
REMARK  status: ('A' for Active; 'I' for Inactive)
REMARK    1  A    between atoms: N_11  and  C_3 
REMARK       I    between atoms: C_12  and  N_11 
REMARK    2  A    between atoms: C_13  and  C_12 
REMARK    3  A    between atoms: C_16  and  C_21 
ROOT
ATOM      1  C   UNL d   1       1.137   0.997  -0.210  0.00  0.00     0.092 A 
ATOM      2  C   UNL d   1       0.746  -0.312  -0.087  0.00  0.00     0.069 A 
ATOM      3  C   UNL d   1       2.882  -1.128  -0.400  0.00  0.00     0.155 C 
ATOM      4  C   UNL d   1      -0.685  -0.468  -0.022  0.00  0.00     0.032 A 
ATOM      5  S   UNL d   1      -0.157   2.080  -0.095  0.00  0.00    -0.065 SA
ATOM      6  C   UNL d   1      -1.275   0.799  -0.025  0.00  0.00     0.088 A 
ATOM      7  S   UNL d   1       3.429   0.274  -1.272  0.00  0.00    -0.010 SA
ATOM      8  C   UNL d   1       2.469   1.458  -0.429  0.00  0.00     0.235 C 
ATOM      9  N   UNL d   1       1.679  -1.363   0.033  0.00  0.00    -0.334 N 
ATOM     10  HN  UNL d   1       1.423  -2.263   0.439  1.00  0.00     0.168 HD
ATOM     11  N   UNL d   1      -2.587   1.094   0.013  0.00  0.00    -0.354 N 
ATOM     12  HN  UNL d   1      -2.932   2.054   0.020  1.00  0.00     0.166 HD
ATOM     13  C   UNL d   1      -1.579  -1.573   0.034  0.00  0.00    -0.045 A 
ATOM     14  C   UNL d   1      -2.960  -1.281   0.058  0.00  0.00     0.032 A 
ATOM     15  C   UNL d   1      -3.407   0.034   0.043  0.00  0.00     0.006 A 
ATOM     16  O   UNL d   1       2.913   2.567  -0.169  0.00  0.00    -0.279 OA
ATOM     17  C   UNL d   1      -1.181  -3.023   0.019  0.00  0.00     0.049 C 
ATOM     18  C   UNL d   1      -4.879   0.331   0.033  0.00  0.00     0.068 C 
ENDROOT
BRANCH   3  19
ATOM     19  N   UNL d   1       3.814  -2.123  -0.136  0.00  0.00    -0.303 N 
ATOM     20  C   UNL d   1       5.186  -2.180  -0.403  0.00  0.00     0.259 C 
ATOM     21  O   UNL d   1       5.815  -1.321  -1.002  0.00  0.00    -0.267 OA
ATOM     22  H   UNL d   1       3.407  -2.863   0.417  0.00  0.00     0.171 HD
BRANCH  20  23
ATOM     23  C   UNL d   1       5.918  -3.395   0.055  0.00  0.00     0.054 A 
ATOM     24  C   UNL d   1       7.280  -3.348   0.387  0.00  0.00     0.021 A 
ATOM     25  N   UNL d   1       7.992  -4.470   0.693  0.00  0.00    -0.355 N 
ATOM     26  C   UNL d   1       8.073  -2.073   0.470  0.00  0.00     0.069 C 
ATOM     27  C   UNL d   1       7.373  -5.682   0.667  0.00  0.00     0.117 A 
ATOM     28  HN  UNL d   1       8.979  -4.402   0.939  1.00  0.00     0.166 HD
ATOM     29  C   UNL d   1       6.013  -5.792   0.386  0.00  0.00     0.035 A 
ATOM     30  C   UNL d   1       5.285  -4.644   0.070  0.00  0.00     0.021 A 
BRANCH  27  31
ATOM     31  C   UNL d   1       8.185  -6.950   0.910  0.00  0.00     0.432 C 
ATOM     32  F   UNL d   1       9.515  -6.742   1.117  0.00  0.00    -0.165 F 
ATOM     33  F   UNL d   1       7.741  -7.650   1.994  0.00  0.00    -0.165 F 
ATOM     34  F   UNL d   1       8.103  -7.819  -0.141  0.00  0.00    -0.165 F 
ENDBRANCH  27  31
ENDBRANCH  20  23
ENDBRANCH   3  19
TORSDOF 3
