REMARK  7 active torsions:
REMARK  status: ('A' for Active; 'I' for Inactive)
REMARK    1  A    between atoms: N_3  and  C_1 
REMARK    2  A    between atoms: C_8  and  C_2 
REMARK       I    between atoms: C_6  and  N_3 
REMARK    3  A    between atoms: C_5  and  C_10 
REMARK    4  A    between atoms: C_11  and  C_6 
REMARK    5  A    between atoms: O_18  and  C_8 
REMARK    6  A    between atoms: C_19  and  C_9 
REMARK    7  A    between atoms: C_23  and  O_18 
ROOT
ATOM      1  N   UNL d   1       0.048   2.385  -0.043  0.00  0.00    -0.316 N 
ATOM      2  C   UNL d   1      -1.214   2.912  -0.325  0.00  0.00     0.256 C 
ATOM      3  O   UNL d   1      -2.280   2.300  -0.295  0.00  0.00    -0.267 OA
ATOM      4  H   UNL d   1       0.848   3.003   0.032  0.00  0.00     0.169 HD
ENDROOT
BRANCH   1   5
ATOM      5  C   UNL d   1       0.333   1.015   0.077  0.00  0.00     0.093 A 
ATOM      6  C   UNL d   1       1.542   0.378   0.340  0.00  0.00     0.074 A 
ATOM      7  C   UNL d   1       1.398  -1.059   0.254  0.00  0.00     0.035 A 
ATOM      8  C   UNL d   1       0.118  -1.466  -0.019  0.00  0.00    -0.015 A 
ATOM      9  S   UNL d   1      -0.911  -0.134  -0.190  0.00  0.00    -0.076 SA
BRANCH   6  10
ATOM     10  C   UNL d   1       2.817   1.000   0.692  0.00  0.00     0.296 C 
ATOM     11  O   UNL d   1       2.933   2.114   1.176  0.00  0.00    -0.259 OA
BRANCH  10  12
ATOM     12  O   UNL d   1       3.857   0.148   0.441  0.00  0.00    -0.318 OA
BRANCH  12  13
ATOM     13  C   UNL d   1       4.739  -0.151   1.531  0.00  0.00     0.174 C 
ATOM     14  C   UNL d   1       6.159  -0.270   1.007  0.00  0.00     0.034 C 
ENDBRANCH  12  13
ENDBRANCH  10  12
ENDBRANCH   6  10
BRANCH   8  15
ATOM     15  C   UNL d   1      -0.396  -2.862  -0.169  0.00  0.00     0.042 C 
ATOM     16  C   UNL d   1      -0.381  -3.304  -1.625  0.00  0.00     0.010 C 
ENDBRANCH   8  15
ENDBRANCH   1   5
BRANCH   2  17
ATOM     17  C   UNL d   1      -1.325   4.350  -0.730  0.00  0.00     0.033 A 
ATOM     18  C   UNL d   1      -2.482   4.722  -1.451  0.00  0.00     0.033 A 
ATOM     19  C   UNL d   1      -2.707   6.048  -1.857  0.00  0.00     0.048 A 
ATOM     20  C   UNL d   1      -1.755   7.015  -1.524  0.00  0.00     0.016 A 
ATOM     21  C   UNL d   1      -0.605   6.661  -0.809  0.00  0.00     0.002 A 
ATOM     22  C   UNL d   1      -0.387   5.334  -0.412  0.00  0.00     0.017 A 
BRANCH  19  23
ATOM     23  C   UNL d   1      -3.955   6.432  -2.619  0.00  0.00     0.417 C 
ATOM     24  F   UNL d   1      -4.748   5.377  -2.950  0.00  0.00    -0.166 F 
ATOM     25  F   UNL d   1      -4.748   7.291  -1.919  0.00  0.00    -0.166 F 
ATOM     26  F   UNL d   1      -3.670   7.064  -3.792  0.00  0.00    -0.166 F 
ENDBRANCH  19  23
ENDBRANCH   2  17
TORSDOF 7
