REMARK  3 active torsions:
REMARK  status: ('A' for Active; 'I' for Inactive)
REMARK    1  A    between atoms: C_17  and  N_3 
REMARK    2  A    between atoms: C_9  and  C_4 
REMARK    3  A    between atoms: C_7  and  N_11 
REMARK       I    between atoms: N_11  and  C_9 
ROOT
ATOM      1  N   UNL d   1      -0.223  -0.974  -0.203  0.00  0.00    -0.272 N 
ATOM      2  HN  UNL d   1      -0.497  -1.892  -0.555  1.00  0.00     0.189 HD
ATOM      3  N   UNL d   1       1.016  -0.531   0.166  0.00  0.00    -0.196 N 
ATOM      4  C   UNL d   1      -0.992   0.116   0.017  0.00  0.00     0.141 A 
ATOM      5  N   UNL d   1       1.071   0.727   0.668  0.00  0.00    -0.281 N 
ATOM      6  HN  UNL d   1       1.876   1.226   1.048  1.00  0.00     0.189 HD
ATOM      7  C   UNL d   1      -0.189   1.153   0.543  0.00  0.00     0.057 A 
ATOM      8  C   UNL d   1      -0.557   2.539   0.909  0.00  0.00     0.072 C 
ENDROOT
BRANCH   4   9
ATOM      9  C   UNL d   1      -2.427   0.162  -0.289  0.00  0.00     0.277 C 
ATOM     10  N   UNL d   1      -2.913  -1.048  -0.721  0.00  0.00    -0.300 N 
ATOM     11  H   UNL d   1      -2.277  -1.835  -0.771  0.00  0.00     0.171 HD
ATOM     12  O   UNL d   1      -3.067   1.198  -0.160  0.00  0.00    -0.266 OA
BRANCH  10  13
ATOM     13  C   UNL d   1      -4.196  -1.191  -1.162  0.00  0.00     0.168 A 
ATOM     14  S   UNL d   1      -4.599  -2.746  -1.739  0.00  0.00    -0.038 SA
ATOM     15  C   UNL d   1      -6.149  -2.107  -2.128  0.00  0.00     0.066 A 
ATOM     16  C   UNL d   1      -7.187  -2.931  -2.797  0.00  0.00     0.078 C 
ATOM     17  N   UNL d   1      -6.304  -0.841  -1.801  0.00  0.00    -0.296 N 
ATOM     18  N   UNL d   1      -5.162  -0.309  -1.235  0.00  0.00    -0.279 N 
ATOM     19  HN  UNL d   1      -7.165  -0.316  -1.949  1.00  0.00     0.187 HD
ATOM     20  HN  UNL d   1      -5.081   0.655  -0.911  1.00  0.00     0.189 HD
ENDBRANCH  10  13
ENDBRANCH   4   9
BRANCH   3  21
ATOM     21  C   UNL d   1       2.194  -1.309   0.001  0.00  0.00     0.074 A 
ATOM     22  C   UNL d   1       2.138  -2.568  -0.612  0.00  0.00     0.033 A 
ATOM     23  C   UNL d   1       3.315  -3.298  -0.803  0.00  0.00     0.002 A 
ATOM     24  C   UNL d   1       4.541  -2.783  -0.378  0.00  0.00     0.000 A 
ATOM     25  C   UNL d   1       4.598  -1.536   0.241  0.00  0.00     0.002 A 
ATOM     26  C   UNL d   1       3.429  -0.798   0.430  0.00  0.00     0.033 A 
ENDBRANCH   3  21
TORSDOF 3
