REMARK  4 active torsions:
REMARK  status: ('A' for Active; 'I' for Inactive)
REMARK    1  A    between atoms: S_11  and  C_3 
REMARK    2  A    between atoms: C_16  and  C_4 
REMARK    3  A    between atoms: C_15  and  S_11 
REMARK    4  A    between atoms: C_13  and  C_15 
ROOT
ATOM      1  N   UNL d   1      -0.737   1.169  -0.166  0.00  0.00    -0.335 N 
ATOM      2  HN  UNL d   1      -1.248   2.050  -0.217  1.00  0.00     0.168 HD
ATOM      3  C   UNL d   1      -1.375  -0.025  -0.205  0.00  0.00     0.094 A 
ATOM      4  C   UNL d   1       0.608   1.136  -0.056  0.00  0.00     0.116 A 
ATOM      5  C   UNL d   1      -0.705  -1.241  -0.129  0.00  0.00     0.100 A 
ATOM      6  N   UNL d   1       1.329   0.000   0.011  0.00  0.00    -0.344 N 
ATOM      7  HN  UNL d   1       2.346   0.030   0.090  1.00  0.00     0.167 HD
ATOM      8  C   UNL d   1       0.672  -1.176  -0.029  0.00  0.00     0.030 A 
ATOM      9  C   UNL d   1      -1.374  -2.501  -0.147  0.00  0.00     0.104 C 
ATOM     10  N   UNL d   1      -1.873  -3.548  -0.154  0.00  0.00    -0.191 NA
ATOM     11  C   UNL d   1       1.532  -2.408   0.033  0.00  0.00     0.070 C 
ENDROOT
BRANCH   3  12
ATOM     12  S   UNL d   1      -3.170  -0.013  -0.325  0.00  0.00    -0.106 SA
BRANCH  12  13
ATOM     13  C   UNL d   1      -3.536   1.701  -0.828  0.00  0.00     0.121 C 
BRANCH  13  14
ATOM     14  C   UNL d   1      -5.015   1.847  -1.141  0.00  0.00    -0.027 A 
ATOM     15  C   UNL d   1      -5.533   1.791  -2.448  0.00  0.00     0.042 A 
ATOM     16  C   UNL d   1      -6.909   1.910  -2.681  0.00  0.00     0.048 A 
ATOM     17 CL   UNL d   1      -4.518   1.564  -3.827  0.00  0.00    -0.084 Cl
ATOM     18  C   UNL d   1      -7.783   2.069  -1.610  0.00  0.00     0.035 A 
ATOM     19  C   UNL d   1      -7.298   2.106  -0.307  0.00  0.00     0.024 A 
ATOM     20 CL   UNL d   1      -9.473   2.216  -1.897  0.00  0.00    -0.084 Cl
ATOM     21  C   UNL d   1      -5.924   1.996  -0.074  0.00  0.00     0.011 A 
ENDBRANCH  13  14
ENDBRANCH  12  13
ENDBRANCH   3  12
BRANCH   4  22
ATOM     22  C   UNL d   1       1.368   2.404  -0.021  0.00  0.00     0.008 A 
ATOM     23  C   UNL d   1       0.735   3.659  -0.055  0.00  0.00     0.015 A 
ATOM     24  C   UNL d   1       1.471   4.851  -0.039  0.00  0.00     0.001 A 
ATOM     25  C   UNL d   1       2.862   4.817   0.012  0.00  0.00     0.000 A 
ATOM     26  C   UNL d   1       3.519   3.593   0.058  0.00  0.00     0.001 A 
ATOM     27  C   UNL d   1       2.780   2.406   0.043  0.00  0.00     0.015 A 
ENDBRANCH   4  22
TORSDOF 4
