REMARK  6 active torsions:
REMARK  status: ('A' for Active; 'I' for Inactive)
REMARK    1  A    between atoms: C_3  and  C_1 
REMARK    2  A    between atoms: N_14  and  C_3 
REMARK    3  A    between atoms: O_12  and  N_4 
REMARK    4  A    between atoms: C_6  and  O_12 
REMARK       I    between atoms: N_10  and  C_6 
REMARK    5  A    between atoms: C_15  and  N_10 
REMARK    6  A    between atoms: O_21  and  C_16 
ROOT
ATOM      1  C   UNL d   1       2.347   0.818  -1.753  0.00  0.00     0.107 C 
ATOM      2  N   UNL d   1       1.528   1.362  -2.610  0.00  0.00    -0.247 N 
ATOM      3  HN  UNL d   1       1.746   1.449  -3.603  1.00  0.00     0.196 HD
ENDROOT
BRANCH   2   4
ATOM      4  O   UNL d   1       0.322   1.817  -2.054  0.00  0.00    -0.180 OA
BRANCH   4   5
ATOM      5  C   UNL d   1      -0.290   2.692  -2.936  0.00  0.00     0.387 C 
ATOM      6  N   UNL d   1      -1.626   2.781  -2.630  0.00  0.00    -0.301 N 
ATOM      7  H   UNL d   1      -1.946   2.117  -1.938  0.00  0.00     0.171 HD
ATOM      8  O   UNL d   1       0.291   3.277  -3.843  0.00  0.00    -0.236 OA
BRANCH   6   9
ATOM      9  C   UNL d   1      -2.580   3.663  -3.175  0.00  0.00     0.037 A 
ATOM     10  C   UNL d   1      -2.255   4.712  -4.037  0.00  0.00     0.032 A 
ATOM     11  C   UNL d   1      -3.228   5.638  -4.440  0.00  0.00     0.039 A 
ATOM     12  C   UNL d   1      -4.541   5.520  -3.991  0.00  0.00     0.068 A 
ATOM     13  C   UNL d   1      -4.884   4.434  -3.187  0.00  0.00     0.039 A 
ATOM     14  C   UNL d   1      -3.913   3.512  -2.778  0.00  0.00     0.032 A 
BRANCH  12  15
ATOM     15  O   UNL d   1      -5.561   6.391  -4.260  0.00  0.00    -0.356 OA
ATOM     16  C   UNL d   1      -5.202   7.614  -4.893  0.00  0.00     0.210 C 
ENDBRANCH  12  15
ENDBRANCH   6   9
ENDBRANCH   4   5
ENDBRANCH   2   4
BRANCH   1  17
ATOM     17  C   UNL d   1       2.121   0.741  -0.221  0.00  0.00     0.216 C 
ATOM     18  O   UNL d   1       2.612  -0.480   0.347  0.00  0.00    -0.334 OA
ATOM     19  C   UNL d   1       3.932  -0.422   0.710  0.00  0.00     0.103 A 
ATOM     20  C   UNL d   1       4.559  -1.643   0.958  0.00  0.00     0.040 A 
ATOM     21  C   UNL d   1       4.664   0.766   0.764  0.00  0.00     0.102 A 
ATOM     22  C   UNL d   1       5.931  -1.682   1.217  0.00  0.00     0.003 A 
ATOM     23  C   UNL d   1       6.668  -0.498   1.243  0.00  0.00     0.003 A 
ATOM     24  C   UNL d   1       6.034   0.726   1.023  0.00  0.00     0.039 A 
ATOM     25  O   UNL d   1       4.119   1.995   0.518  0.00  0.00    -0.345 OA
ATOM     26  C   UNL d   1       2.689   1.964   0.500  0.00  0.00     0.215 C 
ENDBRANCH   1  17
BRANCH   1  27
ATOM     27  N   UNL d   1       3.490   0.278  -2.291  0.00  0.00    -0.288 NA
ATOM     28  H   UNL d   1       3.891  -0.515  -1.802  0.00  0.00     0.125 HD
ATOM     29  H   UNL d   1       3.438   0.158  -3.296  0.00  0.00     0.125 HD
ENDBRANCH   1  27
TORSDOF 6
