REMARK  4 active torsions:
REMARK  status: ('A' for Active; 'I' for Inactive)
REMARK    1  A    between atoms: S_5  and  C_1 
REMARK    2  A    between atoms: C_9  and  S_5 
REMARK    3  A    between atoms: C_8  and  C_9 
REMARK    4  A    between atoms: C_11  and  C_8 
ROOT
ATOM      1  C   UNL d   1       2.116   2.917   0.108  0.00  0.00     0.166 C 
ENDROOT
BRANCH   1   2
ATOM      2  C   UNL d   1       2.614   4.354   0.177  0.00  0.00     0.169 C 
ATOM      3  O   UNL d   1       1.874   5.333   0.268  0.00  0.00    -0.291 OA
BRANCH   2   4
ATOM      4  C   UNL d   1       4.095   4.593   0.128  0.00  0.00     0.010 A 
ATOM      5  C   UNL d   1       5.031   3.551   0.126  0.00  0.00     0.015 A 
ATOM      6  C   UNL d   1       6.399   3.836   0.059  0.00  0.00     0.001 A 
ATOM      7  C   UNL d   1       6.844   5.156  -0.005  0.00  0.00     0.000 A 
ATOM      8  C   UNL d   1       5.921   6.199   0.007  0.00  0.00     0.001 A 
ATOM      9  C   UNL d   1       4.554   5.919   0.075  0.00  0.00     0.015 A 
ENDBRANCH   2   4
ENDBRANCH   1   2
BRANCH   1  10
ATOM     10  S   UNL d   1       0.297   2.825   0.083  0.00  0.00    -0.086 SA
BRANCH  10  11
ATOM     11  C   UNL d   1       0.062   1.112  -0.005  0.00  0.00     0.146 A 
ATOM     12  N   UNL d   1      -1.171   0.514  -0.040  0.00  0.00    -0.341 N 
ATOM     13  C   UNL d   1      -0.960  -0.842  -0.111  0.00  0.00     0.109 A 
ATOM     14  C   UNL d   1      -2.482   1.113  -0.011  0.00  0.00     0.158 C 
ATOM     15  C   UNL d   1       0.406  -0.994  -0.113  0.00  0.00     0.107 A 
ATOM     16  N   UNL d   1       1.032   0.224  -0.047  0.00  0.00    -0.345 N 
ATOM     17  HN  UNL d   1       2.036   0.403  -0.032  1.00  0.00     0.167 HD
ENDBRANCH  10  11
ENDBRANCH   1  10
TORSDOF 4
