REMARK  6 active torsions:
REMARK  status: ('A' for Active; 'I' for Inactive)
REMARK    1  A    between atoms: C_5  and  C_1 
REMARK       I    between atoms: C_2  and  N_7 
REMARK       I    between atoms: N_6  and  C_2 
REMARK    2  A    between atoms: C_3  and  O_10 
REMARK    3  A    between atoms: N_4  and  C_5 
REMARK    4  A    between atoms: C_20  and  N_6 
REMARK    5  A    between atoms: N_7  and  C_17 
REMARK    6  A    between atoms: O_10  and  C_21 
ROOT
ATOM      1  C   UNL d   1      -4.459   0.832   0.085  0.00  0.00     0.321 C 
ATOM      2  N   UNL d   1      -5.444  -0.069  -0.267  0.00  0.00    -0.309 N 
ATOM      3  N   UNL d   1      -4.777   2.137  -0.185  0.00  0.00    -0.338 N 
ATOM      4  O   UNL d   1      -3.399   0.524   0.617  0.00  0.00    -0.247 OA
ATOM      5  H   UNL d   1      -6.228   0.281  -0.796  0.00  0.00     0.170 HD
ATOM      6  H   UNL d   1      -5.475   2.288  -0.899  0.00  0.00     0.164 HD
ENDROOT
BRANCH   3   7
ATOM      7  C   UNL d   1      -3.932   3.306   0.136  0.00  0.00     0.089 C 
ATOM      8  C   UNL d   1      -3.256   3.320   1.514  0.00  0.00     0.055 C 
ATOM      9  C   UNL d   1      -1.856   2.687   1.578  0.00  0.00     0.275 C 
ATOM     10  N   UNL d   1      -0.978   2.926   0.420  0.00  0.00     0.092 N 
ATOM     11  C   UNL d   1      -1.665   2.797  -0.870  0.00  0.00     0.275 C 
ATOM     12  C   UNL d   1      -2.914   3.664  -0.942  0.00  0.00     0.055 C 
BRANCH  10  13
ATOM     13  C   UNL d   1       0.165   1.981   0.486  0.00  0.00     0.315 C 
BRANCH  13  14
ATOM     14  C   UNL d   1       1.295   2.319  -0.458  0.00  0.00     0.030 A 
ATOM     15  C   UNL d   1       2.051   3.495  -0.348  0.00  0.00     0.045 A 
ATOM     16 CL   UNL d   1       1.775   4.656   0.904  0.00  0.00    -0.084 Cl
ATOM     17  C   UNL d   1       3.084   3.766  -1.253  0.00  0.00     0.024 A 
ATOM     18  C   UNL d   1       3.388   2.865  -2.272  0.00  0.00     0.005 A 
ATOM     19  C   UNL d   1       2.657   1.688  -2.387  0.00  0.00     0.043 A 
ATOM     20  C   UNL d   1       1.625   1.427  -1.488  0.00  0.00     0.126 A 
ATOM     21  F   UNL d   1       0.938   0.283  -1.632  0.00  0.00    -0.205 F 
ENDBRANCH  13  14
ENDBRANCH  10  13
ENDBRANCH   3   7
BRANCH   2  22
ATOM     22  C   UNL d   1      -5.347  -1.477  -0.108  0.00  0.00     0.036 C 
ATOM     23  C   UNL d   1      -4.339  -2.087   0.646  0.00  0.00     0.032 C 
ATOM     24  C   UNL d   1      -4.142  -3.466   0.617  0.00  0.00     0.039 C 
ATOM     25  C   UNL d   1      -4.943  -4.261  -0.185  0.00  0.00     0.078 C 
ATOM     26  C   UNL d   1      -6.063  -3.694  -0.798  0.00  0.00     0.039 C 
ATOM     27  C   UNL d   1      -6.266  -2.304  -0.761  0.00  0.00     0.032 C 
BRANCH  25  28
ATOM     28  O   UNL d   1      -4.733  -5.593  -0.373  0.00  0.00    -0.255 OA
BRANCH  28  29
ATOM     29  C   UNL d   1      -3.385  -5.999  -0.632  0.00  0.00     0.530 C 
ATOM     30  F   UNL d   1      -2.479  -4.997  -0.625  0.00  0.00    -0.144 F 
ATOM     31  F   UNL d   1      -3.015  -6.912   0.292  0.00  0.00    -0.144 F 
ATOM     32  F   UNL d   1      -3.334  -6.589  -1.849  0.00  0.00    -0.144 F 
ENDBRANCH  28  29
ENDBRANCH  25  28
ENDBRANCH   2  22
TORSDOF 6
