REMARK  5 active torsions:
REMARK  status: ('A' for Active; 'I' for Inactive)
REMARK    1  A    between atoms: N_2  and  C_1 
REMARK    2  A    between atoms: O_8  and  C_4 
REMARK    3  A    between atoms: C_6  and  C_5 
REMARK    4  A    between atoms: O_14  and  C_6 
REMARK    5  A    between atoms: C_13  and  O_8 
ROOT
ATOM      1  C   UNL d   1       1.375  -0.245   0.210  0.00  0.00     0.137 A 
ATOM      2  C   UNL d   1       0.554  -1.383   0.276  0.00  0.00     0.057 A 
ATOM      3  C   UNL d   1       0.843   1.040   0.079  0.00  0.00     0.109 A 
ATOM      4  C   UNL d   1      -0.833  -1.218   0.229  0.00  0.00     0.040 A 
ATOM      5  C   UNL d   1      -0.548   1.192   0.155  0.00  0.00     0.041 A 
ATOM      6  C   UNL d   1      -1.381   0.070   0.212  0.00  0.00     0.021 A 
ENDROOT
BRANCH   3   7
ATOM      7  O   UNL d   1       1.690   2.109  -0.118  0.00  0.00    -0.308 OA
BRANCH   7   8
ATOM      8  C   UNL d   1       1.250   3.150  -0.904  0.00  0.00     0.076 A 
ATOM      9  C   UNL d   1       1.504   4.440  -0.437  0.00  0.00     0.039 A 
ATOM     10  C   UNL d   1       1.004   5.540  -1.135  0.00  0.00     0.026 A 
ATOM     11  C   UNL d   1       0.262   5.345  -2.300  0.00  0.00     0.034 A 
ATOM     12  C   UNL d   1       0.059   4.059  -2.802  0.00  0.00     0.026 A 
ATOM     13 CL   UNL d   1      -0.419   6.695  -3.118  0.00  0.00    -0.084 Cl
ATOM     14  C   UNL d   1       0.578   2.960  -2.116  0.00  0.00     0.039 A 
ENDBRANCH   7   8
ENDBRANCH   3   7
BRANCH   1  15
ATOM     15  N   UNL d   1       2.813  -0.438   0.271  0.00  0.00    -0.113 N 
ATOM     16  O   UNL d   1       3.288  -1.303  -0.481  0.00  0.00    -0.532 OA
ATOM     17  O   UNL d   1       3.451   0.225   1.098  0.00  0.00    -0.532 OA
ENDBRANCH   1  15
BRANCH   4  18
ATOM     18  C   UNL d   1      -1.768  -2.369   0.237  0.00  0.00     0.176 C 
ATOM     19  O   UNL d   1      -2.872  -2.314   0.750  0.00  0.00    -0.646 OA
BRANCH  18  20
ATOM     20  O   UNL d   1      -1.309  -3.450  -0.424  0.00  0.00    -0.773 OA
ATOM     21  H   UNL d   1      -0.506  -3.323  -0.961  0.00  0.00     0.167 HD
ENDBRANCH  18  20
ENDBRANCH   4  18
TORSDOF 5
