REMARK  3 active torsions:
REMARK  status: ('A' for Active; 'I' for Inactive)
REMARK    1  A    between atoms: S_7  and  C_2 
REMARK    2  A    between atoms: C_9  and  C_3 
REMARK    3  A    between atoms: C_6  and  C_11 
ROOT
ATOM      1  C   UNL d   1       1.242  -0.910   0.670  0.00  0.00     0.082 A 
ATOM      2  C   UNL d   1       1.439   0.461   0.672  0.00  0.00     0.093 A 
ATOM      3  C   UNL d   1      -0.043  -1.270   0.093  0.00  0.00     0.003 A 
ATOM      4  S   UNL d   1       0.137   1.304  -0.038  0.00  0.00    -0.090 SA
ATOM      5  C   UNL d   1      -0.711  -0.140  -0.350  0.00  0.00     0.065 A 
ATOM      6  C   UNL d   1       2.177  -1.871   1.194  0.00  0.00     0.102 C 
ATOM      7  N   UNL d   1       2.860  -2.712   1.610  0.00  0.00    -0.191 NA
ENDROOT
BRANCH   2   8
ATOM      8  S   UNL d   1       2.780   1.329   1.389  0.00  0.00     0.054 S 
ATOM      9  O   UNL d   1       3.835   0.335   1.761  0.00  0.00    -0.253 OA
ATOM     10  C   UNL d   1       3.346   2.273  -0.041  0.00  0.00     0.133 C 
ENDBRANCH   2   8
BRANCH   3  11
ATOM     11  C   UNL d   1      -0.670  -2.599  -0.029  0.00  0.00    -0.023 A 
ATOM     12  C   UNL d   1      -1.470  -2.921  -1.139  0.00  0.00     0.028 A 
ATOM     13  C   UNL d   1      -2.111  -4.171  -1.245  0.00  0.00     0.048 A 
ATOM     14  C   UNL d   1      -1.919  -5.120  -0.233  0.00  0.00     0.016 A 
ATOM     15  C   UNL d   1      -1.124  -4.819   0.869  0.00  0.00     0.002 A 
ATOM     16  C   UNL d   1      -0.519  -3.563   0.977  0.00  0.00     0.012 A 
BRANCH  13  17
ATOM     17  C   UNL d   1      -3.002  -4.495  -2.418  0.00  0.00     0.417 C 
ATOM     18  F   UNL d   1      -3.116  -3.473  -3.312  0.00  0.00    -0.166 F 
ATOM     19  F   UNL d   1      -2.560  -5.568  -3.130  0.00  0.00    -0.166 F 
ATOM     20  F   UNL d   1      -4.274  -4.796  -2.036  0.00  0.00    -0.166 F 
ENDBRANCH  13  17
ENDBRANCH   3  11
TORSDOF 3
