REMARK  2 active torsions:
REMARK  status: ('A' for Active; 'I' for Inactive)
REMARK    1  A    between atoms: C_6  and  C_3 
REMARK    2  A    between atoms: C_7  and  C_6 
REMARK       I    between atoms: N_11  and  C_7 
ROOT
ATOM      1  C   UNL d   1      -0.236  -0.736   0.953  0.00  0.00     0.059 A 
ATOM      2  S   UNL d   1       0.556   0.667   0.410  0.00  0.00    -0.075 SA
ATOM      3  C   UNL d   1      -0.898  -1.426  -0.046  0.00  0.00    -0.023 A 
ATOM      4  C   UNL d   1       0.034   0.394  -1.175  0.00  0.00     0.053 A 
ATOM      5  C   UNL d   1      -0.738  -0.733  -1.302  0.00  0.00     0.036 A 
ATOM      6 BR   UNL d   1      -0.178  -1.247   2.761  0.00  0.00    -0.042 Br
ATOM      7 BR   UNL d   1       0.475   1.516  -2.608  0.00  0.00    -0.043 Br
ENDROOT
BRANCH   3   8
ATOM      8  C   UNL d   1      -1.655  -2.720   0.088  0.00  0.00     0.143 C 
BRANCH   8   9
ATOM      9  C   UNL d   1      -3.153  -2.522   0.224  0.00  0.00     0.219 C 
ATOM     10  O   UNL d   1      -3.962  -2.970  -0.581  0.00  0.00    -0.273 OA
ATOM     11  N   UNL d   1      -3.581  -1.866   1.342  0.00  0.00    -0.370 N 
ATOM     12  H   UNL d   1      -2.960  -1.308   1.911  0.00  0.00     0.159 HD
ATOM     13  H   UNL d   1      -4.576  -1.697   1.418  0.00  0.00     0.159 HD
ENDBRANCH   8   9
ENDBRANCH   3   8
TORSDOF 2
