REMARK  5 active torsions:
REMARK  status: ('A' for Active; 'I' for Inactive)
REMARK    1  A    between atoms: S_9  and  C_1 
REMARK    2  A    between atoms: C_7  and  C_3 
REMARK    3  A    between atoms: O_16  and  C_7 
REMARK    4  A    between atoms: C_15  and  S_9 
REMARK    5  A    between atoms: C_25  and  O_16 
ROOT
ATOM      1  C   UNL d   1       1.337  -1.467  -0.064  0.00  0.00     0.038 A 
ATOM      2  C   UNL d   1       0.064  -0.804   0.010  0.00  0.00     0.051 A 
ATOM      3  C   UNL d   1       2.513  -0.701  -0.154  0.00  0.00     0.072 A 
ATOM      4  N   UNL d   1       1.217   1.323   0.010  0.00  0.00    -0.362 N 
ATOM      5  HN  UNL d   1       1.191   2.342   0.060  1.00  0.00     0.165 HD
ATOM      6  C   UNL d   1       0.076   0.612   0.033  0.00  0.00     0.086 A 
ATOM      7  C   UNL d   1       2.395   0.673  -0.080  0.00  0.00     0.107 A 
ATOM      8  C   UNL d   1      -1.216  -1.430   0.043  0.00  0.00     0.130 A 
ATOM      9  C   UNL d   1      -1.136   1.306   0.073  0.00  0.00     0.144 A 
ATOM     10  C   UNL d   1      -2.411  -0.712   0.069  0.00  0.00     0.046 A 
ATOM     11  C   UNL d   1      -2.372   0.669   0.084  0.00  0.00     0.048 A 
ATOM     12  F   UNL d   1      -1.334  -2.765   0.017  0.00  0.00    -0.205 F 
ATOM     13  F   UNL d   1      -1.134   2.649   0.090  0.00  0.00    -0.204 F 
ENDROOT
BRANCH   1  14
ATOM     14  S   UNL d   1       1.463  -3.262   0.086  0.00  0.00    -0.088 SA
BRANCH  14  15
ATOM     15  C   UNL d   1       1.153  -3.878  -1.565  0.00  0.00     0.005 A 
ATOM     16  C   UNL d   1       1.083  -3.074  -2.709  0.00  0.00     0.020 A 
ATOM     17  C   UNL d   1       0.826  -3.637  -3.963  0.00  0.00     0.025 A 
ATOM     18  C   UNL d   1       0.641  -5.011  -4.082  0.00  0.00     0.034 A 
ATOM     19  C   UNL d   1       0.726  -5.829  -2.960  0.00  0.00     0.025 A 
ATOM     20 CL   UNL d   1       0.304  -5.699  -5.622  0.00  0.00    -0.084 Cl
ATOM     21  C   UNL d   1       0.984  -5.263  -1.708  0.00  0.00     0.020 A 
ENDBRANCH  14  15
ENDBRANCH   1  14
BRANCH   3  22
ATOM     22  C   UNL d   1       3.885  -1.202  -0.362  0.00  0.00     0.296 C 
ATOM     23  O   UNL d   1       4.867  -0.693   0.155  0.00  0.00    -0.259 OA
BRANCH  22  24
ATOM     24  O   UNL d   1       3.884  -2.159  -1.317  0.00  0.00    -0.318 OA
BRANCH  24  25
ATOM     25  C   UNL d   1       5.161  -2.663  -1.733  0.00  0.00     0.174 C 
ATOM     26  C   UNL d   1       5.751  -3.606  -0.701  0.00  0.00     0.034 C 
ENDBRANCH  24  25
ENDBRANCH  22  24
ENDBRANCH   3  22
TORSDOF 5
