REMARK  6 active torsions:
REMARK  status: ('A' for Active; 'I' for Inactive)
REMARK    1  A    between atoms: N_2  and  C_1 
REMARK       I    between atoms: C_7  and  N_2 
REMARK    2  A    between atoms: N_9  and  N_2 
REMARK    3  A    between atoms: O_13  and  C_7 
REMARK       I    between atoms: C_10  and  N_9 
REMARK    4  A    between atoms: O_14  and  C_10 
REMARK    5  A    between atoms: C_20  and  O_13 
REMARK    6  A    between atoms: C_21  and  O_14 
ROOT
ATOM      1  N   UNL d   1       0.174   3.084   0.175  0.00  0.00    -0.211 N 
ATOM      2  C   UNL d   1       0.897   3.733   1.196  0.00  0.00     0.382 C 
ATOM      3  O   UNL d   1       1.110   4.943   1.162  0.00  0.00    -0.236 OA
ENDROOT
BRANCH   1   4
ATOM      4  C   UNL d   1       0.064   1.663   0.042  0.00  0.00     0.070 C 
ATOM      5  C   UNL d   1      -1.196   1.021  -0.009  0.00  0.00    -0.026 C 
ATOM      6  C   UNL d   1      -1.250  -0.404   0.036  0.00  0.00    -0.047 C 
ATOM      7  C   UNL d   1      -2.488   1.797  -0.078  0.00  0.00     0.051 C 
ATOM      8  C   UNL d   1      -2.572  -1.147   0.004  0.00  0.00     0.049 C 
ATOM      9  C   UNL d   1      -0.051  -1.170   0.089  0.00  0.00    -0.049 C 
ATOM     10  C   UNL d   1       1.202  -0.519   0.052  0.00  0.00    -0.047 C 
ATOM     11  C   UNL d   1      -0.145  -2.682   0.124  0.00  0.00     0.049 C 
ATOM     12  C   UNL d   1       1.253   0.894  -0.062  0.00  0.00    -0.026 C 
ATOM     13  C   UNL d   1       2.479  -1.329   0.081  0.00  0.00     0.049 C 
ATOM     14  C   UNL d   1       2.558   1.553  -0.447  0.00  0.00     0.051 C 
ENDBRANCH   1   4
BRANCH   1  15
ATOM     15  N   UNL d   1      -0.298   3.959  -0.856  0.00  0.00    -0.137 NA
ATOM     16  C   UNL d   1       0.161   3.758  -2.133  0.00  0.00     0.356 C 
ATOM     17  O   UNL d   1       0.435   2.686  -2.650  0.00  0.00    -0.244 OA
ATOM     18  H   UNL d   1      -0.217   4.939  -0.581  0.00  0.00     0.159 HD
BRANCH  16  19
ATOM     19  O   UNL d   1       0.364   4.964  -2.728  0.00  0.00    -0.308 OA
BRANCH  19  20
ATOM     20  C   UNL d   1       1.149   4.903  -3.936  0.00  0.00     0.175 C 
ATOM     21  C   UNL d   1       2.621   4.956  -3.568  0.00  0.00     0.034 C 
ENDBRANCH  19  20
ENDBRANCH  16  19
ENDBRANCH   1  15
BRANCH   2  22
ATOM     22  O   UNL d   1       1.251   2.927   2.239  0.00  0.00    -0.303 OA
BRANCH  22  23
ATOM     23  C   UNL d   1       1.834   3.586   3.376  0.00  0.00     0.176 C 
ATOM     24  C   UNL d   1       3.342   3.663   3.235  0.00  0.00     0.034 C 
ENDBRANCH  22  23
ENDBRANCH   2  22
TORSDOF 6
