REMARK  2 active torsions:
REMARK  status: ('A' for Active; 'I' for Inactive)
REMARK    1  A    between atoms: C_8  and  C_7 
REMARK    2  A    between atoms: C_13  and  C_12 
ROOT
ATOM      1  C   UNL d   1       1.185   0.143  -0.064  0.00  0.00     0.100 A 
ATOM      2  N   UNL d   1      -0.795  -1.243  -0.082  0.00  0.00    -0.275 N 
ATOM      3  N   UNL d   1      -1.050   1.053  -0.180  0.00  0.00    -0.275 N 
ATOM      4  C   UNL d   1       0.569  -1.213  -0.038  0.00  0.00     0.265 A 
ATOM      5  C   UNL d   1       0.285   1.331  -0.103  0.00  0.00     0.265 A 
ATOM      6  C   UNL d   1      -1.632  -0.172  -0.147  0.00  0.00     0.329 A 
ATOM      7  C   UNL d   1       2.533   0.190  -0.042  0.00  0.00     0.023 C 
ATOM      8  O   UNL d   1       1.216  -2.254   0.023  0.00  0.00    -0.267 OA
ATOM      9  O   UNL d   1       0.655   2.498  -0.058  0.00  0.00    -0.267 OA
ATOM     10  O   UNL d   1      -2.850  -0.310  -0.168  0.00  0.00    -0.246 OA
ATOM     11  H   UNL d   1      -1.230  -2.154  -0.057  0.00  0.00     0.173 HD
ATOM     12  H   UNL d   1      -1.672   1.849  -0.203  0.00  0.00     0.173 HD
ENDROOT
BRANCH   7  13
ATOM     13  C   UNL d   1       3.369   1.371  -0.053  0.00  0.00     0.002 C 
ATOM     14  C   UNL d   1       4.710   1.354   0.015  0.00  0.00     0.011 C 
BRANCH  14  15
ATOM     15  C   UNL d   1       5.514   2.589   0.061  0.00  0.00    -0.036 A 
ATOM     16  C   UNL d   1       5.038   3.759   0.674  0.00  0.00     0.011 A 
ATOM     17  C   UNL d   1       5.822   4.913   0.727  0.00  0.00     0.001 A 
ATOM     18  C   UNL d   1       7.102   4.907   0.183  0.00  0.00     0.000 A 
ATOM     19  C   UNL d   1       7.598   3.748  -0.411  0.00  0.00     0.001 A 
ATOM     20  C   UNL d   1       6.810   2.593  -0.469  0.00  0.00     0.011 A 
ENDBRANCH  14  15
ENDBRANCH   7  13
TORSDOF 2
