REMARK  4 active torsions:
REMARK  status: ('A' for Active; 'I' for Inactive)
REMARK    1  A    between atoms: S_14  and  C_2 
REMARK    2  A    between atoms: C_11  and  C_3 
REMARK    3  A    between atoms: C_8  and  S_10 
REMARK    4  A    between atoms: S_10  and  C_11 
ROOT
ATOM      1  N   UNL d   1      -0.269  -0.751  -0.874  0.00  0.00    -0.319 N 
ATOM      2  C   UNL d   1       0.950  -0.391  -0.360  0.00  0.00     0.159 A 
ATOM      3  C   UNL d   1      -1.201  -0.311   0.053  0.00  0.00     0.109 A 
ATOM      4  N   UNL d   1       0.781   0.215   0.791  0.00  0.00    -0.279 N 
ATOM      5  HN  UNL d   1       1.521   0.586   1.387  1.00  0.00     0.189 HD
ATOM      6  N   UNL d   1      -0.563   0.263   1.052  0.00  0.00    -0.286 N 
ATOM      7  HN  UNL d   1      -0.996   0.674   1.879  1.00  0.00     0.188 HD
ATOM      8  C   UNL d   1      -0.576  -1.421  -2.108  0.00  0.00     0.159 C 
ENDROOT
BRANCH   3   9
ATOM      9  C   UNL d   1      -2.688  -0.385  -0.076  0.00  0.00     0.158 C 
BRANCH   9  10
ATOM     10  S   UNL d   1      -3.311  -2.086   0.017  0.00  0.00    -0.115 SA
BRANCH  10  11
ATOM     11  C   UNL d   1      -5.066  -1.911  -0.018  0.00  0.00     0.041 A 
ATOM     12  S   UNL d   1      -5.921  -0.428  -0.042  0.00  0.00    -0.095 SA
ATOM     13  C   UNL d   1      -7.439  -1.214  -0.031  0.00  0.00     0.051 A 
ATOM     14  C   UNL d   1      -7.306  -2.583  -0.025  0.00  0.00     0.009 A 
ATOM     15  C   UNL d   1      -5.937  -2.983  -0.019  0.00  0.00     0.026 A 
ENDBRANCH  10  11
ENDBRANCH   9  10
ENDBRANCH   3   9
BRANCH   2  16
ATOM     16  S   UNL d   1       2.501  -0.641  -1.083  0.00  0.00    -0.105 SA
ATOM     17  H   UNL d   1       2.192  -1.372  -2.156  0.00  0.00     0.110 HD
ENDBRANCH   2  16
TORSDOF 4
