REMARK  3 active torsions:
REMARK  status: ('A' for Active; 'I' for Inactive)
REMARK    1  A    between atoms: C_2  and  C_1 
REMARK    2  A    between atoms: C_3  and  C_1 
REMARK    3  A    between atoms: C_8  and  C_3 
ROOT
ATOM      1  C   UNL d   1       0.860   0.312  -0.007  0.00  0.00     0.163 C 
ATOM      2  O   UNL d   1       0.951   1.208   0.829  0.00  0.00    -0.292 OA
ENDROOT
BRANCH   1   3
ATOM      3  C   UNL d   1       1.558   0.466  -1.306  0.00  0.00     0.010 A 
ATOM      4  C   UNL d   1       0.956   0.076  -2.505  0.00  0.00     0.017 A 
ATOM      5  C   UNL d   1       1.668   0.189  -3.703  0.00  0.00     0.025 A 
ATOM      6  C   UNL d   1       2.973   0.683  -3.695  0.00  0.00     0.034 A 
ATOM      7  C   UNL d   1       3.569   1.089  -2.502  0.00  0.00     0.025 A 
ATOM      8 CL   UNL d   1       3.855   0.785  -5.168  0.00  0.00    -0.084 Cl
ATOM      9  C   UNL d   1       2.857   0.988  -1.306  0.00  0.00     0.017 A 
ENDBRANCH   1   3
BRANCH   1  10
ATOM     10  C   UNL d   1       0.141  -0.997   0.259  0.00  0.00     0.122 C 
BRANCH  10  11
ATOM     11  C   UNL d   1      -1.367  -0.966   0.181  0.00  0.00    -0.051 A 
ATOM     12  C   UNL d   1      -2.050  -2.134  -0.198  0.00  0.00     0.007 A 
ATOM     13  C   UNL d   1      -3.444  -2.189  -0.176  0.00  0.00     0.001 A 
ATOM     14  C   UNL d   1      -4.177  -1.076   0.227  0.00  0.00     0.000 A 
ATOM     15  C   UNL d   1      -3.515   0.091   0.601  0.00  0.00     0.001 A 
ATOM     16  C   UNL d   1      -2.119   0.146   0.584  0.00  0.00     0.007 A 
ENDBRANCH  10  11
ENDBRANCH   1  10
TORSDOF 3
