REMARK  4 active torsions:
REMARK  status: ('A' for Active; 'I' for Inactive)
REMARK       I    between atoms: N_4  and  C_1 
REMARK    1  A    between atoms: O_11  and  C_1 
REMARK    2  A    between atoms: N_2  and  O_11 
REMARK    3  A    between atoms: C_9  and  N_4 
REMARK    4  A    between atoms: C_5  and  C_8 
ROOT
ATOM      1  N   UNL d   1      -1.014   1.090   0.344  0.00  0.00    -0.260 N 
ATOM      2  HN  UNL d   1      -1.456   0.420  -0.285  1.00  0.00     0.194 HD
ATOM      3  C   UNL d   1      -1.638   2.068   0.949  0.00  0.00     0.039 C 
ATOM      4  C   UNL d   1      -3.150   2.066   0.862  0.00  0.00     0.071 C 
ENDROOT
BRANCH   1   5
ATOM      5  O   UNL d   1       0.353   1.090   0.683  0.00  0.00    -0.181 OA
BRANCH   5   6
ATOM      6  C   UNL d   1       1.001  -0.083   0.374  0.00  0.00     0.387 C 
ATOM      7  N   UNL d   1       0.464  -0.782  -0.683  0.00  0.00    -0.301 N 
ATOM      8  H   UNL d   1      -0.209  -0.263  -1.224  0.00  0.00     0.171 HD
ATOM      9  O   UNL d   1       2.035  -0.374   0.975  0.00  0.00    -0.236 OA
BRANCH   7  10
ATOM     10  C   UNL d   1       0.919  -2.050  -1.106  0.00  0.00     0.042 A 
ATOM     11  C   UNL d   1       0.883  -2.432  -2.457  0.00  0.00    -0.035 A 
ATOM     12  C   UNL d   1       0.487  -1.517  -3.582  0.00  0.00     0.050 C 
ATOM     13  C   UNL d   1       1.314  -3.728  -2.807  0.00  0.00     0.009 A 
ATOM     14  C   UNL d   1       1.770  -4.626  -1.841  0.00  0.00     0.001 A 
ATOM     15  C   UNL d   1       1.805  -4.244  -0.510  0.00  0.00     0.002 A 
ATOM     16  C   UNL d   1       1.385  -2.965  -0.145  0.00  0.00     0.030 A 
ENDBRANCH   7  10
ENDBRANCH   5   6
ENDBRANCH   1   5
BRANCH   3  17
ATOM     17  C   UNL d   1      -0.996   3.163   1.750  0.00  0.00    -0.011 A 
ATOM     18  C   UNL d   1       0.200   3.748   1.302  0.00  0.00     0.023 A 
ATOM     19  C   UNL d   1       0.813   4.699   2.098  0.00  0.00    -0.022 A 
ATOM     20  C   UNL d   1       2.083   5.425   1.882  0.00  0.00     0.068 C 
ATOM     21  C   UNL d   1       0.225   5.130   3.272  0.00  0.00     0.075 A 
ATOM     22  C   UNL d   1       2.232   6.072   3.261  0.00  0.00     0.180 C 
ATOM     23  O   UNL d   1       0.944   6.095   3.924  0.00  0.00    -0.350 OA
ATOM     24  C   UNL d   1      -0.980   4.620   3.711  0.00  0.00     0.038 A 
ATOM     25  C   UNL d   1      -1.587   3.612   2.951  0.00  0.00     0.016 A 
ENDBRANCH   3  17
TORSDOF 4
