REMARK  6 active torsions:
REMARK  status: ('A' for Active; 'I' for Inactive)
REMARK    1  A    between atoms: N_5  and  C_1 
REMARK       I    between atoms: C_6  and  N_5 
REMARK    2  A    between atoms: C_9  and  C_6 
REMARK    3  A    between atoms: S_13  and  C_25 
REMARK    4  A    between atoms: C_24  and  S_13 
REMARK    5  A    between atoms: C_25  and  C_17 
REMARK    6  A    between atoms: C_18  and  C_24 
ROOT
ATOM      1  C   UNL d   1      -1.271  -3.770   0.058  0.00  0.00     0.032 A 
ATOM      2  C   UNL d   1      -0.379  -3.392   1.070  0.00  0.00     0.017 A 
ATOM      3  C   UNL d   1      -0.928  -4.820  -0.801  0.00  0.00     0.017 A 
ATOM      4  C   UNL d   1       0.875  -4.000   1.174  0.00  0.00     0.009 A 
ATOM      5  C   UNL d   1       0.327  -5.429  -0.692  0.00  0.00     0.009 A 
ATOM      6  C   UNL d   1       1.257  -4.997   0.267  0.00  0.00    -0.049 A 
ENDROOT
BRANCH   1   7
ATOM      7  C   UNL d   1      -2.543  -2.997  -0.079  0.00  0.00     0.257 C 
ATOM      8  N   UNL d   1      -3.019  -2.880  -1.371  0.00  0.00    -0.307 N 
ATOM      9  H   UNL d   1      -2.518  -3.312  -2.130  0.00  0.00     0.170 HD
ATOM     10  O   UNL d   1      -3.014  -2.486   0.929  0.00  0.00    -0.267 OA
BRANCH   8  11
ATOM     11  C   UNL d   1      -4.042  -2.026  -1.747  0.00  0.00     0.130 A 
ATOM     12  N   UNL d   1      -4.762  -1.250  -0.933  0.00  0.00    -0.245 N 
ATOM     13  O   UNL d   1      -5.589  -0.496  -1.741  0.00  0.00    -0.241 OA
ATOM     14  HN  UNL d   1      -4.710  -1.219   0.085  1.00  0.00     0.196 HD
ATOM     15  C   UNL d   1      -5.373  -0.826  -3.040  0.00  0.00     0.076 A 
ATOM     16  C   UNL d   1      -4.433  -1.824  -3.095  0.00  0.00     0.084 A 
ATOM     17  C   UNL d   1      -6.134  -0.063  -4.044  0.00  0.00     0.079 C 
ENDBRANCH   8  11
ENDBRANCH   1   7
BRANCH   6  18
ATOM     18  C   UNL d   1       2.642  -5.596   0.334  0.00  0.00     0.112 C 
BRANCH  18  19
ATOM     19  S   UNL d   1       3.584  -5.438  -1.221  0.00  0.00    -0.160 SA
BRANCH  19  20
ATOM     20  C   UNL d   1       3.660  -3.623  -1.357  0.00  0.00     0.112 C 
BRANCH  20  21
ATOM     21  C   UNL d   1       4.399  -3.198  -2.606  0.00  0.00    -0.049 A 
ATOM     22  C   UNL d   1       3.706  -3.006  -3.812  0.00  0.00     0.009 A 
ATOM     23  C   UNL d   1       4.386  -2.617  -4.969  0.00  0.00     0.024 A 
ATOM     24  C   UNL d   1       5.765  -2.425  -4.928  0.00  0.00     0.034 A 
ATOM     25  C   UNL d   1       6.470  -2.621  -3.743  0.00  0.00     0.024 A 
ATOM     26 CL   UNL d   1       6.602  -1.942  -6.352  0.00  0.00    -0.084 Cl
ATOM     27  C   UNL d   1       5.790  -3.011  -2.584  0.00  0.00     0.009 A 
ENDBRANCH  20  21
ENDBRANCH  19  20
ENDBRANCH  18  19
ENDBRANCH   6  18
TORSDOF 6
