REMARK  4 active torsions:
REMARK  status: ('A' for Active; 'I' for Inactive)
REMARK    1  A    between atoms: C_3  and  C_1 
REMARK    2  A    between atoms: C_6  and  C_2 
REMARK    3  A    between atoms: C_8  and  C_3 
REMARK    4  A    between atoms: C_9  and  C_10 
ROOT
ATOM      1  C   UNL d   1       1.097  -0.320   0.375  0.00  0.00     0.096 C 
ATOM      2  C   UNL d   1       0.358   0.196   1.376  0.00  0.00     0.045 C 
ATOM      3  C   UNL d   1       2.518  -0.245   0.359  0.00  0.00     0.103 C 
ATOM      4  N   UNL d   1       3.680  -0.211   0.351  0.00  0.00    -0.191 NA
ENDROOT
BRANCH   1   5
ATOM      5  C   UNL d   1       0.341  -0.930  -0.764  0.00  0.00     0.202 C 
ATOM      6  O   UNL d   1      -0.848  -0.668  -0.947  0.00  0.00    -0.286 OA
BRANCH   5   7
ATOM      7  C   UNL d   1       1.030  -1.826  -1.734  0.00  0.00     0.015 A 
ATOM      8  C   UNL d   1       2.055  -2.701  -1.373  0.00  0.00     0.016 A 
ATOM      9  C   UNL d   1       2.713  -3.456  -2.351  0.00  0.00     0.009 A 
ATOM     10  C   UNL d   1       2.342  -3.393  -3.708  0.00  0.00    -0.051 A 
ATOM     11  C   UNL d   1       1.252  -2.571  -4.035  0.00  0.00     0.009 A 
ATOM     12  C   UNL d   1       0.605  -1.797  -3.064  0.00  0.00     0.016 A 
BRANCH  10  13
ATOM     13  C   UNL d   1       3.136  -4.179  -4.767  0.00  0.00    -0.024 C 
ATOM     14  C   UNL d   1       2.581  -4.010  -6.199  0.00  0.00     0.019 C 
ATOM     15  C   UNL d   1       4.600  -3.685  -4.780  0.00  0.00     0.019 C 
ATOM     16  C   UNL d   1       3.122  -5.688  -4.445  0.00  0.00     0.019 C 
ENDBRANCH  10  13
ENDBRANCH   5   7
ENDBRANCH   1   5
BRANCH   2  17
ATOM     17  C   UNL d   1       0.957   0.826   2.500  0.00  0.00     0.006 A 
ATOM     18  S   UNL d   1       1.359  -0.093   3.895  0.00  0.00    -0.102 SA
ATOM     19  C   UNL d   1       2.068   1.258   4.663  0.00  0.00     0.050 A 
ATOM     20  C   UNL d   1       1.962   2.400   3.903  0.00  0.00     0.008 A 
ATOM     21  C   UNL d   1       1.304   2.154   2.663  0.00  0.00     0.019 A 
ENDBRANCH   2  17
TORSDOF 4
