REMARK  7 active torsions:
REMARK  status: ('A' for Active; 'I' for Inactive)
REMARK    1  A    between atoms: C_3  and  N_1 
REMARK    2  A    between atoms: C_2  and  N_6 
REMARK    3  A    between atoms: N_4  and  C_2 
REMARK    4  A    between atoms: C_10  and  N_4 
REMARK    5  A    between atoms: N_6  and  N_9 
REMARK    6  A    between atoms: N_9  and  C_14 
REMARK    7  A    between atoms: O_18  and  C_15 
ROOT
ATOM      1  N   UNL d   1      -1.543   0.046  -5.865  0.00  0.00    -0.293 N 
ATOM      2  H   UNL d   1      -0.711  -0.519  -6.000  0.00  0.00     0.183 HD
ENDROOT
BRANCH   1   3
ATOM      3  C   UNL d   1      -2.216   0.379  -7.014  0.00  0.00     0.187 C 
ATOM      4  S   UNL d   1      -1.687  -0.209  -8.483  0.00  0.00    -0.040 SA
BRANCH   3   5
ATOM      5  N   UNL d   1      -3.260   1.262  -6.954  0.00  0.00    -0.332 N 
ATOM      6  H   UNL d   1      -3.475   1.720  -7.836  0.00  0.00     0.168 HD
BRANCH   5   7
ATOM      7  C   UNL d   1      -4.302   1.291  -6.002  0.00  0.00     0.036 A 
ATOM      8  C   UNL d   1      -4.522   0.239  -5.100  0.00  0.00     0.066 A 
ATOM      9  C   UNL d   1      -5.593   0.274  -4.212  0.00  0.00     0.070 A 
ATOM     10  C   UNL d   1      -6.436   1.384  -4.205  0.00  0.00     0.037 A 
ATOM     11  C   UNL d   1      -6.233   2.433  -5.101  0.00  0.00     0.005 A 
ATOM     12  C   UNL d   1      -5.176   2.377  -6.011  0.00  0.00     0.029 A 
BRANCH   9  13
ATOM     13  O   UNL d   1      -5.913  -0.710  -3.315  0.00  0.00    -0.356 OA
ATOM     14  C   UNL d   1      -5.136  -1.901  -3.367  0.00  0.00     0.210 C 
ENDBRANCH   9  13
ENDBRANCH   5   7
ENDBRANCH   3   5
ENDBRANCH   1   3
BRANCH   1  15
ATOM     15  N   UNL d   1      -1.500   0.992  -4.810  0.00  0.00    -0.204 NA
ATOM     16  H   UNL d   1      -1.828   1.911  -5.117  0.00  0.00     0.153 HD
BRANCH  15  17
ATOM     17  C   UNL d   1      -0.296   1.058  -4.074  0.00  0.00     0.027 A 
ATOM     18  C   UNL d   1       0.077   2.281  -3.491  0.00  0.00     0.027 A 
ATOM     19  C   UNL d   1       1.202   2.381  -2.663  0.00  0.00     0.038 A 
ATOM     20  C   UNL d   1       1.956   1.237  -2.390  0.00  0.00     0.103 A 
ATOM     21  C   UNL d   1       1.592   0.004  -2.940  0.00  0.00     0.038 A 
ATOM     22  C   UNL d   1       0.462  -0.081  -3.763  0.00  0.00     0.027 A 
BRANCH  20  23
ATOM     23  N   UNL d   1       3.118   1.320  -1.496  0.00  0.00    -0.116 N 
ATOM     24  O   UNL d   1       3.727   0.271  -1.244  0.00  0.00    -0.532 OA
ATOM     25  O   UNL d   1       3.421   2.435  -1.047  0.00  0.00    -0.532 OA
ENDBRANCH  20  23
ENDBRANCH  15  17
ENDBRANCH   1  15
TORSDOF 7
