REMARK  4 active torsions:
REMARK  status: ('A' for Active; 'I' for Inactive)
REMARK    1  A    between atoms: C_6  and  N_1 
REMARK    2  A    between atoms: C_5  and  C_7 
REMARK    3  A    between atoms: O_14  and  C_5 
REMARK    4  A    between atoms: C_12  and  C_6 
ROOT
ATOM      1  C   UNL d   1      -2.691  -3.739  -1.288  0.00  0.00     0.040 A 
ATOM      2  C   UNL d   1      -1.503  -2.994  -1.231  0.00  0.00     0.026 A 
ATOM      3  C   UNL d   1      -0.603  -3.159  -0.164  0.00  0.00    -0.039 A 
ATOM      4  C   UNL d   1      -2.961  -4.679  -0.286  0.00  0.00     0.017 A 
ATOM      5  C   UNL d   1      -2.055  -4.874   0.758  0.00  0.00     0.002 A 
ATOM      6  C   UNL d   1      -0.881  -4.119   0.818  0.00  0.00     0.009 A 
ENDROOT
BRANCH   3   7
ATOM      7  C   UNL d   1       0.623  -2.279  -0.056  0.00  0.00     0.174 C 
BRANCH   7   8
ATOM      8  N   UNL d   1       1.809  -2.869  -0.639  0.00  0.00    -0.274 N 
ATOM      9  C   UNL d   1       2.087  -2.713  -1.965  0.00  0.00     0.289 A 
ATOM     10  S   UNL d   1       3.607  -3.475  -2.372  0.00  0.00    -0.059 SA
ATOM     11  O   UNL d   1       1.421  -2.109  -2.790  0.00  0.00    -0.260 OA
ATOM     12  C   UNL d   1       3.967  -3.898  -0.659  0.00  0.00     0.187 A 
ATOM     13  C   UNL d   1       2.757  -3.487   0.138  0.00  0.00     0.237 A 
ATOM     14  O   UNL d   1       2.671  -3.662   1.349  0.00  0.00    -0.272 OA
ENDBRANCH   7   8
ENDBRANCH   3   7
BRANCH   1  15
ATOM     15  C   UNL d   1      -3.709  -3.541  -2.359  0.00  0.00     0.292 C 
ATOM     16  O   UNL d   1      -4.740  -4.189  -2.440  0.00  0.00    -0.259 OA
BRANCH  15  17
ATOM     17  O   UNL d   1      -3.338  -2.530  -3.183  0.00  0.00    -0.323 OA
ATOM     18  C   UNL d   1      -4.290  -2.220  -4.200  0.00  0.00     0.213 C 
ENDBRANCH  15  17
ENDBRANCH   1  15
TORSDOF 4
