REMARK  7 active torsions:
REMARK  status: ('A' for Active; 'I' for Inactive)
REMARK    1  A    between atoms: C_2  and  C_1 
REMARK       I    between atoms: N_4  and  C_2 
REMARK    2  A    between atoms: C_3  and  C_9 
REMARK    3  A    between atoms: C_11  and  N_4 
REMARK    4  A    between atoms: O_8  and  C_5 
REMARK    5  A    between atoms: C_9  and  O_8 
REMARK    6  A    between atoms: O_22  and  C_15 
REMARK    7  A    between atoms: O_23  and  C_16 
ROOT
ATOM      1  C   UNL d   1       1.436  -0.266  -0.142  0.00  0.00     0.068 A 
ATOM      2  C   UNL d   1       0.618  -1.409  -0.021  0.00  0.00     0.085 A 
ATOM      3  C   UNL d   1       0.821   0.998  -0.250  0.00  0.00     0.056 A 
ATOM      4  C   UNL d   1      -0.778  -1.246   0.036  0.00  0.00     0.040 A 
ATOM      5  C   UNL d   1      -0.568   1.141  -0.171  0.00  0.00     0.069 A 
ATOM      6  C   UNL d   1      -1.370   0.015  -0.038  0.00  0.00     0.039 A 
ENDROOT
BRANCH   1   7
ATOM      7  C   UNL d   1       2.917  -0.296   0.059  0.00  0.00     0.259 C 
ATOM      8  N   UNL d   1       3.673   0.616  -0.671  0.00  0.00    -0.323 N 
ATOM      9  H   UNL d   1       3.186   1.246  -1.294  0.00  0.00     0.169 HD
ATOM     10  O   UNL d   1       3.361  -1.081   0.886  0.00  0.00    -0.267 OA
BRANCH   8  11
ATOM     11  C   UNL d   1       5.065   0.847  -0.536  0.00  0.00     0.035 A 
ATOM     12  C   UNL d   1       5.922   0.040   0.218  0.00  0.00     0.032 A 
ATOM     13  C   UNL d   1       7.274   0.375   0.386  0.00  0.00     0.039 A 
ATOM     14  C   UNL d   1       7.786   1.530  -0.197  0.00  0.00     0.068 A 
ATOM     15  C   UNL d   1       6.961   2.300  -1.014  0.00  0.00     0.039 A 
ATOM     16  C   UNL d   1       5.612   1.965  -1.182  0.00  0.00     0.032 A 
BRANCH  14  17
ATOM     17  O   UNL d   1       9.078   1.961  -0.059  0.00  0.00    -0.356 OA
ATOM     18  C   UNL d   1       9.653   1.709   1.222  0.00  0.00     0.210 C 
ENDBRANCH  14  17
ENDBRANCH   8  11
ENDBRANCH   1   7
BRANCH   2  19
ATOM     19  O   UNL d   1       0.981  -2.722   0.115  0.00  0.00    -0.341 OA
BRANCH  19  20
ATOM     20  C   UNL d   1       2.132  -3.194  -0.600  0.00  0.00     0.293 C 
BRANCH  20  21
ATOM     21  C   UNL d   1       1.961  -4.636  -1.075  0.00  0.00     0.408 C 
ATOM     22  F   UNL d   1       0.730  -5.135  -0.831  0.00  0.00    -0.169 F 
ATOM     23  F   UNL d   1       2.171  -4.725  -2.411  0.00  0.00    -0.169 F 
ATOM     24  F   UNL d   1       2.857  -5.458  -0.478  0.00  0.00    -0.169 F 
ENDBRANCH  20  21
ENDBRANCH  19  20
ENDBRANCH   2  19
BRANCH   5  25
ATOM     25  O   UNL d   1      -1.029   2.428  -0.225  0.00  0.00    -0.356 OA
ATOM     26  C   UNL d   1      -2.196   2.685   0.554  0.00  0.00     0.210 C 
ENDBRANCH   5  25
TORSDOF 7
