REMARK  4 active torsions:
REMARK  status: ('A' for Active; 'I' for Inactive)
REMARK    1  A    between atoms: C_2  and  C_1 
REMARK    2  A    between atoms: S_4  and  C_3 
REMARK    3  A    between atoms: C_10  and  S_4 
REMARK    4  A    between atoms: C_12  and  C_10 
ROOT
ATOM      1  C   UNL d   1       0.642   1.332  -3.054  0.00  0.00     0.081 A 
ATOM      2  C   UNL d   1       0.907   1.434  -1.690  0.00  0.00     0.085 A 
ATOM      3  N   UNL d   1       0.686   0.391  -0.844  0.00  0.00    -0.360 N 
ATOM      4  HN  UNL d   1       0.890   0.483   0.151  1.00  0.00     0.166 HD
ATOM      5  C   UNL d   1       0.121   0.107  -3.527  0.00  0.00     0.020 A 
ATOM      6  C   UNL d   1       0.194  -0.764  -1.334  0.00  0.00     0.089 A 
ATOM      7  C   UNL d   1      -0.108  -0.955  -2.662  0.00  0.00     0.018 A 
ENDROOT
BRANCH   2   8
ATOM      8  S   UNL d   1       1.539   2.909  -0.894  0.00  0.00    -0.107 SA
BRANCH   8   9
ATOM      9  C   UNL d   1       1.716   2.310   0.819  0.00  0.00     0.119 C 
BRANCH   9  10
ATOM     10  C   UNL d   1       2.262   3.342   1.782  0.00  0.00    -0.048 A 
ATOM     11  C   UNL d   1       1.489   3.757   2.880  0.00  0.00     0.009 A 
ATOM     12  C   UNL d   1       2.020   4.623   3.838  0.00  0.00     0.024 A 
ATOM     13  C   UNL d   1       3.326   5.087   3.705  0.00  0.00     0.034 A 
ATOM     14  C   UNL d   1       4.101   4.702   2.614  0.00  0.00     0.024 A 
ATOM     15 CL   UNL d   1       3.991   6.124   4.905  0.00  0.00    -0.084 Cl
ATOM     16  C   UNL d   1       3.571   3.832   1.656  0.00  0.00     0.009 A 
ENDBRANCH   9  10
ENDBRANCH   8   9
ENDBRANCH   2   8
BRANCH   1  17
ATOM     17  C   UNL d   1       0.863   2.411  -4.073  0.00  0.00     0.420 C 
ATOM     18  F   UNL d   1       1.393   3.581  -3.637  0.00  0.00    -0.166 F 
ATOM     19  F   UNL d   1      -0.298   2.750  -4.704  0.00  0.00    -0.166 F 
ATOM     20  F   UNL d   1       1.697   1.989  -5.070  0.00  0.00    -0.166 F 
ENDBRANCH   1  17
TORSDOF 4
