REMARK  6 active torsions:
REMARK  status: ('A' for Active; 'I' for Inactive)
REMARK       I    between atoms: N_3  and  C_1 
REMARK       I    between atoms: N_5  and  C_1 
REMARK       I    between atoms: C_2  and  N_6 
REMARK       I    between atoms: N_4  and  C_2 
REMARK    1  A    between atoms: C_10  and  N_3 
REMARK    2  A    between atoms: C_9  and  N_4 
REMARK    3  A    between atoms: C_20  and  N_5 
REMARK    4  A    between atoms: N_6  and  C_19 
REMARK    5  A    between atoms: C_23  and  C_25 
REMARK    6  A    between atoms: C_25  and  C_24 
ROOT
ATOM      1  C   UNL d   1      -5.353   0.948   0.421  0.00  0.00     0.077 C 
ENDROOT
BRANCH   1   2
ATOM      2  C   UNL d   1      -5.760  -0.507   0.427  0.00  0.00    -0.054 A 
ATOM      3  C   UNL d   1      -5.970  -1.220   1.617  0.00  0.00     0.010 A 
ATOM      4  C   UNL d   1      -6.191  -2.607   1.591  0.00  0.00     0.030 A 
ATOM      5  C   UNL d   1      -6.186  -3.304   0.378  0.00  0.00     0.036 A 
ATOM      6  C   UNL d   1      -6.051  -2.572  -0.804  0.00  0.00     0.030 A 
ATOM      7  C   UNL d   1      -5.840  -1.195  -0.783  0.00  0.00     0.010 A 
BRANCH   5   8
ATOM      8  N   UNL d   1      -6.261  -4.720   0.408  0.00  0.00    -0.309 N 
ATOM      9  C   UNL d   1      -6.159  -5.556  -0.695  0.00  0.00     0.325 C 
ATOM     10  N   UNL d   1      -6.127  -6.896  -0.336  0.00  0.00    -0.309 N 
ATOM     11  O   UNL d   1      -6.090  -5.166  -1.853  0.00  0.00    -0.247 OA
ATOM     12  H   UNL d   1      -5.846  -7.112   0.606  0.00  0.00     0.170 HD
ATOM     13  H   UNL d   1      -6.381  -5.150   1.311  0.00  0.00     0.170 HD
BRANCH  10  14
ATOM     14  C   UNL d   1      -6.193  -7.978  -1.250  0.00  0.00     0.036 A 
ATOM     15  C   UNL d   1      -6.616  -7.830  -2.575  0.00  0.00     0.037 A 
ATOM     16  C   UNL d   1      -6.714  -8.922  -3.453  0.00  0.00    -0.054 A 
ATOM     17  C   UNL d   1      -7.197  -8.676  -4.856  0.00  0.00     0.049 C 
ATOM     18  C   UNL d   1      -6.403 -10.207  -2.982  0.00  0.00    -0.056 A 
ATOM     19  C   UNL d   1      -5.962 -10.358  -1.658  0.00  0.00     0.009 A 
ATOM     20  C   UNL d   1      -6.563 -11.414  -3.864  0.00  0.00     0.049 C 
ATOM     21  C   UNL d   1      -5.861  -9.255  -0.799  0.00  0.00     0.030 A 
ENDBRANCH  10  14
ENDBRANCH   5   8
ENDBRANCH   1   2
BRANCH   1  22
ATOM     22  C   UNL d   1      -3.860   1.128   0.597  0.00  0.00    -0.054 A 
ATOM     23  C   UNL d   1      -2.951   0.860  -0.443  0.00  0.00     0.010 A 
ATOM     24  C   UNL d   1      -1.566   0.899  -0.220  0.00  0.00     0.030 A 
ATOM     25  C   UNL d   1      -1.075   1.186   1.053  0.00  0.00     0.036 A 
ATOM     26  C   UNL d   1      -1.980   1.542   2.059  0.00  0.00     0.030 A 
ATOM     27  C   UNL d   1      -3.356   1.499   1.843  0.00  0.00     0.010 A 
BRANCH  25  28
ATOM     28  N   UNL d   1       0.317   1.090   1.307  0.00  0.00    -0.309 N 
ATOM     29  C   UNL d   1       0.814   0.767   2.562  0.00  0.00     0.325 C 
ATOM     30  N   UNL d   1       2.181   0.957   2.659  0.00  0.00    -0.309 N 
ATOM     31  O   UNL d   1       0.098   0.375   3.479  0.00  0.00    -0.247 OA
ATOM     32  H   UNL d   1       2.637   1.390   1.870  0.00  0.00     0.170 HD
ATOM     33  H   UNL d   1       0.914   0.875   0.520  0.00  0.00     0.170 HD
BRANCH  30  34
ATOM     34  C   UNL d   1       2.940   0.850   3.854  0.00  0.00     0.036 A 
ATOM     35  C   UNL d   1       2.415   0.364   5.058  0.00  0.00     0.037 A 
ATOM     36  C   UNL d   1       3.147   0.383   6.254  0.00  0.00    -0.054 A 
ATOM     37  C   UNL d   1       2.475  -0.087   7.517  0.00  0.00     0.049 C 
ATOM     38  C   UNL d   1       4.462   0.870   6.245  0.00  0.00    -0.056 A 
ATOM     39  C   UNL d   1       5.016   1.303   5.030  0.00  0.00     0.009 A 
ATOM     40  C   UNL d   1       5.265   0.953   7.512  0.00  0.00     0.049 C 
ATOM     41  C   UNL d   1       4.263   1.293   3.847  0.00  0.00     0.030 A 
ENDBRANCH  30  34
ENDBRANCH  25  28
ENDBRANCH   1  22
TORSDOF 6
