REMARK  6 active torsions:
REMARK  status: ('A' for Active; 'I' for Inactive)
REMARK    1  A    between atoms: N_7  and  C_1 
REMARK    2  A    between atoms: C_8  and  C_2 
REMARK    3  A    between atoms: C_19  and  N_3 
REMARK       I    between atoms: N_9  and  C_8 
REMARK    4  A    between atoms: C_14  and  N_9 
REMARK    5  A    between atoms: C_12  and  C_14 
REMARK    6  A    between atoms: C_13  and  C_12 
ROOT
ATOM      1  C   UNL d   1       2.387  -1.245   0.912  0.00  0.00     0.272 C 
ATOM      2  N   UNL d   1       3.526  -0.482   0.906  0.00  0.00    -0.348 N 
ATOM      3  O   UNL d   1       2.455  -2.451   1.133  0.00  0.00    -0.266 OA
ATOM      4  H   UNL d   1       3.465   0.521   0.755  0.00  0.00     0.163 HD
ENDROOT
BRANCH   1   5
ATOM      5  C   UNL d   1       1.120  -0.580   0.674  0.00  0.00     0.153 C 
ATOM      6  C   UNL d   1       0.721   0.594   0.020  0.00  0.00     0.160 C 
ATOM      7  C   UNL d   1      -0.700   0.566   0.006  0.00  0.00     0.057 C 
ATOM      8  N   UNL d   1      -1.169  -0.493   0.667  0.00  0.00    -0.300 N 
ATOM      9  C   UNL d   1      -1.672   1.529  -0.574  0.00  0.00     0.072 C 
ATOM     10  N   UNL d   1      -0.072  -1.102   1.151  0.00  0.00    -0.285 N 
ATOM     11  HN  UNL d   1      -2.142  -0.778   0.780  1.00  0.00     0.187 HD
BRANCH   6  12
ATOM     12  N   UNL d   1       1.533   1.639  -0.548  0.00  0.00    -0.111 N 
ATOM     13  O   UNL d   1       2.727   1.663  -0.246  0.00  0.00    -0.532 OA
ATOM     14  O   UNL d   1       0.968   2.474  -1.262  0.00  0.00    -0.532 OA
ENDBRANCH   6  12
BRANCH  10  15
ATOM     15  C   UNL d   1      -0.269  -1.992   2.287  0.00  0.00     0.145 C 
ATOM     16  C   UNL d   1      -0.980  -3.289   1.950  0.00  0.00     0.028 C 
ENDBRANCH  10  15
ENDBRANCH   1   5
BRANCH   2  17
ATOM     17  C   UNL d   1       4.829  -1.004   1.279  0.00  0.00     0.206 C 
BRANCH  17  18
ATOM     18  C   UNL d   1       5.927  -0.398   0.413  0.00  0.00     0.177 C 
ATOM     19  O   UNL d   1       6.692   0.457   0.863  0.00  0.00    -0.291 OA
BRANCH  18  20
ATOM     20  C   UNL d   1       6.067  -0.819  -1.010  0.00  0.00     0.011 A 
ATOM     21  C   UNL d   1       6.740   0.043  -1.891  0.00  0.00     0.017 A 
ATOM     22  C   UNL d   1       6.933  -0.316  -3.228  0.00  0.00     0.025 A 
ATOM     23  C   UNL d   1       6.465  -1.545  -3.685  0.00  0.00     0.034 A 
ATOM     24  C   UNL d   1       5.792  -2.408  -2.821  0.00  0.00     0.025 A 
ATOM     25 CL   UNL d   1       6.729  -2.006  -5.321  0.00  0.00    -0.084 Cl
ATOM     26  C   UNL d   1       5.586  -2.045  -1.484  0.00  0.00     0.017 A 
ENDBRANCH  18  20
ENDBRANCH  17  18
ENDBRANCH   2  17
TORSDOF 6
