REMARK  6 active torsions:
REMARK  status: ('A' for Active; 'I' for Inactive)
REMARK    1  A    between atoms: C_7  and  C_1 
REMARK    2  A    between atoms: C_18  and  C_6 
REMARK    3  A    between atoms: S_19  and  C_10 
REMARK    4  A    between atoms: O_15  and  C_18 
REMARK    5  A    between atoms: C_16  and  O_15 
REMARK    6  A    between atoms: C_24  and  S_19 
ROOT
ATOM      1  C   UNL d   1       4.624  -5.267  -1.596  0.00  0.00    -0.107 C 
ATOM      2  C   UNL d   1       5.573  -5.846  -2.061  0.00  0.00     0.013 C 
ATOM      3  C   UNL d   1       3.438  -4.587  -1.042  0.00  0.00     0.175 C 
ENDROOT
BRANCH   3   4
ATOM      4  S   UNL d   1       1.971  -5.639  -1.256  0.00  0.00    -0.082 SA
BRANCH   4   5
ATOM      5  C   UNL d   1       0.727  -4.654  -0.467  0.00  0.00     0.145 A 
ATOM      6  N   UNL d   1       0.800  -3.314  -0.507  0.00  0.00    -0.336 N 
ATOM      7  C   UNL d   1      -0.232  -2.626   0.041  0.00  0.00     0.054 A 
ATOM      8  HN  UNL d   1       1.595  -2.835  -0.930  1.00  0.00     0.168 HD
ATOM      9  C   UNL d   1      -1.300  -3.263   0.640  0.00  0.00     0.048 A 
ATOM     10  C   UNL d   1      -1.283  -4.634   0.618  0.00  0.00     0.092 A 
ATOM     11  N   UNL d   1      -0.289  -5.347   0.072  0.00  0.00    -0.347 N 
ATOM     12  HN  UNL d   1      -0.303  -6.367   0.066  1.00  0.00     0.167 HD
BRANCH   7  13
ATOM     13  C   UNL d   1      -0.151  -1.154  -0.041  0.00  0.00     0.055 A 
ATOM     14  C   UNL d   1      -1.135  -0.165  -0.057  0.00  0.00     0.025 A 
ATOM     15  N   UNL d   1      -0.667   1.144  -0.082  0.00  0.00    -0.355 N 
ATOM     16  C   UNL d   1      -2.616  -0.328  -0.049  0.00  0.00     0.070 C 
ATOM     17  C   UNL d   1       0.648   1.163  -0.106  0.00  0.00     0.076 A 
ATOM     18  HN  UNL d   1      -1.260   1.974  -0.082  1.00  0.00     0.166 HD
ATOM     19  S   UNL d   1       1.393  -0.385  -0.120  0.00  0.00    -0.070 SA
BRANCH  17  20
ATOM     20  C   UNL d   1       1.497   2.400   0.010  0.00  0.00     0.240 C 
BRANCH  20  21
ATOM     21  O   UNL d   1       1.906   2.807  -1.296  0.00  0.00    -0.343 OA
BRANCH  21  22
ATOM     22  C   UNL d   1       2.604   3.984  -1.415  0.00  0.00     0.090 A 
ATOM     23  C   UNL d   1       3.493   4.592  -0.511  0.00  0.00     0.067 A 
ATOM     24 CL   UNL d   1       3.929   3.975   1.044  0.00  0.00    -0.081 Cl
ATOM     25  C   UNL d   1       4.157   5.778  -0.865  0.00  0.00     0.026 A 
ATOM     26  C   UNL d   1       3.958   6.368  -2.109  0.00  0.00     0.002 A 
ATOM     27  C   UNL d   1       3.086   5.777  -3.013  0.00  0.00     0.003 A 
ATOM     28  C   UNL d   1       2.420   4.595  -2.669  0.00  0.00     0.038 A 
ENDBRANCH  21  22
ENDBRANCH  20  21
ENDBRANCH  17  20
ENDBRANCH   7  13
ENDBRANCH   4   5
ENDBRANCH   3   4
TORSDOF 6
