REMARK  2 active torsions:
REMARK  status: ('A' for Active; 'I' for Inactive)
REMARK    1  A    between atoms: C_6  and  C_1 
REMARK    2  A    between atoms: C_7  and  C_1 
ROOT
ATOM      1  C   UNL d   1      -0.759   1.979  -0.049  0.00  0.00     0.049 A 
ATOM      2  C   UNL d   1       0.371   0.936  -0.007  0.00  0.00    -0.026 A 
ATOM      3  C   UNL d   1      -1.541  -0.367  -0.024  0.00  0.00     0.161 A 
ATOM      4  C   UNL d   1      -2.040   1.047  -0.000  0.00  0.00     0.108 A 
ATOM      5  C   UNL d   1      -0.091  -0.376  -0.045  0.00  0.00     0.018 A 
ATOM      6  O   UNL d   1      -2.225  -1.374  -0.007  0.00  0.00    -0.292 OA
ATOM      7  C   UNL d   1       1.743   1.141   0.128  0.00  0.00     0.009 A 
ATOM      8  C   UNL d   1       0.735  -1.487  -0.027  0.00  0.00     0.016 A 
ATOM      9  C   UNL d   1       2.608   0.038   0.132  0.00  0.00     0.001 A 
ATOM     10  C   UNL d   1       2.109  -1.270   0.044  0.00  0.00     0.001 A 
ENDROOT
BRANCH   1  11
ATOM     11  C   UNL d   1      -0.800   2.828  -1.359  0.00  0.00    -0.040 A 
ATOM     12  C   UNL d   1      -2.012   3.419  -1.787  0.00  0.00     0.009 A 
ATOM     13  C   UNL d   1      -2.054   4.319  -2.856  0.00  0.00     0.001 A 
ATOM     14  C   UNL d   1      -0.882   4.684  -3.506  0.00  0.00     0.000 A 
ATOM     15  C   UNL d   1       0.326   4.123  -3.109  0.00  0.00     0.001 A 
ATOM     16  C   UNL d   1       0.365   3.198  -2.059  0.00  0.00     0.009 A 
ENDBRANCH   1  11
BRANCH   1  17
ATOM     17  C   UNL d   1      -0.690   2.890   1.214  0.00  0.00    -0.040 A 
ATOM     18  C   UNL d   1      -0.455   4.279   1.127  0.00  0.00     0.009 A 
ATOM     19  C   UNL d   1      -0.392   5.087   2.265  0.00  0.00     0.001 A 
ATOM     20  C   UNL d   1      -0.551   4.528   3.525  0.00  0.00     0.000 A 
ATOM     21  C   UNL d   1      -0.764   3.158   3.647  0.00  0.00     0.001 A 
ATOM     22  C   UNL d   1      -0.827   2.347   2.508  0.00  0.00     0.009 A 
ENDBRANCH   1  17
TORSDOF 2
