REMARK  6 active torsions:
REMARK  status: ('A' for Active; 'I' for Inactive)
REMARK    1  A    between atoms: C_2  and  S_1 
REMARK    2  A    between atoms: C_5  and  S_1 
REMARK    3  A    between atoms: C_3  and  C_2 
REMARK    4  A    between atoms: O_9  and  C_3 
REMARK    5  A    between atoms: C_4  and  C_6 
REMARK    6  A    between atoms: C_16  and  O_9 
ROOT
ATOM      1  S   UNL d   1       1.141  -0.094   0.053  0.00  0.00     0.208 S 
ATOM      2  O   UNL d   1       0.691  -1.469  -0.125  0.00  0.00    -0.220 OA
ATOM      3  O   UNL d   1       0.818   0.587   1.294  0.00  0.00    -0.220 OA
ENDROOT
BRANCH   1   4
ATOM      4  C   UNL d   1       0.489   0.867  -1.326  0.00  0.00     0.150 C 
ATOM      5  C   UNL d   1      -1.034   0.970  -1.146  0.00  0.00     0.043 C 
ATOM      6  C   UNL d   1       1.052   2.292  -1.385  0.00  0.00     0.043 C 
BRANCH   4   7
ATOM      7  C   UNL d   1       0.934   0.136  -2.575  0.00  0.00     0.283 C 
ATOM      8  O   UNL d   1       2.114  -0.082  -2.828  0.00  0.00    -0.263 OA
BRANCH   7   9
ATOM      9  O   UNL d   1      -0.078  -0.201  -3.418  0.00  0.00    -0.310 OA
BRANCH   9  10
ATOM     10  C   UNL d   1       0.222  -0.938  -4.643  0.00  0.00     0.060 C 
ATOM     11  C   UNL d   1       0.960  -2.254  -4.345  0.00  0.00     0.045 C 
ATOM     12  C   UNL d   1      -1.139  -1.275  -5.274  0.00  0.00     0.045 C 
ATOM     13  C   UNL d   1       1.010  -0.066  -5.630  0.00  0.00     0.045 C 
ENDBRANCH   9  10
ENDBRANCH   7   9
ENDBRANCH   4   7
ENDBRANCH   1   4
BRANCH   1  14
ATOM     14  C   UNL d   1       2.922  -0.111  -0.081  0.00  0.00     0.129 A 
ATOM     15  N   UNL d   1       3.494   1.118  -0.041  0.00  0.00    -0.356 N 
ATOM     16  C   UNL d   1       4.832   1.162  -0.217  0.00  0.00     0.105 A 
ATOM     17  HN  UNL d   1       2.943   1.963   0.114  1.00  0.00     0.166 HD
ATOM     18  C   UNL d   1       5.625   0.039  -0.416  0.00  0.00     0.063 A 
ATOM     19  C   UNL d   1       4.998  -1.215  -0.408  0.00  0.00     0.020 A 
ATOM     20  C   UNL d   1       3.619  -1.300  -0.236  0.00  0.00     0.043 A 
BRANCH  18  21
ATOM     21  C   UNL d   1       7.098   0.180  -0.652  0.00  0.00     0.418 C 
ATOM     22  F   UNL d   1       7.532   1.471  -0.633  0.00  0.00    -0.166 F 
ATOM     23  F   UNL d   1       7.840  -0.477   0.281  0.00  0.00    -0.166 F 
ATOM     24  F   UNL d   1       7.482  -0.322  -1.857  0.00  0.00    -0.166 F 
ENDBRANCH  18  21
ENDBRANCH   1  14
TORSDOF 6
