REMARK  3 active torsions:
REMARK  status: ('A' for Active; 'I' for Inactive)
REMARK    1  A    between atoms: C_2  and  N_1 
REMARK    2  A    between atoms: C_13  and  C_8 
REMARK    3  A    between atoms: C_15  and  C_13 
ROOT
ATOM      1  N   UNL d   1      -0.083  -1.102   0.093  0.00  0.00    -0.160 N 
ATOM      2  N   UNL d   1       1.133  -0.673   0.542  0.00  0.00     0.004 NA
ATOM      3  N   UNL d   1      -0.887  -0.062  -0.307  0.00  0.00    -0.266 N 
ATOM      4  HN  UNL d   1      -1.822  -0.084  -0.717  1.00  0.00     0.190 HD
ATOM      5  N   UNL d   1       1.107   0.648   0.486  0.00  0.00    -0.270 N 
ATOM      6  HN  UNL d   1       1.854   1.285   0.762  1.00  0.00     0.185 HD
ATOM      7  C   UNL d   1      -0.112   0.989  -0.014  0.00  0.00     0.117 A 
ENDROOT
BRANCH   1   8
ATOM      8  C   UNL d   1      -0.501  -2.460   0.068  0.00  0.00     0.165 A 
ATOM      9  N   UNL d   1       0.295  -3.417   0.560  0.00  0.00    -0.242 N 
ATOM     10  O   UNL d   1      -0.428  -4.593   0.420  0.00  0.00    -0.241 OA
ATOM     11  HN  UNL d   1       1.230  -3.307   0.953  1.00  0.00     0.196 HD
ATOM     12  C   UNL d   1      -1.631  -4.321  -0.162  0.00  0.00     0.076 A 
ATOM     13  C   UNL d   1      -1.725  -2.972  -0.410  0.00  0.00     0.087 A 
ATOM     14  C   UNL d   1      -2.523  -5.474  -0.379  0.00  0.00     0.079 C 
ENDBRANCH   1   8
BRANCH   7  15
ATOM     15  C   UNL d   1      -0.552   2.396  -0.112  0.00  0.00     0.156 C 
BRANCH  15  16
ATOM     16  C   UNL d   1      -0.237   3.006  -1.454  0.00  0.00     0.130 C 
ATOM     17  O   UNL d   1      -1.129   3.465  -2.172  0.00  0.00    -0.298 OA
ATOM     18  C   UNL d   1       1.206   3.118  -1.877  0.00  0.00     0.091 C 
ENDBRANCH  15  16
ENDBRANCH   7  15
TORSDOF 3
