REMARK  0 active torsions:
REMARK  status: ('A' for Active; 'I' for Inactive)
ROOT
ATOM      1  C   UNL d   1      -0.711   1.254  -0.000  0.00  0.00     0.077 A 
ATOM      2  C   UNL d   1      -1.398   0.027  -0.002  0.00  0.00     0.029 A 
ATOM      3  C   UNL d   1       0.695   1.230   0.001  0.00  0.00     0.029 A 
ATOM      4  C   UNL d   1      -1.426   2.500   0.002  0.00  0.00     0.102 C 
ATOM      5  N   UNL d   1      -2.003   3.507   0.003  0.00  0.00    -0.191 NA
ATOM      6  N   UNL d   1       2.005  -3.438   0.004  0.00  0.00    -0.191 NA
ATOM      7  C   UNL d   1       1.417  -2.438   0.002  0.00  0.00     0.099 C 
ATOM      8  C   UNL d   1       0.698  -1.196   0.000  0.00  0.00     0.047 A 
ATOM      9  C   UNL d   1      -0.698  -1.190  -0.001  0.00  0.00     0.042 A 
ATOM     10  C   UNL d   1       1.394   0.014  -0.000  0.00  0.00     0.042 A 
ATOM     11  I   UNL d   1      -3.501  -0.104  -0.007  0.00  0.00    -0.043 I 
ATOM     12  I   UNL d   1       1.869   2.980   0.004  0.00  0.00    -0.043 I 
ENDROOT
TORSDOF 0
