REMARK  6 active torsions:
REMARK  status: ('A' for Active; 'I' for Inactive)
REMARK    1  A    between atoms: N_2  and  C_1 
REMARK    2  A    between atoms: C_3  and  C_1 
REMARK    3  A    between atoms: C_4  and  C_1 
REMARK    4  A    between atoms: N_6  and  C_1 
REMARK       I    between atoms: C_5  and  N_2 
REMARK    5  A    between atoms: C_12  and  C_5 
REMARK    6  A    between atoms: C_7  and  N_6 
ROOT
ATOM      1  C   UNL d   1       0.715  -0.155   0.078  0.00  0.00     0.307 C 
ENDROOT
BRANCH   1   2
ATOM      2  N   UNL d   1       0.659  -1.398  -0.700  0.00  0.00    -0.315 N 
ATOM      3  C   UNL d   1      -0.477  -1.800  -1.340  0.00  0.00     0.254 C 
ATOM      4  O   UNL d   1      -1.489  -1.112  -1.302  0.00  0.00    -0.268 OA
ATOM      5  H   UNL d   1       1.532  -1.895  -0.786  0.00  0.00     0.165 HD
BRANCH   3   6
ATOM      6  C   UNL d   1      -0.432  -3.049  -2.158  0.00  0.00     0.037 A 
ATOM      7  C   UNL d   1       0.326  -4.201  -1.869  0.00  0.00    -0.046 A 
ATOM      8  C   UNL d   1       1.192  -4.361  -0.649  0.00  0.00     0.049 C 
ATOM      9  C   UNL d   1       0.266  -5.288  -2.763  0.00  0.00     0.007 A 
ATOM     10  C   UNL d   1      -0.553  -5.259  -3.891  0.00  0.00     0.001 A 
ATOM     11  C   UNL d   1      -1.330  -4.139  -4.153  0.00  0.00     0.001 A 
ATOM     12  C   UNL d   1      -1.268  -3.042  -3.295  0.00  0.00     0.017 A 
ENDBRANCH   3   6
ENDBRANCH   1   2
BRANCH   1  13
ATOM     13  C   UNL d   1      -0.346   0.030   1.218  0.00  0.00     0.441 C 
ATOM     14  F   UNL d   1      -0.587  -1.119   1.896  0.00  0.00    -0.166 F 
ATOM     15  F   UNL d   1       0.111   0.929   2.138  0.00  0.00    -0.166 F 
ATOM     16  F   UNL d   1      -1.547   0.493   0.816  0.00  0.00    -0.166 F 
ENDBRANCH   1  13
BRANCH   1  17
ATOM     17  C   UNL d   1       0.550   1.140  -0.784  0.00  0.00     0.441 C 
ATOM     18  F   UNL d   1       1.244   1.028  -1.951  0.00  0.00    -0.166 F 
ATOM     19  F   UNL d   1      -0.701   1.503  -1.106  0.00  0.00    -0.166 F 
ATOM     20  F   UNL d   1       1.117   2.195  -0.130  0.00  0.00    -0.166 F 
ENDBRANCH   1  17
BRANCH   1  21
ATOM     21  N   UNL d   1       2.150  -0.182   0.600  0.00  0.00    -0.334 N 
ATOM     22  H   UNL d   1       2.522   0.770   0.624  0.00  0.00     0.164 HD
BRANCH  21  23
ATOM     23  C   UNL d   1       2.467  -0.949   1.674  0.00  0.00     0.126 A 
ATOM     24  N   UNL d   1       1.970  -2.148   1.973  0.00  0.00    -0.245 N 
ATOM     25  O   UNL d   1       2.534  -2.511   3.180  0.00  0.00    -0.241 OA
ATOM     26  HN  UNL d   1       1.305  -2.691   1.421  1.00  0.00     0.196 HD
ATOM     27  C   UNL d   1       3.390  -1.538   3.586  0.00  0.00     0.076 A 
ATOM     28  C   UNL d   1       3.405  -0.537   2.646  0.00  0.00     0.084 A 
ATOM     29  C   UNL d   1       4.062  -1.754   4.878  0.00  0.00     0.079 C 
ENDBRANCH  21  23
ENDBRANCH   1  21
TORSDOF 6
