REMARK  8 active torsions:
REMARK  status: ('A' for Active; 'I' for Inactive)
REMARK    1  A    between atoms: C_2  and  C_1 
REMARK    2  A    between atoms: O_9  and  N_3 
REMARK    3  A    between atoms: C_5  and  C_12 
REMARK    4  A    between atoms: N_24  and  C_5 
REMARK    5  A    between atoms: C_6  and  O_9 
REMARK    6  A    between atoms: C_13  and  C_6 
REMARK    7  A    between atoms: O_16  and  C_10 
REMARK    8  A    between atoms: C_25  and  O_16 
ROOT
ATOM      1  C   UNL d   1      -2.750   4.247   8.544  0.00  0.00     0.004 A 
ATOM      2  C   UNL d   1      -1.605   3.458   8.390  0.00  0.00     0.017 A 
ATOM      3  C   UNL d   1      -3.394   4.295   9.787  0.00  0.00     0.017 A 
ATOM      4  C   UNL d   1      -1.758   2.763  10.709  0.00  0.00     0.077 A 
ATOM      5  C   UNL d   1      -2.896   3.558  10.867  0.00  0.00     0.038 A 
ATOM      6  C   UNL d   1      -1.098   2.737   9.477  0.00  0.00     0.038 A 
ENDROOT
BRANCH   1   7
ATOM      7  C   UNL d   1      -3.267   5.045   7.388  0.00  0.00     0.109 C 
ATOM      8  N   UNL d   1      -2.999   4.626   6.185  0.00  0.00    -0.246 N 
ATOM      9  HN  UNL d   1      -2.449   3.793   5.978  1.00  0.00     0.196 HD
BRANCH   8  10
ATOM     10  O   UNL d   1      -3.563   5.466   5.202  0.00  0.00    -0.193 OA
BRANCH  10  11
ATOM     11  C   UNL d   1      -3.288   4.979   3.956  0.00  0.00     0.315 C 
ATOM     12  O   UNL d   1      -2.612   4.002   3.663  0.00  0.00    -0.257 OA
BRANCH  11  13
ATOM     13  C   UNL d   1      -3.932   5.838   2.917  0.00  0.00     0.041 A 
ATOM     14  C   UNL d   1      -3.716   5.512   1.568  0.00  0.00     0.019 A 
ATOM     15  C   UNL d   1      -4.290   6.279   0.549  0.00  0.00     0.025 A 
ATOM     16  C   UNL d   1      -5.082   7.376   0.875  0.00  0.00     0.034 A 
ATOM     17  C   UNL d   1      -5.310   7.711   2.209  0.00  0.00     0.025 A 
ATOM     18 CL   UNL d   1      -5.787   8.325  -0.376  0.00  0.00    -0.084 Cl
ATOM     19  C   UNL d   1      -4.739   6.944   3.231  0.00  0.00     0.019 A 
ENDBRANCH  11  13
ENDBRANCH  10  11
ENDBRANCH   8  10
BRANCH   7  20
ATOM     20  N   UNL d   1      -3.975   6.197   7.648  0.00  0.00    -0.286 NA
ATOM     21  H   UNL d   1      -4.023   6.801   6.837  0.00  0.00     0.125 HD
ATOM     22  H   UNL d   1      -3.683   6.700   8.479  0.00  0.00     0.125 HD
ENDBRANCH   7  20
ENDBRANCH   1   7
BRANCH   4  23
ATOM     23  O   UNL d   1      -1.313   2.105  11.834  0.00  0.00    -0.294 OA
BRANCH  23  24
ATOM     24  C   UNL d   1      -0.733   0.853  11.674  0.00  0.00     0.147 A 
ATOM     25  C   UNL d   1       0.229   0.486  12.601  0.00  0.00     0.057 A 
ATOM     26  C   UNL d   1       0.864  -0.744  12.439  0.00  0.00     0.022 A 
ATOM     27  C   UNL d   1       0.512  -1.571  11.366  0.00  0.00     0.063 A 
ATOM     28  C   UNL d   1      -0.497  -1.132  10.523  0.00  0.00     0.106 A 
ATOM     29  N   UNL d   1      -1.134   0.051  10.662  0.00  0.00    -0.346 N 
ATOM     30  HN  UNL d   1      -1.886   0.328  10.030  1.00  0.00     0.167 HD
BRANCH  27  31
ATOM     31  C   UNL d   1       1.204  -2.874  11.112  0.00  0.00     0.418 C 
ATOM     32  F   UNL d   1       0.759  -3.523  10.002  0.00  0.00    -0.166 F 
ATOM     33  F   UNL d   1       1.056  -3.752  12.143  0.00  0.00    -0.166 F 
ATOM     34  F   UNL d   1       2.546  -2.723  10.941  0.00  0.00    -0.166 F 
ENDBRANCH  27  31
ENDBRANCH  23  24
ENDBRANCH   4  23
TORSDOF 8
