REMARK  4 active torsions:
REMARK  status: ('A' for Active; 'I' for Inactive)
REMARK    1  A    between atoms: S_10  and  C_2 
REMARK    2  A    between atoms: N_13  and  C_3 
REMARK    3  A    between atoms: C_8  and  C_9 
REMARK    4  A    between atoms: C_9  and  S_10 
ROOT
ATOM      1  S   UNL d   1       0.137  -1.114  -0.129  0.00  0.00    -0.027 SA
ATOM      2  C   UNL d   1       1.569  -0.165  -0.135  0.00  0.00     0.130 A 
ATOM      3  C   UNL d   1      -0.759   0.348  -0.093  0.00  0.00     0.159 A 
ATOM      4  N   UNL d   1       1.353   1.133  -0.116  0.00  0.00    -0.286 N 
ATOM      5  HN  UNL d   1       2.092   1.837  -0.119  1.00  0.00     0.188 HD
ATOM      6  N   UNL d   1      -0.006   1.427  -0.091  0.00  0.00    -0.279 N 
ATOM      7  HN  UNL d   1      -0.379   2.376  -0.074  1.00  0.00     0.189 HD
ENDROOT
BRANCH   2   8
ATOM      8  S   UNL d   1       3.149  -0.914  -0.171  0.00  0.00    -0.099 SA
BRANCH   8   9
ATOM      9  C   UNL d   1       4.286   0.503  -0.126  0.00  0.00     0.123 C 
BRANCH   9  10
ATOM     10  C   UNL d   1       5.730   0.037  -0.040  0.00  0.00    -0.005 A 
ATOM     11  C   UNL d   1       6.505  -0.196  -1.196  0.00  0.00     0.042 A 
ATOM     12 CL   UNL d   1       5.874   0.042  -2.790  0.00  0.00    -0.084 Cl
ATOM     13  C   UNL d   1       7.834  -0.643  -1.111  0.00  0.00     0.024 A 
ATOM     14  C   UNL d   1       8.418  -0.878   0.131  0.00  0.00     0.003 A 
ATOM     15  C   UNL d   1       7.670  -0.673   1.285  0.00  0.00     0.024 A 
ATOM     16  C   UNL d   1       6.344  -0.226   1.203  0.00  0.00     0.042 A 
ATOM     17 CL   UNL d   1       5.504  -0.027   2.703  0.00  0.00    -0.084 Cl
ENDBRANCH   9  10
ENDBRANCH   8   9
ENDBRANCH   2   8
BRANCH   3  18
ATOM     18  N   UNL d   1      -2.109   0.339  -0.081  0.00  0.00    -0.379 N 
ATOM     19  H   UNL d   1      -2.590  -0.499  -0.382  0.00  0.00     0.158 HD
ATOM     20  H   UNL d   1      -2.581   1.205  -0.314  0.00  0.00     0.158 HD
ENDBRANCH   3  18
TORSDOF 4
