REMARK  3 active torsions:
REMARK  status: ('A' for Active; 'I' for Inactive)
REMARK       I    between atoms: N_5  and  C_1 
REMARK       I    between atoms: N_7  and  C_1 
REMARK    1  A    between atoms: C_4  and  C_8 
REMARK    2  A    between atoms: C_13  and  N_5 
REMARK    3  A    between atoms: C_16  and  N_7 
ROOT
ATOM      1  C   UNL d   1       2.817  -3.847  -0.520  0.00  0.00    -0.007 A 
ATOM      2  C   UNL d   1       2.063  -2.731  -0.117  0.00  0.00     0.043 A 
ATOM      3  C   UNL d   1       0.983  -2.240  -0.856  0.00  0.00     0.037 A 
ATOM      4  C   UNL d   1       2.370  -4.542  -1.652  0.00  0.00     0.014 A 
ATOM      5  C   UNL d   1       1.238  -4.117  -2.358  0.00  0.00     0.003 A 
ATOM      6  C   UNL d   1       0.549  -2.966  -1.965  0.00  0.00     0.029 A 
ENDROOT
BRANCH   3   7
ATOM      7  N   UNL d   1       0.344  -1.017  -0.540  0.00  0.00    -0.309 N 
ATOM      8  C   UNL d   1       0.904  -0.016   0.249  0.00  0.00     0.325 C 
ATOM      9  N   UNL d   1       0.073   1.085   0.345  0.00  0.00    -0.309 N 
ATOM     10  O   UNL d   1       2.012  -0.091   0.769  0.00  0.00    -0.247 OA
ATOM     11  H   UNL d   1      -0.856   0.995  -0.034  0.00  0.00     0.170 HD
ATOM     12  H   UNL d   1      -0.430  -0.751  -1.129  0.00  0.00     0.170 HD
BRANCH   9  13
ATOM     13  C   UNL d   1       0.379   2.314   0.980  0.00  0.00     0.036 A 
ATOM     14  C   UNL d   1       1.601   2.592   1.601  0.00  0.00     0.029 A 
ATOM     15  C   UNL d   1       1.838   3.835   2.197  0.00  0.00     0.002 A 
ATOM     16  C   UNL d   1       0.856   4.817   2.174  0.00  0.00     0.000 A 
ATOM     17  C   UNL d   1      -0.365   4.556   1.556  0.00  0.00     0.002 A 
ATOM     18  C   UNL d   1      -0.603   3.311   0.965  0.00  0.00     0.029 A 
ENDBRANCH   9  13
ENDBRANCH   3   7
BRANCH   1  19
ATOM     19  C   UNL d   1       4.039  -4.229   0.220  0.00  0.00     0.045 A 
ATOM     20  N   UNL d   1       4.357  -5.542   0.222  0.00  0.00    -0.345 N 
ATOM     21  C   UNL d   1       5.452  -5.906   0.918  0.00  0.00     0.077 A 
ATOM     22  HN  UNL d   1       3.793  -6.228  -0.281  1.00  0.00     0.167 HD
ATOM     23  C   UNL d   1       5.810  -7.358   0.952  0.00  0.00     0.089 C 
ATOM     24  N   UNL d   1       6.254  -5.064   1.595  0.00  0.00    -0.356 N 
ATOM     25  C   UNL d   1       5.918  -3.767   1.556  0.00  0.00     0.091 A 
ATOM     26  HN  UNL d   1       7.071  -5.395   2.109  1.00  0.00     0.166 HD
ATOM     27  C   UNL d   1       4.823  -3.293   0.877  0.00  0.00     0.047 A 
ENDBRANCH   1  19
TORSDOF 3
