REMARK  4 active torsions:
REMARK  status: ('A' for Active; 'I' for Inactive)
REMARK    1  A    between atoms: C_13  and  N_2 
REMARK    2  A    between atoms: C_8  and  N_11 
REMARK    3  A    between atoms: N_11  and  C_15 
REMARK    4  A    between atoms: C_15  and  C_13 
ROOT
ATOM      1  N   UNL d   1      -2.087  -4.611   0.930  0.00  0.00    -0.338 N 
ATOM      2  HN  UNL d   1      -2.345  -3.679   1.254  1.00  0.00     0.167 HD
ATOM      3  N   UNL d   1      -1.969  -4.992   4.330  0.00  0.00    -0.190 NA
ATOM      4  C   UNL d   1      -1.909  -5.250   3.196  0.00  0.00     0.117 C 
ATOM      5  C   UNL d   1      -1.990  -4.888  -0.385  0.00  0.00     0.081 A 
ATOM      6  C   UNL d   1      -1.829  -5.610   1.807  0.00  0.00     0.115 A 
ATOM      7  C   UNL d   1      -1.450  -7.186   0.069  0.00  0.00     0.006 A 
ATOM      8  C   UNL d   1      -1.724  -6.175  -0.846  0.00  0.00     0.042 A 
ATOM      9  C   UNL d   1      -1.492  -6.899   1.427  0.00  0.00     0.041 A 
ENDROOT
BRANCH   5  10
ATOM     10  N   UNL d   1      -2.186  -3.864  -1.336  0.00  0.00    -0.277 NA
ATOM     11  H   UNL d   1      -1.558  -4.041  -2.118  0.00  0.00     0.129 HD
BRANCH  10  12
ATOM     12  C   UNL d   1      -1.902  -2.526  -0.792  0.00  0.00     0.113 C 
BRANCH  12  13
ATOM     13  C   UNL d   1      -0.401  -2.335  -0.491  0.00  0.00     0.142 C 
BRANCH  13  14
ATOM     14  N   UNL d   1       0.455  -2.589  -1.644  0.00  0.00    -0.332 N 
ATOM     15  C   UNL d   1       1.414  -3.593  -1.726  0.00  0.00     0.318 C 
ATOM     16  N   UNL d   1       2.031  -3.471  -2.966  0.00  0.00    -0.341 N 
ATOM     17  O   UNL d   1       1.701  -4.429  -0.888  0.00  0.00    -0.247 OA
ATOM     18  C   UNL d   1       1.667  -2.225  -3.588  0.00  0.00     0.144 C 
ATOM     19  H   UNL d   1       2.897  -3.971  -3.121  0.00  0.00     0.164 HD
ATOM     20  C   UNL d   1       0.370  -1.849  -2.884  0.00  0.00     0.147 C 
ENDBRANCH  13  14
ENDBRANCH  12  13
ENDBRANCH  10  12
ENDBRANCH   5  10
TORSDOF 4
