REMARK  4 active torsions:
REMARK  status: ('A' for Active; 'I' for Inactive)
REMARK    1  A    between atoms: C_7  and  C_1 
REMARK    2  A    between atoms: C_8  and  C_5 
REMARK    3  A    between atoms: O_10  and  C_7 
REMARK    4  A    between atoms: C_14  and  O_10 
ROOT
ATOM      1  C   UNL d   1      -0.184  -1.110   0.018  0.00  0.00     0.104 A 
ATOM      2  S   UNL d   1       1.356  -0.350   0.034  0.00  0.00    -0.064 SA
ATOM      3  N   UNL d   1      -0.707   1.162   0.132  0.00  0.00    -0.352 N 
ATOM      4  HN  UNL d   1      -1.301   1.986   0.218  1.00  0.00     0.166 HD
ATOM      5  C   UNL d   1       0.608   1.196   0.048  0.00  0.00     0.085 A 
ATOM      6  C   UNL d   1      -1.174  -0.142   0.089  0.00  0.00     0.029 A 
ATOM      7  C   UNL d   1      -2.651  -0.333   0.080  0.00  0.00     0.070 C 
ENDROOT
BRANCH   5   8
ATOM      8  C   UNL d   1       1.393   2.442  -0.013  0.00  0.00    -0.002 A 
ATOM      9  C   UNL d   1       2.652   2.521  -0.628  0.00  0.00     0.014 A 
ATOM     10  C   UNL d   1       3.338   3.738  -0.702  0.00  0.00     0.001 A 
ATOM     11  C   UNL d   1       2.774   4.892  -0.163  0.00  0.00     0.000 A 
ATOM     12  C   UNL d   1       1.525   4.833   0.449  0.00  0.00     0.001 A 
ATOM     13  C   UNL d   1       0.839   3.618   0.519  0.00  0.00     0.014 A 
ENDBRANCH   5   8
BRANCH   1  14
ATOM     14  C   UNL d   1      -0.255  -2.549  -0.110  0.00  0.00     0.302 C 
ATOM     15  O   UNL d   1       0.695  -3.310  -0.255  0.00  0.00    -0.259 OA
BRANCH  14  16
ATOM     16  O   UNL d   1      -1.558  -2.948  -0.133  0.00  0.00    -0.317 OA
BRANCH  16  17
ATOM     17  C   UNL d   1      -1.804  -4.271  -0.627  0.00  0.00     0.174 C 
ATOM     18  C   UNL d   1      -1.958  -4.192  -2.136  0.00  0.00     0.034 C 
ENDBRANCH  16  17
ENDBRANCH  14  16
ENDBRANCH   1  14
TORSDOF 4
