REMARK  4 active torsions:
REMARK  status: ('A' for Active; 'I' for Inactive)
REMARK    1  A    between atoms: C_9  and  C_8 
REMARK    2  A    between atoms: O_17  and  C_9 
REMARK    3  A    between atoms: O_19  and  C_16 
REMARK    4  A    between atoms: C_20  and  O_17 
ROOT
ATOM      1  C   UNL d   1      -1.239  -0.758   0.026  0.00  0.00     0.050 A 
ATOM      2  C   UNL d   1       0.015  -1.515   0.006  0.00  0.00     0.198 A 
ATOM      3  C   UNL d   1       1.258  -0.741  -0.002  0.00  0.00     0.051 A 
ATOM      4  O   UNL d   1      -0.009   1.349  -0.003  0.00  0.00    -0.309 OA
ATOM      5  C   UNL d   1      -1.182   0.634   0.017  0.00  0.00     0.090 A 
ATOM      6  C   UNL d   1       1.176   0.652  -0.004  0.00  0.00     0.090 A 
ATOM      7  C   UNL d   1      -2.462  -1.429   0.043  0.00  0.00     0.036 A 
ATOM      8  C   UNL d   1      -3.654  -0.701   0.053  0.00  0.00     0.040 A 
ATOM      9  C   UNL d   1       2.490  -1.397  -0.003  0.00  0.00     0.054 A 
ATOM     10  O   UNL d   1       0.027  -2.740  -0.003  0.00  0.00    -0.286 OA
ATOM     11  C   UNL d   1      -2.372   1.367   0.023  0.00  0.00     0.039 A 
ATOM     12  C   UNL d   1       2.352   1.403  -0.004  0.00  0.00     0.041 A 
ATOM     13  C   UNL d   1      -3.605   0.703   0.043  0.00  0.00     0.020 A 
ATOM     14  C   UNL d   1       3.653  -0.636  -0.002  0.00  0.00     0.066 A 
ATOM     15  C   UNL d   1       3.592   0.755  -0.002  0.00  0.00     0.039 A 
ENDROOT
BRANCH   8  16
ATOM     16  C   UNL d   1      -4.921  -1.470  -0.007  0.00  0.00     0.293 C 
ATOM     17  O   UNL d   1      -4.962  -2.689  -0.056  0.00  0.00    -0.259 OA
BRANCH  16  18
ATOM     18  O   UNL d   1      -5.978  -0.631  -0.125  0.00  0.00    -0.318 OA
BRANCH  18  19
ATOM     19  C   UNL d   1      -7.155  -1.231  -0.686  0.00  0.00     0.174 C 
ATOM     20  C   UNL d   1      -7.058  -1.100  -2.195  0.00  0.00     0.034 C 
ENDBRANCH  18  19
ENDBRANCH  16  18
ENDBRANCH   8  16
BRANCH  14  21
ATOM     21  O   UNL d   1       4.881  -1.224   0.001  0.00  0.00    -0.361 OA
ATOM     22  H   UNL d   1       4.767  -2.190   0.002  0.00  0.00     0.217 HD
ENDBRANCH  14  21
TORSDOF 4
