REMARK  2 active torsions:
REMARK  status: ('A' for Active; 'I' for Inactive)
REMARK    1  A    between atoms: C_12  and  N_2 
REMARK    2  A    between atoms: C_8  and  C_14 
ROOT
ATOM      1  C   UNL d   1      -0.209  -1.273  -0.236  0.00  0.00     0.175 C 
ATOM      2  N   UNL d   1       1.019  -0.747   0.128  0.00  0.00    -0.222 N 
ATOM      3  N   UNL d   1       0.807   0.508   0.594  0.00  0.00     0.001 NA
ATOM      4  N   UNL d   1      -0.465   0.780   0.338  0.00  0.00    -0.007 NA
ATOM      5  C   UNL d   1      -0.507  -2.647  -0.470  0.00  0.00     0.146 A 
ATOM      6  N   UNL d   1      -1.109  -0.311  -0.185  0.00  0.00    -0.268 N 
ATOM      7  HN  UNL d   1      -2.085  -0.366  -0.476  1.00  0.00     0.185 HD
ATOM      8  N   UNL d   1      -0.296  -4.888  -0.296  0.00  0.00    -0.272 N 
ATOM      9  HN  UNL d   1       0.049  -5.814  -0.042  1.00  0.00     0.194 HD
ATOM     10  O   UNL d   1       0.200  -3.667   0.112  0.00  0.00    -0.234 OA
ATOM     11  C   UNL d   1      -1.506  -3.212  -1.235  0.00  0.00     0.062 A 
ATOM     12  C   UNL d   1      -1.322  -4.600  -1.094  0.00  0.00     0.117 A 
ENDROOT
BRANCH   2  13
ATOM     13  C   UNL d   1       2.322  -1.291   0.030  0.00  0.00     0.056 A 
ATOM     14  C   UNL d   1       2.625  -2.257  -0.939  0.00  0.00     0.032 A 
ATOM     15  C   UNL d   1       3.901  -2.819  -0.993  0.00  0.00     0.018 A 
ATOM     16  C   UNL d   1       4.892  -2.429  -0.081  0.00  0.00     0.048 A 
ATOM     17  C   UNL d   1       4.593  -1.431   0.860  0.00  0.00     0.018 A 
ATOM     18  C   UNL d   1       3.322  -0.850   0.906  0.00  0.00     0.032 A 
BRANCH  16  19
ATOM     19  C   UNL d   1       6.250  -3.087  -0.131  0.00  0.00     0.417 C 
ATOM     20  F   UNL d   1       7.093  -2.676   0.856  0.00  0.00    -0.166 F 
ATOM     21  F   UNL d   1       6.173  -4.442  -0.016  0.00  0.00    -0.166 F 
ATOM     22  F   UNL d   1       6.899  -2.849  -1.303  0.00  0.00    -0.166 F 
ENDBRANCH  16  19
ENDBRANCH   2  13
TORSDOF 2
