REMARK  4 active torsions:
REMARK  status: ('A' for Active; 'I' for Inactive)
REMARK    1  A    between atoms: C_11  and  C_5 
REMARK    2  A    between atoms: S_7  and  C_11 
REMARK    3  A    between atoms: C_16  and  S_7 
REMARK    4  A    between atoms: C_9  and  C_16 
ROOT
ATOM      1  S   UNL d   1      -2.013  -3.377  -0.356  0.00  0.00    -0.158 SA
ENDROOT
BRANCH   1   2
ATOM      2  C   UNL d   1      -2.639  -1.662  -0.408  0.00  0.00     0.133 C 
BRANCH   2   3
ATOM      3  C   UNL d   1      -1.520  -0.719  -0.703  0.00  0.00     0.044 A 
ATOM      4  C   UNL d   1      -0.314  -0.542   0.021  0.00  0.00     0.062 A 
ATOM      5  C   UNL d   1       0.396   0.370  -0.715  0.00  0.00     0.074 A 
ATOM      6  O   UNL d   1      -0.351   0.764  -1.780  0.00  0.00    -0.243 OA
ATOM      7  C   UNL d   1       1.746   0.946  -0.589  0.00  0.00     0.079 C 
ATOM      8  N   UNL d   1      -1.562   0.089  -1.772  0.00  0.00    -0.265 N 
ATOM      9  HN  UNL d   1      -2.325   0.186  -2.441  1.00  0.00     0.194 HD
ENDBRANCH   2   3
ENDBRANCH   1   2
BRANCH   1  10
ATOM     10  C   UNL d   1      -3.556  -4.261   0.020  0.00  0.00     0.112 C 
BRANCH  10  11
ATOM     11  C   UNL d   1      -3.294  -5.749   0.068  0.00  0.00    -0.049 A 
ATOM     12  C   UNL d   1      -2.857  -6.359   1.256  0.00  0.00     0.009 A 
ATOM     13  C   UNL d   1      -2.539  -7.721   1.277  0.00  0.00     0.024 A 
ATOM     14  C   UNL d   1      -2.655  -8.478   0.114  0.00  0.00     0.034 A 
ATOM     15  C   UNL d   1      -3.088  -7.888  -1.071  0.00  0.00     0.024 A 
ATOM     16 CL   UNL d   1      -2.242 -10.148   0.136  0.00  0.00    -0.084 Cl
ATOM     17  C   UNL d   1      -3.405  -6.527  -1.093  0.00  0.00     0.009 A 
ENDBRANCH  10  11
ENDBRANCH   1  10
TORSDOF 4
