REMARK  7 active torsions:
REMARK  status: ('A' for Active; 'I' for Inactive)
REMARK    1  A    between atoms: C_11  and  C_2 
REMARK    2  A    between atoms: S_15  and  C_3 
REMARK    3  A    between atoms: C_12  and  C_11 
REMARK    4  A    between atoms: C_20  and  S_15 
REMARK    5  A    between atoms: C_16  and  C_20 
REMARK       I    between atoms: N_17  and  C_16 
REMARK    6  A    between atoms: C_22  and  N_17 
REMARK    7  A    between atoms: O_28  and  C_23 
ROOT
ATOM      1  N   UNL d   1       0.577  -0.256   0.529  0.00  0.00    -0.319 N 
ATOM      2  C   UNL d   1      -0.101   0.931   0.371  0.00  0.00     0.101 C 
ATOM      3  C   UNL d   1      -0.368  -1.229   0.350  0.00  0.00     0.162 C 
ATOM      4  N   UNL d   1      -1.397   0.670   0.352  0.00  0.00    -0.287 N 
ATOM      5  HN  UNL d   1      -2.145   1.363   0.351  1.00  0.00     0.188 HD
ATOM      6  N   UNL d   1      -1.564  -0.693   0.332  0.00  0.00    -0.278 N 
ATOM      7  HN  UNL d   1      -2.452  -1.194   0.308  1.00  0.00     0.189 HD
ATOM      8  C   UNL d   1       1.987  -0.452   0.745  0.00  0.00     0.159 C 
ENDROOT
BRANCH   3   9
ATOM      9  S   UNL d   1      -0.003  -2.879   0.007  0.00  0.00    -0.083 SA
BRANCH   9  10
ATOM     10  C   UNL d   1      -1.137  -3.153  -1.394  0.00  0.00     0.185 C 
BRANCH  10  11
ATOM     11  C   UNL d   1      -2.241  -4.121  -1.005  0.00  0.00     0.231 C 
ATOM     12  N   UNL d   1      -3.133  -3.595  -0.084  0.00  0.00    -0.327 N 
ATOM     13  H   UNL d   1      -2.935  -2.653   0.253  0.00  0.00     0.169 HD
ATOM     14  O   UNL d   1      -2.305  -5.225  -1.536  0.00  0.00    -0.272 OA
BRANCH  12  15
ATOM     15  C   UNL d   1      -4.297  -4.212   0.420  0.00  0.00     0.034 A 
ATOM     16  C   UNL d   1      -4.698  -5.509   0.098  0.00  0.00     0.032 A 
ATOM     17  C   UNL d   1      -5.897  -6.035   0.594  0.00  0.00     0.039 A 
ATOM     18  C   UNL d   1      -6.713  -5.268   1.421  0.00  0.00     0.068 A 
ATOM     19  C   UNL d   1      -6.296  -3.986   1.781  0.00  0.00     0.039 A 
ATOM     20  C   UNL d   1      -5.097  -3.459   1.286  0.00  0.00     0.032 A 
BRANCH  18  21
ATOM     21  O   UNL d   1      -7.919  -5.655   1.940  0.00  0.00    -0.356 OA
ATOM     22  C   UNL d   1      -8.508  -6.815   1.361  0.00  0.00     0.210 C 
ENDBRANCH  18  21
ENDBRANCH  12  15
ENDBRANCH  10  11
ENDBRANCH   9  10
ENDBRANCH   3   9
BRANCH   2  23
ATOM     23  C   UNL d   1       0.510   2.224  -0.053  0.00  0.00     0.103 C 
BRANCH  23  24
ATOM     24  C   UNL d   1       0.309   3.435   0.864  0.00  0.00     0.151 C 
ATOM     25  C   UNL d   1      -1.066   3.559   1.513  0.00  0.00     0.236 C 
ATOM     26  N   UNL d   1      -2.131   3.918   0.730  0.00  0.00    -0.325 N 
ATOM     27  O   UNL d   1      -1.240   3.281   2.701  0.00  0.00    -0.272 OA
ATOM     28  C   UNL d   1      -2.046   4.358  -0.600  0.00  0.00     0.051 A 
ATOM     29  H   UNL d   1      -3.037   3.785   1.159  0.00  0.00     0.169 HD
ATOM     30  C   UNL d   1      -0.839   4.826  -1.149  0.00  0.00     0.028 A 
ATOM     31  C   UNL d   1      -3.195   4.289  -1.389  0.00  0.00     0.031 A 
ATOM     32  S   UNL d   1       0.634   4.945  -0.138  0.00  0.00    -0.113 SA
ATOM     33  C   UNL d   1      -0.778   5.155  -2.505  0.00  0.00     0.021 A 
ATOM     34  C   UNL d   1      -1.913   5.020  -3.306  0.00  0.00     0.002 A 
ATOM     35  C   UNL d   1      -3.121   4.600  -2.747  0.00  0.00     0.002 A 
ENDBRANCH  23  24
ENDBRANCH   2  23
TORSDOF 7
