REMARK  3 active torsions:
REMARK  status: ('A' for Active; 'I' for Inactive)
REMARK    1  A    between atoms: C_2  and  C_1 
REMARK       I    between atoms: C_9  and  N_3 
REMARK    2  A    between atoms: C_14  and  C_9 
REMARK    3  A    between atoms: C_12  and  C_16 
ROOT
ATOM      1  C   UNL d   1      -0.525  -1.526  -0.393  0.00  0.00     0.090 A 
ATOM      2  N   UNL d   1       0.765  -1.034  -0.188  0.00  0.00    -0.218 N 
ATOM      3  C   UNL d   1       2.030  -1.694  -0.203  0.00  0.00     0.277 C 
ATOM      4  N   UNL d   1       0.740   0.321   0.034  0.00  0.00    -0.302 N 
ATOM      5  HN  UNL d   1       1.523   0.927   0.281  1.00  0.00     0.186 HD
ATOM      6  C   UNL d   1      -1.357  -0.422  -0.397  0.00  0.00     0.052 A 
ATOM      7  C   UNL d   1      -0.527   0.668  -0.144  0.00  0.00     0.110 A 
ATOM      8  O   UNL d   1       2.117  -2.793  -0.737  0.00  0.00    -0.265 OA
ENDROOT
BRANCH   1   9
ATOM      9  C   UNL d   1      -0.909  -2.900  -0.571  0.00  0.00     0.091 C 
ATOM     10  N   UNL d   1      -0.499  -3.947   0.217  0.00  0.00    -0.304 N 
ATOM     11  C   UNL d   1      -0.856  -5.115  -0.447  0.00  0.00     0.112 C 
ATOM     12  C   UNL d   1       0.198  -3.968   1.439  0.00  0.00     0.099 C 
ATOM     13  C   UNL d   1      -0.225  -6.321  -0.038  0.00  0.00     0.049 C 
ATOM     14  N   UNL d   1      -1.675  -4.860  -1.443  0.00  0.00    -0.344 N 
ATOM     15  C   UNL d   1       0.656  -6.283   0.982  0.00  0.00     0.005 C 
ATOM     16  C   UNL d   1       0.747  -5.115   1.850  0.00  0.00     0.018 C 
ATOM     17  C   UNL d   1      -1.707  -3.486  -1.538  0.00  0.00     0.036 C 
ATOM     18  HN  UNL d   1      -2.177  -5.534  -2.021  1.00  0.00     0.167 HD
ATOM     19  C   UNL d   1      -2.467  -2.864  -2.649  0.00  0.00     0.070 C 
ENDBRANCH   1   9
BRANCH   3  20
ATOM     20  C   UNL d   1       3.255  -1.102   0.416  0.00  0.00     0.034 A 
ATOM     21  C   UNL d   1       3.179  -0.384   1.615  0.00  0.00     0.018 A 
ATOM     22  C   UNL d   1       4.334   0.149   2.196  0.00  0.00     0.017 A 
ATOM     23  C   UNL d   1       5.585  -0.039   1.590  0.00  0.00     0.048 A 
ATOM     24  C   UNL d   1       5.659  -0.791   0.406  0.00  0.00     0.017 A 
ATOM     25  C   UNL d   1       4.502  -1.326  -0.175  0.00  0.00     0.018 A 
BRANCH  23  26
ATOM     26  C   UNL d   1       6.835   0.557   2.194  0.00  0.00     0.417 C 
ATOM     27  F   UNL d   1       6.601   1.285   3.322  0.00  0.00    -0.166 F 
ATOM     28  F   UNL d   1       7.747  -0.390   2.545  0.00  0.00    -0.166 F 
ATOM     29  F   UNL d   1       7.477   1.397   1.336  0.00  0.00    -0.166 F 
ENDBRANCH  23  26
ENDBRANCH   3  20
TORSDOF 3
