REMARK  3 active torsions:
REMARK  status: ('A' for Active; 'I' for Inactive)
REMARK    1  A    between atoms: C_2  and  S_1 
REMARK    2  A    between atoms: N_6  and  S_1 
REMARK    3  A    between atoms: N_8  and  N_6 
ROOT
ATOM      1  S   UNL d   1      -0.943  -1.112  -0.353  0.00  0.00     0.262 S 
ATOM      2  O   UNL d   1      -0.121  -0.855  -1.513  0.00  0.00    -0.204 OA
ATOM      3  O   UNL d   1      -2.047  -2.053  -0.367  0.00  0.00    -0.204 OA
ENDROOT
BRANCH   1   4
ATOM      4  C   UNL d   1      -1.758   0.427  -0.022  0.00  0.00     0.135 A 
ATOM      5  S   UNL d   1      -1.372   1.217   1.449  0.00  0.00    -0.063 SA
ATOM      6  C   UNL d   1      -2.512   2.432   1.153  0.00  0.00     0.077 A 
ATOM      7 CL   UNL d   1      -2.742   3.680   2.308  0.00  0.00    -0.076 Cl
ATOM      8  C   UNL d   1      -3.179   2.285  -0.035  0.00  0.00     0.052 A 
ATOM      9  C   UNL d   1      -2.724   1.124  -0.713  0.00  0.00     0.043 A 
ATOM     10 BR   UNL d   1      -3.462   0.623  -2.378  0.00  0.00    -0.049 Br
ENDBRANCH   1   4
BRANCH   1  11
ATOM     11  N   UNL d   1       0.041  -1.517   1.002  0.00  0.00    -0.144 NA
ATOM     12  H   UNL d   1      -0.541  -1.615   1.837  0.00  0.00     0.160 HD
BRANCH  11  13
ATOM     13  N   UNL d   1       0.877  -2.648   0.748  0.00  0.00    -0.234 NA
ATOM     14  C   UNL d   1       1.879  -2.807   1.832  0.00  0.00     0.135 C 
ATOM     15  C   UNL d   1       1.266  -3.334   3.141  0.00  0.00     0.183 C 
ATOM     16  O   UNL d   1       0.550  -4.560   2.943  0.00  0.00    -0.389 OA
ATOM     17  C   UNL d   1      -0.456  -4.418   1.932  0.00  0.00     0.183 C 
ATOM     18  C   UNL d   1       0.161  -3.943   0.613  0.00  0.00     0.135 C 
ENDBRANCH  11  13
ENDBRANCH   1  11
TORSDOF 3
