REMARK  2 active torsions:
REMARK  status: ('A' for Active; 'I' for Inactive)
REMARK       I    between atoms: N_2  and  C_1 
REMARK    1  A    between atoms: C_3  and  C_1 
REMARK       I    between atoms: C_4  and  N_2 
REMARK       I    between atoms: N_6  and  C_4 
REMARK    2  A    between atoms: C_5  and  N_6 
ROOT
ATOM      1  C   UNL d   1       3.110  -3.538  -0.193  0.00  0.00     0.077 A 
ATOM      2  N   UNL d   1       1.963  -3.546  -3.569  0.00  0.00    -0.191 NA
ATOM      3  N   UNL d   1       4.156  -2.536   3.048  0.00  0.00    -0.191 NA
ATOM      4  C   UNL d   1       3.039  -4.352  -1.344  0.00  0.00     0.072 A 
ATOM      5  C   UNL d   1       3.905  -3.958   0.891  0.00  0.00     0.072 A 
ATOM      6  C   UNL d   1       4.042  -3.169   2.080  0.00  0.00     0.102 C 
ATOM      7  C   UNL d   1       2.412  -3.905  -2.558  0.00  0.00     0.102 C 
ATOM      8  C   UNL d   1       3.688  -5.596  -1.366  0.00  0.00     0.025 A 
ATOM      9  C   UNL d   1       4.537  -5.211   0.855  0.00  0.00     0.025 A 
ATOM     10  C   UNL d   1       4.417  -6.034  -0.263  0.00  0.00     0.003 A 
ENDROOT
BRANCH   1  11
ATOM     11  N   UNL d   1       2.397  -2.312  -0.114  0.00  0.00    -0.306 N 
ATOM     12  C   UNL d   1       1.030  -2.269  -0.285  0.00  0.00     0.327 C 
ATOM     13  N   UNL d   1       0.443  -1.033  -0.151  0.00  0.00    -0.275 N 
ATOM     14  O   UNL d   1       0.327  -3.251  -0.508  0.00  0.00    -0.247 OA
ATOM     15  C   UNL d   1       1.034   0.152   0.253  0.00  0.00     0.265 C 
ATOM     16  H   UNL d   1      -0.553  -1.060  -0.326  0.00  0.00     0.173 HD
ATOM     17  O   UNL d   1       2.231   0.225   0.526  0.00  0.00    -0.267 OA
ATOM     18  H   UNL d   1       2.741  -1.573   0.503  0.00  0.00     0.171 HD
BRANCH  15  19
ATOM     19  C   UNL d   1       0.162   1.347   0.371  0.00  0.00     0.109 A 
ATOM     20  C   UNL d   1       0.592   2.441   1.127  0.00  0.00     0.135 A 
ATOM     21  F   UNL d   1       1.750   2.407   1.801  0.00  0.00    -0.205 F 
ATOM     22  C   UNL d   1      -0.181   3.597   1.232  0.00  0.00     0.043 A 
ATOM     23  C   UNL d   1      -1.407   3.680   0.577  0.00  0.00     0.006 A 
ATOM     24  C   UNL d   1      -1.859   2.594  -0.171  0.00  0.00     0.043 A 
ATOM     25  C   UNL d   1      -1.078   1.440  -0.266  0.00  0.00     0.135 A 
ATOM     26  F   UNL d   1      -1.557   0.416  -0.988  0.00  0.00    -0.205 F 
ENDBRANCH  15  19
ENDBRANCH   1  11
TORSDOF 2
