REMARK  5 active torsions:
REMARK  status: ('A' for Active; 'I' for Inactive)
REMARK    1  A    between atoms: C_7  and  C_1 
REMARK    2  A    between atoms: C_11  and  C_4 
REMARK    3  A    between atoms: C_6  and  C_10 
REMARK       I    between atoms: N_9  and  C_7 
REMARK    4  A    between atoms: C_18  and  N_9 
REMARK    5  A    between atoms: C_19  and  C_18 
ROOT
ATOM      1  C   UNL d   1       0.416  -2.598  -0.160  0.00  0.00     0.256 C 
ATOM      2  N   UNL d   1      -0.400  -3.712  -0.332  0.00  0.00    -0.352 N 
ATOM      3  O   UNL d   1       1.632  -2.700  -0.089  0.00  0.00    -0.267 OA
ATOM      4  H   UNL d   1      -1.332  -3.577  -0.687  0.00  0.00     0.163 HD
ENDROOT
BRANCH   1   5
ATOM      5  C   UNL d   1      -0.262  -1.308  -0.070  0.00  0.00     0.092 A 
ATOM      6  C   UNL d   1       0.262   0.027  -0.274  0.00  0.00     0.083 A 
ATOM      7  N   UNL d   1      -0.691   0.935   0.008  0.00  0.00    -0.259 N 
ATOM      8  O   UNL d   1      -1.815   0.249   0.354  0.00  0.00    -0.241 OA
ATOM      9  HN  UNL d   1      -0.589   1.950  -0.030  1.00  0.00     0.195 HD
ATOM     10  C   UNL d   1      -1.577  -1.081   0.304  0.00  0.00     0.090 A 
ATOM     11  C   UNL d   1      -2.739  -1.914   0.679  0.00  0.00     0.080 C 
BRANCH   6  12
ATOM     12  C   UNL d   1       1.553   0.532  -0.772  0.00  0.00    -0.006 A 
ATOM     13  C   UNL d   1       1.986   1.821  -0.398  0.00  0.00     0.014 A 
ATOM     14  C   UNL d   1       3.113   2.410  -0.980  0.00  0.00     0.001 A 
ATOM     15  C   UNL d   1       3.837   1.713  -1.940  0.00  0.00     0.000 A 
ATOM     16  C   UNL d   1       3.443   0.427  -2.302  0.00  0.00     0.001 A 
ATOM     17  C   UNL d   1       2.309  -0.160  -1.725  0.00  0.00     0.014 A 
ENDBRANCH   6  12
ENDBRANCH   1   5
BRANCH   2  18
ATOM     18  C   UNL d   1       0.183  -5.026  -0.527  0.00  0.00     0.161 C 
BRANCH  18  19
ATOM     19  C   UNL d   1      -0.680  -6.182  -0.062  0.00  0.00    -0.041 A 
ATOM     20  C   UNL d   1      -0.586  -7.419  -0.724  0.00  0.00     0.009 A 
ATOM     21  C   UNL d   1      -1.237  -8.557  -0.234  0.00  0.00     0.017 A 
ATOM     22  C   UNL d   1      -2.001  -8.492   0.939  0.00  0.00     0.047 A 
ATOM     23  C   UNL d   1      -2.116  -7.254   1.592  0.00  0.00     0.017 A 
ATOM     24  C   UNL d   1      -1.460  -6.117   1.102  0.00  0.00     0.009 A 
BRANCH  22  25
ATOM     25  C   UNL d   1      -2.654  -9.724   1.520  0.00  0.00     0.417 C 
ATOM     26  F   UNL d   1      -2.465 -10.848   0.772  0.00  0.00    -0.166 F 
ATOM     27  F   UNL d   1      -2.185 -10.024   2.763  0.00  0.00    -0.166 F 
ATOM     28  F   UNL d   1      -4.003  -9.589   1.653  0.00  0.00    -0.166 F 
ENDBRANCH  22  25
ENDBRANCH  18  19
ENDBRANCH   2  18
TORSDOF 5
