REMARK  2 active torsions:
REMARK  status: ('A' for Active; 'I' for Inactive)
REMARK    1  A    between atoms: C_9  and  C_3 
REMARK    2  A    between atoms: C_8  and  C_4 
ROOT
ATOM      1  N   UNL d   1       1.295   0.196  -0.070  0.00  0.00    -0.318 N 
ATOM      2  HN  UNL d   1       2.299   0.358  -0.141  1.00  0.00     0.169 HD
ATOM      3  C   UNL d   1       0.657  -0.948  -0.001  0.00  0.00     0.183 A 
ATOM      4  C   UNL d   1       0.282   1.124  -0.024  0.00  0.00     0.138 A 
ATOM      5  N   UNL d   1      -0.946   0.584   0.030  0.00  0.00    -0.242 N 
ATOM      6  HN  UNL d   1      -1.845   1.065   0.056  1.00  0.00     0.196 HD
ATOM      7  O   UNL d   1      -0.701  -0.791   0.044  0.00  0.00    -0.217 OA
ENDROOT
BRANCH   4   8
ATOM      8  C   UNL d   1       0.565   2.559  -0.011  0.00  0.00     0.012 A 
ATOM      9  C   UNL d   1      -0.499   3.484   0.092  0.00  0.00     0.049 A 
ATOM     10  C   UNL d   1      -0.110   4.836   0.124  0.00  0.00     0.086 A 
ATOM     11  N   UNL d   1      -0.870   5.933   0.223  0.00  0.00    -0.240 N 
ATOM     12  C   UNL d   1       1.284   5.255   0.051  0.00  0.00     0.085 A 
ATOM     13  O   UNL d   1       0.009   7.004   0.215  0.00  0.00    -0.156 OA
ATOM     14  HN  UNL d   1      -1.887   5.973   0.291  1.00  0.00     0.197 HD
ATOM     15  N   UNL d   1       1.326   6.590   0.108  0.00  0.00    -0.240 N 
ATOM     16  HN  UNL d   1       2.157   7.181   0.079  1.00  0.00     0.197 HD
ATOM     17  C   UNL d   1       2.339   4.335  -0.058  0.00  0.00     0.035 A 
ATOM     18  C   UNL d   1       1.930   2.986  -0.085  0.00  0.00     0.018 A 
ENDBRANCH   4   8
BRANCH   3  19
ATOM     19  C   UNL d   1       1.168  -2.310   0.044  0.00  0.00     0.039 A 
ATOM     20  C   UNL d   1       2.411  -2.624   0.624  0.00  0.00     0.048 A 
ATOM     21 CL   UNL d   1       3.416  -1.447   1.402  0.00  0.00    -0.083 Cl
ATOM     22  C   UNL d   1       2.885  -3.942   0.626  0.00  0.00     0.025 A 
ATOM     23  C   UNL d   1       2.130  -4.964   0.053  0.00  0.00     0.002 A 
ATOM     24  C   UNL d   1       0.896  -4.673  -0.519  0.00  0.00     0.001 A 
ATOM     25  C   UNL d   1       0.418  -3.359  -0.523  0.00  0.00     0.017 A 
ENDBRANCH   3  19
TORSDOF 2
