REMARK  4 active torsions:
REMARK  status: ('A' for Active; 'I' for Inactive)
REMARK    1  A    between atoms: C_2  and  S_1 
REMARK    2  A    between atoms: C_9  and  N_15 
REMARK    3  A    between atoms: S_18  and  C_10 
REMARK    4  A    between atoms: N_15  and  C_12 
ROOT
ATOM      1  C   UNL d   1       0.469   0.418  -1.625  0.00  0.00     0.154 C 
ATOM      2  C   UNL d   1      -0.294  -0.475  -2.278  0.00  0.00     0.140 C 
ATOM      3  C   UNL d   1       0.869   0.268  -0.278  0.00  0.00     0.113 C 
ATOM      4  N   UNL d   1       1.201   0.091   0.818  0.00  0.00    -0.191 NA
ENDROOT
BRANCH   1   5
ATOM      5  S   UNL d   1       1.006   1.841  -2.466  0.00  0.00     0.183 S 
ATOM      6  O   UNL d   1       1.307   2.889  -1.508  0.00  0.00    -0.222 OA
ATOM      7  O   UNL d   1       0.111   2.125  -3.575  0.00  0.00    -0.222 OA
ATOM      8  C   UNL d   1       2.553   1.333  -3.170  0.00  0.00     0.168 C 
ENDBRANCH   1   5
BRANCH   2   9
ATOM      9  N   UNL d   1      -0.896  -1.629  -1.822  0.00  0.00    -0.199 N 
ATOM     10  H   UNL d   1      -1.053  -1.759  -0.829  0.00  0.00     0.183 HD
BRANCH   9  11
ATOM     11  C   UNL d   1      -1.681  -2.485  -2.600  0.00  0.00     0.685 A 
ATOM     12  N   UNL d   1      -1.427  -2.591  -3.898  0.00  0.00    -0.170 N 
ATOM     13  C   UNL d   1      -2.196  -3.439  -4.573  0.00  0.00     0.160 A 
ATOM     14  HN  UNL d   1      -0.687  -2.054  -4.350  1.00  0.00     0.186 HD
ATOM     15  N   UNL d   1      -3.222  -4.110  -4.059  0.00  0.00    -0.326 N 
ATOM     16  C   UNL d   1      -3.418  -3.912  -2.757  0.00  0.00     0.095 A 
ATOM     17  HN  UNL d   1      -3.811  -4.728  -4.618  1.00  0.00     0.169 HD
ATOM     18  N   UNL d   1      -2.647  -3.150  -1.977  0.00  0.00    -0.181 N 
ATOM     19  C   UNL d   1      -4.618  -4.549  -2.123  0.00  0.00     0.089 C 
ATOM     20  HN  UNL d   1      -2.791  -3.083  -0.970  1.00  0.00     0.185 HD
BRANCH  13  21
ATOM     21  S   UNL d   1      -1.754  -3.665  -6.281  0.00  0.00    -0.098 SA
ATOM     22  C   UNL d   1      -3.006  -4.854  -6.816  0.00  0.00     0.099 C 
ENDBRANCH  13  21
ENDBRANCH   9  11
ENDBRANCH   2   9
TORSDOF 4
