REMARK  17 active torsions:
REMARK  status: ('A' for Active; 'I' for Inactive)
REMARK    1  A    between atoms: C11_7  and  C1_1 
REMARK    2  A    between atoms: C7_6  and  O2_8 
REMARK       I    between atoms: N_22  and  C7_6 
REMARK    3  A    between atoms: O2_8  and  C11_7 
REMARK    4  A    between atoms: C_18  and  C_20 
REMARK       I    between atoms: N_19  and  C_18 
REMARK    5  A    between atoms: C_24  and  N_19 
REMARK    6  A    between atoms: C_20  and  N_22 
REMARK    7  A    between atoms: C_29  and  C_20 
REMARK       I    between atoms: C_21  and  N_31 
REMARK    8  A    between atoms: O_25  and  C_21 
REMARK    9  A    between atoms: C_23  and  C_24 
REMARK   10  A    between atoms: O_32  and  C_23 
REMARK   11  A    between atoms: C_34  and  C_24 
REMARK   12  A    between atoms: C_30  and  O_25 
REMARK   13  A    between atoms: C_33  and  C_29 
REMARK   14  A    between atoms: N_31  and  C_38 
REMARK   15  A    between atoms: C_39  and  C_34 
REMARK   16  A    between atoms: C_38  and  C_40 
REMARK   17  A    between atoms: C_40  and  C_39 
ROOT
ATOM      1  C   UNK d   1       0.652   4.516   3.010  0.00  0.00     0.179 C 
ENDROOT
BRANCH   1   2
ATOM      2  C   UNK d   1       1.727   5.197   2.124  0.00  0.00     0.241 C 
ATOM      3  N   UNK d   1       2.248   4.369   1.163  0.00  0.00    -0.345 N 
ATOM      4  H   UNK d   1       1.671   3.545   1.019  0.00  0.00     0.163 HD
ATOM      5  O   UNK d   1       2.106   6.358   2.244  0.00  0.00    -0.271 OA
BRANCH   3   6
ATOM      6  C   UNK d   1       2.938   4.760  -0.082  0.00  0.00     0.182 C 
BRANCH   6   7
ATOM      7  C   UNK d   1       4.052   5.840  -0.191  0.00  0.00     0.163 C 
ATOM      8  O   UNK d   1       4.659   6.063  -1.242  0.00  0.00    -0.648 OA
BRANCH   7   9
ATOM      9  O   UNK d   1       4.337   6.506   0.937  0.00  0.00    -0.775 OA
ATOM     10  H   UNK d   1       3.655   6.384   1.636  0.00  0.00     0.167 HD
ENDBRANCH   7   9
ENDBRANCH   6   7
BRANCH   6  11
ATOM     11  C   UNK d   1       3.557   3.450  -0.619  0.00  0.00     0.036 C 
BRANCH  11  12
ATOM     12  C   UNK d   1       4.701   2.940   0.283  0.00  0.00     0.004 C 
BRANCH  12  13
ATOM     13  C   UNK d   1       5.287   1.604  -0.175  0.00  0.00     0.020 C 
BRANCH  13  14
ATOM     14  C   UNK d   1       5.734   1.649  -1.633  0.00  0.00     0.125 C 
BRANCH  14  15
ATOM     15  N   UNK d   1       6.495   0.491  -2.027  0.00  0.00    -0.337 N 
ATOM     16  C   UNK d   1       6.000  -0.736  -2.346  0.00  0.00     0.361 C 
ATOM     17  O   UNK d   1       6.745  -1.615  -2.767  0.00  0.00    -0.238 OA
ATOM     18  H   UNK d   1       7.484   0.591  -2.208  0.00  0.00     0.164 HD
BRANCH  16  19
ATOM     19  O   UNK d   1       4.669  -0.863  -2.123  0.00  0.00    -0.294 OA
BRANCH  19  20
ATOM     20  C   UNK d   1       4.041  -2.166  -2.280  0.00  0.00     0.061 C 
ATOM     21  C   UNK d   1       4.733  -3.215  -1.395  0.00  0.00     0.046 C 
ATOM     22  C   UNK d   1       2.590  -1.997  -1.796  0.00  0.00     0.046 C 
ATOM     23  C   UNK d   1       4.016  -2.584  -3.755  0.00  0.00     0.046 C 
ENDBRANCH  19  20
ENDBRANCH  16  19
ENDBRANCH  14  15
ENDBRANCH  13  14
ENDBRANCH  12  13
ENDBRANCH  11  12
ENDBRANCH   6  11
ENDBRANCH   3   6
ENDBRANCH   1   2
BRANCH   1  24
ATOM     24  N   UNK d   1      -0.630   5.132   2.738  0.00  0.00    -0.324 N 
ATOM     25  C7  <1> d   1      -1.561   4.533   1.946  0.00  0.00     0.361 C 
ATOM     26  O4  <1> d   1      -1.361   3.515   1.302  0.00  0.00    -0.239 OA
ATOM     27  H   UNK d   1      -0.882   6.017   3.160  0.00  0.00     0.165 HD
BRANCH  25  28
ATOM     28  O2  <1> d   1      -2.716   5.230   2.001  0.00  0.00    -0.303 OA
BRANCH  28  29
ATOM     29  C11 <1> d   1      -3.840   4.690   1.274  0.00  0.00     0.194 C 
BRANCH  29  30
ATOM     30  C1  <1> d   1      -5.057   4.457   2.183  0.00  0.00     0.078 A 
ATOM     31  C4  <1> d   1      -5.492   5.704   2.942  0.00  0.00    -0.036 A 
ATOM     32  C2  <1> d   1      -5.461   5.462   4.333  0.00  0.00    -0.018 A 
ATOM     33  C17 <1> d   1      -5.882   6.932   2.430  0.00  0.00     0.009 A 
ATOM     34  C16 <1> d   1      -5.798   6.466   5.226  0.00  0.00     0.013 A 
ATOM     35  C3  <1> d   1      -5.050   4.092   4.563  0.00  0.00    -0.018 A 
ATOM     36  C29 <1> d   1      -6.171   7.714   4.716  0.00  0.00     0.001 A 
ATOM     37  C32 <1> d   1      -6.218   7.943   3.331  0.00  0.00     0.001 A 
ATOM     38  C5  <1> d   1      -4.809   3.471   3.317  0.00  0.00    -0.036 A 
ATOM     39  C15 <1> d   1      -4.895   3.384   5.743  0.00  0.00     0.013 A 
ATOM     40  C18 <1> d   1      -4.437   2.138   3.237  0.00  0.00     0.009 A 
ATOM     41  C31 <1> d   1      -4.285   1.425   4.427  0.00  0.00     0.001 A 
ATOM     42  C30 <1> d   1      -4.506   2.042   5.669  0.00  0.00     0.001 A 
ENDBRANCH  29  30
ENDBRANCH  28  29
ENDBRANCH  25  28
ENDBRANCH   1  24
BRANCH   1  43
ATOM     43  C   UNK d   1       1.008   4.560   4.499  0.00  0.00     0.038 C 
BRANCH  43  44
ATOM     44  C   UNK d   1      -0.115   4.030   5.423  0.00  0.00    -0.020 C 
ATOM     45  C   UNK d   1      -0.441   2.554   5.182  0.00  0.00     0.009 C 
ATOM     46  C   UNK d   1       0.268   4.250   6.887  0.00  0.00     0.009 C 
ENDBRANCH  43  44
ENDBRANCH   1  43
TORSDOF 17
