REMARK  4 active torsions:
REMARK  status: ('A' for Active; 'I' for Inactive)
REMARK    1  A    between atoms: C_17  and  C_3 
REMARK    2  A    between atoms: C_6  and  C_7 
REMARK    3  A    between atoms: C_8  and  O_15 
REMARK    4  A    between atoms: O_15  and  C_23 
ROOT
ATOM      1  C   UNL d   1       2.458   1.581  -0.011  0.00  0.00     0.010 A 
ATOM      2  C   UNL d   1       2.555   2.543   1.004  0.00  0.00     0.018 A 
ATOM      3  C   UNL d   1       3.514   1.463  -0.927  0.00  0.00     0.018 A 
ATOM      4  C   UNL d   1       4.719   3.254   0.177  0.00  0.00     0.077 A 
ATOM      5  C   UNL d   1       3.685   3.360   1.110  0.00  0.00     0.038 A 
ATOM      6  C   UNL d   1       4.638   2.291  -0.830  0.00  0.00     0.038 A 
ENDROOT
BRANCH   4   7
ATOM      7  O   UNL d   1       5.882   3.989   0.225  0.00  0.00    -0.292 OA
BRANCH   7   8
ATOM      8  C   UNL d   1       5.818   5.306   0.659  0.00  0.00     0.170 A 
ATOM      9  N   UNL d   1       4.680   6.016   0.432  0.00  0.00    -0.344 N 
ATOM     10  C   UNL d   1       4.636   7.283   0.893  0.00  0.00     0.106 A 
ATOM     11  HN  UNL d   1       3.890   5.606  -0.067  1.00  0.00     0.167 HD
ATOM     12  C   UNL d   1       5.685   7.902   1.556  0.00  0.00     0.065 A 
ATOM     13  C   UNL d   1       6.865   7.169   1.734  0.00  0.00     0.045 A 
ATOM     14  C   UNL d   1       6.941   5.854   1.275  0.00  0.00     0.086 A 
ATOM     15 CL   UNL d   1       8.398   4.967   1.506  0.00  0.00    -0.080 Cl
BRANCH  12  16
ATOM     16  C   UNL d   1       5.508   9.301   2.056  0.00  0.00     0.418 C 
ATOM     17  F   UNL d   1       6.612   9.798   2.679  0.00  0.00    -0.166 F 
ATOM     18  F   UNL d   1       5.214  10.177   1.057  0.00  0.00    -0.166 F 
ATOM     19  F   UNL d   1       4.493   9.403   2.955  0.00  0.00    -0.166 F 
ENDBRANCH  12  16
ENDBRANCH   7   8
ENDBRANCH   4   7
BRANCH   1  20
ATOM     20  C   UNL d   1       1.285   0.715  -0.085  0.00  0.00     0.137 A 
ATOM     21  N   UNL d   1       0.228   0.838   0.795  0.00  0.00    -0.323 N 
ATOM     22  C   UNL d   1      -0.580  -0.118   0.405  0.00  0.00     0.144 A 
ATOM     23  HN  UNL d   1       0.106   1.505   1.557  1.00  0.00     0.169 HD
ATOM     24  O   UNL d   1      -0.104  -0.830  -0.654  0.00  0.00    -0.223 OA
ATOM     25  C   UNL d   1      -1.890  -0.520   0.941  0.00  0.00     0.100 C 
ATOM     26  N   UNL d   1       1.133  -0.276  -0.980  0.00  0.00    -0.242 N 
ATOM     27  HN  UNL d   1       1.772  -0.556  -1.723  1.00  0.00     0.196 HD
ENDBRANCH   1  20
TORSDOF 4
