REMARK  6 active torsions:
REMARK  status: ('A' for Active; 'I' for Inactive)
REMARK    1  A    between atoms: C_6  and  N_1 
REMARK    2  A    between atoms: C_12  and  C_2 
REMARK    3  A    between atoms: C_8  and  C_11 
REMARK    4  A    between atoms: O_17  and  N_14 
REMARK    5  A    between atoms: C_16  and  O_17 
REMARK       I    between atoms: N_24  and  C_16 
REMARK    6  A    between atoms: C_28  and  N_24 
ROOT
ATOM      1  N   UNL d   1      -3.940   4.096   0.053  0.00  0.00    -0.244 N 
ATOM      2  C   UNL d   1      -2.027   2.929   0.021  0.00  0.00     0.029 A 
ATOM      3  C   UNL d   1      -2.553   4.221  -0.006  0.00  0.00     0.046 A 
ATOM      4  N   UNL d   1      -4.314   2.792   0.177  0.00  0.00    -0.303 N 
ATOM      5  HN  UNL d   1      -5.259   2.421   0.279  1.00  0.00     0.186 HD
ATOM      6  C   UNL d   1      -3.172   2.111   0.135  0.00  0.00     0.123 A 
ATOM      7  C   UNL d   1      -1.889   5.559  -0.056  0.00  0.00     0.071 C 
ENDROOT
BRANCH   1   8
ATOM      8  C   UNL d   1      -4.926   5.142   0.023  0.00  0.00     0.128 A 
ATOM      9  N   UNL d   1      -4.520   6.415  -0.223  0.00  0.00    -0.345 N 
ATOM     10  C   UNL d   1      -5.427   7.413  -0.211  0.00  0.00     0.007 A 
ATOM     11  HN  UNL d   1      -3.538   6.614  -0.414  1.00  0.00     0.167 HD
ATOM     12  C   UNL d   1      -4.915   8.792  -0.499  0.00  0.00     0.068 C 
ATOM     13  C   UNL d   1      -6.764   7.186   0.066  0.00  0.00     0.041 A 
ATOM     14  C   UNL d   1      -7.194   5.877   0.321  0.00  0.00     0.053 A 
ATOM     15  C   UNL d   1      -6.258   4.835   0.273  0.00  0.00     0.066 A 
BRANCH  14  16
ATOM     16  C   UNL d   1      -8.633   5.616   0.676  0.00  0.00     0.417 C 
ATOM     17  F   UNL d   1      -8.913   4.303   0.901  0.00  0.00    -0.166 F 
ATOM     18  F   UNL d   1      -9.009   6.277   1.805  0.00  0.00    -0.166 F 
ATOM     19  F   UNL d   1      -9.492   6.022  -0.298  0.00  0.00    -0.166 F 
ENDBRANCH  14  16
ENDBRANCH   1   8
BRANCH   2  20
ATOM     20  C   UNL d   1      -0.621   2.522  -0.029  0.00  0.00     0.042 C 
ATOM     21  N   UNL d   1       0.241   3.482  -0.127  0.00  0.00    -0.260 N 
ATOM     22  HN  UNL d   1      -0.032   4.463  -0.193  1.00  0.00     0.194 HD
ATOM     23  C   UNL d   1      -0.220   1.069   0.041  0.00  0.00     0.071 C 
BRANCH  21  24
ATOM     24  O   UNL d   1       1.584   3.069  -0.138  0.00  0.00    -0.181 OA
BRANCH  24  25
ATOM     25  C   UNL d   1       2.386   4.189  -0.203  0.00  0.00     0.382 C 
ATOM     26  O   UNL d   1       2.002   5.351  -0.276  0.00  0.00    -0.236 OA
ATOM     27  N   UNL d   1       3.712   3.838  -0.171  0.00  0.00    -0.336 N 
ATOM     28  H   UNL d   1       3.934   2.855  -0.162  0.00  0.00     0.164 HD
BRANCH  27  29
ATOM     29  C   UNL d   1       4.757   4.834  -0.250  0.00  0.00     0.120 C 
ATOM     30  C   UNL d   1       5.131   5.149  -1.688  0.00  0.00     0.026 C 
ENDBRANCH  27  29
ENDBRANCH  24  25
ENDBRANCH  21  24
ENDBRANCH   2  20
TORSDOF 6
