REMARK  9 active torsions:
REMARK  status: ('A' for Active; 'I' for Inactive)
REMARK    1  A    between atoms: O_8  and  C_1 
REMARK       I    between atoms: C_3  and  N_6 
REMARK    2  A    between atoms: O_17  and  C_3 
REMARK    3  A    between atoms: N_6  and  C_15 
REMARK    4  A    between atoms: C_16  and  O_8 
REMARK    5  A    between atoms: C_9  and  C_23 
REMARK    6  A    between atoms: C_27  and  O_17 
REMARK    7  A    between atoms: S_18  and  C_26 
REMARK    8  A    between atoms: C_23  and  S_18 
REMARK    9  A    between atoms: C_26  and  C_27 
ROOT
ATOM      1  C   UNL d   1       2.860   7.166   4.703  0.00  0.00     0.365 C 
ATOM      2  N   UNL d   1       1.615   7.152   4.138  0.00  0.00    -0.303 N 
ATOM      3  O   UNL d   1       3.782   7.936   4.454  0.00  0.00    -0.238 OA
ATOM      4  H   UNL d   1       1.010   6.411   4.468  0.00  0.00     0.171 HD
ENDROOT
BRANCH   1   5
ATOM      5  O   UNL d   1       2.968   6.167   5.622  0.00  0.00    -0.303 OA
BRANCH   5   6
ATOM      6  C   UNL d   1       4.282   6.067   6.209  0.00  0.00     0.191 C 
BRANCH   6   7
ATOM      7  C   UNL d   1       4.460   7.091   7.331  0.00  0.00     0.101 C 
BRANCH   7   8
ATOM      8  S   UNL d   1       6.178   7.192   7.935  0.00  0.00    -0.164 SA
BRANCH   8   9
ATOM      9  C   UNL d   1       7.042   7.880   6.458  0.00  0.00     0.108 C 
BRANCH   9  10
ATOM     10  C   UNL d   1       6.551   9.268   6.005  0.00  0.00     0.162 C 
ATOM     11  O   UNL d   1       6.773  10.253   7.028  0.00  0.00    -0.340 OA
ATOM     12  C   UNL d   1       8.052  10.744   7.018  0.00  0.00     0.102 A 
ATOM     13  C   UNL d   1       8.454  11.448   8.151  0.00  0.00     0.039 A 
ATOM     14  C   UNL d   1       8.941  10.554   5.957  0.00  0.00     0.102 A 
ATOM     15  C   UNL d   1       9.755  11.943   8.236  0.00  0.00     0.003 A 
ATOM     16  C   UNL d   1      10.650  11.736   7.185  0.00  0.00     0.003 A 
ATOM     17  C   UNL d   1      10.245  11.040   6.045  0.00  0.00     0.039 A 
ATOM     18  O   UNL d   1       8.614   9.867   4.816  0.00  0.00    -0.346 OA
ATOM     19  C   UNL d   1       7.196   9.716   4.692  0.00  0.00     0.209 C 
ENDBRANCH   9  10
ENDBRANCH   8   9
ENDBRANCH   7   8
ENDBRANCH   6   7
ENDBRANCH   5   6
ENDBRANCH   1   5
BRANCH   2  20
ATOM     20  C   UNL d   1       1.121   8.048   3.177  0.00  0.00     0.037 A 
ATOM     21  C   UNL d   1       1.854   9.135   2.692  0.00  0.00     0.032 A 
ATOM     22  C   UNL d   1       1.317  10.015   1.749  0.00  0.00     0.039 A 
ATOM     23  C   UNL d   1       0.010   9.853   1.308  0.00  0.00     0.078 A 
ATOM     24  C   UNL d   1      -0.716   8.742   1.747  0.00  0.00     0.039 A 
ATOM     25  C   UNL d   1      -0.171   7.848   2.680  0.00  0.00     0.032 A 
BRANCH  23  26
ATOM     26  O   UNL d   1      -0.655  10.682   0.459  0.00  0.00    -0.255 OA
BRANCH  26  27
ATOM     27  C   UNL d   1      -0.241  12.040   0.360  0.00  0.00     0.530 C 
ATOM     28  F   UNL d   1       0.456  12.480   1.430  0.00  0.00    -0.144 F 
ATOM     29  F   UNL d   1      -1.345  12.813   0.251  0.00  0.00    -0.144 F 
ATOM     30  F   UNL d   1       0.505  12.210  -0.753  0.00  0.00    -0.144 F 
ENDBRANCH  26  27
ENDBRANCH  23  26
ENDBRANCH   2  20
TORSDOF 9
