REMARK  7 active torsions:
REMARK  status: ('A' for Active; 'I' for Inactive)
REMARK    1  A    between atoms: C_17  and  C_2 
REMARK    2  A    between atoms: C_3  and  C_4 
REMARK    3  A    between atoms: N_21  and  C_8 
REMARK    4  A    between atoms: C_9  and  N_22 
REMARK    5  A    between atoms: C_27  and  N_21 
REMARK    6  A    between atoms: N_22  and  C_28 
REMARK    7  A    between atoms: C_28  and  C_27 
ROOT
ATOM      1  C   UNL d   1       0.178   1.006   0.396  0.00  0.00     0.053 A 
ATOM      2  C   UNL d   1      -0.880   1.793   1.008  0.00  0.00    -0.003 A 
ATOM      3  C   UNL d   1      -1.978   1.010   1.330  0.00  0.00     0.065 A 
ATOM      4  C   UNL d   1      -0.221  -0.322   0.279  0.00  0.00     0.089 A 
ATOM      5  S   UNL d   1      -1.760  -0.631   0.934  0.00  0.00    -0.082 SA
ATOM      6  C   UNL d   1       1.483   1.292  -0.084  0.00  0.00     0.116 C 
ATOM      7  N   UNL d   1       0.472  -1.335  -0.266  0.00  0.00    -0.346 N 
ATOM      8  HN  UNL d   1       0.144  -2.301  -0.291  1.00  0.00     0.167 HD
ATOM      9  N   UNL d   1       2.138   0.305  -0.733  0.00  0.00    -0.338 N 
ATOM     10  HN  UNL d   1       3.023   0.505  -1.198  1.00  0.00     0.168 HD
ATOM     11  C   UNL d   1       1.633  -0.932  -0.768  0.00  0.00     0.182 C 
ENDROOT
BRANCH   6  12
ATOM     12  N   UNL d   1       2.123   2.507   0.107  0.00  0.00    -0.374 N 
ATOM     13  H   UNL d   1       1.748   3.059   0.874  0.00  0.00     0.161 HD
BRANCH  12  14
ATOM     14  C   UNL d   1       3.551   2.719  -0.179  0.00  0.00     0.136 C 
BRANCH  14  15
ATOM     15  C   UNL d   1       4.459   1.512   0.115  0.00  0.00     0.113 C 
BRANCH  15  16
ATOM     16  N   UNL d   1       5.891   1.840   0.225  0.00  0.00    -0.277 NA
ATOM     17  H   UNL d   1       6.080   2.538   0.942  0.00  0.00     0.129 HD
BRANCH  16  18
ATOM     18  C   UNL d   1       6.668   0.682   0.454  0.00  0.00     0.095 A 
ATOM     19  C   UNL d   1       8.053   0.744   0.558  0.00  0.00     0.086 A 
ATOM     20  C   UNL d   1       8.761  -0.464   0.734  0.00  0.00     0.021 A 
ATOM     21  C   UNL d   1       8.089  -1.675   0.806  0.00  0.00     0.018 A 
ATOM     22  C   UNL d   1       6.721  -1.647   0.695  0.00  0.00     0.089 A 
ATOM     23  N   UNL d   1       6.022  -0.509   0.522  0.00  0.00    -0.356 N 
ATOM     24  HN  UNL d   1       5.006  -0.542   0.443  1.00  0.00     0.166 HD
BRANCH  19  25
ATOM     25  C   UNL d   1       8.832   2.017   0.447  0.00  0.00     0.420 C 
ATOM     26  F   UNL d   1       8.112   3.166   0.585  0.00  0.00    -0.166 F 
ATOM     27  F   UNL d   1       9.801   2.099   1.409  0.00  0.00    -0.166 F 
ATOM     28  F   UNL d   1       9.498   2.123  -0.738  0.00  0.00    -0.166 F 
ENDBRANCH  19  25
ENDBRANCH  16  18
ENDBRANCH  15  16
ENDBRANCH  14  15
ENDBRANCH  12  14
ENDBRANCH   6  12
BRANCH   2  29
ATOM     29  C   UNL d   1      -0.930   3.236   1.246  0.00  0.00    -0.024 A 
ATOM     30  C   UNL d   1      -0.542   4.136   0.245  0.00  0.00     0.012 A 
ATOM     31  C   UNL d   1      -0.554   5.511   0.482  0.00  0.00     0.001 A 
ATOM     32  C   UNL d   1      -0.988   6.002   1.712  0.00  0.00     0.000 A 
ATOM     33  C   UNL d   1      -1.409   5.120   2.703  0.00  0.00     0.001 A 
ATOM     34  C   UNL d   1      -1.375   3.742   2.476  0.00  0.00     0.012 A 
ENDBRANCH   2  29
TORSDOF 7
