REMARK  2 active torsions:
REMARK  status: ('A' for Active; 'I' for Inactive)
REMARK    1  A    between atoms: C_2  and  C_1 
REMARK    2  A    between atoms: O_11  and  C_1 
ROOT
ATOM      1  C   UNL d   1       0.246  -1.028   0.649  0.00  0.00     0.040 A 
ATOM      2  C   UNL d   1      -1.476  -2.731   0.530  0.00  0.00     0.103 A 
ATOM      3  C   UNL d   1      -0.773  -1.676  -0.057  0.00  0.00     0.057 A 
ATOM      4  C   UNL d   1      -1.125  -3.175   1.814  0.00  0.00     0.102 A 
ATOM      5  O   UNL d   1      -2.482  -3.256  -0.241  0.00  0.00    -0.348 OA
ATOM      6  O   UNL d   1      -1.698  -4.227   2.481  0.00  0.00    -0.348 OA
ATOM      7  C   UNL d   1       0.552  -1.426   1.956  0.00  0.00     0.021 A 
ATOM      8  C   UNL d   1      -0.131  -2.501   2.530  0.00  0.00     0.040 A 
ATOM      9  C   UNL d   1      -3.510  -5.028   1.066  0.00  0.00     0.053 C 
ATOM     10  C   UNL d   1      -3.638  -3.618   0.517  0.00  0.00     0.178 C 
ATOM     11  C   UNL d   1      -2.125  -5.293   1.632  0.00  0.00     0.178 C 
ENDROOT
BRANCH   1  12
ATOM     12  C   UNL d   1       0.934   0.114   0.000  0.00  0.00     0.176 C 
ATOM     13  O   UNL d   1       0.380   0.861  -0.788  0.00  0.00    -0.646 OA
BRANCH  12  14
ATOM     14  O   UNL d   1       2.236   0.224   0.335  0.00  0.00    -0.773 OA
ATOM     15  H   UNL d   1       2.601  -0.534   0.828  0.00  0.00     0.167 HD
ENDBRANCH  12  14
ENDBRANCH   1  12
TORSDOF 2
