REMARK  6 active torsions:
REMARK  status: ('A' for Active; 'I' for Inactive)
REMARK    1  A    between atoms: C_4  and  C_1 
REMARK    2  A    between atoms: N_3  and  C_2 
REMARK       I    between atoms: N_6  and  C_4 
REMARK    3  A    between atoms: C_8  and  N_6 
REMARK    4  A    between atoms: N_14  and  C_8 
REMARK    5  A    between atoms: C_17  and  N_14 
REMARK    6  A    between atoms: C_15  and  C_17 
ROOT
ATOM      1  C   UNL d   1       2.299  -1.567   0.053  0.00  0.00     0.258 C 
ATOM      2  N   UNL d   1       2.050  -2.905  -0.205  0.00  0.00    -0.300 N 
ATOM      3  O   UNL d   1       1.541  -0.811   0.653  0.00  0.00    -0.267 OA
ATOM      4  H   UNL d   1       2.775  -3.414  -0.683  0.00  0.00     0.171 HD
ENDROOT
BRANCH   1   5
ATOM      5  C   UNL d   1       3.546  -1.057  -0.538  0.00  0.00     0.041 A 
ATOM      6  C   UNL d   1       4.341  -1.621  -1.602  0.00  0.00     0.061 A 
ATOM      7  C   UNL d   1       5.445  -0.845  -1.897  0.00  0.00     0.144 A 
ATOM      8  S   UNL d   1       5.547   0.545  -0.934  0.00  0.00    -0.077 SA
ATOM      9  C   UNL d   1       4.099   0.144  -0.118  0.00  0.00     0.069 A 
BRANCH   7  10
ATOM     10  N   UNL d   1       6.435  -1.112  -2.910  0.00  0.00    -0.108 N 
ATOM     11  O   UNL d   1       6.198  -2.070  -3.660  0.00  0.00    -0.531 OA
ATOM     12  O   UNL d   1       7.439  -0.393  -2.958  0.00  0.00    -0.531 OA
ENDBRANCH   7  10
ENDBRANCH   1   5
BRANCH   2  13
ATOM     13  C   UNL d   1       1.084  -3.744   0.311  0.00  0.00     0.174 C 
ATOM     14  S   UNL d   1       0.163  -3.527   1.680  0.00  0.00    -0.041 SA
BRANCH  13  15
ATOM     15  N   UNL d   1       0.883  -4.887  -0.431  0.00  0.00    -0.364 N 
ATOM     16  H   UNL d   1       0.153  -5.479  -0.048  0.00  0.00     0.162 HD
BRANCH  15  17
ATOM     17  C   UNL d   1       1.065  -4.968  -1.870  0.00  0.00     0.148 C 
BRANCH  17  18
ATOM     18  C   UNL d   1       2.463  -5.374  -2.223  0.00  0.00    -0.018 C 
ATOM     19  C   UNL d   1       3.253  -6.198  -1.520  0.00  0.00     0.008 C 
ENDBRANCH  17  18
ENDBRANCH  15  17
ENDBRANCH  13  15
ENDBRANCH   2  13
TORSDOF 6
