REMARK  1 active torsions:
REMARK  status: ('A' for Active; 'I' for Inactive)
REMARK    1  A    between atoms: N_9  and  C_7 
ROOT
ATOM      1  C   UNL d   1      -0.557   1.053  -0.021  0.00  0.00     0.072 A 
ATOM      2  C   UNL d   1       0.832   0.827  -0.499  0.00  0.00     0.275 A 
ATOM      3  N   UNL d   1      -0.454  -1.087  -0.889  0.00  0.00    -0.300 N 
ATOM      4  HN  UNL d   1      -0.703  -2.024  -1.206  1.00  0.00     0.187 HD
ATOM      5  N   UNL d   1       0.772  -0.459  -1.028  0.00  0.00    -0.261 N 
ATOM      6  C   UNL d   1      -1.228  -0.236  -0.268  0.00  0.00     0.039 A 
ATOM      7  C   UNL d   1      -0.928   2.248   0.448  0.00  0.00     0.103 C 
ATOM      8  O   UNL d   1       1.763   1.611  -0.463  0.00  0.00    -0.266 OA
ATOM      9  C   UNL d   1       1.845  -1.095  -1.747  0.00  0.00     0.181 C 
ATOM     10  C   UNL d   1      -2.613  -0.583   0.160  0.00  0.00     0.071 C 
ENDROOT
BRANCH   7  11
ATOM     11  N   UNL d   1      -2.148   2.805   0.825  0.00  0.00    -0.398 N 
ATOM     12  C   UNL d   1      -3.397   2.522   0.112  0.00  0.00     0.148 C 
ATOM     13  C   UNL d   1      -2.180   4.079   1.558  0.00  0.00     0.148 C 
ENDBRANCH   7  11
TORSDOF 1
