REMARK  5 active torsions:
REMARK  status: ('A' for Active; 'I' for Inactive)
REMARK    1  A    between atoms: C_15  and  C_1 
REMARK    2  A    between atoms: C_3  and  C_2 
REMARK    3  A    between atoms: C_11  and  N_14 
REMARK    4  A    between atoms: O_22  and  C_15 
REMARK    5  A    between atoms: C_26  and  O_22 
ROOT
ATOM      1  C   UNL d   1      -1.056   2.788  -0.020  0.00  0.00     0.077 A 
ATOM      2  N   UNL d   1      -1.852   3.055   1.074  0.00  0.00    -0.334 N 
ATOM      3  HN  UNL d   1      -1.673   2.713   2.018  1.00  0.00     0.168 HD
ATOM      4  C   UNL d   1      -2.872   3.811   0.735  0.00  0.00     0.149 A 
ATOM      5  S   UNL d   1      -2.869   4.310  -0.920  0.00  0.00    -0.063 SA
ATOM      6  C   UNL d   1      -1.467   3.365  -1.201  0.00  0.00     0.085 A 
ATOM      7  N   UNL d   1      -3.883   4.199   1.542  0.00  0.00    -0.336 N 
ATOM      8  H   UNL d   1      -4.624   4.743   1.116  0.00  0.00     0.168 HD
ENDROOT
BRANCH   1   9
ATOM      9  C   UNL d   1       0.140   1.916   0.123  0.00  0.00     0.128 A 
ATOM     10  C   UNL d   1       1.036   1.543  -0.849  0.00  0.00     0.079 A 
ATOM     11  C   UNL d   1       1.964   0.698  -0.189  0.00  0.00     0.132 A 
ATOM     12  N   UNL d   1       1.653   0.580   1.112  0.00  0.00    -0.255 N 
ATOM     13  O   UNL d   1       0.515   1.338   1.299  0.00  0.00    -0.235 OA
ATOM     14  HN  UNL d   1       2.155   0.041   1.817  1.00  0.00     0.195 HD
BRANCH  11  15
ATOM     15  C   UNL d   1       3.086  -0.007  -0.799  0.00  0.00     0.311 C 
ATOM     16  O   UNL d   1       3.345   0.079  -1.997  0.00  0.00    -0.258 OA
BRANCH  15  17
ATOM     17  O   UNL d   1       3.756  -0.807   0.079  0.00  0.00    -0.317 OA
BRANCH  17  18
ATOM     18  C   UNL d   1       4.648  -1.763  -0.506  0.00  0.00     0.175 C 
ATOM     19  C   UNL d   1       3.849  -2.990  -0.906  0.00  0.00     0.034 C 
ENDBRANCH  17  18
ENDBRANCH  15  17
ENDBRANCH  11  15
ENDBRANCH   1   9
BRANCH   7  20
ATOM     20  C   UNL d   1      -4.338   3.528   2.702  0.00  0.00     0.046 A 
ATOM     21  C   UNL d   1      -4.698   4.325   3.820  0.00  0.00    -0.034 A 
ATOM     22  C   UNL d   1      -5.293   3.737   4.952  0.00  0.00     0.015 A 
ATOM     23  C   UNL d   1      -4.483   5.817   3.858  0.00  0.00     0.050 C 
ATOM     24  C   UNL d   1      -5.532   2.367   5.009  0.00  0.00    -0.061 A 
ATOM     25  C   UNL d   1      -5.166   1.580   3.918  0.00  0.00     0.015 A 
ATOM     26  C   UNL d   1      -6.187   1.761   6.214  0.00  0.00     0.048 C 
ATOM     27  C   UNL d   1      -4.591   2.137   2.756  0.00  0.00    -0.034 A 
ATOM     28  C   UNL d   1      -4.340   1.154   1.642  0.00  0.00     0.050 C 
ENDBRANCH   7  20
TORSDOF 5
