REMARK  4 active torsions:
REMARK  status: ('A' for Active; 'I' for Inactive)
REMARK    1  A    between atoms: O_2  and  S_1 
REMARK    2  A    between atoms: C_3  and  S_1 
REMARK    3  A    between atoms: C_10  and  O_2 
REMARK    4  A    between atoms: C_19  and  C_13 
ROOT
ATOM      1  N   UNL d   1       3.978  -4.257   6.334  0.00  0.00    -0.197 NA
ATOM      2  C   UNL d   1       3.031  -4.410   5.678  0.00  0.00     0.063 C 
ATOM      3  C   UNL d   1       1.818  -4.630   4.875  0.00  0.00     0.162 C 
ENDROOT
BRANCH   3   4
ATOM      4  C   UNL d   1       1.482  -3.475   3.956  0.00  0.00    -0.045 A 
ATOM      5  C   UNL d   1       1.419  -3.672   2.572  0.00  0.00     0.011 A 
ATOM      6  C   UNL d   1       1.098  -2.616   1.714  0.00  0.00     0.039 A 
ATOM      7  C   UNL d   1       0.840  -1.341   2.220  0.00  0.00     0.089 A 
ATOM      8  C   UNL d   1       0.873  -1.142   3.602  0.00  0.00     0.039 A 
ATOM      9  C   UNL d   1       1.195  -2.199   4.464  0.00  0.00     0.011 A 
BRANCH   7  10
ATOM     10  O   UNL d   1       0.512  -0.253   1.442  0.00  0.00    -0.229 OA
BRANCH  10  11
ATOM     11  S   UNL d   1       1.080  -0.126  -0.087  0.00  0.00     0.303 S 
ATOM     12  O   UNL d   1       0.437  -1.130  -0.917  0.00  0.00    -0.193 OA
ATOM     13  O   UNL d   1       2.528  -0.028  -0.043  0.00  0.00    -0.193 OA
BRANCH  11  14
ATOM     14  C   UNL d   1       0.479   1.450  -0.672  0.00  0.00     0.086 A 
ATOM     15  C   UNL d   1       1.256   2.597  -0.486  0.00  0.00     0.026 A 
ATOM     16  C   UNL d   1       0.875   3.792  -1.102  0.00  0.00     0.008 A 
ATOM     17  C   UNL d   1      -0.271   3.846  -1.909  0.00  0.00    -0.062 A 
ATOM     18  C   UNL d   1      -1.048   2.692  -2.075  0.00  0.00     0.008 A 
ATOM     19  C   UNL d   1      -0.627   5.122  -2.615  0.00  0.00     0.048 C 
ATOM     20  C   UNL d   1      -0.674   1.495  -1.462  0.00  0.00     0.026 A 
ENDBRANCH  11  14
ENDBRANCH  10  11
ENDBRANCH   7  10
ENDBRANCH   3   4
TORSDOF 4
