REMARK  5 active torsions:
REMARK  status: ('A' for Active; 'I' for Inactive)
REMARK    1  A    between atoms: S_9  and  C_3 
REMARK    2  A    between atoms: C_13  and  C_8 
REMARK    3  A    between atoms: C_17  and  S_9 
REMARK    4  A    between atoms: C_21  and  C_17 
REMARK    5  A    between atoms: O_22  and  C_18 
ROOT
ATOM      1  C   UNL d   1      -0.007  -0.688  -0.125  0.00  0.00     0.042 A 
ATOM      2  C   UNL d   1       0.390   0.709  -0.232  0.00  0.00    -0.014 A 
ATOM      3  C   UNL d   1       1.085  -1.538  -0.134  0.00  0.00     0.057 A 
ATOM      4  C   UNL d   1       1.760   0.854  -0.333  0.00  0.00     0.093 A 
ATOM      5  S   UNL d   1       2.551  -0.655  -0.328  0.00  0.00    -0.071 SA
ATOM      6  C   UNL d   1      -1.423  -1.034   0.048  0.00  0.00     0.162 C 
ATOM      7  C   UNL d   1      -0.629   1.831  -0.161  0.00  0.00     0.051 C 
ATOM      8  C   UNL d   1      -1.980   1.359   0.443  0.00  0.00     0.030 C 
ATOM      9  C   UNL d   1       2.465   2.100  -0.397  0.00  0.00     0.107 C 
ATOM     10  C   UNL d   1      -2.404   0.073  -0.292  0.00  0.00     0.093 C 
ATOM     11  N   UNL d   1       2.998   3.128  -0.433  0.00  0.00    -0.191 NA
ATOM     12  O   UNL d   1      -1.829  -2.125   0.435  0.00  0.00    -0.292 OA
ENDROOT
BRANCH   3  13
ATOM     13  S   UNL d   1       1.196  -3.282   0.111  0.00  0.00    -0.117 SA
BRANCH  13  14
ATOM     14  C   UNL d   1       0.034  -3.972  -1.096  0.00  0.00     0.118 C 
BRANCH  14  15
ATOM     15  C   UNL d   1       0.036  -5.482  -1.088  0.00  0.00    -0.049 A 
ATOM     16  C   UNL d   1      -0.638  -6.189  -0.078  0.00  0.00     0.008 A 
ATOM     17  C   UNL d   1      -0.677  -7.584  -0.095  0.00  0.00     0.001 A 
ATOM     18  C   UNL d   1      -0.044  -8.286  -1.120  0.00  0.00     0.000 A 
ATOM     19  C   UNL d   1       0.639  -7.594  -2.119  0.00  0.00     0.001 A 
ATOM     20  C   UNL d   1       0.684  -6.199  -2.102  0.00  0.00     0.008 A 
ENDBRANCH  14  15
ENDBRANCH  13  14
ENDBRANCH   3  13
BRANCH   8  21
ATOM     21  C   UNL d   1      -2.013   1.146   1.959  0.00  0.00    -0.053 A 
ATOM     22  C   UNL d   1      -0.880   1.264   2.777  0.00  0.00     0.010 A 
ATOM     23  C   UNL d   1      -0.936   0.969   4.145  0.00  0.00     0.037 A 
ATOM     24  C   UNL d   1      -2.131   0.561   4.729  0.00  0.00     0.068 A 
ATOM     25  C   UNL d   1      -3.275   0.477   3.938  0.00  0.00     0.037 A 
ATOM     26  C   UNL d   1      -3.219   0.764   2.571  0.00  0.00     0.010 A 
BRANCH  24  27
ATOM     27  O   UNL d   1      -2.309   0.260   6.050  0.00  0.00    -0.356 OA
ATOM     28  C   UNL d   1      -1.139  -0.124   6.765  0.00  0.00     0.210 C 
ENDBRANCH  24  27
ENDBRANCH   8  21
TORSDOF 5
