REMARK  3 active torsions:
REMARK  status: ('A' for Active; 'I' for Inactive)
REMARK    1  A    between atoms: C_2  and  N_1 
REMARK    2  A    between atoms: C_3  and  S_6 
REMARK    3  A    between atoms: S_6  and  C_11 
ROOT
ATOM      1  C   UNL d   1       1.195  -3.168   0.511  0.00  0.00     0.118 A 
ATOM      2  N   UNL d   1      -0.180  -4.539   1.946  0.00  0.00    -0.358 N 
ATOM      3  HN  UNL d   1      -0.435  -5.458   2.309  1.00  0.00     0.166 HD
ATOM      4  C   UNL d   1      -0.816  -3.417   2.364  0.00  0.00     0.074 A 
ATOM      5  C   UNL d   1       0.809  -4.395   1.026  0.00  0.00     0.124 A 
ATOM      6  C   UNL d   1       0.549  -2.017   0.962  0.00  0.00     0.040 A 
ATOM      7  C   UNL d   1      -0.477  -2.147   1.901  0.00  0.00     0.040 A 
ENDROOT
BRANCH   4   8
ATOM      8  S   UNL d   1      -2.210  -3.637   3.448  0.00  0.00    -0.071 SA
BRANCH   8   9
ATOM      9  C   UNL d   1      -1.415  -3.632   5.050  0.00  0.00     0.029 A 
ATOM     10  C   UNL d   1      -1.278  -2.480   5.837  0.00  0.00     0.052 A 
ATOM     11  C   UNL d   1      -0.689  -2.553   7.103  0.00  0.00     0.049 A 
ATOM     12 CL   UNL d   1      -1.831  -0.925   5.314  0.00  0.00    -0.083 Cl
ATOM     13  C   UNL d   1      -0.245  -3.778   7.607  0.00  0.00     0.041 A 
ATOM     14  C   UNL d   1      -0.389  -4.950   6.853  0.00  0.00    -0.039 A 
ATOM     15 CL   UNL d   1       0.472  -3.770   9.178  0.00  0.00    -0.084 Cl
ATOM     16  C   UNL d   1      -0.974  -4.858   5.574  0.00  0.00     0.029 A 
ATOM     17  C   UNL d   1       0.021  -6.313   7.340  0.00  0.00     0.050 C 
ENDBRANCH   8   9
ENDBRANCH   4   8
BRANCH   1  18
ATOM     18  N   UNL d   1       2.246  -3.097  -0.496  0.00  0.00    -0.114 N 
ATOM     19  O   UNL d   1       2.767  -4.159  -0.862  0.00  0.00    -0.532 OA
ATOM     20  O   UNL d   1       2.553  -1.978  -0.927  0.00  0.00    -0.532 OA
ENDBRANCH   1  18
TORSDOF 3
