REMARK  3 active torsions:
REMARK  status: ('A' for Active; 'I' for Inactive)
REMARK    1  A    between atoms: N_3  and  C_1 
REMARK    2  A    between atoms: O_16  and  C_1 
REMARK    3  A    between atoms: C_2  and  C_7 
REMARK       I    between atoms: C_7  and  N_3 
ROOT
ATOM      1  C   UNL d   1      -1.818  -0.152  -0.184  0.00  0.00     0.269 C 
ATOM      2  C   UNL d   1      -0.918   1.093  -0.344  0.00  0.00     0.224 C 
ATOM      3  C   UNL d   1      -2.183  -0.076   1.321  0.00  0.00     0.224 C 
ATOM      4  C   UNL d   1      -0.541   1.558   0.992  0.00  0.00     0.029 A 
ATOM      5  C   UNL d   1      -1.280   0.884   1.955  0.00  0.00     0.029 A 
ATOM      6  O   UNL d   1      -3.050  -0.676   1.930  0.00  0.00    -0.286 OA
ATOM      7  O   UNL d   1      -0.600   1.663  -1.375  0.00  0.00    -0.286 OA
ATOM      8  C   UNL d   1      -1.125   1.145   3.305  0.00  0.00     0.016 A 
ATOM      9  C   UNL d   1       0.386   2.526   1.335  0.00  0.00     0.016 A 
ATOM     10  C   UNL d   1      -0.179   2.106   3.673  0.00  0.00     0.001 A 
ATOM     11  C   UNL d   1       0.570   2.791   2.697  0.00  0.00     0.001 A 
ENDROOT
BRANCH   1  12
ATOM     12  N   UNL d   1      -2.932  -0.079  -1.093  0.00  0.00    -0.311 N 
ATOM     13  C   UNL d   1      -3.812  -1.119  -1.246  0.00  0.00     0.272 C 
ATOM     14  O   UNL d   1      -3.651  -2.178  -0.643  0.00  0.00    -0.266 OA
ATOM     15  H   UNL d   1      -3.009   0.739  -1.683  0.00  0.00     0.166 HD
BRANCH  13  16
ATOM     16  C   UNL d   1      -4.896  -0.875  -2.163  0.00  0.00     0.120 A 
ATOM     17  N   UNL d   1      -6.148  -1.436  -2.078  0.00  0.00    -0.291 N 
ATOM     18  N   UNL d   1      -6.984  -1.037  -3.060  0.00  0.00    -0.303 N 
ATOM     19  C   UNL d   1      -6.682  -2.313  -1.061  0.00  0.00     0.178 C 
ATOM     20  C   UNL d   1      -6.246  -0.223  -3.816  0.00  0.00     0.024 A 
ATOM     21  HN  UNL d   1      -7.961  -1.300  -3.194  1.00  0.00     0.186 HD
ATOM     22  C   UNL d   1      -4.939  -0.088  -3.302  0.00  0.00     0.063 A 
ATOM     23  C   UNL d   1      -6.830   0.408  -5.023  0.00  0.00     0.070 C 
ENDBRANCH  13  16
ENDBRANCH   1  12
BRANCH   1  24
ATOM     24  O   UNL d   1      -1.067  -1.306  -0.483  0.00  0.00    -0.358 OA
ATOM     25  H   UNL d   1      -1.712  -2.040  -0.408  0.00  0.00     0.213 HD
ENDBRANCH   1  24
TORSDOF 3
