REMARK  3 active torsions:
REMARK  status: ('A' for Active; 'I' for Inactive)
REMARK    1  A    between atoms: C_5  and  C_1 
REMARK    2  A    between atoms: C_8  and  N_2 
REMARK    3  A    between atoms: O_10  and  C_5 
ROOT
ATOM      1  C   UNL d   1      -0.422  -1.130  -0.313  0.00  0.00     0.131 C 
ATOM      2  N   UNL d   1       0.859  -0.791   0.110  0.00  0.00    -0.250 N 
ATOM      3  N   UNL d   1       0.883   0.464   0.646  0.00  0.00    -0.304 N 
ATOM      4  HN  UNL d   1       1.660   0.919   1.125  1.00  0.00     0.186 HD
ATOM      5  C   UNL d   1      -1.177   0.027  -0.187  0.00  0.00     0.057 C 
ATOM      6  C   UNL d   1      -0.324   0.964   0.408  0.00  0.00     0.110 C 
ENDROOT
BRANCH   2   7
ATOM      7  C   UNL d   1       2.083  -1.508  -0.012  0.00  0.00     0.057 A 
ATOM      8  C   UNL d   1       2.286  -2.442  -1.035  0.00  0.00     0.031 A 
ATOM      9  C   UNL d   1       3.503  -3.123  -1.130  0.00  0.00     0.002 A 
ATOM     10  C   UNL d   1       4.517  -2.881  -0.205  0.00  0.00     0.000 A 
ATOM     11  C   UNL d   1       4.329  -1.938   0.803  0.00  0.00     0.002 A 
ATOM     12  C   UNL d   1       3.124  -1.238   0.891  0.00  0.00     0.031 A 
ENDBRANCH   2   7
BRANCH   1  13
ATOM     13  C   UNL d   1      -0.852  -2.457  -0.665  0.00  0.00     0.195 C 
ATOM     14  O   UNL d   1      -0.395  -3.504  -0.240  0.00  0.00    -0.645 OA
BRANCH  13  15
ATOM     15  O   UNL d   1      -1.876  -2.443  -1.555  0.00  0.00    -0.772 OA
ATOM     16  H   UNL d   1      -2.105  -1.559  -1.887  0.00  0.00     0.167 HD
ENDBRANCH  13  15
ENDBRANCH   1  13
TORSDOF 3
