REMARK  5 active torsions:
REMARK  status: ('A' for Active; 'I' for Inactive)
REMARK    1  A    between atoms: C_5  and  C_1 
REMARK    2  A    between atoms: C_2  and  C_10 
REMARK       I    between atoms: N_7  and  C_2 
REMARK    3  A    between atoms: N_13  and  N_7 
REMARK    4  A    between atoms: C_10  and  O_11 
REMARK    5  A    between atoms: O_11  and  C_12 
ROOT
ATOM      1  C   UNL d   1      -0.037  -2.328   0.989  0.00  0.00    -0.035 A 
ATOM      2  C   UNL d   1      -0.108  -1.965   2.346  0.00  0.00     0.012 A 
ATOM      3  C   UNL d   1      -0.061  -3.693   0.669  0.00  0.00     0.012 A 
ATOM      4  C   UNL d   1      -0.259  -4.284   3.014  0.00  0.00     0.069 A 
ATOM      5  C   UNL d   1      -0.222  -2.935   3.351  0.00  0.00     0.037 A 
ATOM      6  C   UNL d   1      -0.161  -4.660   1.674  0.00  0.00     0.037 A 
ENDROOT
BRANCH   4   7
ATOM      7  O   UNL d   1      -0.337  -5.324   3.900  0.00  0.00    -0.342 OA
BRANCH   7   8
ATOM      8  C   UNL d   1      -1.041  -5.061   5.113  0.00  0.00     0.279 C 
BRANCH   8   9
ATOM      9  C   UNL d   1      -1.072  -6.309   5.996  0.00  0.00     0.255 C 
ATOM     10  O   UNL d   1      -1.601  -6.319   7.106  0.00  0.00    -0.270 OA
ATOM     11  N   UNL d   1      -0.426  -7.413   5.454  0.00  0.00    -0.292 N 
ATOM     12  H   UNL d   1      -0.170  -7.388   4.467  0.00  0.00     0.183 HD
BRANCH  11  13
ATOM     13  N   UNL d   1      -0.382  -8.626   6.171  0.00  0.00    -0.247 NA
ATOM     14  H   UNL d   1      -0.944  -8.489   7.023  0.00  0.00     0.143 HD
ATOM     15  H   UNL d   1       0.573  -8.748   6.520  0.00  0.00     0.143 HD
ENDBRANCH  11  13
ENDBRANCH   8   9
ENDBRANCH   7   8
ENDBRANCH   4   7
BRANCH   1  16
ATOM     16  C   UNL d   1       0.045  -1.295  -0.119  0.00  0.00     0.141 C 
ATOM     17  S   UNL d   1       1.519  -0.231   0.024  0.00  0.00    -0.148 SA
ATOM     18  C   UNL d   1       0.698   1.323  -0.408  0.00  0.00     0.085 C 
ATOM     19  C   UNL d   1      -0.681   1.305   0.219  0.00  0.00     0.085 C 
ATOM     20  S   UNL d   1      -1.463  -0.270  -0.209  0.00  0.00    -0.148 SA
ENDBRANCH   1  16
TORSDOF 5
