REMARK  6 active torsions:
REMARK  status: ('A' for Active; 'I' for Inactive)
REMARK    1  A    between atoms: N_7  and  C_1 
REMARK       I    between atoms: C_8  and  N_7 
REMARK       I    between atoms: N_12  and  C_8 
REMARK    2  A    between atoms: C_13  and  N_9 
REMARK    3  A    between atoms: N_10  and  C_21 
REMARK    4  A    between atoms: C_19  and  N_12 
REMARK    5  A    between atoms: C_18  and  C_13 
REMARK    6  A    between atoms: C_21  and  C_19 
ROOT
ATOM      1  C   UNL d   1       2.149   5.424  -0.122  0.00  0.00     0.154 C 
ENDROOT
BRANCH   1   2
ATOM      2  N   UNL d   1       0.778   4.949  -0.052  0.00  0.00    -0.341 N 
ATOM      3  C   UNL d   1      -0.112   5.287  -1.048  0.00  0.00     0.320 C 
ATOM      4  N   UNL d   1      -1.320   4.670  -0.901  0.00  0.00    -0.305 N 
ATOM      5  O   UNL d   1       0.210   6.052  -1.943  0.00  0.00    -0.247 OA
ATOM      6  H   UNL d   1      -1.441   4.088  -0.086  0.00  0.00     0.171 HD
ATOM      7  H   UNL d   1       0.494   4.400   0.742  0.00  0.00     0.164 HD
BRANCH   4   8
ATOM      8  C   UNL d   1      -2.435   4.814  -1.720  0.00  0.00     0.092 A 
ATOM      9  C   UNL d   1      -2.620   5.445  -2.940  0.00  0.00     0.101 A 
ATOM     10  O   UNL d   1      -3.929   5.325  -3.302  0.00  0.00    -0.240 OA
ATOM     11  C   UNL d   1      -1.814   6.180  -3.939  0.00  0.00     0.081 C 
ATOM     12  N   UNL d   1      -4.617   4.591  -2.366  0.00  0.00    -0.263 N 
ATOM     13  C   UNL d   1      -3.724   4.276  -1.429  0.00  0.00     0.058 A 
ATOM     14  HN  UNL d   1      -5.605   4.340  -2.385  1.00  0.00     0.194 HD
ATOM     15  C   UNL d   1      -4.151   3.471  -0.259  0.00  0.00     0.072 C 
ENDBRANCH   4   8
ENDBRANCH   1   2
BRANCH   1  16
ATOM     16  C   UNL d   1       2.280   6.955   0.066  0.00  0.00     0.292 C 
BRANCH  16  17
ATOM     17  N   UNL d   1       3.661   7.439  -0.103  0.00  0.00     0.093 N 
ATOM     18  C   UNL d   1       4.123   7.326  -1.507  0.00  0.00     0.302 C 
ATOM     19  C   UNL d   1       3.688   8.466  -2.465  0.00  0.00     0.303 C 
ATOM     20  N   UNL d   1       4.023   9.822  -1.970  0.00  0.00     0.096 N 
ATOM     21  C   UNL d   1       3.409   9.953  -0.634  0.00  0.00     0.303 C 
ATOM     22  C   UNL d   1       3.796   8.838   0.372  0.00  0.00     0.302 C 
BRANCH  20  23
ATOM     23  C   UNL d   1       5.489   9.995  -1.962  0.00  0.00     0.311 C 
BRANCH  23  24
ATOM     24  C   UNL d   1       5.995  11.329  -1.474  0.00  0.00    -0.030 A 
ATOM     25  C   UNL d   1       6.783  11.398  -0.313  0.00  0.00     0.009 A 
ATOM     26  C   UNL d   1       7.328  12.612   0.105  0.00  0.00     0.001 A 
ATOM     27  C   UNL d   1       7.088  13.770  -0.630  0.00  0.00     0.000 A 
ATOM     28  C   UNL d   1       6.295  13.720  -1.777  0.00  0.00     0.001 A 
ATOM     29  C   UNL d   1       5.747  12.505  -2.195  0.00  0.00     0.009 A 
ENDBRANCH  23  24
ENDBRANCH  20  23
ENDBRANCH  16  17
ENDBRANCH   1  16
TORSDOF 6
