REMARK  4 active torsions:
REMARK  status: ('A' for Active; 'I' for Inactive)
REMARK    1  A    between atoms: C_7  and  C_1 
REMARK    2  A    between atoms: C_8  and  N_2 
REMARK    3  A    between atoms: C_9  and  C_6 
REMARK       I    between atoms: N_11  and  C_7 
REMARK    4  A    between atoms: C_12  and  C_8 
ROOT
ATOM      1  C   UNL d   1      -0.583  -1.143   0.246  0.00  0.00     0.120 C 
ATOM      2  N   UNL d   1       0.724  -0.728   0.077  0.00  0.00    -0.282 N 
ATOM      3  N   UNL d   1       0.845   0.622  -0.000  0.00  0.00    -0.301 N 
ATOM      4  HN  UNL d   1       1.705   1.168  -0.049  1.00  0.00     0.187 HD
ATOM      5  C   UNL d   1      -1.331   0.012   0.099  0.00  0.00     0.064 C 
ATOM      6  C   UNL d   1      -0.410   1.078   0.001  0.00  0.00     0.036 C 
ENDROOT
BRANCH   2   7
ATOM      7  C   UNL d   1       1.947  -1.527   0.046  0.00  0.00     0.188 C 
BRANCH   7   8
ATOM      8  C   UNL d   1       2.346  -1.881  -1.368  0.00  0.00    -0.038 A 
ATOM      9  C   UNL d   1       3.153  -1.014  -2.122  0.00  0.00     0.009 A 
ATOM     10  C   UNL d   1       3.467  -1.309  -3.450  0.00  0.00     0.001 A 
ATOM     11  C   UNL d   1       2.978  -2.472  -4.041  0.00  0.00     0.000 A 
ATOM     12  C   UNL d   1       2.195  -3.352  -3.297  0.00  0.00     0.001 A 
ATOM     13  C   UNL d   1       1.884  -3.061  -1.968  0.00  0.00     0.009 A 
ENDBRANCH   7   8
ENDBRANCH   2   7
BRANCH   1  14
ATOM     14  C   UNL d   1      -1.028  -2.485   0.521  0.00  0.00     0.267 C 
ATOM     15  O   UNL d   1      -0.302  -3.468   0.605  0.00  0.00    -0.266 OA
ATOM     16  N   UNL d   1      -2.370  -2.630   0.739  0.00  0.00    -0.365 N 
ATOM     17  H   UNL d   1      -3.014  -1.851   0.800  0.00  0.00     0.159 HD
ATOM     18  H   UNL d   1      -2.697  -3.544   1.018  0.00  0.00     0.159 HD
ENDBRANCH   1  14
BRANCH   6  19
ATOM     19  C   UNL d   1      -0.740   2.558  -0.036  0.00  0.00    -0.007 C 
ATOM     20  C   UNL d   1      -1.504   2.940   1.251  0.00  0.00     0.021 C 
ATOM     21  C   UNL d   1       0.525   3.434  -0.121  0.00  0.00     0.021 C 
ATOM     22  C   UNL d   1      -1.633   2.877  -1.252  0.00  0.00     0.021 C 
ENDBRANCH   6  19
TORSDOF 4
