REMARK  12 active torsions:
REMARK  status: ('A' for Active; 'I' for Inactive)
REMARK    1  A    between atoms: C_7  and  N_1 
REMARK    2  A    between atoms: C_2  and  C_6 
REMARK    3  A    between atoms: C_5  and  N_15 
REMARK    4  A    between atoms: N_15  and  C_29 
REMARK    5  A    between atoms: O_18  and  C_20 
REMARK    6  A    between atoms: C_23  and  O_18 
REMARK    7  A    between atoms: C_22  and  C_23 
REMARK    8  A    between atoms: O_27  and  C_22 
REMARK    9  A    between atoms: C_28  and  C_22 
REMARK   10  A    between atoms: N_26  and  C_28 
REMARK   11  A    between atoms: C_30  and  N_26 
REMARK   12  A    between atoms: C_29  and  C_30 
ROOT
ATOM      1  N   UNL d   1      -3.388   7.334   5.610  0.00  0.00     0.087 N 
ATOM      2  H   UNL d   1      -3.547   6.794   6.464  0.00  0.00     0.316 HD
ENDROOT
BRANCH   1   3
ATOM      3  C   UNL d   1      -2.411   6.630   4.775  0.00  0.00     0.303 C 
BRANCH   3   4
ATOM      4  C   UNL d   1      -2.835   5.176   4.498  0.00  0.00     0.170 C 
BRANCH   4   5
ATOM      5  C   UNL d   1      -1.780   4.521   3.588  0.00  0.00     0.209 C 
BRANCH   5   6
ATOM      6  O   UNL d   1      -2.172   3.187   3.267  0.00  0.00    -0.349 OA
BRANCH   6   7
ATOM      7  C   UNL d   1      -1.331   2.478   2.453  0.00  0.00     0.069 A 
ATOM      8  C   UNL d   1      -1.760   1.177   2.169  0.00  0.00     0.039 A 
ATOM      9  C   UNL d   1      -1.013   0.344   1.333  0.00  0.00     0.039 A 
ATOM     10  C   UNL d   1       0.177   0.823   0.775  0.00  0.00     0.103 A 
ATOM     11  C   UNL d   1       0.626   2.117   1.066  0.00  0.00     0.039 A 
ATOM     12  C   UNL d   1      -0.131   2.941   1.907  0.00  0.00     0.039 A 
BRANCH  10  13
ATOM     13  N   UNL d   1       0.952  -0.027  -0.137  0.00  0.00    -0.116 N 
ATOM     14  O   UNL d   1       1.969   0.458  -0.652  0.00  0.00    -0.532 OA
ATOM     15  O   UNL d   1       0.541  -1.178  -0.342  0.00  0.00    -0.532 OA
ENDBRANCH  10  13
ENDBRANCH   6   7
ENDBRANCH   5   6
ENDBRANCH   4   5
BRANCH   4  16
ATOM     16  O   UNL d   1      -2.963   4.475   5.743  0.00  0.00    -0.392 OA
ATOM     17  H   UNL d   1      -2.075   4.357   6.119  0.00  0.00     0.210 HD
ENDBRANCH   4  16
ENDBRANCH   3   4
ENDBRANCH   1   3
BRANCH   1  18
ATOM     18  C   UNL d   1      -2.976   8.707   5.935  0.00  0.00     0.284 C 
BRANCH  18  19
ATOM     19  C   UNL d   1      -2.875   9.606   4.689  0.00  0.00     0.125 C 
BRANCH  19  20
ATOM     20  N   UNL d   1      -2.498  10.971   5.030  0.00  0.00    -0.262 NA
ATOM     21  H   UNL d   1      -1.626  11.075   5.537  0.00  0.00     0.130 HD
BRANCH  20  22
ATOM     22  C   UNL d   1      -2.369  11.767   3.894  0.00  0.00     0.157 A 
ATOM     23  N   UNL d   1      -3.145  11.537   2.828  0.00  0.00    -0.329 N 
ATOM     24  C   UNL d   1      -2.973  12.304   1.724  0.00  0.00     0.120 A 
ATOM     25  HN  UNL d   1      -3.851  10.801   2.845  1.00  0.00     0.168 HD
ATOM     26  C   UNL d   1      -2.023  13.304   1.686  0.00  0.00     0.051 A 
ATOM     27  C   UNL d   1      -1.271  13.463   2.825  0.00  0.00     0.093 A 
ATOM     28  N   UNL d   1      -1.419  12.704   3.928  0.00  0.00    -0.343 N 
ATOM     29  HN  UNL d   1      -0.832  12.840   4.751  1.00  0.00     0.167 HD
BRANCH  24  30
ATOM     30  C   UNL d   1      -3.840  12.044   0.506  0.00  0.00     0.432 C 
ATOM     31  F   UNL d   1      -4.737  11.031   0.656  0.00  0.00    -0.165 F 
ATOM     32  F   UNL d   1      -4.568  13.140   0.142  0.00  0.00    -0.165 F 
ATOM     33  F   UNL d   1      -3.098  11.720  -0.594  0.00  0.00    -0.165 F 
ENDBRANCH  24  30
ENDBRANCH  20  22
ENDBRANCH  19  20
ENDBRANCH  18  19
ENDBRANCH   1  18
TORSDOF 12
