REMARK  2 active torsions:
REMARK  status: ('A' for Active; 'I' for Inactive)
REMARK    1  A    between atoms: C_12  and  C_5 
REMARK    2  A    between atoms: C_20  and  C_14 
ROOT
ATOM      1  C   UNL d   1      -2.843   0.503  -0.312  0.00  0.00     0.128 C 
ATOM      2  C   UNL d   1      -1.461   1.119  -0.594  0.00  0.00     0.191 C 
ATOM      3  N   UNL d   1      -3.400  -0.139  -1.536  0.00  0.00    -0.321 N 
ATOM      4  HN  UNL d   1      -2.840  -0.541  -2.288  1.00  0.00     0.181 HD
ATOM      5  C   UNL d   1      -3.949   1.553   0.013  0.00  0.00     0.076 C 
ATOM      6  C   UNL d   1      -0.199   0.394  -0.275  0.00  0.00     0.029 A 
ATOM      7  N   UNL d   1      -4.661  -0.115  -1.513  0.00  0.00    -0.339 N 
ATOM      8  HN  UNL d   1      -5.257  -0.613  -2.174  1.00  0.00     0.179 HD
ATOM      9  C   UNL d   1      -2.724  -0.608   0.754  0.00  0.00     0.121 C 
ATOM     10  S   UNL d   1      -1.610  -1.958   0.211  0.00  0.00    -0.126 SA
ATOM     11  C   UNL d   1      -0.152  -0.980  -0.045  0.00  0.00     0.014 A 
ATOM     12  O   UNL d   1      -1.292   2.224  -1.112  0.00  0.00    -0.289 OA
ATOM     13  C   UNL d   1      -5.167   0.729  -0.403  0.00  0.00     0.151 C 
ATOM     14  C   UNL d   1       0.991   1.144  -0.267  0.00  0.00     0.016 A 
ATOM     15  C   UNL d   1       1.099  -1.609   0.044  0.00  0.00     0.019 A 
ATOM     16  C   UNL d   1       2.227   0.521  -0.110  0.00  0.00     0.001 A 
ATOM     17  C   UNL d   1       2.282  -0.865   0.004  0.00  0.00     0.001 A 
ENDROOT
BRANCH   5  18
ATOM     18  C   UNL d   1      -3.907   2.870  -0.779  0.00  0.00    -0.049 A 
ATOM     19  C   UNL d   1      -4.079   2.906  -2.172  0.00  0.00     0.008 A 
ATOM     20  C   UNL d   1      -3.845   4.060  -2.913  0.00  0.00     0.008 A 
ATOM     21  C   UNL d   1      -3.438   5.240  -2.287  0.00  0.00    -0.055 A 
ATOM     22  C   UNL d   1      -3.328   5.240  -0.887  0.00  0.00     0.008 A 
ATOM     23  C   UNL d   1      -3.565   4.074  -0.140  0.00  0.00     0.008 A 
BRANCH  21  24
ATOM     24  C   UNL d   1      -3.083   6.466  -3.107  0.00  0.00     0.010 C 
ATOM     25  C   UNL d   1      -1.926   6.189  -4.076  0.00  0.00     0.015 C 
ATOM     26  C   UNL d   1      -4.303   6.992  -3.869  0.00  0.00     0.015 C 
ENDBRANCH  21  24
ENDBRANCH   5  18
TORSDOF 2
