REMARK  5 active torsions:
REMARK  status: ('A' for Active; 'I' for Inactive)
REMARK    1  A    between atoms: N_5  and  C_1 
REMARK    2  A    between atoms: S_13  and  C_3 
REMARK    3  A    between atoms: N_4  and  C_12 
REMARK       I    between atoms: C_10  and  N_5 
REMARK    4  A    between atoms: C_15  and  C_10 
REMARK    5  A    between atoms: C_14  and  S_13 
ROOT
ATOM      1  C   UNL d   1       0.245  -3.533   2.920  0.00  0.00     0.064 A 
ATOM      2  C   UNL d   1      -1.722  -4.247   4.148  0.00  0.00     0.104 A 
ATOM      3  C   UNL d   1      -0.529  -3.378   1.752  0.00  0.00     0.028 A 
ATOM      4  N   UNL d   1       2.788  -3.024   2.946  0.00  0.00    -0.191 NA
ATOM      5  C   UNL d   1       1.652  -3.260   2.928  0.00  0.00     0.101 C 
ATOM      6  C   UNL d   1      -0.350  -3.965   4.115  0.00  0.00     0.060 A 
ATOM      7  C   UNL d   1      -2.501  -4.101   2.995  0.00  0.00     0.037 A 
ATOM      8  C   UNL d   1      -1.901  -3.672   1.805  0.00  0.00     0.023 A 
ENDROOT
BRANCH   3   9
ATOM      9  S   UNL d   1       0.195  -2.947   0.171  0.00  0.00    -0.062 SA
BRANCH   9  10
ATOM     10  C   UNL d   1      -0.139  -1.230   0.161  0.00  0.00     0.135 A 
ATOM     11  S   UNL d   1       1.078  -0.035   0.354  0.00  0.00    -0.026 SA
ATOM     12  C   UNL d   1      -0.129   1.129   0.028  0.00  0.00     0.168 A 
ATOM     13  N   UNL d   1      -1.329   0.638  -0.164  0.00  0.00    -0.278 N 
ATOM     14  N   UNL d   1      -1.338  -0.747  -0.083  0.00  0.00    -0.286 N 
ATOM     15  HN  UNL d   1      -2.157   1.205  -0.351  1.00  0.00     0.189 HD
ATOM     16  HN  UNL d   1      -2.173  -1.322  -0.198  1.00  0.00     0.188 HD
BRANCH  12  17
ATOM     17  N   UNL d   1       0.327   2.422  -0.002  0.00  0.00    -0.302 N 
ATOM     18  C   UNL d   1      -0.515   3.487  -0.229  0.00  0.00     0.257 C 
ATOM     19  O   UNL d   1      -1.730   3.445  -0.371  0.00  0.00    -0.267 OA
ATOM     20  H   UNL d   1       1.305   2.556   0.202  0.00  0.00     0.171 HD
BRANCH  18  21
ATOM     21  C   UNL d   1       0.147   4.824  -0.251  0.00  0.00     0.034 A 
ATOM     22  C   UNL d   1       1.430   5.009  -0.782  0.00  0.00     0.042 A 
ATOM     23  C   UNL d   1       2.020   6.280  -0.761  0.00  0.00     0.056 A 
ATOM     24 CL   UNL d   1       3.611   6.431  -1.420  0.00  0.00    -0.083 Cl
ATOM     25  C   UNL d   1       1.329   7.370  -0.218  0.00  0.00     0.055 A 
ATOM     26  C   UNL d   1       0.038   7.191   0.284  0.00  0.00     0.026 A 
ATOM     27 CL   UNL d   1       2.011   8.955  -0.138  0.00  0.00    -0.083 Cl
ATOM     28  C   UNL d   1      -0.554   5.924   0.262  0.00  0.00     0.019 A 
ENDBRANCH  18  21
ENDBRANCH  12  17
ENDBRANCH   9  10
ENDBRANCH   3   9
BRANCH   2  29
ATOM     29  N   UNL d   1      -2.343  -4.703   5.399  0.00  0.00    -0.116 N 
ATOM     30  O   UNL d   1      -1.610  -4.822   6.391  0.00  0.00    -0.532 OA
ATOM     31  O   UNL d   1      -3.558  -4.942   5.386  0.00  0.00    -0.532 OA
ENDBRANCH   2  29
TORSDOF 5
