REMARK  6 active torsions:
REMARK  status: ('A' for Active; 'I' for Inactive)
REMARK    1  A    between atoms: N_4  and  S_1 
REMARK    2  A    between atoms: C_7  and  C_2 
REMARK    3  A    between atoms: C_3  and  N_4 
REMARK    4  A    between atoms: O_14  and  C_7 
REMARK    5  A    between atoms: O_15  and  C_8 
REMARK    6  A    between atoms: O_16  and  C_9 
ROOT
ATOM      1  C   UNL d   1      -1.466   1.197   1.460  0.00  0.00     0.069 A 
ATOM      2  C   UNL d   1      -0.328   0.714   2.120  0.00  0.00     0.063 A 
ATOM      3  C   UNL d   1      -0.078   1.104   3.448  0.00  0.00     0.071 A 
ATOM      4  C   UNL d   1      -2.297   2.112   2.119  0.00  0.00     0.059 A 
ATOM      5  C   UNL d   1      -0.919   2.008   4.113  0.00  0.00     0.103 A 
ATOM      6  C   UNL d   1      -2.013   2.548   3.419  0.00  0.00     0.102 A 
ENDROOT
BRANCH   2   7
ATOM      7  N   UNL d   1       0.585  -0.207   1.498  0.00  0.00    -0.279 N 
ATOM      8  C   UNL d   1       1.960   0.269   1.248  0.00  0.00     0.169 C 
BRANCH   7   9
ATOM      9  S   UNL d   1       0.390  -1.855   1.855  0.00  0.00     0.228 S 
ATOM     10  O   UNL d   1      -0.879  -2.058   2.522  0.00  0.00    -0.206 OA
ATOM     11  O   UNL d   1       1.628  -2.345   2.429  0.00  0.00    -0.206 OA
ATOM     12  C   UNL d   1       0.236  -2.530   0.217  0.00  0.00     0.186 C 
ENDBRANCH   7   9
ENDBRANCH   2   7
BRANCH   1  13
ATOM     13  C   UNL d   1      -1.899   0.792   0.101  0.00  0.00     0.295 C 
ATOM     14  O   UNL d   1      -3.075   0.702  -0.215  0.00  0.00    -0.259 OA
BRANCH  13  15
ATOM     15  O   UNL d   1      -0.846   0.627  -0.738  0.00  0.00    -0.322 OA
ATOM     16  C   UNL d   1      -1.221   0.303  -2.081  0.00  0.00     0.213 C 
ENDBRANCH  13  15
ENDBRANCH   1  13
BRANCH   5  17
ATOM     17  O   UNL d   1      -0.747   2.388   5.417  0.00  0.00    -0.353 OA
ATOM     18  C   UNL d   1       0.237   1.715   6.191  0.00  0.00     0.210 C 
ENDBRANCH   5  17
BRANCH   6  19
ATOM     19  O   UNL d   1      -2.923   3.457   3.893  0.00  0.00    -0.353 OA
ATOM     20  C   UNL d   1      -2.431   4.435   4.803  0.00  0.00     0.210 C 
ENDBRANCH   6  19
TORSDOF 6
