REMARK  3 active torsions:
REMARK  status: ('A' for Active; 'I' for Inactive)
REMARK    1  A    between atoms: C_8  and  C_1 
REMARK    2  A    between atoms: O_9  and  C_3 
REMARK    3  A    between atoms: C_10  and  N_4 
ROOT
ATOM      1  C   UNL d   1       2.415  -0.772  -0.039  0.00  0.00     0.076 A 
ATOM      2  C   UNL d   1       2.436   0.728  -0.059  0.00  0.00     0.262 A 
ATOM      3  C   UNL d   1       1.243  -1.432   0.022  0.00  0.00     0.094 A 
ATOM      4  N   UNL d   1       1.214   1.400   0.018  0.00  0.00    -0.313 N 
ATOM      5  C   UNL d   1      -0.032  -0.704   0.021  0.00  0.00     0.025 A 
ATOM      6  C   UNL d   1      -0.033   0.701   0.009  0.00  0.00     0.050 A 
ATOM      7  O   UNL d   1       3.516   1.319  -0.128  0.00  0.00    -0.267 OA
ATOM      8  C   UNL d   1      -1.256  -1.400   0.015  0.00  0.00     0.016 A 
ATOM      9  C   UNL d   1      -1.268   1.372  -0.024  0.00  0.00     0.031 A 
ATOM     10  C   UNL d   1      -2.470  -0.719  -0.019  0.00  0.00     0.001 A 
ATOM     11  C   UNL d   1      -2.475   0.668  -0.043  0.00  0.00     0.002 A 
ENDROOT
BRANCH   1  12
ATOM     12  C   UNL d   1       3.684  -1.522  -0.116  0.00  0.00    -0.018 A 
ATOM     13  C   UNL d   1       4.220  -1.850  -1.369  0.00  0.00     0.012 A 
ATOM     14  C   UNL d   1       5.368  -2.638  -1.460  0.00  0.00     0.001 A 
ATOM     15  C   UNL d   1       5.987  -3.103  -0.300  0.00  0.00     0.000 A 
ATOM     16  C   UNL d   1       5.465  -2.775   0.951  0.00  0.00     0.001 A 
ATOM     17  C   UNL d   1       4.316  -1.986   1.044  0.00  0.00     0.012 A 
ENDBRANCH   1  12
BRANCH   3  18
ATOM     18  O   UNL d   1       1.131  -2.814   0.061  0.00  0.00    -0.359 OA
ATOM     19  H   UNL d   1       2.022  -3.207   0.055  0.00  0.00     0.217 HD
ENDBRANCH   3  18
BRANCH   4  20
ATOM     20  C   UNL d   1       1.254   2.861   0.093  0.00  0.00     0.128 C 
ATOM     21  C   UNL d   1       1.150   3.533  -1.269  0.00  0.00     0.027 C 
ENDBRANCH   4  20
TORSDOF 3
