REMARK  4 active torsions:
REMARK  status: ('A' for Active; 'I' for Inactive)
REMARK    1  A    between atoms: N_2  and  S_1 
REMARK    2  A    between atoms: C_6  and  S_1 
REMARK    3  A    between atoms: C_3  and  N_2 
REMARK    4  A    between atoms: C_10  and  C_7 
ROOT
ATOM      1  C   UNL d   1       0.917   2.593  -0.932  0.00  0.00     0.137 A 
ATOM      2  N   UNL d   1       2.085   2.992  -0.497  0.00  0.00    -0.339 N 
ATOM      3  HN  UNL d   1       2.872   2.383  -0.273  1.00  0.00     0.167 HD
ATOM      4  C   UNL d   1       2.083   4.377  -0.390  0.00  0.00     0.050 A 
ATOM      5  S   UNL d   1      -0.297   3.781  -1.071  0.00  0.00    -0.069 SA
ATOM      6  C   UNL d   1       0.854   4.970  -0.621  0.00  0.00     0.083 A 
ENDROOT
BRANCH   1   7
ATOM      7  N   UNL d   1       0.715   1.215  -1.168  0.00  0.00    -0.160 NA
ATOM      8  H   UNL d   1       1.451   0.689  -0.698  0.00  0.00     0.148 HD
BRANCH   7   9
ATOM      9  S   UNL d   1       0.843   0.863  -2.824  0.00  0.00     0.254 S 
ATOM     10  O   UNL d   1       0.031   1.776  -3.600  0.00  0.00    -0.205 OA
ATOM     11  O   UNL d   1       0.708  -0.571  -2.967  0.00  0.00    -0.205 OA
BRANCH   9  12
ATOM     12  C   UNL d   1       2.523   1.216  -3.315  0.00  0.00     0.115 A 
ATOM     13  S   UNL d   1       3.744   0.334  -2.498  0.00  0.00    -0.089 SA
ATOM     14  C   UNL d   1       4.986   1.121  -3.371  0.00  0.00     0.051 A 
ATOM     15  C   UNL d   1       4.486   2.046  -4.260  0.00  0.00     0.009 A 
ATOM     16  C   UNL d   1       3.062   2.103  -4.228  0.00  0.00     0.033 A 
ENDBRANCH   9  12
ENDBRANCH   7   9
ENDBRANCH   1   7
BRANCH   4  17
ATOM     17  C   UNL d   1       3.297   5.112  -0.053  0.00  0.00    -0.006 A 
ATOM     18  C   UNL d   1       4.324   4.471   0.654  0.00  0.00     0.059 A 
ATOM     19  C   UNL d   1       5.494   5.161   0.963  0.00  0.00     0.155 A 
ATOM     20  F   UNL d   1       6.465   4.537   1.645  0.00  0.00    -0.203 F 
ATOM     21  C   UNL d   1       5.660   6.483   0.570  0.00  0.00     0.154 A 
ATOM     22  C   UNL d   1       4.659   7.132  -0.141  0.00  0.00     0.046 A 
ATOM     23  F   UNL d   1       6.787   7.143   0.867  0.00  0.00    -0.203 F 
ATOM     24  C   UNL d   1       3.481   6.448  -0.455  0.00  0.00     0.017 A 
ENDBRANCH   4  17
TORSDOF 4
