REMARK  9 active torsions:
REMARK  status: ('A' for Active; 'I' for Inactive)
REMARK    1  A    between atoms: C_6  and  C_1 
REMARK    2  A    between atoms: C_2  and  C_8 
REMARK       I    between atoms: N_4  and  C_2 
REMARK       I    between atoms: C_3  and  N_7 
REMARK    3  A    between atoms: C_5  and  C_3 
REMARK    4  A    between atoms: N_7  and  N_4 
REMARK    5  A    between atoms: C_11  and  C_5 
REMARK    6  A    between atoms: O_19  and  C_11 
REMARK    7  A    between atoms: O_20  and  C_11 
REMARK    8  A    between atoms: C_21  and  O_19 
REMARK    9  A    between atoms: C_22  and  O_20 
ROOT
ATOM      1  C   UNL d   1      -0.717  -2.748  -3.965  0.00  0.00     0.270 C 
ATOM      2  N   UNL d   1      -1.976  -2.990  -3.451  0.00  0.00    -0.263 N 
ATOM      3  O   UNL d   1       0.062  -3.655  -4.257  0.00  0.00    -0.266 OA
ATOM      4  H   UNL d   1      -2.702  -2.278  -3.409  0.00  0.00     0.190 HD
ENDROOT
BRANCH   2   5
ATOM      5  N   UNL d   1      -2.456  -4.304  -3.383  0.00  0.00    -0.267 N 
ATOM      6  C   UNL d   1      -3.817  -4.476  -3.467  0.00  0.00     0.240 C 
ATOM      7  O   UNL d   1      -4.585  -3.518  -3.593  0.00  0.00    -0.272 OA
ATOM      8  H   UNL d   1      -1.780  -5.072  -3.405  0.00  0.00     0.190 HD
BRANCH   6   9
ATOM      9  C   UNL d   1      -4.334  -5.880  -3.282  0.00  0.00     0.165 C 
BRANCH   9  10
ATOM     10  C   UNL d   1      -3.693  -6.887  -4.228  0.00  0.00     0.268 C 
BRANCH  10  11
ATOM     11  O   UNL d   1      -2.388  -7.158  -3.695  0.00  0.00    -0.361 OA
BRANCH  11  12
ATOM     12  C   UNL d   1      -1.709  -8.205  -4.385  0.00  0.00     0.166 C 
ATOM     13  C   UNL d   1      -0.320  -8.340  -3.789  0.00  0.00     0.033 C 
ENDBRANCH  11  12
ENDBRANCH  10  11
BRANCH  10  14
ATOM     14  O   UNL d   1      -4.473  -8.087  -4.262  0.00  0.00    -0.361 OA
BRANCH  14  15
ATOM     15  C   UNL d   1      -5.623  -8.002  -5.100  0.00  0.00     0.166 C 
ATOM     16  C   UNL d   1      -6.283  -9.367  -5.153  0.00  0.00     0.033 C 
ENDBRANCH  14  15
ENDBRANCH  10  14
ENDBRANCH   9  10
ENDBRANCH   6   9
ENDBRANCH   2   5
BRANCH   1  17
ATOM     17  C   UNL d   1      -0.340  -1.314  -4.185  0.00  0.00     0.033 A 
ATOM     18  C   UNL d   1      -1.105  -0.237  -3.714  0.00  0.00     0.018 A 
ATOM     19  C   UNL d   1      -0.716   1.082  -3.984  0.00  0.00     0.017 A 
ATOM     20  C   UNL d   1       0.449   1.353  -4.718  0.00  0.00     0.048 A 
ATOM     21  C   UNL d   1       1.228   0.275  -5.161  0.00  0.00     0.017 A 
ATOM     22  C   UNL d   1       0.837  -1.044  -4.896  0.00  0.00     0.018 A 
BRANCH  20  23
ATOM     23  C   UNL d   1       0.833   2.781  -5.028  0.00  0.00     0.417 C 
ATOM     24  F   UNL d   1       2.000   2.895  -5.719  0.00  0.00    -0.166 F 
ATOM     25  F   UNL d   1       0.987   3.535  -3.905  0.00  0.00    -0.166 F 
ATOM     26  F   UNL d   1      -0.109   3.417  -5.779  0.00  0.00    -0.166 F 
ENDBRANCH  20  23
ENDBRANCH   1  17
TORSDOF 9
