REMARK  7 active torsions:
REMARK  status: ('A' for Active; 'I' for Inactive)
REMARK    1  A    between atoms: S_14  and  C_3 
REMARK    2  A    between atoms: C_12  and  C_4 
REMARK    3  A    between atoms: C_18  and  C_5 
REMARK    4  A    between atoms: O_17  and  C_7 
REMARK    5  A    between atoms: C_11  and  C_16 
REMARK    6  A    between atoms: C_16  and  S_14 
REMARK    7  A    between atoms: O_19  and  C_18 
ROOT
ATOM      1  C   UNL d   1       0.569  -5.993   0.938  0.00  0.00     0.009 A 
ATOM      2  C   UNL d   1       0.532  -7.395   0.786  0.00  0.00     0.096 A 
ATOM      3  N   UNL d   1       1.680  -7.279  -1.329  0.00  0.00    -0.367 N 
ATOM      4  HN  UNL d   1       2.066  -7.732  -2.157  1.00  0.00     0.165 HD
ATOM      5  C   UNL d   1       1.231  -5.245  -0.063  0.00  0.00    -0.022 A 
ATOM      6  C   UNL d   1       1.081  -7.993  -0.349  0.00  0.00     0.039 A 
ATOM      7  C   UNL d   1       1.744  -5.940  -1.162  0.00  0.00     0.096 A 
ATOM      8  C   UNL d   1       1.025  -9.484  -0.530  0.00  0.00     0.071 C 
ENDROOT
BRANCH   5   9
ATOM      9  C   UNL d   1       1.426  -3.743  -0.018  0.00  0.00     0.122 C 
BRANCH   9  10
ATOM     10  S   UNL d   1       0.010  -2.843  -0.699  0.00  0.00    -0.100 SA
BRANCH  10  11
ATOM     11  C   UNL d   1       0.653  -1.214  -0.812  0.00  0.00     0.112 A 
ATOM     12  N   UNL d   1       1.829  -0.874  -0.338  0.00  0.00    -0.347 N 
ATOM     13  C   UNL d   1       2.088   0.476  -0.600  0.00  0.00     0.024 A 
ATOM     14  HN  UNL d   1       2.464  -1.504   0.152  1.00  0.00     0.167 HD
ATOM     15  C   UNL d   1       1.069   1.115  -1.286  0.00  0.00     0.078 A 
ATOM     16  S   UNL d   1      -0.228   0.038  -1.579  0.00  0.00    -0.075 SA
BRANCH  13  17
ATOM     17  C   UNL d   1       3.434   1.069  -0.197  0.00  0.00    -0.008 C 
ATOM     18  C   UNL d   1       4.455   0.803  -1.321  0.00  0.00     0.021 C 
ATOM     19  C   UNL d   1       3.351   2.593   0.037  0.00  0.00     0.021 C 
ATOM     20  C   UNL d   1       3.952   0.430   1.107  0.00  0.00     0.021 C 
ENDBRANCH  13  17
ENDBRANCH  10  11
ENDBRANCH   9  10
ENDBRANCH   5   9
BRANCH   1  21
ATOM     21  C   UNL d   1      -0.084  -5.287   2.104  0.00  0.00     0.206 C 
BRANCH  21  22
ATOM     22  O   UNL d   1      -0.723  -6.198   3.000  0.00  0.00    -0.396 OA
ATOM     23  H   UNL d   1      -1.679  -6.007   2.950  0.00  0.00     0.209 HD
ENDBRANCH  21  22
ENDBRANCH   1  21
BRANCH   2  24
ATOM     24  O   UNL d   1      -0.021  -8.215   1.731  0.00  0.00    -0.358 OA
ATOM     25  H   UNL d   1      -0.241  -7.654   2.507  0.00  0.00     0.217 HD
ENDBRANCH   2  24
TORSDOF 7
