REMARK  7 active torsions:
REMARK  status: ('A' for Active; 'I' for Inactive)
REMARK    1  A    between atoms: N_3  and  S_1 
REMARK    2  A    between atoms: C_10  and  S_1 
REMARK    3  A    between atoms: S_2  and  N_6 
REMARK    4  A    between atoms: C_5  and  S_2 
REMARK    5  A    between atoms: C_4  and  C_7 
REMARK    6  A    between atoms: N_6  and  C_19 
REMARK    7  A    between atoms: C_19  and  C_22 
ROOT
ATOM      1  C   UNL d   1       2.638  -2.353  -3.957  0.00  0.00     0.137 C 
ENDROOT
BRANCH   1   2
ATOM      2  N   UNL d   1       3.050  -3.755  -4.070  0.00  0.00    -0.315 N 
ATOM      3  H   UNL d   1       2.533  -4.469  -3.562  0.00  0.00     0.172 HD
BRANCH   2   4
ATOM      4  S   UNL d   1       4.704  -4.099  -4.112  0.00  0.00     0.258 S 
ATOM      5  O   UNL d   1       4.817  -5.533  -4.241  0.00  0.00    -0.201 OA
ATOM      6  O   UNL d   1       5.340  -3.186  -5.033  0.00  0.00    -0.201 OA
BRANCH   4   7
ATOM      7  C   UNL d   1       5.214  -3.668  -2.458  0.00  0.00     0.080 A 
ATOM      8  C   UNL d   1       5.214  -4.648  -1.457  0.00  0.00     0.041 A 
ATOM      9  C   UNL d   1       5.607  -4.314  -0.151  0.00  0.00     0.049 A 
ATOM     10  C   UNL d   1       5.973  -2.987   0.129  0.00  0.00     0.016 A 
ATOM     11  C   UNL d   1       5.993  -2.021  -0.880  0.00  0.00     0.002 A 
ATOM     12  C   UNL d   1       5.634  -2.365  -2.182  0.00  0.00     0.025 A 
BRANCH   9  13
ATOM     13  C   UNL d   1       5.657  -5.353   0.945  0.00  0.00     0.417 C 
ATOM     14  F   UNL d   1       5.339  -6.606   0.519  0.00  0.00    -0.166 F 
ATOM     15  F   UNL d   1       6.891  -5.452   1.512  0.00  0.00    -0.166 F 
ATOM     16  F   UNL d   1       4.796  -5.077   1.963  0.00  0.00    -0.166 F 
ENDBRANCH   9  13
ENDBRANCH   4   7
ENDBRANCH   2   4
ENDBRANCH   1   2
BRANCH   1  17
ATOM     17  C   UNL d   1       1.105  -2.220  -3.888  0.00  0.00     0.006 C 
ATOM     18  C   UNL d   1       0.695  -0.739  -3.864  0.00  0.00     0.022 C 
ATOM     19  C   UNL d   1       1.111  -0.040  -2.570  0.00  0.00     0.108 C 
ATOM     20  N   UNL d   1       0.598  -0.765  -1.378  0.00  0.00    -0.206 NA
ATOM     21  C   UNL d   1       0.892  -2.223  -1.352  0.00  0.00     0.108 C 
ATOM     22  C   UNL d   1       0.471  -2.890  -2.658  0.00  0.00     0.022 C 
BRANCH  20  23
ATOM     23  S   UNL d   1       0.943   0.041   0.105  0.00  0.00     0.243 S 
ATOM     24  O   UNL d   1       1.101   1.454  -0.160  0.00  0.00    -0.206 OA
ATOM     25  O   UNL d   1       1.978  -0.714   0.789  0.00  0.00    -0.206 OA
BRANCH  23  26
ATOM     26  C   UNL d   1      -0.577  -0.132   1.009  0.00  0.00     0.074 A 
ATOM     27  C   UNL d   1      -0.606  -0.813   2.228  0.00  0.00     0.025 A 
ATOM     28  C   UNL d   1      -1.776  -0.799   2.990  0.00  0.00     0.002 A 
ATOM     29  C   UNL d   1      -2.903  -0.111   2.534  0.00  0.00     0.000 A 
ATOM     30  C   UNL d   1      -2.873   0.553   1.307  0.00  0.00     0.002 A 
ATOM     31  C   UNL d   1      -1.708   0.546   0.541  0.00  0.00     0.025 A 
ENDBRANCH  23  26
ENDBRANCH  20  23
ENDBRANCH   1  17
TORSDOF 7
