REMARK  2 active torsions:
REMARK  status: ('A' for Active; 'I' for Inactive)
REMARK    1  A    between atoms: C_3  and  S_5 
REMARK    2  A    between atoms: S_5  and  C_11 
ROOT
ATOM      1  N   UNL d   1       1.565   0.879  -3.935  0.00  0.00    -0.197 NA
ATOM      2  C   UNL d   1       2.691   0.808  -3.662  0.00  0.00     0.069 C 
ATOM      3  C   UNL d   1       4.126   0.736  -3.343  0.00  0.00     0.203 C 
ENDROOT
BRANCH   3   4
ATOM      4  S   UNL d   1       4.427  -0.042  -1.716  0.00  0.00    -0.116 SA
BRANCH   4   5
ATOM      5  C   UNL d   1       6.208  -0.021  -1.686  0.00  0.00     0.001 A 
ATOM      6  C   UNL d   1       6.921   1.183  -1.646  0.00  0.00     0.020 A 
ATOM      7  C   UNL d   1       8.319   1.175  -1.600  0.00  0.00     0.025 A 
ATOM      8  C   UNL d   1       9.005  -0.038  -1.584  0.00  0.00     0.034 A 
ATOM      9  C   UNL d   1       8.305  -1.242  -1.604  0.00  0.00     0.025 A 
ATOM     10 CL   UNL d   1      10.724  -0.048  -1.534  0.00  0.00    -0.084 Cl
ATOM     11  C   UNL d   1       6.907  -1.233  -1.650  0.00  0.00     0.020 A 
ENDBRANCH   4   5
ENDBRANCH   3   4
TORSDOF 2
