REMARK  7 active torsions:
REMARK  status: ('A' for Active; 'I' for Inactive)
REMARK    1  A    between atoms: C_10  and  N_1 
REMARK    2  A    between atoms: C_8  and  C_2 
REMARK    3  A    between atoms: C_9  and  C_7 
REMARK    4  A    between atoms: O_17  and  C_9 
REMARK    5  A    between atoms: N_14  and  C_11 
REMARK    6  A    between atoms: C_12  and  N_14 
REMARK    7  A    between atoms: C_23  and  O_17 
ROOT
ATOM      1  C   UNL d   1       2.420  -1.250   0.366  0.00  0.00     0.068 C 
ATOM      2  C   UNL d   1       2.599  -2.573   0.435  0.00  0.00     0.092 C 
ENDROOT
BRANCH   1   3
ATOM      3  C   UNL d   1       1.146  -0.698   0.609  0.00  0.00     0.139 A 
ATOM      4  N   UNL d   1       0.375  -0.118  -0.396  0.00  0.00    -0.225 N 
ATOM      5  N   UNL d   1      -0.712   0.442   0.200  0.00  0.00     0.001 NA
ATOM      6  N   UNL d   1      -0.630   0.141   1.486  0.00  0.00    -0.007 NA
ATOM      7  N   UNL d   1       0.505  -0.568   1.754  0.00  0.00    -0.270 N 
ATOM      8  HN  UNL d   1       0.800  -0.926   2.662  1.00  0.00     0.185 HD
BRANCH   4   9
ATOM      9  C   UNL d   1       0.553  -0.029  -1.804  0.00  0.00     0.056 A 
ATOM     10  C   UNL d   1       1.544  -0.751  -2.490  0.00  0.00     0.032 A 
ATOM     11  C   UNL d   1       1.728  -0.589  -3.865  0.00  0.00     0.009 A 
ATOM     12  C   UNL d   1       0.917   0.281  -4.593  0.00  0.00    -0.062 A 
ATOM     13  C   UNL d   1      -0.107   0.965  -3.928  0.00  0.00     0.009 A 
ATOM     14  C   UNL d   1       1.166   0.473  -6.055  0.00  0.00     0.048 C 
ATOM     15  C   UNL d   1      -0.293   0.805  -2.551  0.00  0.00     0.032 A 
ENDBRANCH   4   9
ENDBRANCH   1   3
BRANCH   2  16
ATOM     16  N   UNL d   1       3.760  -3.267   0.183  0.00  0.00    -0.365 N 
ATOM     17  H   UNL d   1       4.445  -2.757  -0.381  0.00  0.00     0.165 HD
BRANCH  16  18
ATOM     18  C   UNL d   1       4.460  -3.963   1.210  0.00  0.00     0.048 A 
ATOM     19  C   UNL d   1       5.701  -4.595   0.970  0.00  0.00     0.066 A 
ATOM     20  C   UNL d   1       6.342  -5.286   2.016  0.00  0.00     0.020 A 
ATOM     21  C   UNL d   1       5.778  -5.353   3.290  0.00  0.00     0.001 A 
ATOM     22  C   UNL d   1       4.551  -4.754   3.530  0.00  0.00     0.002 A 
ATOM     23  C   UNL d   1       3.892  -4.087   2.497  0.00  0.00     0.030 A 
BRANCH  19  24
ATOM     24  C   UNL d   1       6.441  -4.570  -0.328  0.00  0.00     0.295 C 
ATOM     25  O   UNL d   1       7.317  -5.376  -0.605  0.00  0.00    -0.259 OA
BRANCH  24  26
ATOM     26  O   UNL d   1       6.114  -3.483  -1.078  0.00  0.00    -0.318 OA
BRANCH  26  27
ATOM     27  C   UNL d   1       6.988  -3.223  -2.193  0.00  0.00     0.174 C 
ATOM     28  C   UNL d   1       6.597  -4.017  -3.427  0.00  0.00     0.034 C 
ENDBRANCH  26  27
ENDBRANCH  24  26
ENDBRANCH  19  24
ENDBRANCH  16  18
ENDBRANCH   2  16
TORSDOF 7
