REMARK  0 active torsions:
REMARK  status: ('A' for Active; 'I' for Inactive)
ROOT
ATOM      1  C   UNL d   1       0.737   0.756   1.123  0.00  0.00     0.020 C 
ATOM      2  C   UNL d   1       0.262  -1.525   0.156  0.00  0.00    -0.041 C 
ATOM      3  C   UNL d   1       0.531   0.491  -1.377  0.00  0.00    -0.041 C 
ATOM      4  C   UNL d   1      -1.526   0.289   0.111  0.00  0.00    -0.041 C 
ATOM      5  C   UNL d   1      -0.768   1.039   1.231  0.00  0.00     0.030 C 
ATOM      6  C   UNL d   1       0.996  -0.751   1.275  0.00  0.00     0.030 C 
ATOM      7  C   UNL d   1       1.261   1.239  -0.237  0.00  0.00     0.030 C 
ATOM      8  C   UNL d   1       0.778  -1.027  -1.214  0.00  0.00     0.018 C 
ATOM      9  C   UNL d   1      -1.252  -1.226   0.255  0.00  0.00     0.018 C 
ATOM     10  C   UNL d   1      -0.986   0.763  -1.258  0.00  0.00     0.018 C 
ATOM     11 BR   UNL d   1       1.673   1.714   2.547  0.00  0.00    -0.085 Br
ATOM     12  C   UNL d   1      -3.029   0.566   0.211  0.00  0.00     0.015 C 
ATOM     13  C   UNL d   1       1.048   0.967  -2.738  0.00  0.00     0.015 C 
ATOM     14  C   UNL d   1       0.514  -3.029   0.299  0.00  0.00     0.015 C 
ENDROOT
TORSDOF 0
