REMARK  4 active torsions:
REMARK  status: ('A' for Active; 'I' for Inactive)
REMARK    1  A    between atoms: O_7  and  S_1 
REMARK    2  A    between atoms: C_9  and  S_1 
REMARK    3  A    between atoms: C_2  and  O_7 
REMARK    4  A    between atoms: C_10  and  C_3 
ROOT
ATOM      1  O   UNL d   1       0.546  -1.148  -1.038  0.00  0.00    -0.209 OA
ENDROOT
BRANCH   1   2
ATOM      2  C   UNL d   1       0.822  -1.145  -2.351  0.00  0.00     0.179 A 
ATOM      3  C   UNL d   1       1.546  -0.288  -3.153  0.00  0.00     0.094 A 
ATOM      4  C   UNL d   1       1.476  -0.814  -4.469  0.00  0.00     0.136 A 
ATOM      5  N   UNL d   1       0.743  -1.944  -4.484  0.00  0.00    -0.293 N 
ATOM      6  N   UNL d   1       0.362  -2.118  -3.201  0.00  0.00    -0.274 N 
ATOM      7  HN  UNL d   1       0.525  -2.535  -5.285  1.00  0.00     0.187 HD
ATOM      8  C   UNL d   1      -0.463  -3.258  -2.874  0.00  0.00     0.180 C 
BRANCH   4   9
ATOM      9  C   UNL d   1       2.111  -0.226  -5.702  0.00  0.00     0.434 C 
ATOM     10  F   UNL d   1       2.805   0.912  -5.417  0.00  0.00    -0.165 F 
ATOM     11  F   UNL d   1       2.996  -1.075  -6.288  0.00  0.00    -0.165 F 
ATOM     12  F   UNL d   1       1.195   0.113  -6.648  0.00  0.00    -0.165 F 
ENDBRANCH   4   9
ENDBRANCH   1   2
BRANCH   1  13
ATOM     13  S   UNL d   1       1.073   0.085  -0.085  0.00  0.00     0.306 S 
ATOM     14  O   UNL d   1       0.385   1.291  -0.516  0.00  0.00    -0.193 OA
ATOM     15  O   UNL d   1       2.520   0.064  -0.021  0.00  0.00    -0.193 OA
BRANCH  13  16
ATOM     16  C   UNL d   1       0.493  -0.258   1.559  0.00  0.00     0.108 A 
ATOM     17  C   UNL d   1       0.850  -1.428   2.232  0.00  0.00     0.059 A 
ATOM     18  C   UNL d   1       0.474  -1.593   3.573  0.00  0.00     0.049 A 
ATOM     19 CL   UNL d   1       1.748  -2.708   1.506  0.00  0.00    -0.083 Cl
ATOM     20  C   UNL d   1      -0.253  -0.599   4.228  0.00  0.00     0.035 A 
ATOM     21  C   UNL d   1      -0.622   0.563   3.556  0.00  0.00     0.025 A 
ATOM     22 CL   UNL d   1      -0.689  -0.801   5.879  0.00  0.00    -0.084 Cl
ATOM     23  C   UNL d   1      -0.248   0.736   2.223  0.00  0.00     0.029 A 
ENDBRANCH  13  16
ENDBRANCH   1  13
TORSDOF 4
