REMARK  5 active torsions:
REMARK  status: ('A' for Active; 'I' for Inactive)
REMARK    1  A    between atoms: C_9  and  C_7 
REMARK    2  A    between atoms: C_14  and  C_9 
REMARK    3  A    between atoms: C_15  and  C_14 
REMARK    4  A    between atoms: C_17  and  C_15 
REMARK    5  A    between atoms: C_16  and  C_17 
ROOT
ATOM      1  C   UNL d   1       1.174   0.889   0.004  0.00  0.00    -0.042 A 
ATOM      2  C   UNL d   1       0.720  -0.447  -0.009  0.00  0.00    -0.019 A 
ATOM      3  C   UNL d   1      -0.728  -0.444  -0.018  0.00  0.00    -0.019 A 
ATOM      4  C   UNL d   1      -1.179   0.894  -0.012  0.00  0.00    -0.043 A 
ATOM      5  C   UNL d   1      -0.001   1.847  -0.011  0.00  0.00     0.078 A 
ATOM      6  C   UNL d   1       2.525   1.193   0.034  0.00  0.00     0.023 A 
ATOM      7  C   UNL d   1       3.439   0.131   0.045  0.00  0.00     0.010 A 
ATOM      8  C   UNL d   1       1.618  -1.498   0.003  0.00  0.00     0.014 A 
ATOM      9  C   UNL d   1       2.987  -1.205   0.031  0.00  0.00     0.016 A 
ATOM     10  C   UNL d   1      -1.634  -1.491  -0.017  0.00  0.00     0.013 A 
ATOM     11  C   UNL d   1      -2.529   1.202  -0.002  0.00  0.00     0.008 A 
ATOM     12  C   UNL d   1      -2.999  -1.189  -0.008  0.00  0.00     0.001 A 
ATOM     13  C   UNL d   1      -3.442   0.145  -0.000  0.00  0.00     0.001 A 
ENDROOT
BRANCH   7  14
ATOM     14  C   UNL d   1       4.892   0.459   0.064  0.00  0.00     0.159 C 
ATOM     15  O   UNL d   1       5.266   1.504   0.593  0.00  0.00    -0.292 OA
BRANCH  14  16
ATOM     16  C   UNL d   1       5.874  -0.485  -0.605  0.00  0.00     0.084 C 
BRANCH  16  17
ATOM     17  C   UNL d   1       5.604  -0.663  -2.099  0.00  0.00     0.008 C 
BRANCH  17  18
ATOM     18  C   UNL d   1       5.700   0.658  -2.867  0.00  0.00     0.000 C 
BRANCH  18  19
ATOM     19  C   UNL d   1       5.407   0.459  -4.353  0.00  0.00    -0.005 C 
ATOM     20  C   UNL d   1       5.492   1.775  -5.110  0.00  0.00     0.005 C 
ENDBRANCH  18  19
ENDBRANCH  17  18
ENDBRANCH  16  17
ENDBRANCH  14  16
ENDBRANCH   7  14
TORSDOF 5
