REMARK  7 active torsions:
REMARK  status: ('A' for Active; 'I' for Inactive)
REMARK    1  A    between atoms: N_2  and  S_1 
REMARK    2  A    between atoms: C_7  and  S_1 
REMARK    3  A    between atoms: N_8  and  C_4 
REMARK    4  A    between atoms: S_9  and  C_4 
REMARK    5  A    between atoms: C_17  and  N_8 
REMARK    6  A    between atoms: C_11  and  C_20 
REMARK    7  A    between atoms: C_20  and  C_17 
ROOT
ATOM      1  N   UNL d   1       0.603  -0.874  -1.622  0.00  0.00    -0.260 N 
ATOM      2  HN  UNL d   1       0.240  -1.826  -1.661  1.00  0.00     0.181 HD
ATOM      3  C   UNL d   1       0.733  -0.234  -2.727  0.00  0.00     0.149 C 
ENDROOT
BRANCH   3   4
ATOM      4  N   UNL d   1       1.238   1.024  -2.963  0.00  0.00    -0.370 N 
ATOM      5  H   UNL d   1       1.490   1.530  -2.108  0.00  0.00     0.161 HD
BRANCH   4   6
ATOM      6  C   UNL d   1       0.821   1.890  -4.060  0.00  0.00     0.126 C 
BRANCH   6   7
ATOM      7  C   UNL d   1       1.545   3.244  -4.055  0.00  0.00     0.058 C 
BRANCH   7   8
ATOM      8  C   UNL d   1       3.012   3.241  -4.431  0.00  0.00    -0.057 A 
ATOM      9  C   UNL d   1       3.495   2.533  -5.542  0.00  0.00     0.009 A 
ATOM     10  C   UNL d   1       4.841   2.614  -5.911  0.00  0.00     0.024 A 
ATOM     11  C   UNL d   1       5.714   3.416  -5.182  0.00  0.00     0.034 A 
ATOM     12  C   UNL d   1       5.252   4.138  -4.086  0.00  0.00     0.024 A 
ATOM     13 CL   UNL d   1       7.367   3.528  -5.647  0.00  0.00    -0.084 Cl
ATOM     14  C   UNL d   1       3.907   4.054  -3.715  0.00  0.00     0.009 A 
ENDBRANCH   7   8
ENDBRANCH   6   7
ENDBRANCH   4   6
ENDBRANCH   3   4
BRANCH   3  15
ATOM     15  S   UNL d   1       0.148  -1.114  -4.157  0.00  0.00    -0.098 SA
ATOM     16  C   UNL d   1       0.370  -2.824  -3.626  0.00  0.00     0.099 C 
ENDBRANCH   3  15
BRANCH   1  17
ATOM     17  S   UNL d   1       0.977  -0.269  -0.178  0.00  0.00     0.264 S 
ATOM     18  O   UNL d   1       1.397   1.119  -0.305  0.00  0.00    -0.200 OA
ATOM     19  O   UNL d   1       1.794  -1.220   0.546  0.00  0.00    -0.200 OA
BRANCH  17  20
ATOM     20  C   UNL d   1      -0.605  -0.247   0.656  0.00  0.00     0.079 A 
ATOM     21  C   UNL d   1      -1.466  -1.342   0.515  0.00  0.00     0.025 A 
ATOM     22  C   UNL d   1      -2.736  -1.295   1.090  0.00  0.00     0.002 A 
ATOM     23  C   UNL d   1      -3.139  -0.162   1.800  0.00  0.00     0.000 A 
ATOM     24  C   UNL d   1      -2.271   0.922   1.947  0.00  0.00     0.002 A 
ATOM     25  C   UNL d   1      -0.999   0.884   1.375  0.00  0.00     0.025 A 
ENDBRANCH  17  20
ENDBRANCH   1  17
TORSDOF 7
