REMARK  5 active torsions:
REMARK  status: ('A' for Active; 'I' for Inactive)
REMARK    1  A    between atoms: C_2  and  C_1 
REMARK    2  A    between atoms: S_16  and  C_8 
REMARK    3  A    between atoms: C_11  and  C_15 
REMARK    4  A    between atoms: C_22  and  S_16 
REMARK    5  A    between atoms: C_23  and  C_22 
ROOT
ATOM      1  C   UNL d   1      -0.598  -1.062  -0.399  0.00  0.00     0.192 A 
ATOM      2  O   UNL d   1      -1.341   0.080  -0.601  0.00  0.00    -0.266 OA
ATOM      3  N   UNL d   1       0.638  -0.782  -0.024  0.00  0.00    -0.275 N 
ATOM      4  HN  UNL d   1       1.372  -1.455   0.200  1.00  0.00     0.189 HD
ATOM      5  C   UNL d   1      -0.432   1.068  -0.334  0.00  0.00     0.204 A 
ATOM      6  N   UNL d   1       0.745   0.590   0.006  0.00  0.00    -0.272 N 
ATOM      7  HN  UNL d   1       1.577   1.130   0.245  1.00  0.00     0.189 HD
ENDROOT
BRANCH   5   8
ATOM      8  S   UNL d   1      -0.765   2.766  -0.460  0.00  0.00    -0.080 SA
BRANCH   8   9
ATOM      9  C   UNL d   1      -2.534   2.801  -0.068  0.00  0.00     0.121 C 
BRANCH   9  10
ATOM     10  C   UNL d   1      -3.062   4.217  -0.085  0.00  0.00    -0.048 A 
ATOM     11  C   UNL d   1      -3.558   4.776  -1.272  0.00  0.00     0.009 A 
ATOM     12  C   UNL d   1      -4.008   6.099  -1.303  0.00  0.00     0.017 A 
ATOM     13  C   UNL d   1      -3.968   6.895  -0.148  0.00  0.00     0.047 A 
ATOM     14  C   UNL d   1      -3.473   6.335   1.039  0.00  0.00     0.017 A 
ATOM     15  C   UNL d   1      -3.022   5.012   1.070  0.00  0.00     0.009 A 
BRANCH  13  16
ATOM     16  C   UNL d   1      -4.433   8.330  -0.171  0.00  0.00     0.417 C 
ATOM     17  F   UNL d   1      -4.902   8.733  -1.385  0.00  0.00    -0.166 F 
ATOM     18  F   UNL d   1      -5.442   8.565   0.713  0.00  0.00    -0.166 F 
ATOM     19  F   UNL d   1      -3.441   9.205   0.153  0.00  0.00    -0.166 F 
ENDBRANCH  13  16
ENDBRANCH   9  10
ENDBRANCH   8   9
ENDBRANCH   5   8
BRANCH   1  20
ATOM     20  C   UNL d   1      -1.110  -2.455  -0.587  0.00  0.00     0.092 A 
ATOM     21  N   UNL d   1      -2.395  -2.727  -1.032  0.00  0.00    -0.350 N 
ATOM     22  C   UNL d   1      -2.563  -4.030  -1.135  0.00  0.00     0.047 A 
ATOM     23  HN  UNL d   1      -3.103  -2.025  -1.247  1.00  0.00     0.166 HD
ATOM     24  C   UNL d   1      -3.808  -4.691  -1.615  0.00  0.00     0.076 C 
ATOM     25  S   UNL d   1      -1.214  -4.992  -0.669  0.00  0.00    -0.087 SA
ATOM     26  C   UNL d   1      -0.327  -3.566  -0.338  0.00  0.00     0.085 A 
ENDBRANCH   1  20
TORSDOF 5
