REMARK  4 active torsions:
REMARK  status: ('A' for Active; 'I' for Inactive)
REMARK    1  A    between atoms: C_6  and  C_1 
REMARK    2  A    between atoms: C_10  and  N_2 
REMARK    3  A    between atoms: C_12  and  C_3 
REMARK    4  A    between atoms: O_22  and  C_12 
ROOT
ATOM      1  C   UNL d   1      -0.328  -1.205   0.009  0.00  0.00     0.103 C 
ATOM      2  N   UNL d   1       0.941  -0.664   0.147  0.00  0.00    -0.253 N 
ATOM      3  C   UNL d   1      -1.208  -0.132  -0.107  0.00  0.00     0.094 C 
ATOM      4  N   UNL d   1       0.896   0.685   0.267  0.00  0.00    -0.297 N 
ATOM      5  HN  UNL d   1       1.669   1.314   0.487  1.00  0.00     0.187 HD
ATOM      6  C   UNL d   1      -0.377   1.016   0.034  0.00  0.00     0.041 C 
ATOM      7  C   UNL d   1      -0.731   2.461   0.030  0.00  0.00     0.071 C 
ENDROOT
BRANCH   2   8
ATOM      8  C   UNL d   1       2.217  -1.293   0.071  0.00  0.00     0.058 A 
ATOM      9  C   UNL d   1       3.283  -0.755   0.810  0.00  0.00     0.058 A 
ATOM     10  C   UNL d   1       4.524  -1.394   0.797  0.00  0.00     0.074 A 
ATOM     11 CL   UNL d   1       5.801  -0.780   1.776  0.00  0.00    -0.081 Cl
ATOM     12  C   UNL d   1       4.714  -2.532   0.016  0.00  0.00     0.138 A 
ATOM     13  C   UNL d   1       3.680  -3.038  -0.764  0.00  0.00     0.046 A 
ATOM     14  F   UNL d   1       5.900  -3.160  -0.004  0.00  0.00    -0.204 F 
ATOM     15  C   UNL d   1       2.429  -2.418  -0.740  0.00  0.00     0.034 A 
ENDBRANCH   2   8
BRANCH   1  16
ATOM     16  C   UNL d   1      -0.660  -2.661   0.058  0.00  0.00     0.087 A 
ATOM     17  N   UNL d   1       0.094  -3.524   0.749  0.00  0.00    -0.259 N 
ATOM     18  O   UNL d   1      -0.478  -4.767   0.574  0.00  0.00    -0.242 OA
ATOM     19  HN  UNL d   1       0.927  -3.306   1.297  1.00  0.00     0.195 HD
ATOM     20  C   UNL d   1      -1.565  -4.648  -0.230  0.00  0.00     0.074 A 
ATOM     21  C   UNL d   1      -1.724  -3.332  -0.584  0.00  0.00     0.068 A 
ATOM     22  C   UNL d   1      -2.296  -5.890  -0.529  0.00  0.00     0.079 C 
ENDBRANCH   1  16
BRANCH   3  23
ATOM     23  C   UNL d   1      -2.658  -0.182  -0.214  0.00  0.00     0.297 C 
ATOM     24  O   UNL d   1      -3.344  -1.077   0.259  0.00  0.00    -0.259 OA
BRANCH  23  25
ATOM     25  O   UNL d   1      -3.170   0.865  -0.920  0.00  0.00    -0.322 OA
ATOM     26  C   UNL d   1      -4.596   0.829  -1.052  0.00  0.00     0.213 C 
ENDBRANCH  23  25
ENDBRANCH   3  23
TORSDOF 4
