REMARK  4 active torsions:
REMARK  status: ('A' for Active; 'I' for Inactive)
REMARK    1  A    between atoms: C_9  and  C_13 
REMARK    2  A    between atoms: N_18  and  C_11 
REMARK       I    between atoms: C_12  and  N_14 
REMARK    3  A    between atoms: C_15  and  C_12 
REMARK    4  A    between atoms: N_14  and  N_18 
ROOT
ATOM      1  N   UNL d   1      -3.380  -1.404  -0.141  0.00  0.00    -0.187 NA
ATOM      2  H   UNL d   1      -4.022  -1.017  -0.837  0.00  0.00     0.154 HD
ENDROOT
BRANCH   1   3
ATOM      3  N   UNL d   1      -3.223  -2.787  -0.322  0.00  0.00    -0.281 N 
ATOM      4  C   UNL d   1      -4.341  -3.531  -0.652  0.00  0.00     0.266 C 
ATOM      5  O   UNL d   1      -5.445  -3.054  -0.882  0.00  0.00    -0.266 OA
ATOM      6  H   UNL d   1      -2.355  -3.178   0.042  0.00  0.00     0.184 HD
BRANCH   4   7
ATOM      7  C   UNL d   1      -4.130  -5.005  -0.716  0.00  0.00     0.034 A 
ATOM      8  C   UNL d   1      -5.154  -5.864  -0.288  0.00  0.00     0.033 A 
ATOM      9  C   UNL d   1      -4.979  -7.258  -0.342  0.00  0.00     0.048 A 
ATOM     10  C   UNL d   1      -3.774  -7.771  -0.850  0.00  0.00     0.016 A 
ATOM     11  C   UNL d   1      -2.767  -6.916  -1.298  0.00  0.00     0.002 A 
ATOM     12  C   UNL d   1      -2.943  -5.534  -1.231  0.00  0.00     0.017 A 
BRANCH   9  13
ATOM     13  C   UNL d   1      -6.050  -8.210   0.135  0.00  0.00     0.417 C 
ATOM     14  F   UNL d   1      -7.176  -7.593   0.586  0.00  0.00    -0.166 F 
ATOM     15  F   UNL d   1      -6.457  -9.066  -0.843  0.00  0.00    -0.166 F 
ATOM     16  F   UNL d   1      -5.619  -8.997   1.160  0.00  0.00    -0.166 F 
ENDBRANCH   9  13
ENDBRANCH   4   7
ENDBRANCH   1   3
BRANCH   1  17
ATOM     17  C   UNL d   1      -2.143  -0.698  -0.143  0.00  0.00     0.100 A 
ATOM     18  N   UNL d   1      -0.976  -1.378  -0.092  0.00  0.00    -0.330 N 
ATOM     19  C   UNL d   1       0.121  -0.591  -0.045  0.00  0.00     0.136 A 
ATOM     20  HN  UNL d   1      -0.928  -2.397  -0.089  1.00  0.00     0.168 HD
ATOM     21  C   UNL d   1       0.180   0.802  -0.028  0.00  0.00     0.039 A 
ATOM     22  N   UNL d   1       1.417  -1.023  -0.004  0.00  0.00    -0.280 N 
ATOM     23  C   UNL d   1       1.583   1.089   0.005  0.00  0.00     0.036 A 
ATOM     24  C   UNL d   1      -1.049   1.499  -0.046  0.00  0.00    -0.043 A 
ATOM     25  C   UNL d   1       2.316   2.381   0.008  0.00  0.00     0.070 C 
ATOM     26  N   UNL d   1       2.324  -0.030   0.022  0.00  0.00    -0.301 N 
ATOM     27  HN  UNL d   1       3.341  -0.109   0.050  1.00  0.00     0.187 HD
ATOM     28  C   UNL d   1      -1.242   2.987   0.006  0.00  0.00     0.049 C 
ATOM     29  C   UNL d   1      -2.210   0.698  -0.104  0.00  0.00     0.051 A 
ATOM     30  C   UNL d   1       1.881  -2.387  -0.001  0.00  0.00     0.179 C 
ENDBRANCH   1  17
TORSDOF 4
