REMARK  8 active torsions:
REMARK  status: ('A' for Active; 'I' for Inactive)
REMARK    1  A    between atoms: C_7  and  C_2 
REMARK    2  A    between atoms: C_13  and  N_3 
REMARK    3  A    between atoms: O_18  and  C_7 
REMARK    4  A    between atoms: C_8  and  N_15 
REMARK    5  A    between atoms: N_12  and  C_8 
REMARK    6  A    between atoms: N_10  and  C_9 
REMARK    7  A    between atoms: N_15  and  N_10 
REMARK    8  A    between atoms: C_17  and  N_12 
ROOT
ATOM      1  C   UNL d   1       0.924  -0.526   0.078  0.00  0.00     0.091 A 
ATOM      2  C   UNL d   1      -0.433  -0.833   0.120  0.00  0.00     0.086 A 
ATOM      3  N   UNL d   1       1.015   0.863   0.037  0.00  0.00    -0.255 N 
ATOM      4  N   UNL d   1      -0.224   1.428  -0.056  0.00  0.00    -0.303 N 
ATOM      5  HN  UNL d   1      -0.447   2.417  -0.170  1.00  0.00     0.186 HD
ATOM      6  C   UNL d   1      -1.075   0.413   0.036  0.00  0.00     0.127 A 
ATOM      7  C   UNL d   1       2.002  -1.469  -0.002  0.00  0.00     0.139 C 
ENDROOT
BRANCH   2   8
ATOM      8  C   UNL d   1      -1.035  -2.154   0.150  0.00  0.00     0.296 C 
ATOM      9  O   UNL d   1      -0.384  -3.188   0.228  0.00  0.00    -0.259 OA
BRANCH   8  10
ATOM     10  O   UNL d   1      -2.396  -2.107   0.071  0.00  0.00    -0.322 OA
ATOM     11  C   UNL d   1      -3.024  -3.391   0.034  0.00  0.00     0.213 C 
ENDBRANCH   8  10
ENDBRANCH   2   8
BRANCH   3  12
ATOM     12  C   UNL d   1       2.157   1.718   0.116  0.00  0.00     0.057 A 
ATOM     13  C   UNL d   1       2.063   3.023  -0.394  0.00  0.00     0.031 A 
ATOM     14  C   UNL d   1       3.183   3.858  -0.411  0.00  0.00     0.002 A 
ATOM     15  C   UNL d   1       4.399   3.408   0.097  0.00  0.00     0.000 A 
ATOM     16  C   UNL d   1       4.488   2.135   0.654  0.00  0.00     0.002 A 
ATOM     17  C   UNL d   1       3.369   1.300   0.679  0.00  0.00     0.031 A 
ENDBRANCH   3  12
BRANCH   7  18
ATOM     18  N   UNL d   1       3.038  -1.244  -0.746  0.00  0.00    -0.307 N 
ATOM     19  HN  UNL d   1       3.132  -0.405  -1.319  1.00  0.00     0.186 HD
BRANCH  18  20
ATOM     20  N   UNL d   1       3.990  -2.213  -0.703  0.00  0.00    -0.277 N 
ATOM     21  H   UNL d   1       3.953  -2.874   0.058  0.00  0.00     0.189 HD
BRANCH  20  22
ATOM     22  C   UNL d   1       5.170  -2.127  -1.387  0.00  0.00     0.187 C 
ATOM     23  S   UNL d   1       5.757  -0.787  -2.193  0.00  0.00    -0.040 SA
BRANCH  22  24
ATOM     24  N   UNL d   1       5.921  -3.275  -1.431  0.00  0.00    -0.358 N 
ATOM     25  H   UNL d   1       6.751  -3.107  -1.994  0.00  0.00     0.162 HD
BRANCH  24  26
ATOM     26  C   UNL d   1       5.454  -4.683  -1.441  0.00  0.00     0.021 C 
ATOM     27  C   UNL d   1       4.472  -4.896  -2.604  0.00  0.00     0.037 C 
ATOM     28  C   UNL d   1       6.691  -5.574  -1.665  0.00  0.00     0.037 C 
ATOM     29  C   UNL d   1       4.804  -5.128  -0.119  0.00  0.00     0.037 C 
ENDBRANCH  24  26
ENDBRANCH  22  24
ENDBRANCH  20  22
ENDBRANCH  18  20
ENDBRANCH   7  18
TORSDOF 8
