REMARK  6 active torsions:
REMARK  status: ('A' for Active; 'I' for Inactive)
REMARK    1  A    between atoms: C_2  and  C_1 
REMARK    2  A    between atoms: C_4  and  C_3 
REMARK    3  A    between atoms: S_9  and  C_6 
REMARK    4  A    between atoms: C_20  and  S_9 
REMARK    5  A    between atoms: C_11  and  C_20 
REMARK       I    between atoms: N_12  and  C_11 
REMARK    6  A    between atoms: C_21  and  N_12 
ROOT
ATOM      1  C   UNL d   1       0.061   0.264  -1.358  0.00  0.00     0.082 A 
ATOM      2  C   UNL d   1       1.588  -0.457   0.408  0.00  0.00     0.064 A 
ATOM      3  C   UNL d   1       0.880  -0.722  -0.768  0.00  0.00     0.036 A 
ATOM      4  C   UNL d   1      -0.021   1.502  -0.726  0.00  0.00     0.085 A 
ATOM      5  N   UNL d   1       0.675   1.770   0.407  0.00  0.00    -0.359 N 
ATOM      6  HN  UNL d   1       0.609   2.687   0.848  1.00  0.00     0.166 HD
ATOM      7  C   UNL d   1       1.457   0.808   0.944  0.00  0.00     0.105 A 
ENDROOT
BRANCH   4   8
ATOM      8  S   UNL d   1      -1.066   2.832  -1.315  0.00  0.00    -0.102 SA
BRANCH   8   9
ATOM      9  C   UNL d   1      -0.632   4.130  -0.109  0.00  0.00     0.184 C 
BRANCH   9  10
ATOM     10  C   UNL d   1      -1.406   5.429  -0.273  0.00  0.00     0.231 C 
ATOM     11  N   UNL d   1      -2.681   5.304  -0.790  0.00  0.00    -0.327 N 
ATOM     12  H   UNL d   1      -2.935   4.379  -1.119  0.00  0.00     0.169 HD
ATOM     13  O   UNL d   1      -0.904   6.474   0.143  0.00  0.00    -0.272 OA
BRANCH  11  14
ATOM     14  C   UNL d   1      -3.660   6.313  -0.919  0.00  0.00     0.034 A 
ATOM     15  C   UNL d   1      -3.465   7.644  -0.544  0.00  0.00     0.029 A 
ATOM     16  C   UNL d   1      -4.494   8.582  -0.672  0.00  0.00     0.002 A 
ATOM     17  C   UNL d   1      -5.733   8.199  -1.178  0.00  0.00     0.000 A 
ATOM     18  C   UNL d   1      -5.939   6.876  -1.564  0.00  0.00     0.002 A 
ATOM     19  C   UNL d   1      -4.907   5.940  -1.438  0.00  0.00     0.029 A 
ENDBRANCH  11  14
ENDBRANCH   9  10
ENDBRANCH   8   9
ENDBRANCH   4   8
BRANCH   1  20
ATOM     20  C   UNL d   1      -0.690  -0.036  -2.622  0.00  0.00     0.420 C 
ATOM     21  F   UNL d   1      -0.467  -1.305  -3.076  0.00  0.00    -0.166 F 
ATOM     22  F   UNL d   1      -2.040   0.058  -2.481  0.00  0.00    -0.166 F 
ATOM     23  F   UNL d   1      -0.347   0.777  -3.657  0.00  0.00    -0.166 F 
ENDBRANCH   1  20
BRANCH   2  24
ATOM     24  C   UNL d   1       2.460  -1.465   1.093  0.00  0.00     0.418 C 
ATOM     25  F   UNL d   1       2.417  -2.696   0.515  0.00  0.00    -0.166 F 
ATOM     26  F   UNL d   1       3.770  -1.098   1.102  0.00  0.00    -0.166 F 
ATOM     27  F   UNL d   1       2.113  -1.651   2.396  0.00  0.00    -0.166 F 
ENDBRANCH   2  24
TORSDOF 6
