REMARK  6 active torsions:
REMARK  status: ('A' for Active; 'I' for Inactive)
REMARK    1  A    between atoms: N_2  and  C_1 
REMARK       I    between atoms: C_5  and  N_2 
REMARK    2  A    between atoms: C_6  and  C_5 
REMARK    3  A    between atoms: C_9  and  C_7 
REMARK    4  A    between atoms: C_11  and  C_9 
REMARK    5  A    between atoms: O_17  and  C_11 
REMARK    6  A    between atoms: C_18  and  O_17 
ROOT
ATOM      1  C   UNL d   1       0.335  -1.126  -0.044  0.00  0.00     0.151 A 
ATOM      2  N   UNL d   1       1.503  -0.551  -0.150  0.00  0.00    -0.339 N 
ATOM      3  HN  UNL d   1       2.389  -1.040  -0.274  1.00  0.00     0.168 HD
ATOM      4  C   UNL d   1       1.356   0.829  -0.068  0.00  0.00     0.027 A 
ATOM      5  S   UNL d   1      -1.012  -0.095   0.124  0.00  0.00    -0.064 SA
ATOM      6  C   UNL d   1       0.040   1.254   0.021  0.00  0.00     0.078 A 
ENDROOT
BRANCH   1   7
ATOM      7  N   UNL d   1       0.016  -2.454  -0.026  0.00  0.00    -0.303 N 
ATOM      8  C   UNL d   1       0.943  -3.456  -0.272  0.00  0.00     0.278 C 
ATOM      9  O   UNL d   1       2.094  -3.246  -0.660  0.00  0.00    -0.268 OA
ATOM     10  H   UNL d   1      -0.949  -2.681   0.182  0.00  0.00     0.171 HD
BRANCH   8  11
ATOM     11  C   UNL d   1       0.411  -4.900  -0.085  0.00  0.00     0.269 C 
ATOM     12 CL   UNL d   1      -1.210  -4.919   0.686  0.00  0.00    -0.073 Cl
ATOM     13 CL   UNL d   1       0.286  -5.661  -1.692  0.00  0.00    -0.073 Cl
ATOM     14 CL   UNL d   1       1.543  -5.805   0.951  0.00  0.00    -0.073 Cl
ENDBRANCH   8  11
ENDBRANCH   1   7
BRANCH   4  15
ATOM     15  C   UNL d   1       2.581   1.688  -0.119  0.00  0.00     0.168 C 
BRANCH  15  16
ATOM     16  C   UNL d   1       2.668   2.657   1.047  0.00  0.00     0.264 C 
ATOM     17  O   UNL d   1       1.865   2.753   1.961  0.00  0.00    -0.265 OA
BRANCH  16  18
ATOM     18  O   UNL d   1       3.750   3.477   0.880  0.00  0.00    -0.322 OA
BRANCH  18  19
ATOM     19  C   UNL d   1       3.791   4.646   1.715  0.00  0.00     0.174 C 
ATOM     20  C   UNL d   1       4.850   4.514   2.792  0.00  0.00     0.034 C 
ENDBRANCH  18  19
ENDBRANCH  16  18
ENDBRANCH  15  16
ENDBRANCH   4  15
TORSDOF 6
