REMARK  8 active torsions:
REMARK  status: ('A' for Active; 'I' for Inactive)
REMARK    1  A    between atoms: C_1  and  N_8 
REMARK    2  A    between atoms: C_2  and  O_11 
REMARK    3  A    between atoms: C_3  and  O_12 
REMARK    4  A    between atoms: C_5  and  O_14 
REMARK    5  A    between atoms: C_6  and  C_15 
REMARK    6  A    between atoms: C_7  and  N_9 
REMARK    7  A    between atoms: N_9  and  N_8 
REMARK    8  A    between atoms: O_16  and  C_15 
ROOT
ATOM      1  C   UNL d   1      -0.057   1.796   0.059  0.00  0.00     0.244 C 
ATOM      2  C   UNL d   1       0.990   0.690   0.377  0.00  0.00     0.194 C 
ATOM      3  C   UNL d   1       0.718  -0.543  -0.504  0.00  0.00     0.182 C 
ATOM      4  O   UNL d   1      -1.390   1.279   0.164  0.00  0.00    -0.357 OA
ATOM      5  C   UNL d   1      -0.755  -0.966  -0.432  0.00  0.00     0.180 C 
ATOM      6  C   UNL d   1      -1.641   0.234  -0.789  0.00  0.00     0.178 C 
ENDROOT
BRANCH   1   7
ATOM      7  N   UNL d   1       0.126   2.938   0.964  0.00  0.00    -0.207 NA
ATOM      8  H   UNL d   1       0.075   2.599   1.930  0.00  0.00     0.149 HD
BRANCH   7   9
ATOM      9  N   UNL d   1      -0.861   3.934   0.800  0.00  0.00    -0.296 N 
ATOM     10  H   UNL d   1      -0.991   4.345  -0.119  0.00  0.00     0.183 HD
BRANCH   9  11
ATOM     11  C   UNL d   1      -1.636   4.374   1.849  0.00  0.00     0.179 C 
ATOM     12  S   UNL d   1      -1.665   3.754   3.396  0.00  0.00    -0.040 SA
ATOM     13  N   UNL d   1      -2.454   5.410   1.519  0.00  0.00    -0.375 N 
ATOM     14  H   UNL d   1      -2.207   6.026   0.758  0.00  0.00     0.158 HD
ATOM     15  H   UNL d   1      -2.968   5.835   2.283  0.00  0.00     0.158 HD
ENDBRANCH   9  11
ENDBRANCH   7   9
ENDBRANCH   1   7
BRANCH   2  16
ATOM     16  O   UNL d   1       2.332   1.160   0.189  0.00  0.00    -0.389 OA
ATOM     17  H   UNL d   1       2.537   1.158  -0.761  0.00  0.00     0.210 HD
ENDBRANCH   2  16
BRANCH   3  18
ATOM     18  O   UNL d   1       1.549  -1.640  -0.109  0.00  0.00    -0.390 OA
ATOM     19  H   UNL d   1       1.149  -2.008   0.705  0.00  0.00     0.210 HD
ENDBRANCH   3  18
BRANCH   6  20
ATOM     20  C   UNL d   1      -3.131  -0.123  -0.767  0.00  0.00     0.198 C 
BRANCH  20  21
ATOM     21  O   UNL d   1      -3.432  -1.105  -1.751  0.00  0.00    -0.398 OA
ATOM     22  H   UNL d   1      -3.255  -1.979  -1.357  0.00  0.00     0.209 HD
ENDBRANCH  20  21
ENDBRANCH   6  20
BRANCH   5  23
ATOM     23  O   UNL d   1      -1.036  -1.429   0.902  0.00  0.00    -0.390 OA
ATOM     24  H   UNL d   1      -1.296  -0.654   1.438  0.00  0.00     0.210 HD
ENDBRANCH   5  23
TORSDOF 8
