REMARK  4 active torsions:
REMARK  status: ('A' for Active; 'I' for Inactive)
REMARK    1  A    between atoms: S_9  and  C_1 
REMARK    2  A    between atoms: C_10  and  C_4 
REMARK    3  A    between atoms: C_5  and  C_8 
REMARK    4  A    between atoms: C_8  and  S_9 
ROOT
ATOM      1  C   UNL d   1      -0.018   1.122   0.096  0.00  0.00     0.187 A 
ATOM      2  N   UNL d   1      -1.176   0.503  -0.018  0.00  0.00    -0.338 N 
ATOM      3  HN  UNL d   1      -2.107   0.918  -0.062  1.00  0.00     0.168 HD
ATOM      4  C   UNL d   1       0.526  -0.983   0.019  0.00  0.00     0.104 A 
ATOM      5  O   UNL d   1       1.061   0.276   0.120  0.00  0.00    -0.286 OA
ATOM      6  C   UNL d   1      -0.840  -0.827  -0.066  0.00  0.00     0.129 A 
ENDROOT
BRANCH   1   7
ATOM      7  S   UNL d   1       0.163   2.849   0.217  0.00  0.00    -0.082 SA
BRANCH   7   8
ATOM      8  C   UNL d   1      -1.577   3.370   0.147  0.00  0.00     0.125 C 
BRANCH   8   9
ATOM      9  C   UNL d   1      -1.720   4.875   0.246  0.00  0.00    -0.005 A 
ATOM     10  C   UNL d   1      -1.689   5.692  -0.902  0.00  0.00     0.042 A 
ATOM     11 CL   UNL d   1      -1.475   5.039  -2.491  0.00  0.00    -0.084 Cl
ATOM     12  C   UNL d   1      -1.830   7.083  -0.810  0.00  0.00     0.024 A 
ATOM     13  C   UNL d   1      -1.996   7.692   0.429  0.00  0.00     0.003 A 
ATOM     14  C   UNL d   1      -2.010   6.909   1.579  0.00  0.00     0.024 A 
ATOM     15  C   UNL d   1      -1.868   5.518   1.491  0.00  0.00     0.042 A 
ATOM     16 CL   UNL d   1      -1.884   4.643   2.984  0.00  0.00    -0.084 Cl
ENDBRANCH   8   9
ENDBRANCH   7   8
ENDBRANCH   1   7
BRANCH   4  17
ATOM     17  C   UNL d   1       1.450  -2.111   0.043  0.00  0.00    -0.001 A 
ATOM     18  C   UNL d   1       2.837  -1.918   0.149  0.00  0.00     0.016 A 
ATOM     19  C   UNL d   1       3.714  -3.008   0.204  0.00  0.00     0.024 A 
ATOM     20  C   UNL d   1       3.212  -4.305   0.150  0.00  0.00     0.034 A 
ATOM     21  C   UNL d   1       1.842  -4.520   0.030  0.00  0.00     0.024 A 
ATOM     22 CL   UNL d   1       4.285  -5.646   0.239  0.00  0.00    -0.084 Cl
ATOM     23  C   UNL d   1       0.967  -3.428  -0.025  0.00  0.00     0.016 A 
ENDBRANCH   4  17
TORSDOF 4
