REMARK  4 active torsions:
REMARK  status: ('A' for Active; 'I' for Inactive)
REMARK    1  A    between atoms: C_4  and  C_1 
REMARK    2  A    between atoms: C_9  and  C_2 
REMARK    3  A    between atoms: S_3  and  N_5 
REMARK    4  A    between atoms: C_12  and  S_3 
REMARK       I    between atoms: N_5  and  C_4 
ROOT
ATOM      1  C   UNL d   1      -0.405  -1.337  -0.247  0.00  0.00     0.093 A 
ATOM      2  C   UNL d   1      -1.759  -0.917  -0.043  0.00  0.00     0.085 A 
ATOM      3  N   UNL d   1      -1.791   0.392   0.260  0.00  0.00    -0.259 N 
ATOM      4  HN  UNL d   1      -2.624   0.946   0.458  1.00  0.00     0.195 HD
ATOM      5  O   UNL d   1      -0.498   0.843   0.253  0.00  0.00    -0.241 OA
ATOM      6  C   UNL d   1       0.327  -0.183  -0.062  0.00  0.00     0.090 A 
ATOM      7  C   UNL d   1       1.769   0.143  -0.125  0.00  0.00     0.080 C 
ENDROOT
BRANCH   1   8
ATOM      8  C   UNL d   1       0.208  -2.592  -0.643  0.00  0.00     0.267 C 
ATOM      9  N   UNL d   1       0.010  -3.755   0.107  0.00  0.00    -0.279 N 
ATOM     10  HN  UNL d   1      -0.882  -4.249   0.080  1.00  0.00     0.179 HD
ATOM     11  O   UNL d   1       0.953  -2.592  -1.617  0.00  0.00    -0.267 OA
BRANCH   9  12
ATOM     12  S   UNL d   1       1.174  -4.271   0.976  0.00  0.00     0.055 S 
ATOM     13  O   UNL d   1       1.875  -3.449   1.942  0.00  0.00    -0.245 OA
ATOM     14  C   UNL d   1       0.643  -5.736   1.825  0.00  0.00     0.142 C 
BRANCH  12  15
ATOM     15  C   UNL d   1       2.426  -4.902  -0.150  0.00  0.00     0.038 A 
ATOM     16  C   UNL d   1       3.768  -4.558   0.043  0.00  0.00     0.023 A 
ATOM     17  C   UNL d   1       4.717  -4.938  -0.905  0.00  0.00     0.025 A 
ATOM     18  C   UNL d   1       4.321  -5.653  -2.039  0.00  0.00     0.034 A 
ATOM     19  C   UNL d   1       2.986  -6.019  -2.216  0.00  0.00     0.025 A 
ATOM     20 CL   UNL d   1       5.483  -6.065  -3.238  0.00  0.00    -0.084 Cl
ATOM     21  C   UNL d   1       2.032  -5.647  -1.267  0.00  0.00     0.023 A 
ENDBRANCH  12  15
ENDBRANCH   9  12
ENDBRANCH   1   8
BRANCH   2  22
ATOM     22  C   UNL d   1      -3.049  -1.586  -0.217  0.00  0.00     0.015 A 
ATOM     23  C   UNL d   1      -3.517  -2.634   0.586  0.00  0.00     0.046 A 
ATOM     24 CL   UNL d   1      -2.599  -3.313   1.882  0.00  0.00    -0.083 Cl
ATOM     25  C   UNL d   1      -4.830  -3.110   0.435  0.00  0.00     0.025 A 
ATOM     26  C   UNL d   1      -5.704  -2.516  -0.479  0.00  0.00     0.002 A 
ATOM     27  C   UNL d   1      -5.263  -1.462  -1.268  0.00  0.00     0.001 A 
ATOM     28  C   UNL d   1      -3.945  -1.012  -1.148  0.00  0.00     0.015 A 
ENDBRANCH   2  22
TORSDOF 4
