REMARK  1 active torsions:
REMARK  status: ('A' for Active; 'I' for Inactive)
REMARK    1  A    between atoms: C_11  and  C_2 
ROOT
ATOM      1  C   UNL d   1      -0.229   0.525  -0.009  0.00  0.00     0.089 A 
ATOM      2  C   UNL d   1       1.971   0.944  -0.006  0.00  0.00     0.118 A 
ATOM      3  C   UNL d   1      -0.084  -0.860   0.006  0.00  0.00     0.028 A 
ATOM      4  N   UNL d   1       0.743   1.446  -0.037  0.00  0.00    -0.335 N 
ATOM      5  HN  UNL d   1       0.556   2.448  -0.077  1.00  0.00     0.168 HD
ATOM      6  S   UNL d   1      -1.843   1.044   0.005  0.00  0.00    -0.060 SA
ATOM      7  C   UNL d   1      -2.425  -0.546   0.022  0.00  0.00     0.094 A 
ATOM      8  C   UNL d   1      -1.401  -1.499   0.036  0.00  0.00    -0.019 A 
ATOM      9  N   UNL d   1       2.256  -0.369  -0.017  0.00  0.00    -0.345 N 
ATOM     10  HN  UNL d   1       3.230  -0.672  -0.022  1.00  0.00     0.167 HD
ATOM     11  C   UNL d   1       1.261  -1.304  -0.021  0.00  0.00     0.020 A 
ATOM     12  C   UNL d   1      -3.828  -0.837   0.021  0.00  0.00     0.107 C 
ATOM     13  N   UNL d   1      -4.960  -1.107   0.011  0.00  0.00    -0.191 NA
ATOM     14  C   UNL d   1      -1.710  -2.964   0.066  0.00  0.00     0.051 C 
ATOM     15  C   UNL d   1       1.782  -2.708  -0.048  0.00  0.00     0.069 C 
ENDROOT
BRANCH   2  16
ATOM     16  C   UNL d   1       3.114   1.875  -0.048  0.00  0.00     0.030 A 
ATOM     17  C   UNL d   1       3.130   3.140   0.576  0.00  0.00     0.049 A 
ATOM     18  C   UNL d   1       4.241   3.992   0.468  0.00  0.00     0.048 A 
ATOM     19 CL   UNL d   1       1.835   3.726   1.570  0.00  0.00    -0.083 Cl
ATOM     20  C   UNL d   1       5.361   3.592  -0.253  0.00  0.00     0.035 A 
ATOM     21  C   UNL d   1       5.390   2.345  -0.861  0.00  0.00     0.025 A 
ATOM     22 CL   UNL d   1       6.716   4.642  -0.383  0.00  0.00    -0.084 Cl
ATOM     23  C   UNL d   1       4.281   1.499  -0.757  0.00  0.00     0.018 A 
ENDBRANCH   2  16
TORSDOF 1
