REMARK  3 active torsions:
REMARK  status: ('A' for Active; 'I' for Inactive)
REMARK    1  A    between atoms: C_8  and  C_3 
REMARK    2  A    between atoms: C_7  and  C_9 
REMARK    3  A    between atoms: O_12  and  C_7 
ROOT
ATOM      1  C   UNL d   1       2.009  -2.405  -0.069  0.00  0.00    -0.008 A 
ATOM      2  C   UNL d   1       2.854  -4.345  -1.269  0.00  0.00     0.038 A 
ATOM      3  C   UNL d   1       1.921  -3.307  -1.140  0.00  0.00     0.032 A 
ATOM      4  C   UNL d   1       3.033  -2.569   0.875  0.00  0.00     0.014 A 
ATOM      5  C   UNL d   1       3.855  -4.510  -0.305  0.00  0.00     0.018 A 
ATOM      6  C   UNL d   1       3.945  -3.622   0.765  0.00  0.00     0.002 A 
ENDROOT
BRANCH   1   7
ATOM      7  C   UNL d   1       1.075  -1.292   0.067  0.00  0.00     0.049 A 
ATOM      8  N   UNL d   1       1.470  -0.094   0.642  0.00  0.00    -0.353 N 
ATOM      9  C   UNL d   1       0.473   0.765   0.626  0.00  0.00     0.047 A 
ATOM     10  HN  UNL d   1       2.397   0.095   1.021  1.00  0.00     0.166 HD
ATOM     11  S   UNL d   1      -0.996   0.182  -0.049  0.00  0.00    -0.087 SA
ATOM     12  C   UNL d   1       0.549   2.160   1.139  0.00  0.00     0.076 C 
ATOM     13  C   UNL d   1      -0.242  -1.328  -0.350  0.00  0.00     0.081 A 
ENDBRANCH   1   7
BRANCH   2  14
ATOM     14  C   UNL d   1       2.789  -5.319  -2.387  0.00  0.00     0.176 C 
ATOM     15  O   UNL d   1       3.151  -6.479  -2.274  0.00  0.00    -0.646 OA
BRANCH  14  16
ATOM     16  O   UNL d   1       2.324  -4.803  -3.543  0.00  0.00    -0.773 OA
ATOM     17  H   UNL d   1       2.268  -3.830  -3.571  0.00  0.00     0.167 HD
ENDBRANCH  14  16
ENDBRANCH   2  14
TORSDOF 3
