REMARK  2 active torsions:
REMARK  status: ('A' for Active; 'I' for Inactive)
REMARK    1  A    between atoms: C_6  and  N_1 
REMARK    2  A    between atoms: C_2  and  C_6 
ROOT
ATOM      1  C   UNL d   1      -2.187   1.377  -2.262  0.00  0.00    -0.028 A 
ATOM      2  C   UNL d   1      -3.391   3.710  -3.276  0.00  0.00     0.038 A 
ATOM      3  C   UNL d   1      -2.287   3.797  -2.429  0.00  0.00     0.012 A 
ATOM      4  C   UNL d   1      -3.888   2.456  -3.617  0.00  0.00     0.012 A 
ATOM      5  C   UNL d   1      -1.683   2.644  -1.925  0.00  0.00     0.028 A 
ATOM      6  C   UNL d   1      -3.295   1.294  -3.119  0.00  0.00     0.028 A 
ATOM      7 BR   UNL d   1      -1.604   5.495  -1.956  0.00  0.00    -0.051 Br
ATOM      8 BR   UNL d   1      -5.385   2.318  -4.763  0.00  0.00    -0.051 Br
ENDROOT
BRANCH   1   9
ATOM      9  C   UNL d   1      -1.543   0.119  -1.722  0.00  0.00     0.311 C 
BRANCH   9  10
ATOM     10  N   UNL d   1      -1.502   0.053  -0.252  0.00  0.00     0.096 N 
ATOM     11  C   UNL d   1      -2.843   0.059   0.376  0.00  0.00     0.299 C 
ATOM     12  C   UNL d   1      -3.639  -1.238   0.161  0.00  0.00     0.198 C 
ATOM     13  O   UNL d   1      -2.908  -2.381   0.622  0.00  0.00    -0.388 OA
ATOM     14  C   UNL d   1      -1.625  -2.466  -0.009  0.00  0.00     0.198 C 
ATOM     15  C   UNL d   1      -0.806  -1.177   0.196  0.00  0.00     0.299 C 
ENDBRANCH   9  10
ENDBRANCH   1   9
TORSDOF 2
