REMARK  7 active torsions:
REMARK  status: ('A' for Active; 'I' for Inactive)
REMARK    1  A    between atoms: N_2  and  C_1 
REMARK    2  A    between atoms: O_8  and  C_4 
REMARK    3  A    between atoms: C_5  and  C_6 
REMARK    4  A    between atoms: N_14  and  C_5 
REMARK    5  A    between atoms: C_15  and  O_8 
REMARK    6  A    between atoms: O_17  and  N_10 
REMARK    7  A    between atoms: O_22  and  C_16 
ROOT
ATOM      1  C   UNL d   1       0.645  -5.063  -0.117  0.00  0.00     0.137 A 
ATOM      2  C   UNL d   1       0.162  -3.746  -0.154  0.00  0.00     0.053 A 
ATOM      3  C   UNL d   1      -0.214  -6.158   0.011  0.00  0.00     0.109 A 
ATOM      4  C   UNL d   1      -1.218  -3.532  -0.086  0.00  0.00     0.006 A 
ATOM      5  C   UNL d   1      -1.595  -5.928  -0.024  0.00  0.00     0.041 A 
ATOM      6  C   UNL d   1      -2.092  -4.623  -0.047  0.00  0.00     0.018 A 
ENDROOT
BRANCH   3   7
ATOM      7  O   UNL d   1       0.317  -7.420   0.184  0.00  0.00    -0.308 OA
BRANCH   7   8
ATOM      8  C   UNL d   1      -0.374  -8.291   0.998  0.00  0.00     0.076 A 
ATOM      9  C   UNL d   1      -0.558  -9.588   0.524  0.00  0.00     0.040 A 
ATOM     10  C   UNL d   1      -1.355 -10.484   1.241  0.00  0.00     0.039 A 
ATOM     11  C   UNL d   1      -1.964 -10.080   2.431  0.00  0.00     0.068 A 
ATOM     12  C   UNL d   1      -1.695  -8.813   2.950  0.00  0.00     0.039 A 
ATOM     13  C   UNL d   1      -0.888  -7.920   2.245  0.00  0.00     0.040 A 
BRANCH  11  14
ATOM     14  O   UNL d   1      -2.818 -10.847   3.175  0.00  0.00    -0.356 OA
ATOM     15  C   UNL d   1      -3.574 -11.800   2.432  0.00  0.00     0.210 C 
ENDBRANCH  11  14
ENDBRANCH   7   8
ENDBRANCH   3   7
BRANCH   1  16
ATOM     16  N   UNL d   1       2.078  -5.271  -0.203  0.00  0.00    -0.113 N 
ATOM     17  O   UNL d   1       2.789  -4.613   0.569  0.00  0.00    -0.532 OA
ATOM     18  O   UNL d   1       2.492  -6.042  -1.079  0.00  0.00    -0.532 OA
ENDBRANCH   1  16
BRANCH   4  19
ATOM     19  C   UNL d   1      -1.772  -2.150  -0.001  0.00  0.00     0.108 C 
ATOM     20  N   UNL d   1      -2.921  -1.984   0.588  0.00  0.00    -0.258 N 
ATOM     21  HN  UNL d   1      -3.474  -2.737   0.997  1.00  0.00     0.195 HD
BRANCH  20  22
ATOM     22  O   UNL d   1      -3.298  -0.631   0.587  0.00  0.00    -0.289 OA
ATOM     23  H   UNL d   1      -4.090  -0.643   1.157  0.00  0.00     0.244 HD
ENDBRANCH  20  22
BRANCH  19  24
ATOM     24  N   UNL d   1      -1.056  -1.104  -0.531  0.00  0.00    -0.287 NA
ATOM     25  H   UNL d   1      -0.667  -1.272  -1.452  0.00  0.00     0.125 HD
ATOM     26  H   UNL d   1      -1.638  -0.269  -0.523  0.00  0.00     0.125 HD
ENDBRANCH  19  24
ENDBRANCH   4  19
TORSDOF 7
