REMARK  7 active torsions:
REMARK  status: ('A' for Active; 'I' for Inactive)
REMARK    1  A    between atoms: N_10  and  C_3 
REMARK    2  A    between atoms: C_8  and  C_7 
REMARK    3  A    between atoms: C_13  and  C_7 
REMARK    4  A    between atoms: C_11  and  C_9 
REMARK    5  A    between atoms: C_16  and  C_9 
REMARK    6  A    between atoms: C_12  and  C_11 
REMARK    7  A    between atoms: C_15  and  C_12 
ROOT
ATOM      1  N   UNL d   1      -0.433   1.631   0.835  0.00  0.00    -0.303 N 
ATOM      2  HN  UNL d   1      -0.936   2.468   0.541  1.00  0.00     0.171 HD
ATOM      3  C   UNL d   1       0.857   1.550   0.864  0.00  0.00     0.150 C 
ATOM      4  C   UNL d   1      -0.099  -0.677   1.316  0.00  0.00     0.087 C 
ATOM      5  S   UNL d   1       1.492   0.003   1.393  0.00  0.00    -0.048 SA
ATOM      6  C   UNL d   1      -1.058   0.477   1.241  0.00  0.00     0.265 C 
ATOM      7  C   UNL d   1      -0.454  -1.982   1.219  0.00  0.00    -0.003 C 
ATOM      8  O   UNL d   1      -2.244   0.406   1.528  0.00  0.00    -0.267 OA
ENDROOT
BRANCH   7   9
ATOM      9  C   UNL d   1      -1.848  -2.318   0.845  0.00  0.00     0.022 C 
ATOM     10  C   UNL d   1      -2.659  -3.249   1.403  0.00  0.00    -0.040 C 
BRANCH  10  11
ATOM     11  C   UNL d   1      -2.294  -3.965   2.690  0.00  0.00     0.123 C 
BRANCH  11  12
ATOM     12  C   UNL d   1      -3.407  -4.061   3.731  0.00  0.00     0.163 C 
ATOM     13  O   UNL d   1      -4.013  -5.122   3.910  0.00  0.00    -0.292 OA
BRANCH  12  14
ATOM     14  C   UNL d   1      -3.716  -2.902   4.624  0.00  0.00     0.010 A 
ATOM     15  C   UNL d   1      -3.292  -1.598   4.358  0.00  0.00     0.016 A 
ATOM     16  C   UNL d   1      -3.598  -0.559   5.243  0.00  0.00     0.020 A 
ATOM     17  C   UNL d   1      -4.326  -0.823   6.405  0.00  0.00     0.011 A 
ATOM     18  C   UNL d   1      -4.757  -2.116   6.683  0.00  0.00     0.020 A 
ATOM     19 BR   UNL d   1      -4.731   0.581   7.604  0.00  0.00    -0.051 Br
ATOM     20  C   UNL d   1      -4.457  -3.151   5.792  0.00  0.00     0.016 A 
ENDBRANCH  12  14
ENDBRANCH  11  12
ENDBRANCH  10  11
BRANCH  10  21
ATOM     21  C   UNL d   1      -3.881  -3.685   0.654  0.00  0.00    -0.029 A 
ATOM     22  C   UNL d   1      -4.331  -5.013   0.725  0.00  0.00     0.012 A 
ATOM     23  C   UNL d   1      -5.449  -5.454   0.006  0.00  0.00     0.001 A 
ATOM     24  C   UNL d   1      -6.136  -4.568  -0.820  0.00  0.00     0.000 A 
ATOM     25  C   UNL d   1      -5.712  -3.251  -0.916  0.00  0.00     0.001 A 
ATOM     26  C   UNL d   1      -4.602  -2.810  -0.181  0.00  0.00     0.012 A 
ENDBRANCH  10  21
ENDBRANCH   7   9
BRANCH   7  27
ATOM     27  C   UNL d   1       0.544  -3.108   1.229  0.00  0.00    -0.024 A 
ATOM     28  C   UNL d   1       1.547  -3.252   2.199  0.00  0.00     0.013 A 
ATOM     29  C   UNL d   1       2.374  -4.385   2.212  0.00  0.00     0.020 A 
ATOM     30  C   UNL d   1       2.184  -5.400   1.276  0.00  0.00     0.011 A 
ATOM     31  C   UNL d   1       1.200  -5.279   0.304  0.00  0.00     0.020 A 
ATOM     32 BR   UNL d   1       3.244  -6.962   1.342  0.00  0.00    -0.051 Br
ATOM     33  C   UNL d   1       0.402  -4.135   0.273  0.00  0.00     0.013 A 
ENDBRANCH   7  27
BRANCH   3  34
ATOM     34  N   UNL d   1       1.697   2.556   0.474  0.00  0.00    -0.361 N 
ATOM     35  C   UNL d   1       3.126   2.653   0.700  0.00  0.00     0.125 C 
ATOM     36  C   UNL d   1       3.393   4.147   0.560  0.00  0.00     0.021 C 
ATOM     37  C   UNL d   1       2.429   4.580  -0.532  0.00  0.00     0.021 C 
ATOM     38  C   UNL d   1       1.233   3.642  -0.386  0.00  0.00     0.125 C 
ENDBRANCH   3  34
TORSDOF 7
