REMARK  8 active torsions:
REMARK  status: ('A' for Active; 'I' for Inactive)
REMARK    1  A    between atoms: N_10  and  C_1 
REMARK    2  A    between atoms: C_3  and  S_18 
REMARK       I    between atoms: C_15  and  N_10 
REMARK    3  A    between atoms: C_14  and  C_11 
REMARK    4  A    between atoms: C_17  and  C_14 
REMARK    5  A    between atoms: C_21  and  C_15 
REMARK    6  A    between atoms: O_22  and  C_17 
REMARK    7  A    between atoms: S_18  and  C_21 
REMARK    8  A    between atoms: C_24  and  O_22 
ROOT
ATOM      1  N   UNL d   1       0.219  -2.645   0.091  0.00  0.00    -0.306 N 
ATOM      2  C   UNL d   1       1.260  -3.520   0.305  0.00  0.00     0.233 C 
ATOM      3  O   UNL d   1       2.422  -3.221   0.576  0.00  0.00    -0.272 OA
ATOM      4  H   UNL d   1      -0.716  -2.974  -0.096  0.00  0.00     0.171 HD
ENDROOT
BRANCH   1   5
ATOM      5  C   UNL d   1       0.414  -1.292   0.065  0.00  0.00     0.151 A 
ATOM      6  N   UNL d   1       1.534  -0.630   0.165  0.00  0.00    -0.339 N 
ATOM      7  C   UNL d   1       1.294   0.729   0.044  0.00  0.00     0.027 A 
ATOM      8  HN  UNL d   1       2.452  -1.051   0.310  1.00  0.00     0.168 HD
ATOM      9  C   UNL d   1      -0.044   1.062  -0.075  0.00  0.00     0.078 A 
ATOM     10  S   UNL d   1      -1.001  -0.364  -0.129  0.00  0.00    -0.064 SA
BRANCH   7  11
ATOM     11  C   UNL d   1       2.468   1.650   0.080  0.00  0.00     0.168 C 
BRANCH  11  12
ATOM     12  C   UNL d   1       2.666   2.389  -1.222  0.00  0.00     0.264 C 
ATOM     13  O   UNL d   1       1.851   2.491  -2.129  0.00  0.00    -0.265 OA
BRANCH  12  14
ATOM     14  O   UNL d   1       3.913   2.947  -1.232  0.00  0.00    -0.322 OA
BRANCH  14  15
ATOM     15  C   UNL d   1       4.355   3.462  -2.496  0.00  0.00     0.174 C 
ATOM     16  C   UNL d   1       5.086   2.354  -3.232  0.00  0.00     0.034 C 
ENDBRANCH  14  15
ENDBRANCH  12  14
ENDBRANCH  11  12
ENDBRANCH   7  11
ENDBRANCH   1   5
BRANCH   2  17
ATOM     17  C   UNL d   1       0.860  -4.980   0.233  0.00  0.00     0.184 C 
BRANCH  17  18
ATOM     18  S   UNL d   1       0.320  -5.465  -1.421  0.00  0.00    -0.094 SA
BRANCH  18  19
ATOM     19  C   UNL d   1       1.682  -5.048  -2.443  0.00  0.00     0.128 A 
ATOM     20  S   UNL d   1       3.342  -5.206  -2.043  0.00  0.00    -0.050 SA
ATOM     21  C   UNL d   1       3.704  -4.594  -3.607  0.00  0.00     0.065 A 
ATOM     22  C   UNL d   1       5.102  -4.375  -4.056  0.00  0.00     0.078 C 
ATOM     23  N   UNL d   1       2.642  -4.361  -4.349  0.00  0.00    -0.297 N 
ATOM     24  N   UNL d   1       1.468  -4.630  -3.672  0.00  0.00    -0.287 N 
ATOM     25  HN  UNL d   1       2.681  -4.022  -5.310  1.00  0.00     0.187 HD
ATOM     26  HN  UNL d   1       0.540  -4.517  -4.080  1.00  0.00     0.188 HD
ENDBRANCH  18  19
ENDBRANCH  17  18
ENDBRANCH   2  17
TORSDOF 8
