REMARK  6 active torsions:
REMARK  status: ('A' for Active; 'I' for Inactive)
REMARK    1  A    between atoms: N_7  and  C_1 
REMARK    2  A    between atoms: C_10  and  C_2 
REMARK    3  A    between atoms: S_3  and  N_7 
REMARK    4  A    between atoms: C_9  and  S_3 
REMARK    5  A    between atoms: C_19  and  N_4 
REMARK    6  A    between atoms: O_21  and  C_10 
ROOT
ATOM      1  C   UNL d   1       0.075  -1.408   0.264  0.00  0.00     0.100 A 
ATOM      2  C   UNL d   1       1.313  -0.801   0.426  0.00  0.00     0.155 A 
ATOM      3  N   UNL d   1       1.060   0.551   0.342  0.00  0.00    -0.285 N 
ATOM      4  N   UNL d   1      -0.250   0.849   0.283  0.00  0.00    -0.300 N 
ATOM      5  HN  UNL d   1      -0.680   1.774   0.282  1.00  0.00     0.187 HD
ATOM      6  C   UNL d   1      -0.862  -0.338   0.227  0.00  0.00     0.052 A 
ATOM      7  C   UNL d   1      -2.336  -0.381   0.050  0.00  0.00     0.072 C 
ENDROOT
BRANCH   1   8
ATOM      8  N   UNL d   1      -0.205  -2.758   0.042  0.00  0.00    -0.276 N 
ATOM      9  H   UNL d   1       0.147  -3.205  -0.806  0.00  0.00     0.179 HD
BRANCH   8  10
ATOM     10  S   UNL d   1      -0.905  -3.820   1.127  0.00  0.00     0.263 S 
ATOM     11  O   UNL d   1      -1.980  -3.159   1.838  0.00  0.00    -0.200 OA
ATOM     12  O   UNL d   1      -1.128  -5.053   0.407  0.00  0.00    -0.200 OA
BRANCH  10  13
ATOM     13  C   UNL d   1       0.412  -4.121   2.289  0.00  0.00     0.081 A 
ATOM     14  C   UNL d   1       1.323  -5.160   2.041  0.00  0.00     0.052 A 
ATOM     15  C   UNL d   1       2.353  -5.391   2.954  0.00  0.00     0.074 A 
ATOM     16 CL   UNL d   1       3.512  -6.621   2.627  0.00  0.00    -0.081 Cl
ATOM     17  C   UNL d   1       2.451  -4.615   4.110  0.00  0.00     0.138 A 
ATOM     18  C   UNL d   1       1.520  -3.609   4.369  0.00  0.00     0.045 A 
ATOM     19  F   UNL d   1       3.441  -4.820   4.990  0.00  0.00    -0.204 F 
ATOM     20  C   UNL d   1       0.493  -3.362   3.458  0.00  0.00     0.028 A 
ENDBRANCH  10  13
ENDBRANCH   8  10
ENDBRANCH   1   8
BRANCH   2  21
ATOM     21  C   UNL d   1       2.626  -1.352   0.631  0.00  0.00     0.313 C 
ATOM     22  O   UNL d   1       3.558  -0.767   1.169  0.00  0.00    -0.257 OA
BRANCH  21  23
ATOM     23  O   UNL d   1       2.702  -2.619   0.136  0.00  0.00    -0.321 OA
ATOM     24  C   UNL d   1       4.003  -3.200   0.260  0.00  0.00     0.213 C 
ENDBRANCH  21  23
ENDBRANCH   2  21
BRANCH   3  25
ATOM     25  C   UNL d   1       2.009   1.624   0.077  0.00  0.00     0.145 C 
ATOM     26  C   UNL d   1       1.928   2.774   1.065  0.00  0.00     0.028 C 
ENDBRANCH   3  25
TORSDOF 6
