REMARK  5 active torsions:
REMARK  status: ('A' for Active; 'I' for Inactive)
REMARK    1  A    between atoms: N_3  and  C_1 
REMARK       I    between atoms: C_2  and  N_4 
REMARK    2  A    between atoms: C_9  and  C_2 
REMARK    3  A    between atoms: N_4  and  N_3 
REMARK    4  A    between atoms: S_7  and  C_9 
REMARK    5  A    between atoms: C_10  and  S_7 
ROOT
ATOM      1  C   UNL d   1      -0.013   1.571  -3.468  0.00  0.00     0.245 C 
ATOM      2  N   UNL d   1      -1.022   0.675  -3.765  0.00  0.00    -0.267 N 
ATOM      3  O   UNL d   1       0.278   1.885  -2.316  0.00  0.00    -0.271 OA
ATOM      4  H   UNL d   1      -1.334   0.523  -4.723  0.00  0.00     0.190 HD
ENDROOT
BRANCH   1   5
ATOM      5  C   UNL d   1       0.776   2.054  -4.676  0.00  0.00     0.184 C 
BRANCH   5   6
ATOM      6  S   UNL d   1      -0.343   2.595  -6.018  0.00  0.00    -0.121 SA
BRANCH   6   7
ATOM      7  C   UNL d   1       0.855   3.061  -7.255  0.00  0.00     0.001 A 
ATOM      8  C   UNL d   1       0.818   2.444  -8.509  0.00  0.00     0.018 A 
ATOM      9  C   UNL d   1       1.737   2.804  -9.499  0.00  0.00     0.001 A 
ATOM     10  C   UNL d   1       2.689   3.790  -9.243  0.00  0.00     0.000 A 
ATOM     11  C   UNL d   1       2.717   4.421  -8.001  0.00  0.00     0.001 A 
ATOM     12  C   UNL d   1       1.799   4.062  -7.012  0.00  0.00     0.018 A 
ENDBRANCH   6   7
ENDBRANCH   5   6
ENDBRANCH   1   5
BRANCH   2  13
ATOM     13  N   UNL d   1      -1.851   0.203  -2.741  0.00  0.00    -0.274 N 
ATOM     14  H   UNL d   1      -1.683   0.606  -1.825  0.00  0.00     0.189 HD
BRANCH  13  15
ATOM     15  C   UNL d   1      -2.672  -0.870  -2.951  0.00  0.00     0.186 C 
ATOM     16  S   UNL d   1      -2.866  -1.645  -4.427  0.00  0.00    -0.040 SA
ATOM     17  N   UNL d   1      -3.402  -1.331  -1.904  0.00  0.00    -0.370 N 
ATOM     18  C   UNL d   1      -3.462  -0.883  -0.529  0.00  0.00     0.148 C 
ATOM     19  H   UNL d   1      -4.002  -2.112  -2.147  0.00  0.00     0.161 HD
ENDBRANCH  13  15
ENDBRANCH   2  13
TORSDOF 5
