REMARK  6 active torsions:
REMARK  status: ('A' for Active; 'I' for Inactive)
REMARK    1  A    between atoms: N_6  and  C_1 
REMARK    2  A    between atoms: C_7  and  C_2 
REMARK       I    between atoms: C_8  and  N_6 
REMARK    3  A    between atoms: O_14  and  C_7 
REMARK    4  A    between atoms: C_10  and  C_8 
REMARK    5  A    between atoms: N_9  and  C_10 
REMARK    6  A    between atoms: C_21  and  O_14 
ROOT
ATOM      1  C   UNL d   1      -2.078  -1.006   0.287  0.00  0.00     0.094 A 
ATOM      2  C   UNL d   1      -0.989  -1.840   0.033  0.00  0.00     0.080 A 
ATOM      3  S   UNL d   1      -1.598   0.608   0.537  0.00  0.00    -0.075 SA
ATOM      4  C   UNL d   1       0.263  -1.083   0.055  0.00  0.00    -0.026 A 
ATOM      5  C   UNL d   1       0.029   0.263   0.262  0.00  0.00    -0.008 A 
ATOM      6  C   UNL d   1       1.671  -1.587  -0.151  0.00  0.00     0.041 C 
ATOM      7  C   UNL d   1       1.060   1.347   0.297  0.00  0.00     0.047 C 
ATOM      8  C   UNL d   1       2.726  -0.562   0.302  0.00  0.00     0.005 C 
ATOM      9  C   UNL d   1       2.408   0.840  -0.226  0.00  0.00     0.005 C 
ENDROOT
BRANCH   1  10
ATOM     10  N   UNL d   1      -3.435  -1.331   0.311  0.00  0.00    -0.319 N 
ATOM     11  C   UNL d   1      -4.468  -0.512   0.750  0.00  0.00     0.251 C 
ATOM     12  O   UNL d   1      -4.361   0.584   1.293  0.00  0.00    -0.271 OA
ATOM     13  H   UNL d   1      -3.696  -2.287   0.063  0.00  0.00     0.169 HD
BRANCH  11  14
ATOM     14  C   UNL d   1      -5.880  -1.033   0.447  0.00  0.00     0.375 C 
BRANCH  14  15
ATOM     15  N   UNL d   1      -6.002  -2.507   0.462  0.00  0.00     0.101 N 
ATOM     16  C   UNL d   1      -5.812  -3.084   1.816  0.00  0.00     0.299 C 
ATOM     17  C   UNL d   1      -6.996  -2.907   2.784  0.00  0.00     0.198 C 
ATOM     18  O   UNL d   1      -8.212  -3.400   2.214  0.00  0.00    -0.388 OA
ATOM     19  C   UNL d   1      -8.496  -2.720   0.989  0.00  0.00     0.198 C 
ATOM     20  C   UNL d   1      -7.351  -2.905  -0.027  0.00  0.00     0.299 C 
ENDBRANCH  14  15
ENDBRANCH  11  14
ENDBRANCH   1  10
BRANCH   2  21
ATOM     21  C   UNL d   1      -1.137  -3.284  -0.169  0.00  0.00     0.296 C 
ATOM     22  O   UNL d   1      -2.216  -3.866  -0.086  0.00  0.00    -0.259 OA
BRANCH  21  23
ATOM     23  O   UNL d   1       0.054  -3.915  -0.373  0.00  0.00    -0.318 OA
BRANCH  23  24
ATOM     24  C   UNL d   1       0.097  -5.312  -0.055  0.00  0.00     0.174 C 
ATOM     25  C   UNL d   1       0.359  -5.448   1.435  0.00  0.00     0.034 C 
ENDBRANCH  23  24
ENDBRANCH  21  23
ENDBRANCH   2  21
TORSDOF 6
