REMARK  3 active torsions:
REMARK  status: ('A' for Active; 'I' for Inactive)
REMARK       I    between atoms: N_2  and  C_1 
REMARK       I    between atoms: N_3  and  C_1 
REMARK    1  A    between atoms: C_7  and  N_2 
REMARK    2  A    between atoms: C_8  and  N_3 
REMARK    3  A    between atoms: C_9  and  C_8 
ROOT
ATOM      1  C   UNL d   1       0.924  -0.043   0.106  0.00  0.00     0.317 C 
ATOM      2  N   UNL d   1       0.292   1.073  -0.377  0.00  0.00    -0.335 N 
ATOM      3  N   UNL d   1       0.045  -0.997   0.539  0.00  0.00    -0.339 N 
ATOM      4  O   UNL d   1       2.139  -0.185   0.153  0.00  0.00    -0.247 OA
ATOM      5  H   UNL d   1      -0.717   1.087  -0.357  0.00  0.00     0.165 HD
ATOM      6  H   UNL d   1      -0.945  -0.824   0.498  0.00  0.00     0.164 HD
ENDROOT
BRANCH   3   7
ATOM      7  C   UNL d   1       0.501  -2.248   1.107  0.00  0.00     0.163 C 
BRANCH   7   8
ATOM      8  C   UNL d   1      -0.012  -2.424   2.511  0.00  0.00    -0.038 A 
ATOM      9  C   UNL d   1      -0.872  -3.474   2.842  0.00  0.00     0.025 A 
ATOM     10  C   UNL d   1      -1.316  -3.582   4.151  0.00  0.00     0.088 A 
ATOM     11  N   UNL d   1      -0.966  -2.730   5.137  0.00  0.00    -0.375 N 
ATOM     12  C   UNL d   1      -0.123  -1.730   4.802  0.00  0.00     0.088 A 
ATOM     13  HN  UNL d   1      -1.321  -2.836   6.088  1.00  0.00     0.164 HD
ATOM     14  C   UNL d   1       0.377  -1.541   3.524  0.00  0.00     0.025 A 
ENDBRANCH   7   8
ENDBRANCH   3   7
BRANCH   2  15
ATOM     15  C   UNL d   1       0.992   2.256  -0.907  0.00  0.00     0.023 C 
ATOM     16  C   UNL d   1       1.834   1.887  -2.141  0.00  0.00     0.037 C 
ATOM     17  C   UNL d   1      -0.051   3.306  -1.335  0.00  0.00     0.037 C 
ATOM     18  C   UNL d   1       1.888   2.893   0.169  0.00  0.00     0.037 C 
ENDBRANCH   2  15
TORSDOF 3
