REMARK  9 active torsions:
REMARK  status: ('A' for Active; 'I' for Inactive)
REMARK    1  A    between atoms: C_16  and  C_2 
REMARK    2  A    between atoms: S_13  and  C_5 
REMARK    3  A    between atoms: C_8  and  O_14 
REMARK    4  A    between atoms: C_9  and  C_8 
REMARK    5  A    between atoms: C_10  and  C_23 
REMARK    6  A    between atoms: N_29  and  C_10 
REMARK    7  A    between atoms: O_14  and  N_11 
REMARK    8  A    between atoms: C_23  and  S_13 
REMARK    9  A    between atoms: C_17  and  C_18 
ROOT
ATOM      1  N   UNL d   1       7.259  -5.715  -0.395  0.00  0.00    -0.315 N 
ATOM      2  C   UNL d   1       8.441  -6.432  -0.313  0.00  0.00     0.134 A 
ATOM      3  N   UNL d   1       8.124  -7.718  -0.277  0.00  0.00    -0.283 N 
ATOM      4  HN  UNL d   1       8.789  -8.492  -0.277  1.00  0.00     0.188 HD
ATOM      5  C   UNL d   1       6.249  -6.636  -0.294  0.00  0.00     0.163 A 
ATOM      6  N   UNL d   1       6.753  -7.843  -0.240  0.00  0.00    -0.278 N 
ATOM      7  HN  UNL d   1       6.227  -8.715  -0.181  1.00  0.00     0.189 HD
ATOM      8  C   UNL d   1       7.081  -4.300  -0.592  0.00  0.00     0.160 C 
ENDROOT
BRANCH   5   9
ATOM      9  S   UNL d   1       4.569  -6.219  -0.309  0.00  0.00    -0.085 SA
BRANCH   9  10
ATOM     10  C   UNL d   1       3.972  -7.113   1.158  0.00  0.00     0.160 C 
BRANCH  10  11
ATOM     11  C   UNL d   1       2.453  -6.925   1.286  0.00  0.00     0.105 C 
ATOM     12  N   UNL d   1       2.014  -6.275   2.322  0.00  0.00    -0.245 N 
ATOM     13  HN  UNL d   1       2.615  -5.886   3.049  1.00  0.00     0.196 HD
BRANCH  12  14
ATOM     14  O   UNL d   1       0.600  -6.170   2.320  0.00  0.00    -0.193 OA
BRANCH  14  15
ATOM     15  C   UNL d   1       0.172  -5.481   3.438  0.00  0.00     0.322 C 
ATOM     16  O   UNL d   1       0.900  -5.058   4.329  0.00  0.00    -0.257 OA
BRANCH  15  17
ATOM     17  C   UNL d   1      -1.276  -5.305   3.444  0.00  0.00     0.082 A 
ATOM     18  S   UNL d   1      -2.305  -5.897   2.208  0.00  0.00    -0.096 SA
ATOM     19  C   UNL d   1      -3.707  -5.277   2.971  0.00  0.00     0.050 A 
ATOM     20  C   UNL d   1      -3.413  -4.634   4.150  0.00  0.00     0.009 A 
ATOM     21  C   UNL d   1      -2.013  -4.649   4.423  0.00  0.00     0.026 A 
ENDBRANCH  15  17
ENDBRANCH  14  15
ENDBRANCH  12  14
BRANCH  11  22
ATOM     22  N   UNL d   1       1.645  -7.471   0.315  0.00  0.00    -0.387 N 
ATOM     23  H   UNL d   1       2.029  -8.201  -0.275  0.00  0.00     0.157 HD
ATOM     24  H   UNL d   1       0.669  -7.575   0.562  0.00  0.00     0.157 HD
ENDBRANCH  11  22
ENDBRANCH  10  11
ENDBRANCH   9  10
ENDBRANCH   5   9
BRANCH   2  25
ATOM     25  C   UNL d   1       9.813  -5.900  -0.289  0.00  0.00     0.009 A 
ATOM     26  C   UNL d   1      10.146  -4.718   0.378  0.00  0.00     0.016 A 
ATOM     27  C   UNL d   1      11.453  -4.212   0.352  0.00  0.00     0.009 A 
ATOM     28  C   UNL d   1      12.494  -4.890  -0.306  0.00  0.00    -0.051 A 
ATOM     29  C   UNL d   1      12.166  -6.108  -0.920  0.00  0.00     0.009 A 
ATOM     30  C   UNL d   1      10.849  -6.603  -0.916  0.00  0.00     0.016 A 
BRANCH  28  31
ATOM     31  C   UNL d   1      13.911  -4.288  -0.333  0.00  0.00    -0.024 C 
ATOM     32  C   UNL d   1      14.947  -5.177  -1.056  0.00  0.00     0.019 C 
ATOM     33  C   UNL d   1      13.878  -2.929  -1.068  0.00  0.00     0.019 C 
ATOM     34  C   UNL d   1      14.429  -4.062   1.105  0.00  0.00     0.019 C 
ENDBRANCH  28  31
ENDBRANCH   2  25
TORSDOF 9
