REMARK  5 active torsions:
REMARK  status: ('A' for Active; 'I' for Inactive)
REMARK       I    between atoms: C_7  and  N_1 
REMARK    1  A    between atoms: C_8  and  C_2 
REMARK    2  A    between atoms: C_9  and  C_6 
REMARK    3  A    between atoms: C_11  and  C_7 
REMARK    4  A    between atoms: O_19  and  C_8 
REMARK    5  A    between atoms: C_24  and  O_19 
ROOT
ATOM      1  N   UNL d   1       0.902  -0.756   0.065  0.00  0.00    -0.213 N 
ATOM      2  C   UNL d   1      -0.386  -1.246   0.076  0.00  0.00     0.137 A 
ATOM      3  N   UNL d   1       0.921   0.608   0.088  0.00  0.00    -0.289 N 
ATOM      4  HN  UNL d   1       1.740   1.215   0.117  1.00  0.00     0.188 HD
ATOM      5  C   UNL d   1      -1.214  -0.137   0.086  0.00  0.00     0.070 A 
ATOM      6  C   UNL d   1      -0.360   0.978   0.063  0.00  0.00     0.068 A 
ATOM      7  C   UNL d   1       2.138  -1.430  -0.058  0.00  0.00     0.277 C 
ATOM      8  O   UNL d   1       2.154  -2.507  -0.642  0.00  0.00    -0.265 OA
ENDROOT
BRANCH   2   9
ATOM      9  C   UNL d   1      -0.730  -2.636   0.090  0.00  0.00     0.312 C 
ATOM     10  O   UNL d   1      -0.071  -3.542   0.577  0.00  0.00    -0.258 OA
BRANCH   9  11
ATOM     11  O   UNL d   1      -1.920  -2.789  -0.552  0.00  0.00    -0.317 OA
BRANCH  11  12
ATOM     12  C   UNL d   1      -2.188  -4.107  -1.043  0.00  0.00     0.175 C 
ATOM     13  C   UNL d   1      -1.611  -4.200  -2.444  0.00  0.00     0.034 C 
ENDBRANCH  11  12
ENDBRANCH   9  11
ENDBRANCH   2   9
BRANCH   7  14
ATOM     14  C   UNL d   1       3.415  -0.850   0.452  0.00  0.00     0.034 A 
ATOM     15  C   UNL d   1       3.420  -0.030   1.592  0.00  0.00     0.019 A 
ATOM     16  C   UNL d   1       4.614   0.520   2.059  0.00  0.00     0.025 A 
ATOM     17  C   UNL d   1       5.808   0.238   1.399  0.00  0.00     0.034 A 
ATOM     18  C   UNL d   1       5.818  -0.599   0.283  0.00  0.00     0.025 A 
ATOM     19 CL   UNL d   1       7.276   0.928   1.970  0.00  0.00    -0.084 Cl
ATOM     20  C   UNL d   1       4.622  -1.151  -0.189  0.00  0.00     0.019 A 
ENDBRANCH   7  14
BRANCH   6  21
ATOM     21  C   UNL d   1      -0.754   2.422   0.020  0.00  0.00     0.033 A 
ATOM     22  S   UNL d   1      -2.354   2.998   0.176  0.00  0.00    -0.100 SA
ATOM     23  C   UNL d   1      -1.850   4.626   0.026  0.00  0.00     0.050 A 
ATOM     24  C   UNL d   1      -0.490   4.730  -0.170  0.00  0.00     0.008 A 
ATOM     25  C   UNL d   1       0.145   3.454  -0.165  0.00  0.00     0.021 A 
ENDBRANCH   6  21
TORSDOF 5
