REMARK  5 active torsions:
REMARK  status: ('A' for Active; 'I' for Inactive)
REMARK    1  A    between atoms: C_10  and  C_2 
REMARK    2  A    between atoms: N_19  and  C_10 
REMARK    3  A    between atoms: O_17  and  N_11 
REMARK    4  A    between atoms: C_13  and  O_17 
REMARK       I    between atoms: N_16  and  C_13 
REMARK    5  A    between atoms: C_20  and  N_16 
ROOT
ATOM      1  C   UNL d   1      -3.537  -1.325   0.170  0.00  0.00     0.109 C 
ATOM      2  N   UNL d   1      -3.669  -2.603   0.412  0.00  0.00    -0.244 N 
ATOM      3  HN  UNL d   1      -4.510  -3.067   0.757  1.00  0.00     0.196 HD
ENDROOT
BRANCH   1   4
ATOM      4  C   UNL d   1      -4.693  -0.390   0.378  0.00  0.00     0.006 A 
ATOM      5  C   UNL d   1      -4.717   0.801  -0.386  0.00  0.00     0.048 A 
ATOM      6  C   UNL d   1      -5.781   1.669  -0.090  0.00  0.00     0.086 A 
ATOM      7  C   UNL d   1      -6.788   1.358   0.911  0.00  0.00     0.085 A 
ATOM      8  N   UNL d   1      -6.064   2.867  -0.615  0.00  0.00    -0.240 N 
ATOM      9  N   UNL d   1      -7.653   2.377   0.970  0.00  0.00    -0.240 N 
ATOM     10  C   UNL d   1      -6.768   0.156   1.647  0.00  0.00     0.035 A 
ATOM     11  O   UNL d   1      -7.208   3.301   0.036  0.00  0.00    -0.156 OA
ATOM     12  HN  UNL d   1      -8.469   2.458   1.575  1.00  0.00     0.197 HD
ATOM     13  C   UNL d   1      -5.689  -0.704   1.345  0.00  0.00     0.017 A 
ATOM     14  HN  UNL d   1      -5.545   3.359  -1.342  1.00  0.00     0.197 HD
ENDBRANCH   1   4
BRANCH   1  15
ATOM     15  N   UNL d   1      -2.351  -0.774  -0.269  0.00  0.00    -0.286 NA
ATOM     16  H   UNL d   1      -2.111   0.138   0.106  0.00  0.00     0.125 HD
ATOM     17  H   UNL d   1      -1.572  -1.425  -0.201  0.00  0.00     0.125 HD
ENDBRANCH   1  15
BRANCH   2  18
ATOM     18  O   UNL d   1      -2.431  -3.230   0.109  0.00  0.00    -0.179 OA
BRANCH  18  19
ATOM     19  C   UNL d   1      -2.413  -4.604   0.240  0.00  0.00     0.387 C 
ATOM     20  N   UNL d   1      -3.572  -5.148   0.730  0.00  0.00    -0.301 N 
ATOM     21  H   UNL d   1      -4.278  -4.447   0.920  0.00  0.00     0.171 HD
ATOM     22  O   UNL d   1      -1.387  -5.207  -0.058  0.00  0.00    -0.236 OA
BRANCH  20  23
ATOM     23  C   UNL d   1      -3.837  -6.506   0.995  0.00  0.00     0.036 A 
ATOM     24  C   UNL d   1      -2.932  -7.539   0.724  0.00  0.00     0.029 A 
ATOM     25  C   UNL d   1      -3.252  -8.868   1.013  0.00  0.00     0.002 A 
ATOM     26  C   UNL d   1      -4.482  -9.184   1.579  0.00  0.00     0.000 A 
ATOM     27  C   UNL d   1      -5.393  -8.166   1.855  0.00  0.00     0.002 A 
ATOM     28  C   UNL d   1      -5.073  -6.834   1.561  0.00  0.00     0.029 A 
ENDBRANCH  20  23
ENDBRANCH  18  19
ENDBRANCH   2  18
TORSDOF 5
