REMARK  3 active torsions:
REMARK  status: ('A' for Active; 'I' for Inactive)
REMARK    1  A    between atoms: C_2  and  S_1 
REMARK    2  A    between atoms: C_4  and  S_1 
REMARK    3  A    between atoms: C_5  and  C_3 
ROOT
ATOM      1  C   UNL d   1       0.361  -0.261   1.536  0.00  0.00     0.145 C 
ATOM      2  C   UNL d   1      -0.493   0.567   2.168  0.00  0.00     0.050 C 
ATOM      3  C   UNL d   1       0.843  -0.055   0.224  0.00  0.00     0.112 C 
ATOM      4  N   UNL d   1       1.244   0.141  -0.847  0.00  0.00    -0.191 NA
ENDROOT
BRANCH   1   5
ATOM      5  S   UNL d   1       0.819  -1.723   2.340  0.00  0.00     0.223 S 
ATOM      6  O   UNL d   1       0.045  -2.826   1.800  0.00  0.00    -0.216 OA
ATOM      7  O   UNL d   1       0.900  -1.519   3.775  0.00  0.00    -0.216 OA
BRANCH   5   8
ATOM      8  C   UNL d   1       2.492  -2.085   1.838  0.00  0.00     0.105 A 
ATOM      9  S   UNL d   1       3.689  -0.936   2.264  0.00  0.00    -0.090 SA
ATOM     10  C   UNL d   1       4.923  -1.851   1.510  0.00  0.00     0.051 A 
ATOM     11  C   UNL d   1       4.440  -3.018   0.960  0.00  0.00     0.009 A 
ATOM     12  C   UNL d   1       3.036  -3.155   1.153  0.00  0.00     0.032 A 
ENDBRANCH   5   8
ENDBRANCH   1   5
BRANCH   2  13
ATOM     13  C   UNL d   1      -1.030   1.811   1.582  0.00  0.00     0.009 A 
ATOM     14  C   UNL d   1      -2.201   1.793   0.801  0.00  0.00     0.046 A 
ATOM     15 CL   UNL d   1      -3.063   0.324   0.491  0.00  0.00    -0.083 Cl
ATOM     16  C   UNL d   1      -2.711   2.970   0.245  0.00  0.00     0.025 A 
ATOM     17  C   UNL d   1      -2.062   4.184   0.460  0.00  0.00     0.003 A 
ATOM     18  C   UNL d   1      -0.899   4.221   1.227  0.00  0.00     0.025 A 
ATOM     19  C   UNL d   1      -0.385   3.045   1.783  0.00  0.00     0.046 A 
ATOM     20 CL   UNL d   1       1.068   3.167   2.715  0.00  0.00    -0.083 Cl
ENDBRANCH   2  13
TORSDOF 3
