REMARK  4 active torsions:
REMARK  status: ('A' for Active; 'I' for Inactive)
REMARK    1  A    between atoms: C_2  and  S_1 
REMARK    2  A    between atoms: N_6  and  S_1 
REMARK    3  A    between atoms: N_9  and  C_4 
REMARK       I    between atoms: C_8  and  N_9 
REMARK       I    between atoms: N_12  and  C_8 
REMARK    4  A    between atoms: C_14  and  N_12 
ROOT
ATOM      1  C   UNL d   1       0.050  -1.216  -0.546  0.00  0.00     0.187 A 
ATOM      2  C   UNL d   1      -1.121  -1.808  -0.091  0.00  0.00     0.083 A 
ATOM      3  C   UNL d   1      -1.066  -3.187  -0.396  0.00  0.00     0.069 A 
ATOM      4  O   UNL d   1       0.758  -2.167  -1.238  0.00  0.00    -0.300 OA
ATOM      5  C   UNL d   1       0.081  -3.340  -1.160  0.00  0.00     0.077 A 
ATOM      6  C   UNL d   1       0.738  -4.488  -1.821  0.00  0.00     0.079 C 
ENDROOT
BRANCH   3   7
ATOM      7  N   UNL d   1      -1.885  -4.256  -0.064  0.00  0.00    -0.306 N 
ATOM      8  C   UNL d   1      -2.844  -4.441   0.896  0.00  0.00     0.325 C 
ATOM      9  N   UNL d   1      -3.139  -3.397   1.721  0.00  0.00    -0.309 N 
ATOM     10  O   UNL d   1      -3.326  -5.570   0.984  0.00  0.00    -0.247 OA
ATOM     11  H   UNL d   1      -2.861  -2.489   1.411  0.00  0.00     0.170 HD
ATOM     12  H   UNL d   1      -1.657  -5.144  -0.497  0.00  0.00     0.171 HD
BRANCH   9  13
ATOM     13  C   UNL d   1      -3.791  -3.431   2.972  0.00  0.00     0.036 A 
ATOM     14  C   UNL d   1      -4.155  -4.609   3.628  0.00  0.00     0.031 A 
ATOM     15  C   UNL d   1      -4.649  -4.567   4.938  0.00  0.00     0.026 A 
ATOM     16  C   UNL d   1      -4.796  -3.346   5.588  0.00  0.00     0.034 A 
ATOM     17  C   UNL d   1      -4.493  -2.160   4.926  0.00  0.00     0.026 A 
ATOM     18 CL   UNL d   1      -5.322  -3.302   7.225  0.00  0.00    -0.084 Cl
ATOM     19  C   UNL d   1      -3.994  -2.204   3.620  0.00  0.00     0.031 A 
ENDBRANCH   9  13
ENDBRANCH   3   7
BRANCH   1  20
ATOM     20  S   UNL d   1       0.707   0.421  -0.258  0.00  0.00     0.266 S 
ATOM     21  O   UNL d   1       1.942   0.183   0.466  0.00  0.00    -0.204 OA
ATOM     22  O   UNL d   1      -0.382   1.158   0.349  0.00  0.00    -0.204 OA
BRANCH  20  23
ATOM     23  N   UNL d   1       1.114   1.198  -1.736  0.00  0.00    -0.205 NA
ATOM     24  C   UNL d   1       1.924   0.360  -2.663  0.00  0.00     0.107 C 
ATOM     25  C   UNL d   1       2.225   1.116  -3.954  0.00  0.00     0.015 C 
ATOM     26  C   UNL d   1       2.932   2.432  -3.667  0.00  0.00     0.002 C 
ATOM     27  C   UNL d   1       2.083   3.275  -2.725  0.00  0.00     0.015 C 
ATOM     28  C   UNL d   1       1.774   2.514  -1.444  0.00  0.00     0.107 C 
ENDBRANCH  20  23
ENDBRANCH   1  20
TORSDOF 4
