REMARK  8 active torsions:
REMARK  status: ('A' for Active; 'I' for Inactive)
REMARK    1  A    between atoms: N_3  and  S_1 
REMARK    2  A    between atoms: C_6  and  S_1 
REMARK    3  A    between atoms: C_5  and  C_2 
REMARK    4  A    between atoms: C_13  and  N_3 
REMARK    5  A    between atoms: O_9  and  C_4 
REMARK    6  A    between atoms: O_22  and  C_5 
REMARK    7  A    between atoms: C_14  and  O_9 
REMARK    8  A    between atoms: C_29  and  O_22 
ROOT
ATOM      1  C   UNL d   1       2.428   2.617   3.062  0.00  0.00     0.075 A 
ATOM      2  C   UNL d   1       1.500   3.472   3.692  0.00  0.00     0.092 A 
ATOM      3  C   UNL d   1       2.104   2.036   1.821  0.00  0.00     0.050 A 
ATOM      4  C   UNL d   1       0.845   2.224   1.260  0.00  0.00     0.043 A 
ATOM      5  C   UNL d   1       0.221   3.609   3.132  0.00  0.00     0.040 A 
ATOM      6  C   UNL d   1      -0.105   2.991   1.924  0.00  0.00     0.033 A 
ENDROOT
BRANCH   4   7
ATOM      7  N   UNL d   1       0.539   1.665  -0.012  0.00  0.00    -0.281 N 
ATOM      8  H   UNL d   1       0.917   0.741  -0.215  0.00  0.00     0.179 HD
BRANCH   7   9
ATOM      9  S   UNL d   1       0.652   2.677  -1.373  0.00  0.00     0.263 S 
ATOM     10  O   UNL d   1      -0.071   3.905  -1.114  0.00  0.00    -0.200 OA
ATOM     11  O   UNL d   1       0.343   1.851  -2.514  0.00  0.00    -0.200 OA
BRANCH   9  12
ATOM     12  C   UNL d   1       2.392   3.062  -1.423  0.00  0.00     0.079 A 
ATOM     13  C   UNL d   1       3.256   2.225  -2.134  0.00  0.00     0.026 A 
ATOM     14  C   UNL d   1       4.621   2.514  -2.168  0.00  0.00     0.008 A 
ATOM     15  C   UNL d   1       5.125   3.639  -1.503  0.00  0.00    -0.062 A 
ATOM     16  C   UNL d   1       4.245   4.484  -0.813  0.00  0.00     0.008 A 
ATOM     17  C   UNL d   1       6.599   3.925  -1.536  0.00  0.00     0.048 C 
ATOM     18  C   UNL d   1       2.877   4.205  -0.781  0.00  0.00     0.026 A 
ENDBRANCH   9  12
ENDBRANCH   7   9
ENDBRANCH   4   7
BRANCH   1  19
ATOM     19  C   UNL d   1       3.721   2.155   3.631  0.00  0.00     0.296 C 
ATOM     20  O   UNL d   1       4.625   1.677   2.965  0.00  0.00    -0.259 OA
BRANCH  19  21
ATOM     21  O   UNL d   1       3.639   2.184   4.971  0.00  0.00    -0.318 OA
BRANCH  21  22
ATOM     22  C   UNL d   1       4.597   1.432   5.720  0.00  0.00     0.174 C 
ATOM     23  C   UNL d   1       3.828   0.243   6.252  0.00  0.00     0.034 C 
ENDBRANCH  21  22
ENDBRANCH  19  21
ENDBRANCH   1  19
BRANCH   2  24
ATOM     24  O   UNL d   1       1.643   4.174   4.872  0.00  0.00    -0.308 OA
BRANCH  24  25
ATOM     25  C   UNL d   1       2.836   4.764   5.198  0.00  0.00     0.093 A 
ATOM     26  C   UNL d   1       3.753   5.283   4.288  0.00  0.00     0.064 A 
ATOM     27  C   UNL d   1       5.009   5.663   4.751  0.00  0.00     0.052 A 
ATOM     28 CL   UNL d   1       6.224   6.159   3.645  0.00  0.00    -0.083 Cl
ATOM     29  C   UNL d   1       5.276   5.583   6.112  0.00  0.00     0.111 A 
ATOM     30  N   UNL d   1       4.372   5.177   7.034  0.00  0.00    -0.371 N 
ATOM     31  C   UNL d   1       3.170   4.778   6.553  0.00  0.00     0.124 A 
ATOM     32  HN  UNL d   1       4.582   5.172   8.032  1.00  0.00     0.164 HD
ENDBRANCH  24  25
ENDBRANCH   2  24
TORSDOF 8
