REMARK  3 active torsions:
REMARK  status: ('A' for Active; 'I' for Inactive)
REMARK    1  A    between atoms: C_8  and  C_14 
REMARK    2  A    between atoms: C_11  and  C_8 
REMARK    3  A    between atoms: C_14  and  N_9 
ROOT
ATOM      1  C   UNL d   1       2.859  -0.937   0.174  0.00  0.00     0.148 A 
ATOM      2  N   UNL d   1       1.786  -1.312  -0.490  0.00  0.00    -0.335 N 
ATOM      3  HN  UNL d   1       1.732  -2.153  -1.065  1.00  0.00     0.168 HD
ATOM      4  S   UNL d   1       2.659   0.563   1.013  0.00  0.00    -0.052 SA
ATOM      5  N   UNL d   1       4.009  -1.664   0.178  0.00  0.00    -0.358 N 
ATOM      6  C   UNL d   1       0.741  -0.426  -0.314  0.00  0.00     0.053 A 
ATOM      7  C   UNL d   1       1.031   0.678   0.482  0.00  0.00     0.035 A 
ATOM      8  N   UNL d   1       5.774  -3.926   0.839  0.00  0.00     0.099 N 
ATOM      9  C   UNL d   1      -0.551  -0.561  -0.857  0.00  0.00     0.054 A 
ATOM     10  C   UNL d   1       4.167  -2.767  -0.773  0.00  0.00     0.155 C 
ATOM     11  C   UNL d   1       5.115  -1.455   1.114  0.00  0.00     0.155 C 
ATOM     12  C   UNL d   1       0.076   1.671   0.752  0.00  0.00     0.023 A 
ATOM     13  C   UNL d   1      -1.511   0.416  -0.584  0.00  0.00     0.036 A 
ATOM     14  C   UNL d   1       5.531  -2.796   1.768  0.00  0.00     0.292 C 
ATOM     15  C   UNL d   1       4.579  -4.062  -0.035  0.00  0.00     0.292 C 
ATOM     16  C   UNL d   1      -1.203   1.518   0.207  0.00  0.00     0.025 A 
ATOM     17 CL   UNL d   1      -3.096   0.247  -1.230  0.00  0.00    -0.084 Cl
ENDROOT
BRANCH   8  18
ATOM     18  C   UNL d   1       6.989  -3.765   0.013  0.00  0.00     0.356 C 
BRANCH  18  19
ATOM     19  C   UNL d   1       8.261  -3.566   0.826  0.00  0.00     0.187 C 
ATOM     20  O   UNL d   1       8.875  -2.496   0.764  0.00  0.00    -0.290 OA
BRANCH  19  21
ATOM     21  C   UNL d   1       8.795  -4.652   1.702  0.00  0.00     0.014 A 
ATOM     22  C   UNL d   1       8.043  -5.776   2.053  0.00  0.00     0.054 A 
ATOM     23  C   UNL d   1       8.529  -6.653   3.022  0.00  0.00     0.103 A 
ATOM     24  O   UNL d   1       7.676  -7.650   3.429  0.00  0.00    -0.346 OA
ATOM     25  C   UNL d   1       9.800  -6.474   3.579  0.00  0.00     0.102 A 
ATOM     26  C   UNL d   1       8.019  -8.067   4.755  0.00  0.00     0.202 C 
ATOM     27  C   UNL d   1       9.494  -8.429   4.812  0.00  0.00     0.202 C 
ATOM     28  O   UNL d   1      10.321  -7.287   4.551  0.00  0.00    -0.346 OA
ATOM     29  C   UNL d   1      10.581  -5.395   3.183  0.00  0.00     0.040 A 
ATOM     30  C   UNL d   1      10.074  -4.478   2.258  0.00  0.00     0.018 A 
ENDBRANCH  19  21
ENDBRANCH  18  19
ENDBRANCH   8  18
TORSDOF 3
