REMARK  1 active torsions:
REMARK  status: ('A' for Active; 'I' for Inactive)
REMARK    1  A    between atoms: C_8  and  C_6 
ROOT
ATOM      1  C   UNL d   1      -1.799  -0.027  -0.033  0.00  0.00     0.057 A 
ATOM      2  S   UNL d   1      -0.966   1.510  -0.059  0.00  0.00    -0.086 SA
ATOM      3  C   UNL d   1      -0.835  -1.169  -0.095  0.00  0.00     0.200 A 
ATOM      4  C   UNL d   1       0.543  -0.672  -0.064  0.00  0.00     0.032 A 
ATOM      5  C   UNL d   1       0.616   0.715  -0.044  0.00  0.00     0.020 A 
ATOM      6  C   UNL d   1      -3.133  -0.113   0.062  0.00  0.00     0.034 C 
ATOM      7  O   UNL d   1      -1.099  -2.358  -0.164  0.00  0.00    -0.286 OA
ATOM      8  C   UNL d   1       1.677  -1.475  -0.040  0.00  0.00     0.017 A 
ATOM      9  C   UNL d   1       1.854   1.341  -0.004  0.00  0.00     0.020 A 
ATOM     10  C   UNL d   1       2.921  -0.849   0.006  0.00  0.00     0.001 A 
ATOM     11  C   UNL d   1       3.010   0.551   0.021  0.00  0.00     0.001 A 
ENDROOT
BRANCH   6  12
ATOM     12  C   UNL d   1      -3.899  -1.358   0.134  0.00  0.00    -0.034 A 
ATOM     13  C   UNL d   1      -4.342  -1.983  -1.038  0.00  0.00     0.018 A 
ATOM     14  C   UNL d   1      -5.122  -3.145  -0.974  0.00  0.00    -0.061 A 
ATOM     15  C   UNL d   1      -5.637  -3.796  -2.223  0.00  0.00     0.048 C 
ATOM     16  C   UNL d   1      -5.434  -3.690   0.279  0.00  0.00     0.007 A 
ATOM     17  C   UNL d   1      -4.978  -3.080   1.448  0.00  0.00     0.001 A 
ATOM     18  C   UNL d   1      -4.215  -1.915   1.377  0.00  0.00     0.011 A 
ENDBRANCH   6  12
TORSDOF 1
