REMARK  3 active torsions:
REMARK  status: ('A' for Active; 'I' for Inactive)
REMARK    1  A    between atoms: C_5  and  C_1 
REMARK    2  A    between atoms: C_18  and  N_4 
REMARK    3  A    between atoms: C_15  and  C_14 
ROOT
ATOM      1  C   UNL d   1      -0.422  -2.841   0.144  0.00  0.00     0.195 A 
ATOM      2  O   UNL d   1       0.567  -3.794   0.233  0.00  0.00    -0.271 OA
ATOM      3  N   UNL d   1      -1.624  -3.388   0.118  0.00  0.00    -0.276 N 
ATOM      4  HN  UNL d   1      -2.515  -2.896   0.048  1.00  0.00     0.189 HD
ATOM      5  N   UNL d   1      -1.444  -4.757   0.206  0.00  0.00    -0.277 N 
ATOM      6  HN  UNL d   1      -2.174  -5.469   0.209  1.00  0.00     0.189 HD
ATOM      7  C   UNL d   1      -0.145  -4.959   0.283  0.00  0.00     0.175 A 
ENDROOT
BRANCH   1   8
ATOM      8  C   UNL d   1      -0.141  -1.375   0.106  0.00  0.00     0.126 A 
ATOM      9  N   UNL d   1       1.107  -0.890   0.106  0.00  0.00    -0.273 N 
ATOM     10  N   UNL d   1       0.903   0.451   0.079  0.00  0.00    -0.196 N 
ATOM     11  HN  UNL d   1       1.990  -1.401   0.121  1.00  0.00     0.189 HD
ATOM     12  N   UNL d   1      -0.395   0.854   0.091  0.00  0.00    -0.281 N 
ATOM     13  C   UNL d   1      -1.063  -0.308   0.077  0.00  0.00     0.056 A 
ATOM     14  HN  UNL d   1      -0.767   1.803   0.108  1.00  0.00     0.189 HD
ATOM     15  C   UNL d   1      -2.543  -0.321   0.037  0.00  0.00     0.072 C 
BRANCH  10  16
ATOM     16  C   UNL d   1       1.980   1.371   0.015  0.00  0.00     0.074 A 
ATOM     17  C   UNL d   1       3.296   0.901  -0.110  0.00  0.00     0.033 A 
ATOM     18  C   UNL d   1       4.354   1.808  -0.200  0.00  0.00     0.002 A 
ATOM     19  C   UNL d   1       4.104   3.179  -0.152  0.00  0.00     0.000 A 
ATOM     20  C   UNL d   1       2.797   3.650  -0.019  0.00  0.00     0.002 A 
ATOM     21  C   UNL d   1       1.733   2.750   0.060  0.00  0.00     0.033 A 
ENDBRANCH  10  16
ENDBRANCH   1   8
BRANCH   7  22
ATOM     22  C   UNL d   1       0.615  -6.195   0.436  0.00  0.00     0.018 A 
ATOM     23  C   UNL d   1      -0.056  -7.427   0.495  0.00  0.00     0.041 A 
ATOM     24  C   UNL d   1       0.653  -8.625   0.657  0.00  0.00     0.056 A 
ATOM     25 CL   UNL d   1      -0.257 -10.094   0.716  0.00  0.00    -0.083 Cl
ATOM     26  C   UNL d   1       2.046  -8.606   0.765  0.00  0.00     0.055 A 
ATOM     27  C   UNL d   1       2.725  -7.387   0.708  0.00  0.00     0.026 A 
ATOM     28 CL   UNL d   1       2.985 -10.040   0.974  0.00  0.00    -0.083 Cl
ATOM     29  C   UNL d   1       2.015  -6.192   0.543  0.00  0.00     0.017 A 
ENDBRANCH   7  22
TORSDOF 3
