REMARK  3 active torsions:
REMARK  status: ('A' for Active; 'I' for Inactive)
REMARK    1  A    between atoms: O_10  and  N_7 
REMARK    2  A    between atoms: C_9  and  O_10 
REMARK    3  A    between atoms: C_11  and  C_9 
ROOT
ATOM      1  C   UNL d   1      -0.687   0.527   0.050  0.00  0.00     0.024 A 
ATOM      2  C   UNL d   1      -1.130  -0.787   0.008  0.00  0.00     0.025 A 
ATOM      3  N   UNL d   1      -0.033  -1.610  -0.018  0.00  0.00    -0.353 N 
ATOM      4  C   UNL d   1       0.738   0.495   0.070  0.00  0.00     0.005 A 
ATOM      5  C   UNL d   1       1.124  -0.850   0.015  0.00  0.00     0.045 A 
ATOM      6  C   UNL d   1      -1.642   1.633   0.047  0.00  0.00     0.045 C 
ATOM      7  N   UNL d   1      -1.195   2.828   0.280  0.00  0.00    -0.261 N 
ATOM      8  HN  UNL d   1      -0.217   3.031   0.484  1.00  0.00     0.194 HD
ATOM      9  C   UNL d   1      -2.556  -1.224  -0.034  0.00  0.00     0.058 C 
ATOM     10  C   UNL d   1      -0.037  -3.055  -0.093  0.00  0.00     0.156 C 
ATOM     11  C   UNL d   1       1.746   1.482   0.105  0.00  0.00     0.014 A 
ATOM     12  C   UNL d   1       2.475  -1.238  -0.007  0.00  0.00     0.030 A 
ATOM     13  C   UNL d   1      -3.085   1.266  -0.281  0.00  0.00     0.060 C 
ATOM     14  C   UNL d   1      -3.473  -0.063   0.384  0.00  0.00     0.012 C 
ATOM     15  C   UNL d   1       3.093   1.105   0.079  0.00  0.00     0.001 A 
ATOM     16  C   UNL d   1       3.450  -0.237   0.022  0.00  0.00     0.002 A 
ENDROOT
BRANCH   7  17
ATOM     17  O   UNL d   1      -2.197   3.821   0.221  0.00  0.00    -0.195 OA
BRANCH  17  18
ATOM     18  C   UNL d   1      -1.650   5.036   0.544  0.00  0.00     0.315 C 
ATOM     19  O   UNL d   1      -0.488   5.263   0.862  0.00  0.00    -0.257 OA
BRANCH  18  20
ATOM     20  C   UNL d   1      -2.668   6.128   0.483  0.00  0.00     0.041 A 
ATOM     21  C   UNL d   1      -2.263   7.424   0.853  0.00  0.00     0.019 A 
ATOM     22  C   UNL d   1      -3.167   8.491   0.836  0.00  0.00     0.025 A 
ATOM     23  C   UNL d   1      -4.483   8.272   0.446  0.00  0.00     0.034 A 
ATOM     24  C   UNL d   1      -4.900   6.996   0.062  0.00  0.00     0.025 A 
ATOM     25 CL   UNL d   1      -5.604   9.576   0.444  0.00  0.00    -0.084 Cl
ATOM     26  C   UNL d   1      -3.994   5.924   0.080  0.00  0.00     0.019 A 
ENDBRANCH  18  20
ENDBRANCH  17  18
ENDBRANCH   7  17
TORSDOF 3
