REMARK  4 active torsions:
REMARK  status: ('A' for Active; 'I' for Inactive)
REMARK    1  A    between atoms: S_10  and  C_1 
REMARK    2  A    between atoms: C_12  and  C_7 
REMARK    3  A    between atoms: S_13  and  C_8 
REMARK    4  A    between atoms: C_14  and  S_10 
ROOT
ATOM      1  C   UNL d   1       0.118   1.153  -0.069  0.00  0.00     0.100 A 
ATOM      2  N   UNL d   1       1.458   1.200   0.111  0.00  0.00    -0.335 N 
ATOM      3  HN  UNL d   1       1.945   2.087   0.233  1.00  0.00     0.168 HD
ATOM      4  N   UNL d   1       1.518  -1.158   0.015  0.00  0.00    -0.335 N 
ATOM      5  HN  UNL d   1       2.055  -2.023   0.071  1.00  0.00     0.168 HD
ATOM      6  C   UNL d   1      -0.581  -0.029  -0.245  0.00  0.00     0.112 A 
ATOM      7  C   UNL d   1       2.118   0.035   0.123  0.00  0.00     0.117 A 
ATOM      8  C   UNL d   1       0.182  -1.181  -0.168  0.00  0.00     0.094 A 
ATOM      9  C   UNL d   1      -1.980  -0.050  -0.528  0.00  0.00     0.105 C 
ATOM     10  N   UNL d   1      -3.113  -0.051  -0.780  0.00  0.00    -0.191 NA
ENDROOT
BRANCH   1  11
ATOM     11  S   UNL d   1      -0.663   2.762  -0.140  0.00  0.00    -0.071 SA
BRANCH  11  12
ATOM     12  C   UNL d   1      -1.127   3.011   1.566  0.00  0.00     0.007 A 
ATOM     13  C   UNL d   1      -0.172   3.035   2.588  0.00  0.00     0.019 A 
ATOM     14  C   UNL d   1      -0.556   3.281   3.909  0.00  0.00     0.001 A 
ATOM     15  C   UNL d   1      -1.896   3.512   4.215  0.00  0.00     0.000 A 
ATOM     16  C   UNL d   1      -2.853   3.497   3.202  0.00  0.00     0.001 A 
ATOM     17  C   UNL d   1      -2.470   3.249   1.881  0.00  0.00     0.019 A 
ENDBRANCH  11  12
ENDBRANCH   1  11
BRANCH   8  18
ATOM     18  S   UNL d   1      -0.541  -2.815  -0.345  0.00  0.00    -0.115 SA
ATOM     19  C   UNL d   1       0.888  -3.873   0.026  0.00  0.00     0.097 C 
ENDBRANCH   8  18
BRANCH   7  20
ATOM     20  C   UNL d   1       3.592   0.058   0.186  0.00  0.00     0.008 A 
ATOM     21  C   UNL d   1       4.311   1.267   0.220  0.00  0.00     0.015 A 
ATOM     22  C   UNL d   1       5.710   1.284   0.237  0.00  0.00     0.001 A 
ATOM     23  C   UNL d   1       6.424   0.089   0.221  0.00  0.00     0.000 A 
ATOM     24  C   UNL d   1       5.741  -1.122   0.192  0.00  0.00     0.001 A 
ATOM     25  C   UNL d   1       4.343  -1.135   0.176  0.00  0.00     0.015 A 
ENDBRANCH   7  20
TORSDOF 4
