REMARK  5 active torsions:
REMARK  status: ('A' for Active; 'I' for Inactive)
REMARK    1  A    between atoms: C_8  and  C_1 
REMARK    2  A    between atoms: S_2  and  C_3 
REMARK    3  A    between atoms: C_21  and  S_2 
REMARK    4  A    between atoms: N_12  and  C_4 
REMARK    5  A    between atoms: C_7  and  N_13 
REMARK       I    between atoms: C_11  and  N_12 
REMARK       I    between atoms: N_13  and  C_11 
ROOT
ATOM      1  C   UNL d   1       1.589  -2.981   0.061  0.00  0.00     0.325 C 
ATOM      2  N   UNL d   1       0.524  -2.275  -0.436  0.00  0.00    -0.304 N 
ATOM      3  N   UNL d   1       2.699  -2.250   0.436  0.00  0.00    -0.307 N 
ATOM      4  O   UNL d   1       1.689  -4.207   0.056  0.00  0.00    -0.247 OA
ATOM      5  H   UNL d   1       0.715  -1.349  -0.791  0.00  0.00     0.171 HD
ATOM      6  H   UNL d   1       3.527  -2.757   0.140  0.00  0.00     0.170 HD
ENDROOT
BRANCH   2   7
ATOM      7  C   UNL d   1      -0.688  -2.841  -0.823  0.00  0.00     0.097 A 
ATOM      8  C   UNL d   1      -1.581  -2.393  -1.863  0.00  0.00     0.097 A 
ATOM      9  N   UNL d   1      -2.678  -3.167  -1.891  0.00  0.00    -0.258 N 
ATOM     10  O   UNL d   1      -2.523  -4.107  -0.907  0.00  0.00    -0.240 OA
ATOM     11  HN  UNL d   1      -3.473  -3.073  -2.523  1.00  0.00     0.195 HD
ATOM     12  C   UNL d   1      -1.357  -3.899  -0.243  0.00  0.00     0.101 A 
ATOM     13  C   UNL d   1      -1.190  -4.751   0.951  0.00  0.00     0.081 C 
BRANCH   8  14
ATOM     14  C   UNL d   1      -1.462  -1.294  -2.831  0.00  0.00     0.038 A 
ATOM     15  C   UNL d   1      -1.684  -1.516  -4.211  0.00  0.00     0.048 A 
ATOM     16 CL   UNL d   1      -1.907  -3.094  -4.900  0.00  0.00    -0.083 Cl
ATOM     17  C   UNL d   1      -1.703  -0.452  -5.127  0.00  0.00     0.025 A 
ATOM     18  C   UNL d   1      -1.465   0.848  -4.699  0.00  0.00     0.003 A 
ATOM     19  C   UNL d   1      -1.204   1.085  -3.354  0.00  0.00     0.025 A 
ATOM     20  C   UNL d   1      -1.214   0.032  -2.425  0.00  0.00     0.048 A 
ATOM     21 CL   UNL d   1      -0.946   0.492  -0.777  0.00  0.00    -0.083 Cl
ENDBRANCH   8  14
ENDBRANCH   2   7
BRANCH   3  22
ATOM     22  C   UNL d   1       2.784  -0.865   0.488  0.00  0.00     0.065 A 
ATOM     23  C   UNL d   1       2.206   0.025   1.455  0.00  0.00     0.093 A 
ATOM     24  C   UNL d   1       2.493   1.348   1.171  0.00  0.00     0.075 A 
ATOM     25  S   UNL d   1       3.508   1.516  -0.190  0.00  0.00    -0.110 SA
ATOM     26  C   UNL d   1       3.589  -0.179  -0.401  0.00  0.00     0.080 A 
BRANCH  23  27
ATOM     27  S   UNL d   1       1.363  -0.432   2.911  0.00  0.00     0.181 S 
ATOM     28  O   UNL d   1       0.982   0.826   3.521  0.00  0.00    -0.222 OA
ATOM     29  O   UNL d   1       0.380  -1.392   2.472  0.00  0.00    -0.222 OA
BRANCH  27  30
ATOM     30  C   UNL d   1       2.599  -1.244   3.941  0.00  0.00     0.105 C 
ATOM     31  C   UNL d   1       3.780  -0.335   4.261  0.00  0.00     0.026 C 
ATOM     32  C   UNL d   1       1.949  -1.726   5.237  0.00  0.00     0.026 C 
ENDBRANCH  27  30
ENDBRANCH  23  27
ENDBRANCH   3  22
TORSDOF 5
