REMARK  5 active torsions:
REMARK  status: ('A' for Active; 'I' for Inactive)
REMARK    1  A    between atoms: C_2  and  N_1 
REMARK    2  A    between atoms: N_9  and  C_3 
REMARK    3  A    between atoms: C_4  and  C_10 
REMARK    4  A    between atoms: N_5  and  N_9 
REMARK    5  A    between atoms: O_19  and  C_8 
ROOT
ATOM      1  N   UNL d   1       2.658  -0.325  -1.480  0.00  0.00    -0.325 N 
ATOM      2  HN  UNL d   1       2.993   0.498  -0.980  1.00  0.00     0.180 HD
ATOM      3  C   UNL d   1       3.058  -1.533  -1.212  0.00  0.00     0.116 C 
ENDROOT
BRANCH   1   4
ATOM      4  N   UNL d   1       1.745  -0.261  -2.497  0.00  0.00    -0.197 NA
ATOM      5  C   UNL d   1       2.370  -0.158  -3.832  0.00  0.00     0.143 C 
BRANCH   4   6
ATOM      6  C   UNL d   1       0.688   0.695  -2.353  0.00  0.00     0.084 A 
ATOM      7  C   UNL d   1      -0.571   0.453  -2.954  0.00  0.00     0.127 A 
ATOM      8  C   UNL d   1      -1.652   1.349  -2.898  0.00  0.00     0.038 A 
ATOM      9  C   UNL d   1      -1.511   2.535  -2.195  0.00  0.00     0.004 A 
ATOM     10  C   UNL d   1      -0.301   2.810  -1.563  0.00  0.00     0.026 A 
ATOM     11  C   UNL d   1       0.787   1.915  -1.640  0.00  0.00     0.059 A 
ATOM     12 CL   UNL d   1       2.237   2.480  -0.869  0.00  0.00    -0.082 Cl
BRANCH   7  13
ATOM     13  N   UNL d   1      -0.816  -0.788  -3.657  0.00  0.00    -0.114 N 
ATOM     14  O   UNL d   1      -0.938  -1.818  -2.984  0.00  0.00    -0.532 OA
ATOM     15  O   UNL d   1      -0.941  -0.711  -4.888  0.00  0.00    -0.532 OA
ENDBRANCH   7  13
ENDBRANCH   4   6
ENDBRANCH   1   4
BRANCH   3  16
ATOM     16  C   UNL d   1       4.075  -1.800  -0.176  0.00  0.00     0.017 A 
ATOM     17  C   UNL d   1       4.323  -3.113   0.236  0.00  0.00     0.099 A 
ATOM     18  C   UNL d   1       5.269  -3.360   1.237  0.00  0.00     0.069 A 
ATOM     19 CL   UNL d   1       5.561  -4.973   1.779  0.00  0.00    -0.081 Cl
ATOM     20  C   UNL d   1       5.984  -2.311   1.812  0.00  0.00     0.050 A 
ATOM     21  C   UNL d   1       5.749  -1.008   1.379  0.00  0.00     0.036 A 
ATOM     22  C   UNL d   1       4.797  -0.743   0.394  0.00  0.00     0.039 A 
ATOM     23 CL   UNL d   1       6.648   0.287   2.069  0.00  0.00    -0.084 Cl
BRANCH  17  24
ATOM     24  O   UNL d   1       3.632  -4.147  -0.341  0.00  0.00    -0.358 OA
ATOM     25  H   UNL d   1       3.922  -4.977   0.084  0.00  0.00     0.217 HD
ENDBRANCH  17  24
ENDBRANCH   3  16
TORSDOF 5
