REMARK  1 active torsions:
REMARK  status: ('A' for Active; 'I' for Inactive)
REMARK    1  A    between atoms: C_4  and  N_1 
ROOT
ATOM      1  N   UNL d   1       0.594   1.151  -0.461  0.00  0.00    -0.251 N 
ATOM      2  C   UNL d   1       1.417   0.051  -0.180  0.00  0.00     0.240 C 
ATOM      3  C   UNL d   1      -0.680   1.237   0.114  0.00  0.00     0.240 C 
ATOM      4  S   UNL d   1      -0.774  -1.427   0.670  0.00  0.00    -0.150 SA
ATOM      5  O   UNL d   1      -1.154   2.214   0.699  0.00  0.00    -0.272 OA
ATOM      6  O   UNL d   1       2.630   0.141   0.035  0.00  0.00    -0.272 OA
ATOM      7  C   UNL d   1       0.782  -1.326  -0.222  0.00  0.00     0.178 C 
ATOM      8  C   UNL d   1      -1.538   0.008  -0.093  0.00  0.00     0.178 C 
ENDROOT
BRANCH   1   9
ATOM      9  C   UNL d   1       1.214   2.310  -1.056  0.00  0.00     0.045 A 
ATOM     10  C   UNL d   1       0.809   3.630  -0.808  0.00  0.00     0.032 A 
ATOM     11  C   UNL d   1       1.344   4.702  -1.537  0.00  0.00     0.026 A 
ATOM     12  C   UNL d   1       2.275   4.468  -2.541  0.00  0.00     0.034 A 
ATOM     13  C   UNL d   1       2.706   3.173  -2.800  0.00  0.00     0.026 A 
ATOM     14 CL   UNL d   1       2.880   5.776  -3.478  0.00  0.00    -0.084 Cl
ATOM     15  C   UNL d   1       2.188   2.109  -2.057  0.00  0.00     0.032 A 
ENDBRANCH   1   9
TORSDOF 1
