REMARK  4 active torsions:
REMARK  status: ('A' for Active; 'I' for Inactive)
REMARK    1  A    between atoms: C_6  and  C_1 
REMARK    2  A    between atoms: N_3  and  C_2 
REMARK    3  A    between atoms: C_4  and  N_5 
REMARK    4  A    between atoms: N_10  and  C_4 
REMARK       I    between atoms: N_5  and  C_6 
ROOT
ATOM      1  N   UNL d   1       1.099  -4.747   0.830  0.00  0.00    -0.300 N 
ATOM      2  C   UNL d   1       2.013  -5.347   1.695  0.00  0.00     0.258 C 
ATOM      3  O   UNL d   1       3.036  -4.820   2.117  0.00  0.00    -0.267 OA
ATOM      4  H   UNL d   1       0.302  -5.298   0.566  0.00  0.00     0.171 HD
ENDROOT
BRANCH   1   5
ATOM      5  C   UNL d   1       1.179  -3.567   0.081  0.00  0.00     0.176 C 
ATOM      6  S   UNL d   1       2.604  -2.732  -0.210  0.00  0.00    -0.041 SA
BRANCH   5   7
ATOM      7  N   UNL d   1      -0.098  -3.192  -0.435  0.00  0.00    -0.358 N 
ATOM      8  C   UNL d   1      -0.193  -2.125  -1.451  0.00  0.00     0.125 C 
ATOM      9  C   UNL d   1      -1.490  -2.199  -2.253  0.00  0.00     0.020 C 
ATOM     10  C   UNL d   1      -2.705  -2.213  -1.336  0.00  0.00     0.003 C 
ATOM     11  C   UNL d   1      -2.590  -3.365  -0.347  0.00  0.00     0.020 C 
ATOM     12  C   UNL d   1      -1.285  -3.286   0.439  0.00  0.00     0.125 C 
ENDBRANCH   5   7
ENDBRANCH   1   5
BRANCH   2  13
ATOM     13  C   UNL d   1       1.611  -6.672   2.212  0.00  0.00     0.041 A 
ATOM     14  C   UNL d   1       2.334  -7.366   3.256  0.00  0.00     0.061 A 
ATOM     15  C   UNL d   1       1.713  -8.528   3.654  0.00  0.00     0.144 A 
ATOM     16  S   UNL d   1       0.321  -8.862   2.745  0.00  0.00    -0.077 SA
ATOM     17  C   UNL d   1       0.512  -7.428   1.823  0.00  0.00     0.069 A 
BRANCH  15  18
ATOM     18  N   UNL d   1       2.125  -9.409   4.716  0.00  0.00    -0.108 N 
ATOM     19  O   UNL d   1       3.167  -9.107   5.310  0.00  0.00    -0.531 OA
ATOM     20  O   UNL d   1       1.411 -10.388   4.977  0.00  0.00    -0.531 OA
ENDBRANCH  15  18
ENDBRANCH   2  13
TORSDOF 4
