REMARK  4 active torsions:
REMARK  status: ('A' for Active; 'I' for Inactive)
REMARK    1  A    between atoms: C_2  and  C_1 
REMARK       I    between atoms: N_3  and  C_1 
REMARK    2  A    between atoms: N_5  and  N_3 
REMARK    3  A    between atoms: C_13  and  N_5 
REMARK    4  A    between atoms: C_14  and  C_9 
ROOT
ATOM      1  N   UNL d   1      -1.077   0.363   1.179  0.00  0.00    -0.203 NA
ATOM      2  H   UNL d   1      -0.275  -0.148   1.576  0.00  0.00     0.153 HD
ENDROOT
BRANCH   1   3
ATOM      3  N   UNL d   1      -1.858  -0.523   0.409  0.00  0.00    -0.282 N 
ATOM      4  C   UNL d   1      -1.320  -1.744   0.026  0.00  0.00     0.273 C 
ATOM      5  O   UNL d   1      -0.207  -2.099   0.411  0.00  0.00    -0.266 OA
ATOM      6  H   UNL d   1      -2.672  -0.131  -0.052  0.00  0.00     0.184 HD
BRANCH   4   7
ATOM      7  C   UNL d   1      -2.163  -2.557  -0.845  0.00  0.00     0.073 A 
ATOM      8  S   UNL d   1      -3.808  -2.173  -1.147  0.00  0.00    -0.097 SA
ATOM      9  C   UNL d   1      -4.032  -3.565  -2.114  0.00  0.00     0.050 A 
ATOM     10  C   UNL d   1      -2.875  -4.301  -2.232  0.00  0.00     0.009 A 
ATOM     11  C   UNL d   1      -1.799  -3.722  -1.499  0.00  0.00     0.025 A 
ENDBRANCH   4   7
ENDBRANCH   1   3
BRANCH   1  12
ATOM     12  C   UNL d   1      -1.804   0.959   2.243  0.00  0.00     0.027 A 
ATOM     13  C   UNL d   1      -2.892   0.343   2.872  0.00  0.00     0.026 A 
ATOM     14  C   UNL d   1      -3.537   0.954   3.953  0.00  0.00     0.009 A 
ATOM     15  C   UNL d   1      -3.100   2.188   4.450  0.00  0.00    -0.055 A 
ATOM     16  C   UNL d   1      -1.987   2.788   3.846  0.00  0.00     0.009 A 
ATOM     17  C   UNL d   1      -1.340   2.172   2.767  0.00  0.00     0.026 A 
BRANCH  15  18
ATOM     18  C   UNL d   1      -3.790   2.857   5.627  0.00  0.00     0.010 C 
ATOM     19  C   UNL d   1      -5.258   3.173   5.322  0.00  0.00     0.015 C 
ATOM     20  C   UNL d   1      -3.675   2.008   6.896  0.00  0.00     0.015 C 
ENDBRANCH  15  18
ENDBRANCH   1  12
TORSDOF 4
