REMARK  10 active torsions:
REMARK  status: ('A' for Active; 'I' for Inactive)
REMARK    1  A    between atoms: C_2  and  C_1 
REMARK    2  A    between atoms: C_17  and  N_3 
REMARK    3  A    between atoms: C_20  and  N_6 
REMARK    4  A    between atoms: S_14  and  C_7 
REMARK    5  A    between atoms: C_16  and  S_14 
REMARK    6  A    between atoms: C_15  and  C_16 
REMARK    7  A    between atoms: C_19  and  C_15 
REMARK    8  A    between atoms: C_21  and  C_17 
REMARK    9  A    between atoms: C_24  and  C_21 
REMARK   10  A    between atoms: O_22  and  C_24 
ROOT
ATOM      1  C   UNL d   1      -0.156  -1.237   0.395  0.00  0.00     0.153 A 
ATOM      2  N   UNL d   1       1.136  -0.763   0.216  0.00  0.00    -0.309 N 
ATOM      3  N   UNL d   1      -0.945  -0.226   0.703  0.00  0.00    -0.281 N 
ATOM      4  HN  UNL d   1      -1.934  -0.293   0.941  1.00  0.00     0.188 HD
ATOM      5  C   UNL d   1       1.014   0.601   0.320  0.00  0.00     0.163 A 
ATOM      6  N   UNL d   1      -0.213   0.927   0.649  0.00  0.00    -0.278 N 
ATOM      7  HN  UNL d   1      -0.558   1.869   0.832  1.00  0.00     0.189 HD
ENDROOT
BRANCH   5   8
ATOM      8  S   UNL d   1       2.253   1.756  -0.009  0.00  0.00    -0.085 SA
BRANCH   8   9
ATOM      9  C   UNL d   1       2.167   2.802   1.466  0.00  0.00     0.166 C 
BRANCH   9  10
ATOM     10  C   UNL d   1       2.467   2.081   2.774  0.00  0.00     0.169 C 
ATOM     11  O   UNL d   1       2.578   0.863   2.884  0.00  0.00    -0.291 OA
BRANCH  10  12
ATOM     12  C   UNL d   1       2.618   2.921   4.009  0.00  0.00     0.010 A 
ATOM     13  C   UNL d   1       2.532   4.320   3.980  0.00  0.00     0.015 A 
ATOM     14  C   UNL d   1       2.674   5.059   5.159  0.00  0.00     0.001 A 
ATOM     15  C   UNL d   1       2.898   4.410   6.370  0.00  0.00     0.000 A 
ATOM     16  C   UNL d   1       2.989   3.020   6.409  0.00  0.00     0.001 A 
ATOM     17  C   UNL d   1       2.852   2.278   5.234  0.00  0.00     0.015 A 
ENDBRANCH  10  12
ENDBRANCH   9  10
ENDBRANCH   8   9
ENDBRANCH   5   8
BRANCH   2  18
ATOM     18  C   UNL d   1       2.305  -1.583  -0.063  0.00  0.00     0.135 C 
BRANCH  18  19
ATOM     19  C   UNL d   1       3.656  -1.124   0.484  0.00  0.00     0.046 C 
BRANCH  19  20
ATOM     20  C   UNL d   1       4.780  -2.121   0.246  0.00  0.00     0.168 C 
BRANCH  20  21
ATOM     21  O   UNL d   1       5.973  -1.517   0.750  0.00  0.00    -0.396 OA
ATOM     22  C   UNL d   1       7.120  -2.327   0.557  0.00  0.00     0.201 C 
ENDBRANCH  20  21
ENDBRANCH  19  20
ENDBRANCH  18  19
ENDBRANCH   2  18
BRANCH   1  23
ATOM     23  C   UNL d   1      -0.652  -2.568   0.208  0.00  0.00     0.098 A 
ATOM     24  N   UNL d   1      -1.747  -3.091   0.862  0.00  0.00    -0.289 N 
ATOM     25  N   UNL d   1      -2.081  -4.332   0.437  0.00  0.00    -0.303 N 
ATOM     26  C   UNL d   1      -1.198  -4.602  -0.525  0.00  0.00     0.024 A 
ATOM     27  HN  UNL d   1      -2.838  -4.926   0.776  1.00  0.00     0.186 HD
ATOM     28  C   UNL d   1      -0.262  -3.555  -0.677  0.00  0.00     0.061 A 
ATOM     29  C   UNL d   1      -1.296  -5.864  -1.296  0.00  0.00     0.070 C 
BRANCH  24  30
ATOM     30  C   UNL d   1      -2.511  -2.518   1.958  0.00  0.00     0.145 C 
ATOM     31  C   UNL d   1      -3.773  -1.810   1.495  0.00  0.00     0.028 C 
ENDBRANCH  24  30
ENDBRANCH   1  23
TORSDOF 10
