REMARK  4 active torsions:
REMARK  status: ('A' for Active; 'I' for Inactive)
REMARK    1  A    between atoms: N_4  and  C_3 
REMARK       I    between atoms: C_5  and  N_4 
REMARK       I    between atoms: N_11  and  C_5 
REMARK    2  A    between atoms: C_10  and  C_6 
REMARK    3  A    between atoms: C_7  and  C_10 
REMARK    4  A    between atoms: C_14  and  N_11 
ROOT
ATOM      1  N   UNL d   1       1.326  -0.911   0.818  0.00  0.00    -0.339 N 
ATOM      2  HN  UNL d   1       2.269  -1.238   1.027  1.00  0.00     0.168 HD
ATOM      3  C   UNL d   1       0.959   0.410   0.625  0.00  0.00     0.116 A 
ATOM      4  C   UNL d   1       0.256  -1.685   0.689  0.00  0.00     0.056 A 
ATOM      5  S   UNL d   1      -1.211  -0.847   0.285  0.00  0.00    -0.085 SA
ATOM      6  C   UNL d   1      -0.375   0.628   0.358  0.00  0.00     0.100 A 
ENDROOT
BRANCH   3   7
ATOM      7  N   UNL d   1       1.819   1.477   0.717  0.00  0.00    -0.294 N 
ATOM      8  C   UNL d   1       3.172   1.558   0.755  0.00  0.00     0.326 C 
ATOM      9  N   UNL d   1       3.890   0.418   0.551  0.00  0.00    -0.309 N 
ATOM     10  O   UNL d   1       3.635   2.693   0.885  0.00  0.00    -0.247 OA
ATOM     11  H   UNL d   1       3.331  -0.426   0.447  0.00  0.00     0.170 HD
ATOM     12  H   UNL d   1       1.403   2.398   0.704  0.00  0.00     0.172 HD
BRANCH   9  13
ATOM     13  C   UNL d   1       5.285   0.346   0.313  0.00  0.00     0.038 A 
ATOM     14  C   UNL d   1       6.159   1.429   0.450  0.00  0.00     0.054 A 
ATOM     15  C   UNL d   1       7.515   1.319   0.117  0.00  0.00     0.053 A 
ATOM     16 CL   UNL d   1       8.504   2.726   0.303  0.00  0.00    -0.083 Cl
ATOM     17  C   UNL d   1       8.017   0.106  -0.357  0.00  0.00     0.032 A 
ATOM     18  C   UNL d   1       7.162  -0.993  -0.466  0.00  0.00     0.023 A 
ATOM     19 BR   UNL d   1       9.827  -0.124  -0.882  0.00  0.00    -0.049 Br
ATOM     20  C   UNL d   1       5.808  -0.875  -0.124  0.00  0.00     0.031 A 
ENDBRANCH   9  13
ENDBRANCH   3   7
BRANCH   4  21
ATOM     21  C   UNL d   1       0.091  -3.170   0.928  0.00  0.00     0.107 C 
BRANCH  21  22
ATOM     22  C   UNL d   1       1.274  -4.114   1.014  0.00  0.00    -0.009 A 
ATOM     23  C   UNL d   1       2.388  -4.068   0.157  0.00  0.00     0.042 A 
ATOM     24 CL   UNL d   1       2.526  -2.953  -1.156  0.00  0.00    -0.084 Cl
ATOM     25  C   UNL d   1       3.419  -5.018   0.256  0.00  0.00     0.024 A 
ATOM     26  C   UNL d   1       3.336  -6.074   1.158  0.00  0.00     0.003 A 
ATOM     27  C   UNL d   1       2.208  -6.194   1.956  0.00  0.00     0.024 A 
ATOM     28  C   UNL d   1       1.193  -5.232   1.884  0.00  0.00     0.042 A 
ATOM     29 CL   UNL d   1      -0.207  -5.557   2.861  0.00  0.00    -0.084 Cl
ENDBRANCH  21  22
ENDBRANCH   4  21
TORSDOF 4
