REMARK  5 active torsions:
REMARK  status: ('A' for Active; 'I' for Inactive)
REMARK    1  A    between atoms: N_6  and  S_1 
REMARK    2  A    between atoms: C_9  and  S_1 
REMARK    3  A    between atoms: N_2  and  C_10 
REMARK    4  A    between atoms: C_5  and  C_13 
REMARK    5  A    between atoms: C_23  and  N_6 
ROOT
ATOM      1  S   UNL d   1       1.084   0.065  -0.085  0.00  0.00     0.263 S 
ATOM      2  O   UNL d   1       1.288   1.249   0.720  0.00  0.00    -0.200 OA
ATOM      3  O   UNL d   1       2.130  -0.445  -0.950  0.00  0.00    -0.200 OA
ENDROOT
BRANCH   1   4
ATOM      4  N   UNL d   1      -0.270   0.279  -1.069  0.00  0.00    -0.281 N 
ATOM      5  H   UNL d   1      -0.310  -0.384  -1.842  0.00  0.00     0.179 HD
BRANCH   4   6
ATOM      6  C   UNL d   1      -1.488   0.698  -0.476  0.00  0.00     0.042 A 
ATOM      7  C   UNL d   1      -1.701   2.056  -0.247  0.00  0.00     0.031 A 
ATOM      8  C   UNL d   1      -2.877   2.483   0.375  0.00  0.00     0.018 A 
ATOM      9  C   UNL d   1      -3.837   1.550   0.796  0.00  0.00     0.048 A 
ATOM     10  C   UNL d   1      -3.601   0.184   0.566  0.00  0.00     0.018 A 
ATOM     11  C   UNL d   1      -2.436  -0.240  -0.076  0.00  0.00     0.031 A 
BRANCH   9  12
ATOM     12  C   UNL d   1      -5.098   1.990   1.501  0.00  0.00     0.417 C 
ATOM     13  F   UNL d   1      -5.220   3.342   1.612  0.00  0.00    -0.166 F 
ATOM     14  F   UNL d   1      -6.224   1.564   0.864  0.00  0.00    -0.166 F 
ATOM     15  F   UNL d   1      -5.179   1.502   2.769  0.00  0.00    -0.166 F 
ENDBRANCH   9  12
ENDBRANCH   4   6
ENDBRANCH   1   4
BRANCH   1  16
ATOM     16  C   UNL d   1       0.610  -1.266   1.001  0.00  0.00     0.080 A 
ATOM     17  C   UNL d   1       0.867  -2.585   0.627  0.00  0.00     0.027 A 
ATOM     18  C   UNL d   1       0.575  -3.629   1.514  0.00  0.00     0.032 A 
ATOM     19  C   UNL d   1       0.021  -3.384   2.782  0.00  0.00     0.046 A 
ATOM     20  C   UNL d   1      -0.245  -2.045   3.124  0.00  0.00     0.032 A 
ATOM     21  C   UNL d   1       0.064  -0.991   2.252  0.00  0.00     0.027 A 
BRANCH  19  22
ATOM     22  N   UNL d   1      -0.231  -4.445   3.699  0.00  0.00    -0.245 N 
ATOM     23  C   UNL d   1      -1.048  -4.374   4.795  0.00  0.00     0.255 A 
ATOM     24  C   UNL d   1      -0.980  -5.667   5.485  0.00  0.00     0.080 A 
ATOM     25  O   UNL d   1      -1.776  -3.482   5.197  0.00  0.00    -0.268 OA
ATOM     26  C   UNL d   1      -0.163  -6.456   4.794  0.00  0.00     0.080 A 
ATOM     27  C   UNL d   1       0.326  -5.695   3.638  0.00  0.00     0.255 A 
ATOM     28  O   UNL d   1       1.119  -6.186   2.853  0.00  0.00    -0.268 OA
ENDBRANCH  19  22
ENDBRANCH   1  16
TORSDOF 5
