REMARK  3 active torsions:
REMARK  status: ('A' for Active; 'I' for Inactive)
REMARK    1  A    between atoms: C_2  and  C_1 
REMARK    2  A    between atoms: C_16  and  C_10 
REMARK    3  A    between atoms: C_11  and  C_15 
ROOT
ATOM      1  C   UNL d   1      -0.330  -1.050   0.087  0.00  0.00     0.192 A 
ATOM      2  O   UNL d   1      -1.106   0.048  -0.210  0.00  0.00    -0.271 OA
ATOM      3  N   UNL d   1       0.877  -0.702   0.501  0.00  0.00    -0.276 N 
ATOM      4  HN  UNL d   1       1.627  -1.332   0.782  1.00  0.00     0.189 HD
ATOM      5  N   UNL d   1       0.928   0.674   0.478  0.00  0.00    -0.277 N 
ATOM      6  HN  UNL d   1       1.724   1.260   0.731  1.00  0.00     0.189 HD
ATOM      7  C   UNL d   1      -0.253   1.085   0.068  0.00  0.00     0.174 A 
ENDROOT
BRANCH   7   8
ATOM      8  C   UNL d   1      -0.749   2.443  -0.117  0.00  0.00     0.017 A 
ATOM      9  C   UNL d   1      -2.081   2.711  -0.462  0.00  0.00     0.017 A 
ATOM     10  C   UNL d   1      -2.528   4.027  -0.624  0.00  0.00     0.017 A 
ATOM     11  C   UNL d   1      -1.652   5.108  -0.449  0.00  0.00     0.048 A 
ATOM     12  C   UNL d   1      -0.320   4.844  -0.099  0.00  0.00     0.017 A 
ATOM     13  C   UNL d   1       0.123   3.528   0.065  0.00  0.00     0.017 A 
BRANCH  11  14
ATOM     14  C   UNL d   1      -2.116   6.534  -0.630  0.00  0.00     0.417 C 
ATOM     15  F   UNL d   1      -3.428   6.639  -0.981  0.00  0.00    -0.166 F 
ATOM     16  F   UNL d   1      -1.972   7.277   0.502  0.00  0.00    -0.166 F 
ATOM     17  F   UNL d   1      -1.418   7.188  -1.599  0.00  0.00    -0.166 F 
ENDBRANCH  11  14
ENDBRANCH   7   8
BRANCH   1  18
ATOM     18  C   UNL d   1      -0.782  -2.471  -0.037  0.00  0.00     0.092 A 
ATOM     19  N   UNL d   1      -2.027  -2.827  -0.537  0.00  0.00    -0.350 N 
ATOM     20  C   UNL d   1      -2.136  -4.140  -0.558  0.00  0.00     0.047 A 
ATOM     21  HN  UNL d   1      -2.747  -2.172  -0.842  1.00  0.00     0.166 HD
ATOM     22  C   UNL d   1      -3.315  -4.887  -1.075  0.00  0.00     0.076 C 
ATOM     23  S   UNL d   1      -0.786  -5.009   0.062  0.00  0.00    -0.087 SA
ATOM     24  C   UNL d   1       0.025  -3.528   0.337  0.00  0.00     0.085 A 
ENDBRANCH   1  18
TORSDOF 3
