REMARK  1 active torsions:
REMARK  status: ('A' for Active; 'I' for Inactive)
REMARK    1  A    between atoms: S_7  and  C_2 
ROOT
ATOM      1  C   UNL d   1      -0.005  -0.860  -0.028  0.00  0.00     0.044 A 
ATOM      2  C   UNL d   1       1.124  -1.663   0.011  0.00  0.00     0.087 A 
ATOM      3  C   UNL d   1       0.340   0.547   0.076  0.00  0.00    -0.017 A 
ATOM      4  S   UNL d   1       2.556  -0.746   0.200  0.00  0.00    -0.072 SA
ATOM      5  C   UNL d   1       1.702   0.712   0.185  0.00  0.00     0.060 A 
ATOM      6  C   UNL d   1      -1.395  -1.283  -0.209  0.00  0.00     0.162 C 
ATOM      7  C   UNL d   1      -0.699   1.635  -0.005  0.00  0.00     0.050 C 
ATOM      8  C   UNL d   1      -2.119   1.130   0.350  0.00  0.00    -0.037 C 
ATOM      9  C   UNL d   1      -2.431  -0.184  -0.404  0.00  0.00     0.093 C 
ATOM     10  O   UNL d   1      -1.728  -2.461  -0.286  0.00  0.00    -0.292 OA
ATOM     11 BR   UNL d   1       2.577   2.372   0.262  0.00  0.00    -0.042 Br
ATOM     12  C   UNL d   1      -3.148   2.193  -0.087  0.00  0.00     0.015 C 
ATOM     13  C   UNL d   1      -2.257   0.934   1.872  0.00  0.00     0.015 C 
ENDROOT
BRANCH   2  14
ATOM     14  S   UNL d   1       1.185  -3.401  -0.241  0.00  0.00     0.053 S 
ATOM     15  O   UNL d   1       2.632  -3.800  -0.219  0.00  0.00    -0.253 OA
ATOM     16  C   UNL d   1       0.460  -3.968   1.314  0.00  0.00     0.133 C 
ENDBRANCH   2  14
TORSDOF 1
