REMARK  3 active torsions:
REMARK  status: ('A' for Active; 'I' for Inactive)
REMARK    1  A    between atoms: C_2  and  S_1 
REMARK    2  A    between atoms: O_8  and  S_1 
REMARK    3  A    between atoms: C_11  and  O_8 
ROOT
ATOM      1  S   UNL d   1       1.075  -0.041   0.002  0.00  0.00     0.307 S 
ATOM      2  O   UNL d   1       0.339  -0.479   1.169  0.00  0.00    -0.193 OA
ATOM      3  O   UNL d   1       2.519   0.030  -0.036  0.00  0.00    -0.193 OA
ENDROOT
BRANCH   1   4
ATOM      4  C   UNL d   1       0.538   1.560  -0.254  0.00  0.00     0.142 A 
ATOM      5  C   UNL d   1      -0.761   1.984  -0.406  0.00  0.00     0.098 A 
ATOM      6  O   UNL d   1      -0.764   3.334  -0.573  0.00  0.00    -0.241 OA
ATOM      7  C   UNL d   1      -2.088   1.342  -0.411  0.00  0.00     0.081 C 
ATOM      8  N   UNL d   1       0.530   3.810  -0.521  0.00  0.00    -0.264 N 
ATOM      9  C   UNL d   1       1.312   2.741  -0.314  0.00  0.00     0.055 A 
ATOM     10  HN  UNL d   1       0.831   4.780  -0.620  1.00  0.00     0.194 HD
ATOM     11  C   UNL d   1       2.777   2.932  -0.178  0.00  0.00     0.072 C 
ENDBRANCH   1   4
BRANCH   1  12
ATOM     12  O   UNL d   1       0.510  -0.788  -1.333  0.00  0.00    -0.229 OA
BRANCH  12  13
ATOM     13  C   UNL d   1       0.677  -2.138  -1.517  0.00  0.00     0.089 A 
ATOM     14  C   UNL d   1      -0.304  -2.775  -2.283  0.00  0.00     0.040 A 
ATOM     15  C   UNL d   1      -0.211  -4.143  -2.557  0.00  0.00     0.026 A 
ATOM     16  C   UNL d   1       0.872  -4.872  -2.072  0.00  0.00     0.034 A 
ATOM     17  C   UNL d   1       1.861  -4.243  -1.319  0.00  0.00     0.026 A 
ATOM     18 CL   UNL d   1       0.998  -6.553  -2.416  0.00  0.00    -0.084 Cl
ATOM     19  C   UNL d   1       1.766  -2.875  -1.044  0.00  0.00     0.040 A 
ENDBRANCH  12  13
ENDBRANCH   1  12
TORSDOF 3
