REMARK  3 active torsions:
REMARK  status: ('A' for Active; 'I' for Inactive)
REMARK    1  A    between atoms: C_3  and  S_1 
REMARK    2  A    between atoms: C_9  and  S_1 
REMARK    3  A    between atoms: C_4  and  C_7 
ROOT
ATOM      1  C   UNL d   1      -1.204   2.490  -1.591  0.00  0.00     0.145 C 
ATOM      2  C   UNL d   1      -0.385   1.448  -1.820  0.00  0.00     0.054 C 
ATOM      3  C   UNL d   1      -2.605   2.472  -1.765  0.00  0.00     0.112 C 
ATOM      4  N   UNL d   1      -3.759   2.451  -1.878  0.00  0.00    -0.191 NA
ENDROOT
BRANCH   1   5
ATOM      5  S   UNL d   1      -0.441   3.995  -1.213  0.00  0.00     0.223 S 
ATOM      6  O   UNL d   1      -0.182   4.712  -2.447  0.00  0.00    -0.216 OA
ATOM      7  O   UNL d   1       0.631   3.785  -0.255  0.00  0.00    -0.216 OA
BRANCH   5   8
ATOM      8  C   UNL d   1      -1.606   5.034  -0.354  0.00  0.00     0.105 A 
ATOM      9  S   UNL d   1      -2.196   4.463   1.149  0.00  0.00    -0.090 SA
ATOM     10  C   UNL d   1      -3.111   5.888   1.401  0.00  0.00     0.051 A 
ATOM     11  C   UNL d   1      -2.970   6.785   0.365  0.00  0.00     0.009 A 
ATOM     12  C   UNL d   1      -2.105   6.289  -0.651  0.00  0.00     0.032 A 
ENDBRANCH   5   8
ENDBRANCH   1   5
BRANCH   2  13
ATOM     13  C   UNL d   1      -0.842   0.197  -2.322  0.00  0.00     0.015 A 
ATOM     14  S   UNL d   1      -0.668  -0.065  -4.037  0.00  0.00    -0.082 SA
ATOM     15  C   UNL d   1      -1.288  -1.600  -3.889  0.00  0.00     0.057 A 
ATOM     16  S   UNL d   1      -1.581  -2.791  -5.020  0.00  0.00    -0.093 SA
ATOM     17  C   UNL d   1      -1.595  -1.948  -2.627  0.00  0.00     0.002 A 
ATOM     18  C   UNL d   1      -2.120  -3.851  -3.767  0.00  0.00     0.058 A 
ATOM     19  C   UNL d   1      -2.046  -3.286  -2.493  0.00  0.00    -0.043 A 
ATOM     20  C   UNL d   1      -2.389  -4.046  -1.259  0.00  0.00     0.049 C 
ATOM     21  C   UNL d   1      -1.399  -0.916  -1.671  0.00  0.00    -0.032 A 
ATOM     22  C   UNL d   1      -1.713  -0.976  -0.212  0.00  0.00     0.050 C 
ENDBRANCH   2  13
TORSDOF 3
