REMARK  10 active torsions:
REMARK  status: ('A' for Active; 'I' for Inactive)
REMARK    1  A    between atoms: S_10  and  C_2 
REMARK    2  A    between atoms: S_11  and  C_3 
REMARK    3  A    between atoms: C_8  and  C_13 
REMARK    4  A    between atoms: C_9  and  C_12 
REMARK    5  A    between atoms: C_31  and  S_10 
REMARK    6  A    between atoms: C_30  and  S_11 
REMARK    7  A    between atoms: C_14  and  C_31 
REMARK       I    between atoms: N_16  and  C_14 
REMARK    8  A    between atoms: C_15  and  C_30 
REMARK       I    between atoms: N_17  and  C_15 
REMARK    9  A    between atoms: C_21  and  N_16 
REMARK   10  A    between atoms: C_20  and  N_17 
ROOT
ATOM      1  N   UNL d   1       1.245   0.021   0.001  0.00  0.00    -0.310 N 
ATOM      2  C   UNL d   1       0.382   0.893  -0.606  0.00  0.00     0.163 A 
ATOM      3  C   UNL d   1       0.436  -0.965   0.500  0.00  0.00     0.163 A 
ATOM      4  N   UNL d   1      -0.819  -0.707   0.211  0.00  0.00    -0.278 N 
ATOM      5  HN  UNL d   1      -1.623  -1.285   0.453  1.00  0.00     0.189 HD
ATOM      6  N   UNL d   1      -0.853   0.471  -0.467  0.00  0.00    -0.278 N 
ATOM      7  HN  UNL d   1      -1.690   0.944  -0.808  1.00  0.00     0.189 HD
ATOM      8  C   UNL d   1       2.680   0.100   0.066  0.00  0.00     0.160 C 
ENDROOT
BRANCH   2   9
ATOM      9  S   UNL d   1       0.824   2.250  -1.575  0.00  0.00    -0.083 SA
BRANCH   9  10
ATOM     10  C   UNL d   1      -0.304   3.534  -0.965  0.00  0.00     0.185 C 
BRANCH  10  11
ATOM     11  C   UNL d   1      -1.768   3.481  -1.400  0.00  0.00     0.231 C 
ATOM     12  N   UNL d   1      -2.231   2.289  -1.909  0.00  0.00    -0.327 N 
ATOM     13  H   UNL d   1      -1.575   1.515  -1.887  0.00  0.00     0.169 HD
ATOM     14  O   UNL d   1      -2.467   4.477  -1.206  0.00  0.00    -0.272 OA
BRANCH  12  15
ATOM     15  C   UNL d   1      -3.566   1.922  -2.173  0.00  0.00     0.035 A 
ATOM     16  C   UNL d   1      -4.630   2.821  -2.206  0.00  0.00     0.045 A 
ATOM     17  C   UNL d   1      -5.949   2.370  -2.390  0.00  0.00     0.050 A 
ATOM     18  C   UNL d   1      -6.186   0.998  -2.555  0.00  0.00     0.016 A 
ATOM     19  C   UNL d   1      -5.127   0.095  -2.554  0.00  0.00     0.003 A 
ATOM     20  C   UNL d   1      -3.821   0.556  -2.368  0.00  0.00     0.029 A 
BRANCH  17  21
ATOM     21  C   UNL d   1      -7.104   3.341  -2.380  0.00  0.00     0.417 C 
ATOM     22  F   UNL d   1      -6.729   4.648  -2.327  0.00  0.00    -0.166 F 
ATOM     23  F   UNL d   1      -7.891   3.224  -3.488  0.00  0.00    -0.166 F 
ATOM     24  F   UNL d   1      -7.931   3.146  -1.315  0.00  0.00    -0.166 F 
ENDBRANCH  17  21
ENDBRANCH  12  15
ENDBRANCH  10  11
ENDBRANCH   9  10
ENDBRANCH   2   9
BRANCH   3  25
ATOM     25  S   UNL d   1       0.984  -2.360   1.353  0.00  0.00    -0.083 SA
BRANCH  25  26
ATOM     26  C   UNL d   1      -0.566  -3.301   1.491  0.00  0.00     0.185 C 
BRANCH  26  27
ATOM     27  C   UNL d   1      -1.423  -2.801   2.645  0.00  0.00     0.231 C 
ATOM     28  N   UNL d   1      -2.248  -1.738   2.311  0.00  0.00    -0.327 N 
ATOM     29  H   UNL d   1      -2.113  -1.333   1.385  0.00  0.00     0.169 HD
ATOM     30  O   UNL d   1      -1.372  -3.359   3.739  0.00  0.00    -0.272 OA
BRANCH  28  31
ATOM     31  C   UNL d   1      -3.238  -1.126   3.105  0.00  0.00     0.035 A 
ATOM     32  C   UNL d   1      -3.496  -1.481   4.431  0.00  0.00     0.045 A 
ATOM     33  C   UNL d   1      -4.541  -0.879   5.151  0.00  0.00     0.050 A 
ATOM     34  C   UNL d   1      -5.332   0.092   4.521  0.00  0.00     0.016 A 
ATOM     35  C   UNL d   1      -5.066   0.472   3.207  0.00  0.00     0.003 A 
ATOM     36  C   UNL d   1      -4.018  -0.130   2.506  0.00  0.00     0.029 A 
BRANCH  33  37
ATOM     37  C   UNL d   1      -4.835  -1.295   6.571  0.00  0.00     0.417 C 
ATOM     38  F   UNL d   1      -3.891  -2.112   7.115  0.00  0.00    -0.166 F 
ATOM     39  F   UNL d   1      -4.935  -0.232   7.417  0.00  0.00    -0.166 F 
ATOM     40  F   UNL d   1      -6.016  -1.966   6.679  0.00  0.00    -0.166 F 
ENDBRANCH  33  37
ENDBRANCH  28  31
ENDBRANCH  26  27
ENDBRANCH  25  26
ENDBRANCH   3  25
TORSDOF 10
