REMARK  4 active torsions:
REMARK  status: ('A' for Active; 'I' for Inactive)
REMARK    1  A    between atoms: C_2  and  C_1 
REMARK    2  A    between atoms: N_14  and  C_5 
REMARK       I    between atoms: C_10  and  N_13 
REMARK    3  A    between atoms: C_15  and  C_10 
REMARK    4  A    between atoms: N_13  and  N_14 
ROOT
ATOM      1  C   UNL d   1       1.330   0.695  -0.040  0.00  0.00     0.075 A 
ATOM      2  N   UNL d   1       1.471  -0.678  -0.151  0.00  0.00    -0.333 N 
ATOM      3  HN  UNL d   1       2.345  -1.163  -0.353  1.00  0.00     0.168 HD
ATOM      4  C   UNL d   1       0.307  -1.263   0.042  0.00  0.00     0.164 A 
ATOM      5  S   UNL d   1      -1.023  -0.189   0.259  0.00  0.00    -0.062 SA
ATOM      6  C   UNL d   1       0.039   1.147   0.127  0.00  0.00     0.085 A 
ENDROOT
BRANCH   4   7
ATOM      7  N   UNL d   1       0.122  -2.602   0.070  0.00  0.00    -0.277 N 
ATOM      8  H   UNL d   1      -0.816  -2.987   0.196  0.00  0.00     0.189 HD
BRANCH   7   9
ATOM      9  N   UNL d   1       1.014  -3.472  -0.560  0.00  0.00    -0.264 N 
ATOM     10  C   UNL d   1       0.714  -4.818  -0.544  0.00  0.00     0.270 C 
ATOM     11  O   UNL d   1      -0.275  -5.287   0.009  0.00  0.00    -0.266 OA
ATOM     12  H   UNL d   1       1.897  -3.069  -0.861  0.00  0.00     0.190 HD
BRANCH  10  13
ATOM     13  C   UNL d   1       1.667  -5.707  -1.261  0.00  0.00     0.033 A 
ATOM     14  C   UNL d   1       1.848  -7.017  -0.795  0.00  0.00     0.019 A 
ATOM     15  C   UNL d   1       2.694  -7.894  -1.478  0.00  0.00     0.025 A 
ATOM     16  C   UNL d   1       3.348  -7.467  -2.634  0.00  0.00     0.034 A 
ATOM     17  C   UNL d   1       3.167  -6.167  -3.108  0.00  0.00     0.025 A 
ATOM     18 CL   UNL d   1       4.369  -8.553  -3.491  0.00  0.00    -0.084 Cl
ATOM     19  C   UNL d   1       2.327  -5.285  -2.423  0.00  0.00     0.019 A 
ENDBRANCH  10  13
ENDBRANCH   7   9
ENDBRANCH   4   7
BRANCH   1  20
ATOM     20  C   UNL d   1       2.501   1.615  -0.080  0.00  0.00     0.104 A 
ATOM     21  O   UNL d   1       2.433   2.974   0.067  0.00  0.00    -0.308 OA
ATOM     22  C   UNL d   1       3.705   3.452  -0.009  0.00  0.00     0.086 A 
ATOM     23  C   UNL d   1       4.075   4.791   0.098  0.00  0.00     0.038 A 
ATOM     24  C   UNL d   1       4.602   2.411  -0.213  0.00  0.00     0.001 A 
ATOM     25  C   UNL d   1       5.440   5.074  -0.029  0.00  0.00     0.003 A 
ATOM     26  C   UNL d   1       6.372   4.055  -0.245  0.00  0.00     0.001 A 
ATOM     27  C   UNL d   1       5.970   2.714  -0.334  0.00  0.00     0.014 A 
ATOM     28  C   UNL d   1       3.817   1.230  -0.244  0.00  0.00     0.054 A 
ENDBRANCH   1  20
TORSDOF 4
