REMARK  7 active torsions:
REMARK  status: ('A' for Active; 'I' for Inactive)
REMARK    1  A    between atoms: C_2  and  C_1 
REMARK    2  A    between atoms: O_3  and  C_1 
REMARK    3  A    between atoms: C_4  and  O_3 
REMARK    4  A    between atoms: O_15  and  C_5 
REMARK    5  A    between atoms: C_11  and  C_16 
REMARK    6  A    between atoms: C_17  and  C_12 
REMARK    7  A    between atoms: C_16  and  C_17 
ROOT
ATOM      1  C   UNL d   1      -0.932  -0.190  -1.069  0.00  0.00     0.112 A 
ATOM      2  C   UNL d   1      -1.596   0.853  -0.410  0.00  0.00     0.102 A 
ATOM      3  C   UNL d   1      -2.993   0.944  -0.514  0.00  0.00     0.046 A 
ATOM      4  C   UNL d   1      -1.657  -1.094  -1.853  0.00  0.00     0.041 A 
ATOM      5  C   UNL d   1      -3.732   0.039  -1.290  0.00  0.00    -0.055 A 
ATOM      6  C   UNL d   1      -3.045  -0.970  -1.973  0.00  0.00     0.010 A 
ENDROOT
BRANCH   1   7
ATOM      7  O   UNL d   1       0.441  -0.408  -0.786  0.00  0.00    -0.272 OA
BRANCH   7   8
ATOM      8  C   UNL d   1       1.310  -1.050  -1.651  0.00  0.00     0.300 C 
ATOM      9  O   UNL d   1       1.096  -1.317  -2.824  0.00  0.00    -0.259 OA
BRANCH   8  10
ATOM     10  C   UNL d   1       2.630  -1.298  -1.010  0.00  0.00     0.061 A 
ATOM     11  C   UNL d   1       2.844  -1.546   0.354  0.00  0.00     0.050 A 
ATOM     12 CL   UNL d   1       1.589  -1.621   1.539  0.00  0.00    -0.083 Cl
ATOM     13  C   UNL d   1       4.142  -1.810   0.820  0.00  0.00     0.025 A 
ATOM     14  C   UNL d   1       5.224  -1.846  -0.059  0.00  0.00     0.002 A 
ATOM     15  C   UNL d   1       5.020  -1.613  -1.414  0.00  0.00     0.001 A 
ATOM     16  C   UNL d   1       3.734  -1.340  -1.886  0.00  0.00     0.019 A 
ENDBRANCH   8  10
ENDBRANCH   7   8
ENDBRANCH   1   7
BRANCH   2  17
ATOM     17  O   UNL d   1      -1.047   1.802   0.411  0.00  0.00    -0.353 OA
ATOM     18  C   UNL d   1       0.299   2.177   0.150  0.00  0.00     0.210 C 
ENDBRANCH   2  17
BRANCH   5  19
ATOM     19  C   UNL d   1      -5.242   0.087  -1.321  0.00  0.00     0.046 C 
BRANCH  19  20
ATOM     20  C   UNL d   1      -5.811   1.382  -1.899  0.00  0.00     0.082 C 
BRANCH  20  21
ATOM     21  C   UNL d   1      -7.329   1.360  -1.934  0.00  0.00     0.123 C 
ATOM     22  O   UNL d   1      -7.990   0.394  -1.551  0.00  0.00    -0.298 OA
ATOM     23  C   UNL d   1      -8.005   2.597  -2.464  0.00  0.00     0.091 C 
ENDBRANCH  20  21
ENDBRANCH  19  20
ENDBRANCH   5  19
TORSDOF 7
