REMARK  7 active torsions:
REMARK  status: ('A' for Active; 'I' for Inactive)
REMARK    1  A    between atoms: N_2  and  C_1 
REMARK    2  A    between atoms: C_4  and  N_2 
REMARK    3  A    between atoms: C_12  and  N_6 
REMARK    4  A    between atoms: O_10  and  C_7 
REMARK    5  A    between atoms: N_8  and  C_13 
REMARK    6  A    between atoms: C_9  and  C_12 
REMARK    7  A    between atoms: C_13  and  C_9 
ROOT
ATOM      1  C   UNL d   1       1.080  -0.024  -0.048  0.00  0.00     0.172 C 
ATOM      2  S   UNL d   1       0.316   0.991  -1.142  0.00  0.00    -0.041 SA
ATOM      3  N   UNL d   1       2.444  -0.005  -0.049  0.00  0.00    -0.367 N 
ATOM      4  H   UNL d   1       2.828   0.625  -0.746  0.00  0.00     0.161 HD
ENDROOT
BRANCH   1   5
ATOM      5  N   UNL d   1       0.491  -0.847   0.884  0.00  0.00    -0.333 N 
ATOM      6  H   UNL d   1       0.944  -0.842   1.796  0.00  0.00     0.168 HD
BRANCH   5   7
ATOM      7  C   UNL d   1      -0.817  -1.373   0.808  0.00  0.00     0.036 A 
ATOM      8  C   UNL d   1      -1.305  -1.869  -0.403  0.00  0.00     0.066 A 
ATOM      9  C   UNL d   1      -2.607  -2.348  -0.509  0.00  0.00     0.070 A 
ATOM     10  C   UNL d   1      -3.418  -2.361   0.626  0.00  0.00     0.037 A 
ATOM     11  C   UNL d   1      -2.917  -1.922   1.856  0.00  0.00     0.005 A 
ATOM     12  C   UNL d   1      -1.610  -1.444   1.955  0.00  0.00     0.029 A 
BRANCH   9  13
ATOM     13  O   UNL d   1      -3.189  -2.818  -1.657  0.00  0.00    -0.356 OA
ATOM     14  C   UNL d   1      -2.397  -2.741  -2.840  0.00  0.00     0.210 C 
ENDBRANCH   9  13
ENDBRANCH   5   7
ENDBRANCH   1   5
BRANCH   3  15
ATOM     15  C   UNL d   1       3.311  -1.078   0.403  0.00  0.00     0.123 C 
BRANCH  15  16
ATOM     16  C   UNL d   1       4.275  -0.619   1.488  0.00  0.00     0.050 C 
BRANCH  16  17
ATOM     17  C   UNL d   1       3.587  -0.242   2.806  0.00  0.00     0.273 C 
BRANCH  17  18
ATOM     18  N   UNL d   1       2.686  -1.278   3.348  0.00  0.00     0.080 N 
ATOM     19  C   UNL d   1       3.420  -2.499   3.707  0.00  0.00     0.309 C 
ATOM     20  C   UNL d   1       1.992  -0.764   4.533  0.00  0.00     0.309 C 
ENDBRANCH  17  18
ENDBRANCH  16  17
ENDBRANCH  15  16
ENDBRANCH   3  15
TORSDOF 7
