REMARK  4 active torsions:
REMARK  status: ('A' for Active; 'I' for Inactive)
REMARK       I    between atoms: N_3  and  C_1 
REMARK       I    between atoms: N_5  and  C_1 
REMARK    1  A    between atoms: C_2  and  C_4 
REMARK    2  A    between atoms: O_10  and  C_2 
REMARK    3  A    between atoms: C_8  and  N_3 
REMARK    4  A    between atoms: C_11  and  N_5 
ROOT
ATOM      1  C   UNL d   1       1.000   0.017   0.101  0.00  0.00     0.325 C 
ATOM      2  N   UNL d   1       0.385  -0.603  -0.981  0.00  0.00    -0.309 N 
ATOM      3  N   UNL d   1       0.130   0.859   0.773  0.00  0.00    -0.309 N 
ATOM      4  O   UNL d   1       2.175  -0.138   0.402  0.00  0.00    -0.247 OA
ATOM      5  H   UNL d   1      -0.497  -0.222  -1.283  0.00  0.00     0.170 HD
ATOM      6  H   UNL d   1      -0.841   0.826   0.509  0.00  0.00     0.170 HD
ENDROOT
BRANCH   2   7
ATOM      7  C   UNL d   1       1.036  -1.483  -1.880  0.00  0.00     0.037 A 
ATOM      8  C   UNL d   1       2.256  -2.098  -1.587  0.00  0.00     0.047 A 
ATOM      9  C   UNL d   1       2.929  -2.870  -2.541  0.00  0.00     0.041 A 
ATOM     10  C   UNL d   1       2.346  -3.067  -3.796  0.00  0.00     0.018 A 
ATOM     11  C   UNL d   1       1.100  -2.506  -4.081  0.00  0.00     0.003 A 
ATOM     12  C   UNL d   1       0.444  -1.722  -3.125  0.00  0.00     0.029 A 
BRANCH   9  13
ATOM     13  C   UNL d   1       4.263  -3.465  -2.255  0.00  0.00     0.293 C 
ATOM     14  O   UNL d   1       4.879  -4.157  -3.050  0.00  0.00    -0.259 OA
BRANCH  13  15
ATOM     15  O   UNL d   1       4.680  -3.118  -1.015  0.00  0.00    -0.323 OA
ATOM     16  C   UNL d   1       5.973  -3.600  -0.648  0.00  0.00     0.213 C 
ENDBRANCH  13  15
ENDBRANCH   9  13
ENDBRANCH   2   7
BRANCH   3  17
ATOM     17  C   UNL d   1       0.464   1.716   1.849  0.00  0.00     0.036 A 
ATOM     18  C   UNL d   1       1.754   1.845   2.376  0.00  0.00     0.029 A 
ATOM     19  C   UNL d   1       2.015   2.718   3.435  0.00  0.00     0.002 A 
ATOM     20  C   UNL d   1       0.988   3.481   3.977  0.00  0.00     0.000 A 
ATOM     21  C   UNL d   1      -0.300   3.369   3.460  0.00  0.00     0.002 A 
ATOM     22  C   UNL d   1      -0.562   2.490   2.403  0.00  0.00     0.029 A 
ENDBRANCH   3  17
TORSDOF 4
