REMARK  4 active torsions:
REMARK  status: ('A' for Active; 'I' for Inactive)
REMARK    1  A    between atoms: C_2  and  N_1 
REMARK    2  A    between atoms: N_5  and  N_9 
REMARK    3  A    between atoms: N_9  and  C_7 
REMARK    4  A    between atoms: N_15  and  C_8 
ROOT
ATOM      1  C   UNL d   1       0.571  -0.820  -0.931  0.00  0.00     0.118 A 
ATOM      2  N   UNL d   1      -0.745  -0.995  -2.944  0.00  0.00    -0.349 N 
ATOM      3  HN  UNL d   1      -1.171  -0.540  -3.751  1.00  0.00     0.167 HD
ATOM      4  C   UNL d   1      -0.887  -2.334  -2.758  0.00  0.00     0.121 A 
ATOM      5  C   UNL d   1      -0.030  -0.267  -2.046  0.00  0.00     0.125 A 
ATOM      6  C   UNL d   1       0.452  -2.189  -0.725  0.00  0.00     0.041 A 
ATOM      7  C   UNL d   1      -0.283  -2.942  -1.645  0.00  0.00     0.052 A 
ENDROOT
BRANCH   4   8
ATOM      8  N   UNL d   1      -1.700  -3.118  -3.628  0.00  0.00    -0.280 N 
ATOM      9  C   UNL d   1      -1.144  -4.428  -3.976  0.00  0.00     0.179 C 
BRANCH   8  10
ATOM     10  N   UNL d   1      -2.457  -2.584  -4.645  0.00  0.00    -0.293 N 
ATOM     11  C   UNL d   1      -3.131  -1.500  -4.435  0.00  0.00     0.194 C 
ATOM     12  HN  UNL d   1      -2.486  -3.040  -5.557  1.00  0.00     0.188 HD
BRANCH  11  13
ATOM     13  N   UNL d   1      -3.998  -0.915  -5.336  0.00  0.00    -0.385 N 
ATOM     14  C   UNL d   1      -4.593   0.383  -5.080  0.00  0.00     0.149 C 
ATOM     15  C   UNL d   1      -4.638  -1.716  -6.368  0.00  0.00     0.149 C 
ENDBRANCH  11  13
ENDBRANCH   8  10
ENDBRANCH   4   8
BRANCH   1  16
ATOM     16  N   UNL d   1       1.285   0.021   0.013  0.00  0.00    -0.114 N 
ATOM     17  O   UNL d   1       1.325   1.241  -0.213  0.00  0.00    -0.532 OA
ATOM     18  O   UNL d   1       1.807  -0.526   0.994  0.00  0.00    -0.532 OA
ENDBRANCH   1  16
TORSDOF 4
