REMARK  5 active torsions:
REMARK  status: ('A' for Active; 'I' for Inactive)
REMARK    1  A    between atoms: C_2  and  C_1 
REMARK    2  A    between atoms: C_4  and  C_7 
REMARK    3  A    between atoms: O_13  and  C_4 
REMARK    4  A    between atoms: O_10  and  N_5 
REMARK    5  A    between atoms: C_7  and  O_10 
ROOT
ATOM      1  C   UNL d   1      -0.204   2.663  -0.011  0.00  0.00     0.045 C 
ATOM      2  N   UNL d   1      -1.421   3.141  -0.017  0.00  0.00    -0.270 N 
ATOM      3  HN  UNL d   1      -1.651   4.135  -0.021  1.00  0.00     0.194 HD
ATOM      4  C   UNL d   1       0.037   1.161  -0.004  0.00  0.00     0.071 C 
ENDROOT
BRANCH   2   5
ATOM      5  O   UNL d   1      -2.370   2.105  -0.017  0.00  0.00    -0.270 OA
BRANCH   5   6
ATOM      6  C   UNL d   1      -3.690   2.650  -0.020  0.00  0.00     0.311 C 
BRANCH   6   7
ATOM      7  C   UNL d   1      -4.676   1.494  -0.016  0.00  0.00     0.166 C 
ATOM      8  O   UNL d   1      -5.891   1.629  -0.018  0.00  0.00    -0.648 OA
BRANCH   7   9
ATOM      9  O   UNL d   1      -4.089   0.269  -0.011  0.00  0.00    -0.775 OA
ATOM     10  H   UNL d   1      -3.111   0.364  -0.011  0.00  0.00     0.167 HD
ENDBRANCH   7   9
ENDBRANCH   6   7
ENDBRANCH   5   6
ENDBRANCH   2   5
BRANCH   1  11
ATOM     11  C   UNL d   1       0.911   3.607  -0.011  0.00  0.00     0.029 A 
ATOM     12  S   UNL d   1       2.548   3.083  -0.002  0.00  0.00    -0.100 SA
ATOM     13  C   UNL d   1       3.152   4.676  -0.007  0.00  0.00     0.050 A 
ATOM     14  C   UNL d   1       2.140   5.606  -0.015  0.00  0.00     0.008 A 
ATOM     15  C   UNL d   1       0.852   4.992  -0.016  0.00  0.00     0.021 A 
ENDBRANCH   1  11
TORSDOF 5
