REMARK  3 active torsions:
REMARK  status: ('A' for Active; 'I' for Inactive)
REMARK    1  A    between atoms: N_8  and  C_2 
REMARK    2  A    between atoms: C_10  and  C_3 
REMARK       I    between atoms: C_9  and  N_8 
REMARK       I    between atoms: N_14  and  C_9 
REMARK    3  A    between atoms: C_17  and  N_14 
ROOT
ATOM      1  N   UNL d   1       0.125   2.447   0.021  0.00  0.00    -0.287 N 
ATOM      2  C   UNL d   1       1.327   3.077   0.138  0.00  0.00     0.326 C 
ATOM      3  N   UNL d   1       2.438   2.256   0.126  0.00  0.00    -0.309 N 
ATOM      4  O   UNL d   1       1.496   4.277   0.334  0.00  0.00    -0.247 OA
ATOM      5  H   UNL d   1       0.105   1.445   0.109  0.00  0.00     0.172 HD
ATOM      6  H   UNL d   1       3.249   2.725   0.516  0.00  0.00     0.170 HD
ENDROOT
BRANCH   1   7
ATOM      7  C   UNL d   1      -1.132   2.983   0.003  0.00  0.00     0.169 A 
ATOM      8  S   UNL d   1      -1.487   4.647   0.031  0.00  0.00    -0.037 SA
ATOM      9  C   UNL d   1      -3.149   4.214   0.007  0.00  0.00     0.074 A 
ATOM     10  N   UNL d   1      -3.362   2.916  -0.044  0.00  0.00    -0.296 N 
ATOM     11  N   UNL d   1      -2.189   2.201  -0.043  0.00  0.00    -0.279 N 
ATOM     12  HN  UNL d   1      -4.289   2.491  -0.080  1.00  0.00     0.187 HD
ATOM     13  HN  UNL d   1      -2.142   1.182  -0.074  1.00  0.00     0.189 HD
BRANCH   9  14
ATOM     14  C   UNL d   1      -4.352   5.155   0.037  0.00  0.00     0.044 A 
ATOM     15  C   UNL d   1      -4.296   6.497  -0.657  0.00  0.00     0.012 A 
ATOM     16  C   UNL d   1      -4.313   6.441   0.833  0.00  0.00     0.012 A 
ENDBRANCH   9  14
ENDBRANCH   1   7
BRANCH   3  17
ATOM     17  C   UNL d   1       2.579   0.894  -0.209  0.00  0.00     0.039 A 
ATOM     18  C   UNL d   1       1.728   0.231  -1.099  0.00  0.00     0.069 A 
ATOM     19  C   UNL d   1       1.815  -1.152  -1.256  0.00  0.00     0.104 A 
ATOM     20  O   UNL d   1       0.863  -1.737  -2.051  0.00  0.00    -0.346 OA
ATOM     21  C   UNL d   1       2.812  -1.876  -0.603  0.00  0.00     0.102 A 
ATOM     22  C   UNL d   1       0.723  -3.124  -1.723  0.00  0.00     0.202 C 
ATOM     23  C   UNL d   1       2.085  -3.799  -1.698  0.00  0.00     0.202 C 
ATOM     24  O   UNL d   1       2.933  -3.238  -0.688  0.00  0.00    -0.346 OA
ATOM     25  C   UNL d   1       3.730  -1.208   0.204  0.00  0.00     0.042 A 
ATOM     26  C   UNL d   1       3.619   0.177   0.393  0.00  0.00     0.032 A 
ENDBRANCH   3  17
TORSDOF 3
