REMARK  3 active torsions:
REMARK  status: ('A' for Active; 'I' for Inactive)
REMARK    1  A    between atoms: O_13  and  C_3 
REMARK    2  A    between atoms: O_14  and  C_4 
REMARK    3  A    between atoms: O_15  and  C_9 
ROOT
ATOM      1  C   UNL d   1      -0.009  -0.455  -0.003  0.00  0.00     0.064 A 
ATOM      2  C   UNL d   1      -0.341   0.911   0.004  0.00  0.00     0.085 A 
ATOM      3  C   UNL d   1      -1.712   1.267   0.010  0.00  0.00     0.132 A 
ATOM      4  C   UNL d   1      -2.704   0.244   0.010  0.00  0.00     0.137 A 
ATOM      5  C   UNL d   1       1.419  -0.829  -0.010  0.00  0.00     0.259 A 
ATOM      6  C   UNL d   1      -0.974  -1.462  -0.005  0.00  0.00     0.059 A 
ATOM      7  N   UNL d   1       0.680   1.885   0.008  0.00  0.00    -0.349 N 
ATOM      8  HN  UNL d   1       0.445   2.878   0.014  1.00  0.00     0.166 HD
ATOM      9  C   UNL d   1      -2.321  -1.122   0.003  0.00  0.00     0.105 A 
ATOM     10  N   UNL d   1       2.309   0.210  -0.005  0.00  0.00    -0.319 N 
ATOM     11  C   UNL d   1       1.910   1.508   0.003  0.00  0.00     0.184 A 
ATOM     12  O   UNL d   1       1.792  -1.997  -0.018  0.00  0.00    -0.267 OA
ATOM     13  H   UNL d   1       3.287  -0.035  -0.011  0.00  0.00     0.169 HD
ENDROOT
BRANCH   3  14
ATOM     14  O   UNL d   1      -2.187   2.553   0.015  0.00  0.00    -0.351 OA
ATOM     15  C   UNL d   1      -1.321   3.674   0.017  0.00  0.00     0.210 C 
ENDBRANCH   3  14
BRANCH   4  16
ATOM     16  O   UNL d   1      -4.073   0.422   0.017  0.00  0.00    -0.351 OA
ATOM     17  C   UNL d   1      -4.624   1.730   0.034  0.00  0.00     0.210 C 
ENDBRANCH   4  16
BRANCH   9  18
ATOM     18  O   UNL d   1      -3.337  -2.052   0.005  0.00  0.00    -0.353 OA
ATOM     19  C   UNL d   1      -2.975  -3.429  -0.008  0.00  0.00     0.210 C 
ENDBRANCH   9  18
TORSDOF 3
