REMARK  2 active torsions:
REMARK  status: ('A' for Active; 'I' for Inactive)
REMARK    1  A    between atoms: C_7  and  C_2 
REMARK    2  A    between atoms: S_13  and  C_3 
ROOT
ATOM      1  C   UNL d   1      -0.479  -1.473   0.120  0.00  0.00     0.135 C 
ATOM      2  C   UNL d   1       0.433   1.397  -0.028  0.00  0.00     0.189 C 
ATOM      3  C   UNL d   1      -1.499  -0.593   0.169  0.00  0.00     0.065 C 
ATOM      4  S   UNL d   1      -1.290   1.123   0.378  0.00  0.00    -0.091 SA
ATOM      5  N   UNL d   1       1.282   0.250   0.114  0.00  0.00    -0.338 N 
ATOM      6  C   UNL d   1       0.944  -1.057   0.188  0.00  0.00     0.265 C 
ATOM      7  C   UNL d   1      -0.690  -2.878   0.001  0.00  0.00     0.107 C 
ATOM      8  N   UNL d   1      -0.897  -4.013  -0.128  0.00  0.00    -0.191 NA
ATOM      9  O   UNL d   1       1.849  -1.881   0.297  0.00  0.00    -0.267 OA
ATOM     10  H   UNL d   1       2.281   0.409   0.166  0.00  0.00     0.164 HD
ENDROOT
BRANCH   3  11
ATOM     11  S   UNL d   1      -3.188  -1.105   0.154  0.00  0.00    -0.126 SA
ATOM     12  C   UNL d   1      -3.423  -1.558  -1.584  0.00  0.00     0.096 C 
ENDBRANCH   3  11
BRANCH   2  13
ATOM     13  C   UNL d   1       0.653   2.160  -1.324  0.00  0.00     0.018 A 
ATOM     14  C   UNL d   1       0.435   1.597  -2.600  0.00  0.00     0.044 A 
ATOM     15 CL   UNL d   1      -0.077  -0.032  -2.858  0.00  0.00    -0.084 Cl
ATOM     16  C   UNL d   1       0.625   2.342  -3.774  0.00  0.00     0.024 A 
ATOM     17  C   UNL d   1       1.045   3.663  -3.716  0.00  0.00     0.003 A 
ATOM     18  C   UNL d   1       1.276   4.244  -2.477  0.00  0.00     0.024 A 
ATOM     19  C   UNL d   1       1.082   3.510  -1.298  0.00  0.00     0.044 A 
ATOM     20 CL   UNL d   1       1.408   4.369   0.172  0.00  0.00    -0.084 Cl
ENDBRANCH   2  13
TORSDOF 2
