REMARK  6 active torsions:
REMARK  status: ('A' for Active; 'I' for Inactive)
REMARK    1  A    between atoms: N_2  and  C_1 
REMARK    2  A    between atoms: C_3  and  C_1 
REMARK    3  A    between atoms: C_4  and  C_1 
REMARK    4  A    between atoms: N_6  and  C_1 
REMARK       I    between atoms: C_5  and  N_2 
REMARK    5  A    between atoms: C_7  and  C_5 
REMARK    6  A    between atoms: C_8  and  N_6 
ROOT
ATOM      1  C   UNL d   1       0.817   0.083   0.025  0.00  0.00     0.306 C 
ENDROOT
BRANCH   1   2
ATOM      2  N   UNL d   1       0.360  -0.523  -1.274  0.00  0.00    -0.315 N 
ATOM      3  C   UNL d   1       0.315  -1.867  -1.566  0.00  0.00     0.255 C 
ATOM      4  O   UNL d   1       0.656  -2.715  -0.758  0.00  0.00    -0.268 OA
ATOM      5  H   UNL d   1       0.128   0.148  -1.988  0.00  0.00     0.165 HD
BRANCH   3   6
ATOM      6  C   UNL d   1      -0.225  -2.240  -2.907  0.00  0.00     0.047 A 
ATOM      7  C   UNL d   1      -0.621  -3.554  -3.121  0.00  0.00     0.104 A 
ATOM      8  N   UNL d   1      -1.174  -4.007  -4.280  0.00  0.00    -0.374 N 
ATOM      9  C   UNL d   1      -1.333  -3.108  -5.276  0.00  0.00     0.087 A 
ATOM     10  HN  UNL d   1      -1.455  -4.981  -4.391  1.00  0.00     0.164 HD
ATOM     11  C   UNL d   1      -0.955  -1.782  -5.172  0.00  0.00     0.018 A 
ATOM     12  C   UNL d   1      -0.388  -1.343  -3.972  0.00  0.00     0.020 A 
ENDBRANCH   3   6
ENDBRANCH   1   2
BRANCH   1  13
ATOM     13  C   UNL d   1       0.228  -0.621   1.306  0.00  0.00     0.441 C 
ATOM     14  F   UNL d   1      -0.892  -1.342   1.046  0.00  0.00    -0.166 F 
ATOM     15  F   UNL d   1       1.140  -1.482   1.838  0.00  0.00    -0.166 F 
ATOM     16  F   UNL d   1      -0.086   0.233   2.306  0.00  0.00    -0.166 F 
ENDBRANCH   1  13
BRANCH   1  17
ATOM     17  C   UNL d   1       0.295   1.561   0.094  0.00  0.00     0.441 C 
ATOM     18  F   UNL d   1      -0.003   1.996  -1.169  0.00  0.00    -0.166 F 
ATOM     19  F   UNL d   1      -0.843   1.739   0.797  0.00  0.00    -0.166 F 
ATOM     20  F   UNL d   1       1.222   2.414   0.580  0.00  0.00    -0.166 F 
ENDBRANCH   1  17
BRANCH   1  21
ATOM     21  N   UNL d   1       2.299  -0.042  -0.007  0.00  0.00    -0.349 N 
ATOM     22  H   UNL d   1       2.608  -0.924   0.405  0.00  0.00     0.162 HD
BRANCH  21  23
ATOM     23  C   UNL d   1       3.214   0.530  -0.866  0.00  0.00     0.033 A 
ATOM     24  C   UNL d   1       2.889   1.329  -1.962  0.00  0.00     0.071 A 
ATOM     25  C   UNL d   1       3.885   1.923  -2.737  0.00  0.00     0.118 A 
ATOM     26  F   UNL d   1       3.529   2.653  -3.803  0.00  0.00    -0.206 F 
ATOM     27  C   UNL d   1       5.227   1.775  -2.427  0.00  0.00     0.042 A 
ATOM     28  C   UNL d   1       5.577   1.018  -1.317  0.00  0.00     0.005 A 
ATOM     29  C   UNL d   1       4.579   0.407  -0.548  0.00  0.00     0.029 A 
ENDBRANCH  21  23
ENDBRANCH   1  21
TORSDOF 6
