REMARK  7 active torsions:
REMARK  status: ('A' for Active; 'I' for Inactive)
REMARK    1  A    between atoms: C_11  and  C_1 
REMARK    2  A    between atoms: C_12  and  C_6 
REMARK    3  A    between atoms: C_13  and  C_9 
REMARK    4  A    between atoms: O_17  and  C_11 
REMARK    5  A    between atoms: O_18  and  C_12 
REMARK    6  A    between atoms: O_19  and  C_13 
REMARK    7  A    between atoms: O_20  and  C_13 
ROOT
ATOM      1  C   UNL d   1      -2.112  -0.070   0.111  0.00  0.00     0.109 A 
ATOM      2  C   UNL d   1       0.320  -0.483   0.204  0.00  0.00     0.088 A 
ATOM      3  C   UNL d   1       0.048   0.861   0.016  0.00  0.00     0.027 A 
ATOM      4  S   UNL d   1      -1.081  -1.430   0.329  0.00  0.00    -0.063 SA
ATOM      5  C   UNL d   1      -1.368   1.093  -0.013  0.00  0.00     0.062 A 
ATOM      6  C   UNL d   1       2.458   1.157  -0.113  0.00  0.00     0.068 A 
ATOM      7  N   UNL d   1       1.534  -1.053   0.268  0.00  0.00    -0.348 N 
ATOM      8  HN  UNL d   1       1.652  -2.051   0.439  1.00  0.00     0.166 HD
ATOM      9  C   UNL d   1       2.601  -0.220   0.090  0.00  0.00     0.082 A 
ATOM     10  C   UNL d   1       1.165   1.709  -0.128  0.00  0.00     0.036 A 
ATOM     11  N   UNL d   1      -1.896   2.328  -0.180  0.00  0.00    -0.397 N 
ATOM     12  H   UNL d   1      -1.350   3.178  -0.089  0.00  0.00     0.156 HD
ATOM     13  H   UNL d   1      -2.903   2.480  -0.098  0.00  0.00     0.156 HD
ENDROOT
BRANCH   9  14
ATOM     14  C   UNL d   1       3.973  -0.906   0.108  0.00  0.00     0.310 C 
BRANCH  14  15
ATOM     15  O   UNL d   1       4.359  -1.018   1.483  0.00  0.00    -0.360 OA
ATOM     16  C   UNL d   1       5.650  -1.588   1.636  0.00  0.00     0.205 C 
ENDBRANCH  14  15
BRANCH  14  17
ATOM     17  O   UNL d   1       3.940  -2.213  -0.496  0.00  0.00    -0.360 OA
ATOM     18  C   UNL d   1       3.612  -2.192  -1.877  0.00  0.00     0.205 C 
ENDBRANCH  14  17
ENDBRANCH   9  14
BRANCH   6  19
ATOM     19  C   UNL d   1       3.615   2.059  -0.344  0.00  0.00     0.295 C 
ATOM     20  O   UNL d   1       4.725   1.915   0.128  0.00  0.00    -0.259 OA
BRANCH  19  21
ATOM     21  O   UNL d   1       3.235   3.034  -1.211  0.00  0.00    -0.322 OA
ATOM     22  C   UNL d   1       4.255   3.969  -1.570  0.00  0.00     0.213 C 
ENDBRANCH  19  21
ENDBRANCH   6  19
BRANCH   1  23
ATOM     23  C   UNL d   1      -3.544  -0.308   0.084  0.00  0.00     0.302 C 
ATOM     24  O   UNL d   1      -4.100  -1.400   0.145  0.00  0.00    -0.259 OA
BRANCH  23  25
ATOM     25  O   UNL d   1      -4.226   0.874  -0.028  0.00  0.00    -0.322 OA
ATOM     26  C   UNL d   1      -5.645   0.721  -0.090  0.00  0.00     0.213 C 
ENDBRANCH  23  25
ENDBRANCH   1  23
TORSDOF 7
