REMARK  7 active torsions:
REMARK  status: ('A' for Active; 'I' for Inactive)
REMARK    1  A    between atoms: C_4  and  C_1 
REMARK    2  A    between atoms: C_18  and  C_5 
REMARK    3  A    between atoms: C_8  and  C_9 
REMARK    4  A    between atoms: S_24  and  C_15 
REMARK    5  A    between atoms: C_17  and  N_20 
REMARK       I    between atoms: N_20  and  C_21 
REMARK    6  A    between atoms: C_21  and  C_29 
REMARK    7  A    between atoms: C_29  and  S_24 
ROOT
ATOM      1  N   UNL d   1       3.462  -6.725  -1.427  0.00  0.00    -0.335 N 
ATOM      2  HN  UNL d   1       3.446  -6.957  -0.434  1.00  0.00     0.168 HD
ATOM      3  C   UNL d   1       3.706  -7.647  -2.367  0.00  0.00     0.145 A 
ATOM      4  C   UNL d   1       3.239  -5.470  -1.871  0.00  0.00     0.062 A 
ATOM      5  N   UNL d   1       3.729  -7.429  -3.688  0.00  0.00    -0.347 N 
ATOM      6  HN  UNL d   1       3.910  -8.179  -4.356  1.00  0.00     0.167 HD
ATOM      7  C   UNL d   1       3.252  -5.136  -3.210  0.00  0.00     0.049 A 
ATOM      8  C   UNL d   1       3.502  -6.165  -4.083  0.00  0.00     0.092 A 
ENDROOT
BRANCH   3   9
ATOM      9  S   UNL d   1       4.221  -9.236  -1.772  0.00  0.00    -0.085 SA
BRANCH   9  10
ATOM     10  C   UNL d   1       5.805  -9.337  -2.651  0.00  0.00     0.185 C 
BRANCH  10  11
ATOM     11  C   UNL d   1       6.808  -8.235  -2.330  0.00  0.00     0.231 C 
ATOM     12  N   UNL d   1       6.564  -7.467  -1.206  0.00  0.00    -0.326 N 
ATOM     13  H   UNL d   1       5.940  -7.887  -0.523  0.00  0.00     0.169 HD
ATOM     14  O   UNL d   1       7.830  -8.119  -3.012  0.00  0.00    -0.272 OA
BRANCH  12  15
ATOM     15  C   UNL d   1       7.428  -6.447  -0.756  0.00  0.00     0.049 A 
ATOM     16  C   UNL d   1       8.033  -5.484  -1.580  0.00  0.00     0.074 A 
ATOM     17  C   UNL d   1       9.008  -4.633  -1.012  0.00  0.00     0.018 A 
ATOM     18  C   UNL d   1       9.329  -4.698   0.343  0.00  0.00     0.001 A 
ATOM     19  C   UNL d   1       8.652  -5.589   1.165  0.00  0.00     0.002 A 
ATOM     20  C   UNL d   1       7.695  -6.447   0.623  0.00  0.00     0.030 A 
BRANCH  16  21
ATOM     21  C   UNL d   1       7.645  -5.193  -3.012  0.00  0.00     0.419 C 
ATOM     22  F   UNL d   1       6.545  -5.841  -3.485  0.00  0.00    -0.166 F 
ATOM     23  F   UNL d   1       7.333  -3.865  -3.169  0.00  0.00    -0.166 F 
ATOM     24  F   UNL d   1       8.651  -5.419  -3.903  0.00  0.00    -0.166 F 
ENDBRANCH  16  21
ENDBRANCH  12  15
ENDBRANCH  10  11
ENDBRANCH   9  10
ENDBRANCH   3   9
BRANCH   4  25
ATOM     25  C   UNL d   1       3.045  -4.438  -0.858  0.00  0.00     0.066 A 
ATOM     26  N   UNL d   1       2.830  -3.110  -1.198  0.00  0.00    -0.346 N 
ATOM     27  C   UNL d   1       2.778  -2.368  -0.108  0.00  0.00     0.102 A 
ATOM     28  HN  UNL d   1       2.728  -2.759  -2.150  1.00  0.00     0.167 HD
ATOM     29  S   UNL d   1       2.923  -3.224   1.374  0.00  0.00    -0.080 SA
ATOM     30  C   UNL d   1       3.091  -4.688   0.503  0.00  0.00     0.083 A 
BRANCH  27  31
ATOM     31  C   UNL d   1       2.627  -0.875  -0.175  0.00  0.00     0.073 A 
ATOM     32  N   UNL d   1       2.699  -0.063   0.947  0.00  0.00    -0.352 N 
ATOM     33  C   UNL d   1       2.593   1.199   0.589  0.00  0.00     0.047 A 
ATOM     34  HN  UNL d   1       2.815  -0.393   1.905  1.00  0.00     0.166 HD
ATOM     35  C   UNL d   1       2.683   2.349   1.528  0.00  0.00     0.076 C 
ATOM     36  S   UNL d   1       2.344   1.478  -1.089  0.00  0.00    -0.087 SA
ATOM     37  C   UNL d   1       2.431  -0.210  -1.368  0.00  0.00     0.083 A 
ENDBRANCH  27  31
ENDBRANCH   4  25
TORSDOF 7
