REMARK  4 active torsions:
REMARK  status: ('A' for Active; 'I' for Inactive)
REMARK    1  A    between atoms: C_8  and  C_1 
REMARK    2  A    between atoms: C_11  and  C_3 
REMARK    3  A    between atoms: C_9  and  O_12 
REMARK    4  A    between atoms: O_12  and  C_10 
ROOT
ATOM      1  C   UNL d   1      -0.009  -1.038   0.127  0.00  0.00     0.177 A 
ATOM      2  O   UNL d   1      -0.037  -0.467   1.375  0.00  0.00    -0.272 OA
ATOM      3  C   UNL d   1       0.398   0.805   1.113  0.00  0.00     0.176 A 
ATOM      4  N   UNL d   1       0.428  -0.206  -0.799  0.00  0.00    -0.277 N 
ATOM      5  HN  UNL d   1       0.545  -0.405  -1.793  1.00  0.00     0.189 HD
ATOM      6  N   UNL d   1       0.696   0.985  -0.160  0.00  0.00    -0.277 N 
ATOM      7  HN  UNL d   1       1.054   1.839  -0.587  1.00  0.00     0.189 HD
ENDROOT
BRANCH   1   8
ATOM      8  C   UNL d   1      -0.549  -2.381   0.014  0.00  0.00     0.050 A 
ATOM      9  C   UNL d   1      -1.300  -2.805  -1.100  0.00  0.00     0.092 A 
ATOM     10  C   UNL d   1      -1.742  -4.134  -1.179  0.00  0.00     0.038 A 
ATOM     11  C   UNL d   1      -1.465  -5.039  -0.154  0.00  0.00     0.003 A 
ATOM     12  C   UNL d   1      -0.736  -4.626   0.957  0.00  0.00     0.001 A 
ATOM     13  C   UNL d   1      -0.292  -3.306   1.042  0.00  0.00     0.018 A 
BRANCH   9  14
ATOM     14  O   UNL d   1      -1.512  -2.056  -2.226  0.00  0.00    -0.254 OA
BRANCH  14  15
ATOM     15  C   UNL d   1      -2.317  -0.887  -2.086  0.00  0.00     0.530 C 
ATOM     16  F   UNL d   1      -2.525  -0.520  -0.803  0.00  0.00    -0.144 F 
ATOM     17  F   UNL d   1      -1.735   0.132  -2.749  0.00  0.00    -0.144 F 
ATOM     18  F   UNL d   1      -3.524  -1.115  -2.653  0.00  0.00    -0.144 F 
ENDBRANCH  14  15
ENDBRANCH   9  14
ENDBRANCH   1   8
BRANCH   3  19
ATOM     19  C   UNL d   1       0.434   1.742   2.219  0.00  0.00     0.032 A 
ATOM     20  C   UNL d   1       0.777   3.071   1.993  0.00  0.00     0.103 A 
ATOM     21  N   UNL d   1       0.830   4.024   2.959  0.00  0.00    -0.374 N 
ATOM     22  C   UNL d   1       0.523   3.635   4.212  0.00  0.00     0.087 A 
ATOM     23  HN  UNL d   1       1.089   4.988   2.746  1.00  0.00     0.164 HD
ATOM     24  C   UNL d   1       0.168   2.340   4.548  0.00  0.00     0.018 A 
ATOM     25  C   UNL d   1       0.123   1.382   3.534  0.00  0.00     0.018 A 
ENDBRANCH   3  19
TORSDOF 4
