REMARK  4 active torsions:
REMARK  status: ('A' for Active; 'I' for Inactive)
REMARK    1  A    between atoms: C_11  and  C_4 
REMARK    2  A    between atoms: N_6  and  C_11 
REMARK    3  A    between atoms: C_12  and  N_6 
REMARK    4  A    between atoms: C_9  and  C_12 
ROOT
ATOM      1  N   UNL d   1       2.651   3.442  -0.030  0.00  0.00     0.091 N 
ATOM      2  H   UNL d   1       3.006   3.269  -0.971  0.00  0.00     0.316 HD
ENDROOT
BRANCH   1   3
ATOM      3  C   UNL d   1       1.298   2.895   0.075  0.00  0.00     0.309 C 
BRANCH   3   4
ATOM      4  C   UNL d   1       1.227   1.381  -0.099  0.00  0.00    -0.019 A 
ATOM      5  C   UNL d   1      -0.033   0.707  -0.074  0.00  0.00    -0.018 A 
ATOM      6  C   UNL d   1      -0.060  -0.705  -0.223  0.00  0.00    -0.025 A 
ATOM      7  C   UNL d   1      -1.276   1.363   0.100  0.00  0.00     0.013 A 
ATOM      8  C   UNL d   1       1.133  -1.416  -0.401  0.00  0.00     0.012 A 
ATOM      9  C   UNL d   1      -1.281  -1.397  -0.189  0.00  0.00     0.012 A 
ATOM     10  C   UNL d   1       2.357  -0.759  -0.420  0.00  0.00     0.002 A 
ATOM     11  C   UNL d   1       2.403   0.622  -0.262  0.00  0.00     0.010 A 
ATOM     12  C   UNL d   1      -2.486  -0.721  -0.013  0.00  0.00     0.001 A 
ATOM     13  C   UNL d   1      -2.483   0.660   0.130  0.00  0.00     0.001 A 
ENDBRANCH   3   4
ENDBRANCH   1   3
BRANCH   1  14
ATOM     14  C   UNL d   1       2.687   4.879   0.216  0.00  0.00     0.308 C 
BRANCH  14  15
ATOM     15  C   UNL d   1       4.114   5.379   0.166  0.00  0.00    -0.030 A 
ATOM     16  C   UNL d   1       5.061   4.896   1.084  0.00  0.00     0.021 A 
ATOM     17  C   UNL d   1       6.393   5.341   1.065  0.00  0.00    -0.025 A 
ATOM     18  C   UNL d   1       7.341   4.855   1.980  0.00  0.00     0.012 A 
ATOM     19  C   UNL d   1       6.785   6.300   0.105  0.00  0.00    -0.026 A 
ATOM     20  C   UNL d   1       8.658   5.316   1.955  0.00  0.00     0.001 A 
ATOM     21  C   UNL d   1       9.043   6.268   1.015  0.00  0.00     0.001 A 
ATOM     22  C   UNL d   1       8.114   6.755   0.094  0.00  0.00     0.012 A 
ATOM     23  C   UNL d   1       5.838   6.775  -0.816  0.00  0.00     0.013 A 
ATOM     24  C   UNL d   1       4.517   6.319  -0.786  0.00  0.00     0.010 A 
ENDBRANCH  14  15
ENDBRANCH   1  14
TORSDOF 4
