REMARK  6 active torsions:
REMARK  status: ('A' for Active; 'I' for Inactive)
REMARK       I    between atoms: N_2  and  C_1 
REMARK    1  A    between atoms: O_5  and  C_1 
REMARK    2  A    between atoms: C_4  and  N_2 
REMARK    3  A    between atoms: C_3  and  C_4 
REMARK       I    between atoms: N_10  and  C_3 
REMARK    4  A    between atoms: C_7  and  C_4 
REMARK    5  A    between atoms: C_9  and  O_5 
REMARK    6  A    between atoms: C_11  and  C_7 
ROOT
ATOM      1  C   UNL d   1       1.047   2.388   0.397  0.00  0.00     0.182 C 
ENDROOT
BRANCH   1   2
ATOM      2  C   UNL d   1       1.880   2.781  -0.844  0.00  0.00     0.238 C 
ATOM      3  O   UNL d   1       1.461   3.463  -1.772  0.00  0.00    -0.271 OA
ATOM      4  N   UNL d   1       3.134   2.234  -0.899  0.00  0.00    -0.368 N 
ATOM      5  H   UNL d   1       3.271   1.340  -0.427  0.00  0.00     0.159 HD
ATOM      6  H   UNL d   1       3.606   2.330  -1.789  0.00  0.00     0.159 HD
ENDBRANCH   1   2
BRANCH   1   7
ATOM      7  N   UNL d   1       0.327   1.139   0.115  0.00  0.00    -0.323 N 
ATOM      8  C   UNL d   1       0.971  -0.050  -0.032  0.00  0.00     0.362 C 
ATOM      9  O   UNL d   1       2.188  -0.171  -0.002  0.00  0.00    -0.238 OA
ATOM     10  H   UNL d   1      -0.673   1.097   0.250  0.00  0.00     0.165 HD
BRANCH   8  11
ATOM     11  O   UNL d   1       0.072  -1.046  -0.259  0.00  0.00    -0.294 OA
BRANCH  11  12
ATOM     12  C   UNL d   1       0.547  -2.370  -0.631  0.00  0.00     0.061 C 
ATOM     13  C   UNL d   1       1.355  -3.019   0.499  0.00  0.00     0.046 C 
ATOM     14  C   UNL d   1      -0.711  -3.217  -0.895  0.00  0.00     0.046 C 
ATOM     15  C   UNL d   1       1.351  -2.324  -1.937  0.00  0.00     0.046 C 
ENDBRANCH  11  12
ENDBRANCH   8  11
ENDBRANCH   1   7
BRANCH   1  16
ATOM     16  C   UNL d   1       0.093   3.557   0.713  0.00  0.00     0.073 C 
BRANCH  16  17
ATOM     17  C   UNL d   1      -0.735   3.359   1.962  0.00  0.00    -0.056 A 
ATOM     18  C   UNL d   1      -0.124   3.208   3.214  0.00  0.00     0.007 A 
ATOM     19  C   UNL d   1      -0.897   3.014   4.360  0.00  0.00     0.001 A 
ATOM     20  C   UNL d   1      -2.287   2.979   4.267  0.00  0.00     0.000 A 
ATOM     21  C   UNL d   1      -2.906   3.151   3.031  0.00  0.00     0.001 A 
ATOM     22  C   UNL d   1      -2.135   3.344   1.884  0.00  0.00     0.007 A 
ENDBRANCH  16  17
ENDBRANCH   1  16
TORSDOF 6
