REMARK  4 active torsions:
REMARK  status: ('A' for Active; 'I' for Inactive)
REMARK    1  A    between atoms: C_7  and  C_1 
REMARK    2  A    between atoms: O_12  and  C_1 
REMARK    3  A    between atoms: N_3  and  O_12 
REMARK    4  A    between atoms: C_17  and  C_16 
ROOT
ATOM      1  N   UNL d   1       2.983   1.342  -0.025  0.00  0.00    -0.268 N 
ATOM      2  HN  UNL d   1       2.466   2.211   0.110  1.00  0.00     0.194 HD
ATOM      3  C   UNL d   1       4.249   1.275  -0.279  0.00  0.00     0.126 C 
ENDROOT
BRANCH   1   4
ATOM      4  O   UNL d   1       2.412   0.051   0.041  0.00  0.00    -0.195 OA
BRANCH   4   5
ATOM      5  C   UNL d   1       1.075   0.173   0.315  0.00  0.00     0.315 C 
ATOM      6  O   UNL d   1       0.458   1.209   0.527  0.00  0.00    -0.257 OA
BRANCH   5   7
ATOM      7  C   UNL d   1       0.386  -1.149   0.323  0.00  0.00     0.041 A 
ATOM      8  C   UNL d   1      -0.996  -1.156   0.588  0.00  0.00     0.019 A 
ATOM      9  C   UNL d   1      -1.720  -2.352   0.600  0.00  0.00     0.025 A 
ATOM     10  C   UNL d   1      -1.065  -3.553   0.345  0.00  0.00     0.034 A 
ATOM     11  C   UNL d   1       0.305  -3.566   0.083  0.00  0.00     0.025 A 
ATOM     12 CL   UNL d   1      -1.954  -5.026   0.352  0.00  0.00    -0.084 Cl
ATOM     13  C   UNL d   1       1.034  -2.367   0.071  0.00  0.00     0.019 A 
ENDBRANCH   5   7
ENDBRANCH   4   5
ENDBRANCH   1   4
BRANCH   3  14
ATOM     14  C   UNL d   1       5.067   2.499  -0.440  0.00  0.00    -0.016 A 
ATOM     15  C   UNL d   1       6.428   2.368  -0.742  0.00  0.00     0.052 A 
ATOM     16  C   UNL d   1       7.148   3.528  -0.948  0.00  0.00     0.105 A 
ATOM     17  O   UNL d   1       8.467   3.594  -1.278  0.00  0.00    -0.323 OA
ATOM     18  C   UNL d   1       6.572   4.774  -0.852  0.00  0.00     0.105 A 
ATOM     19  C   UNL d   1       8.637   5.019  -1.436  0.00  0.00     0.352 A 
ATOM     20  O   UNL d   1       7.454   5.777  -1.111  0.00  0.00    -0.323 OA
ATOM     21  C   UNL d   1       5.241   4.933  -0.534  0.00  0.00     0.040 A 
ATOM     22  C   UNL d   1       4.478   3.777  -0.329  0.00  0.00     0.016 A 
ENDBRANCH   3  14
TORSDOF 4
