REMARK  8 active torsions:
REMARK  status: ('A' for Active; 'I' for Inactive)
REMARK       I    between atoms: N_5  and  C_1 
REMARK    1  A    between atoms: C_11  and  C_1 
REMARK    2  A    between atoms: N_2  and  N_5 
REMARK    3  A    between atoms: C_8  and  C_4 
REMARK    4  A    between atoms: C_6  and  O_7 
REMARK    5  A    between atoms: O_7  and  C_11 
REMARK    6  A    between atoms: S_10  and  C_8 
REMARK    7  A    between atoms: C_13  and  S_10 
REMARK    8  A    between atoms: C_14  and  C_12 
ROOT
ATOM      1  O   UNL d   1       1.091  -0.393   0.114  0.00  0.00    -0.341 OA
ENDROOT
BRANCH   1   2
ATOM      2  C   UNL d   1       0.216   0.048   1.069  0.00  0.00     0.076 A 
ATOM      3  C   UNL d   1       0.383   1.364   1.541  0.00  0.00    -0.015 A 
ATOM      4  C   UNL d   1      -0.579   1.896   2.429  0.00  0.00     0.011 A 
ATOM      5  C   UNL d   1      -1.658   1.136   2.868  0.00  0.00     0.001 A 
ATOM      6  C   UNL d   1      -1.774  -0.181   2.455  0.00  0.00     0.003 A 
ATOM      7  C   UNL d   1      -0.839  -0.722   1.568  0.00  0.00     0.037 A 
BRANCH   3   8
ATOM      8  C   UNL d   1       1.637   2.181   1.306  0.00  0.00     0.120 C 
BRANCH   8   9
ATOM      9  S   UNL d   1       2.031   2.619  -0.411  0.00  0.00    -0.125 SA
BRANCH   9  10
ATOM     10  C   UNL d   1       3.540   3.553  -0.150  0.00  0.00     0.001 A 
ATOM     11  C   UNL d   1       4.671   3.264  -0.925  0.00  0.00     0.020 A 
ATOM     12  C   UNL d   1       5.853   3.999  -0.760  0.00  0.00     0.025 A 
ATOM     13  C   UNL d   1       5.908   5.026   0.179  0.00  0.00     0.034 A 
ATOM     14  C   UNL d   1       4.790   5.326   0.953  0.00  0.00     0.025 A 
ATOM     15 CL   UNL d   1       7.352   5.937   0.377  0.00  0.00    -0.084 Cl
ATOM     16  C   UNL d   1       3.609   4.598   0.782  0.00  0.00     0.020 A 
ENDBRANCH   9  10
ENDBRANCH   8   9
ENDBRANCH   3   8
ENDBRANCH   1   2
BRANCH   1  17
ATOM     17  C   UNL d   1       1.158  -1.780  -0.179  0.00  0.00     0.280 C 
BRANCH  17  18
ATOM     18  C   UNL d   1       0.112  -2.445  -1.097  0.00  0.00     0.260 C 
ATOM     19  N   UNL d   1      -0.765  -1.565  -1.717  0.00  0.00    -0.269 N 
ATOM     20  H   UNL d   1      -0.402  -0.617  -1.836  0.00  0.00     0.190 HD
ATOM     21  O   UNL d   1       0.106  -3.671  -1.242  0.00  0.00    -0.269 OA
BRANCH  19  22
ATOM     22  N   UNL d   1      -1.590  -1.970  -2.743  0.00  0.00    -0.308 N 
ATOM     23  C   UNL d   1      -2.466  -2.915  -2.549  0.00  0.00     0.118 C 
ATOM     24  HN  UNL d   1      -1.516  -1.527  -3.659  1.00  0.00     0.186 HD
BRANCH  23  25
ATOM     25  C   UNL d   1      -2.906  -3.544  -1.287  0.00  0.00    -0.019 A 
ATOM     26  C   UNL d   1      -3.100  -2.776  -0.138  0.00  0.00     0.014 A 
ATOM     27  C   UNL d   1      -3.424  -3.400   1.068  0.00  0.00     0.024 A 
ATOM     28  C   UNL d   1      -3.593  -4.782   1.111  0.00  0.00     0.034 A 
ATOM     29  C   UNL d   1      -3.484  -5.542  -0.053  0.00  0.00     0.024 A 
ATOM     30 CL   UNL d   1      -3.928  -5.549   2.613  0.00  0.00    -0.084 Cl
ATOM     31  C   UNL d   1      -3.148  -4.921  -1.260  0.00  0.00     0.014 A 
ENDBRANCH  23  25
ENDBRANCH  19  22
ENDBRANCH  17  18
ENDBRANCH   1  17
TORSDOF 8
