REMARK  4 active torsions:
REMARK  status: ('A' for Active; 'I' for Inactive)
REMARK    1  A    between atoms: C_13  and  N_2 
REMARK    2  A    between atoms: C_15  and  C_5 
REMARK    3  A    between atoms: C_11  and  C_14 
REMARK    4  A    between atoms: C_14  and  C_13 
ROOT
ATOM      1  N   UNL d   1       4.385  -6.155  -0.324  0.00  0.00    -0.277 N 
ATOM      2  HN  UNL d   1       4.234  -7.125  -0.604  1.00  0.00     0.189 HD
ATOM      3  C   UNL d   1       5.449  -5.670   0.285  0.00  0.00     0.174 A 
ATOM      4  O   UNL d   1       5.336  -4.321   0.532  0.00  0.00    -0.277 OA
ATOM      5  N   UNL d   1       3.515  -5.102  -0.510  0.00  0.00    -0.281 N 
ATOM      6  HN  UNL d   1       2.599  -5.138  -0.957  1.00  0.00     0.189 HD
ATOM      7  C   UNL d   1       4.101  -4.041   0.003  0.00  0.00     0.142 A 
ENDROOT
BRANCH   7   8
ATOM      8  C   UNL d   1       3.648  -2.628   0.017  0.00  0.00     0.106 C 
BRANCH   8   9
ATOM      9  C   UNL d   1       2.122  -2.522  -0.008  0.00  0.00     0.142 C 
BRANCH   9  10
ATOM     10  N   UNL d   1       1.655  -1.154  -0.061  0.00  0.00    -0.290 N 
ATOM     11  C   UNL d   1       1.410  -0.340   1.030  0.00  0.00     0.372 A 
ATOM     12  O   UNL d   1       0.960   0.925   0.625  0.00  0.00    -0.259 OA
ATOM     13  O   UNL d   1       1.565  -0.651   2.201  0.00  0.00    -0.237 OA
ATOM     14  C   UNL d   1       0.963   0.816  -0.757  0.00  0.00     0.107 A 
ATOM     15  C   UNL d   1       0.593   1.812  -1.637  0.00  0.00     0.040 A 
ATOM     16  C   UNL d   1       1.384  -0.424  -1.195  0.00  0.00     0.073 A 
ATOM     17  C   UNL d   1       0.661   1.521  -3.002  0.00  0.00     0.003 A 
ATOM     18  C   UNL d   1       1.093   0.255  -3.447  0.00  0.00     0.002 A 
ATOM     19  C   UNL d   1       1.463  -0.739  -2.534  0.00  0.00     0.033 A 
ENDBRANCH   9  10
ENDBRANCH   8   9
ENDBRANCH   7   8
BRANCH   3  20
ATOM     20  C   UNL d   1       6.698  -6.334   0.649  0.00  0.00     0.017 A 
ATOM     21  C   UNL d   1       7.720  -5.677   1.351  0.00  0.00     0.017 A 
ATOM     22  C   UNL d   1       8.930  -6.327   1.632  0.00  0.00     0.025 A 
ATOM     23  C   UNL d   1       9.127  -7.641   1.215  0.00  0.00     0.034 A 
ATOM     24  C   UNL d   1       8.117  -8.319   0.538  0.00  0.00     0.025 A 
ATOM     25 CL   UNL d   1      10.626  -8.425   1.526  0.00  0.00    -0.084 Cl
ATOM     26  C   UNL d   1       6.910  -7.669   0.261  0.00  0.00     0.017 A 
ENDBRANCH   3  20
TORSDOF 4
