REMARK  3 active torsions:
REMARK  status: ('A' for Active; 'I' for Inactive)
REMARK    1  A    between atoms: C_2  and  S_1 
REMARK    2  A    between atoms: C_3  and  S_1 
REMARK    3  A    between atoms: C_4  and  C_6 
ROOT
ATOM      1  C   UNL d   1       0.478   1.652  -0.704  0.00  0.00     0.134 A 
ATOM      2  C   UNL d   1      -0.502   1.730  -1.682  0.00  0.00     0.058 A 
ATOM      3  C   UNL d   1      -0.827   2.993  -2.187  0.00  0.00     0.052 A 
ATOM      4  N   UNL d   1       1.146   2.718  -0.192  0.00  0.00    -0.356 N 
ATOM      5  HN  UNL d   1       1.869   2.612   0.520  1.00  0.00     0.166 HD
ATOM      6  C   UNL d   1       0.797   3.927  -0.679  0.00  0.00     0.090 A 
ATOM      7  C   UNL d   1      -0.165   4.112  -1.662  0.00  0.00     0.033 A 
ENDROOT
BRANCH   1   8
ATOM      8  S   UNL d   1       0.926   0.074  -0.002  0.00  0.00     0.228 S 
ATOM      9  O   UNL d   1       0.280  -0.963  -0.792  0.00  0.00    -0.215 OA
ATOM     10  O   UNL d   1       0.734   0.132   1.434  0.00  0.00    -0.215 OA
BRANCH   8  11
ATOM     11  C   UNL d   1       2.661  -0.232  -0.238  0.00  0.00     0.106 A 
ATOM     12  S   UNL d   1       3.351   0.262  -1.722  0.00  0.00    -0.090 SA
ATOM     13  C   UNL d   1       4.875  -0.402  -1.311  0.00  0.00     0.051 A 
ATOM     14  C   UNL d   1       4.861  -0.995  -0.068  0.00  0.00     0.009 A 
ATOM     15  C   UNL d   1       3.584  -0.890   0.555  0.00  0.00     0.032 A 
ENDBRANCH   8  11
ENDBRANCH   1   8
BRANCH   3  16
ATOM     16  C   UNL d   1      -1.853   3.163  -3.278  0.00  0.00     0.417 C 
ATOM     17  F   UNL d   1      -2.424   1.993  -3.673  0.00  0.00    -0.166 F 
ATOM     18  F   UNL d   1      -2.878   3.977  -2.908  0.00  0.00    -0.166 F 
ATOM     19  F   UNL d   1      -1.319   3.717  -4.401  0.00  0.00    -0.166 F 
ENDBRANCH   3  16
TORSDOF 3
