REMARK  9 active torsions:
REMARK  status: ('A' for Active; 'I' for Inactive)
REMARK    1  A    between atoms: C_3  and  C_1 
REMARK    2  A    between atoms: C_4  and  C_2 
REMARK       I    between atoms: N_8  and  C_3 
REMARK       I    between atoms: N_9  and  C_4 
REMARK    3  A    between atoms: C_15  and  C_5 
REMARK       I    between atoms: C_6  and  N_11 
REMARK    4  A    between atoms: C_16  and  C_6 
REMARK       I    between atoms: C_7  and  N_10 
REMARK    5  A    between atoms: C_17  and  C_7 
REMARK    6  A    between atoms: N_11  and  N_8 
REMARK    7  A    between atoms: N_10  and  N_9 
REMARK    8  A    between atoms: C_18  and  C_21 
REMARK    9  A    between atoms: C_19  and  C_20 
ROOT
ATOM      1  C   UNL d   1       1.425  -0.218  -0.068  0.00  0.00     0.035 A 
ATOM      2  C   UNL d   1      -0.838  -1.122  -0.122  0.00  0.00     0.035 A 
ATOM      3  C   UNL d   1      -0.487   1.317  -0.050  0.00  0.00    -0.049 A 
ATOM      4  C   UNL d   1       0.547  -1.317  -0.063  0.00  0.00     0.034 A 
ATOM      5  C   UNL d   1       0.899   1.081  -0.083  0.00  0.00     0.025 A 
ATOM      6  C   UNL d   1      -1.339   0.195  -0.135  0.00  0.00     0.025 A 
ENDROOT
BRANCH   1   7
ATOM      7  C   UNL d   1       2.897  -0.484   0.034  0.00  0.00     0.270 C 
ATOM      8  N   UNL d   1       3.772   0.577  -0.124  0.00  0.00    -0.263 N 
ATOM      9  H   UNL d   1       3.522   1.548  -0.292  0.00  0.00     0.190 HD
ATOM     10  O   UNL d   1       3.300  -1.622   0.271  0.00  0.00    -0.266 OA
BRANCH   8  11
ATOM     11  N   UNL d   1       5.139   0.347   0.116  0.00  0.00    -0.263 N 
ATOM     12  C   UNL d   1       5.979   1.441   0.210  0.00  0.00     0.270 C 
ATOM     13  O   UNL d   1       5.578   2.581  -0.028  0.00  0.00    -0.266 OA
ATOM     14  H   UNL d   1       5.393  -0.615   0.317  0.00  0.00     0.190 HD
BRANCH  12  15
ATOM     15  C   UNL d   1       7.398   1.206   0.632  0.00  0.00     0.033 A 
ATOM     16  C   UNL d   1       7.869  -0.014   1.127  0.00  0.00     0.017 A 
ATOM     17  C   UNL d   1       9.191  -0.133   1.590  0.00  0.00     0.009 A 
ATOM     18  C   UNL d   1      10.083   0.956   1.583  0.00  0.00    -0.051 A 
ATOM     19  C   UNL d   1       9.606   2.161   1.044  0.00  0.00     0.009 A 
ATOM     20  C   UNL d   1       8.288   2.285   0.580  0.00  0.00     0.017 A 
BRANCH  18  21
ATOM     21  C   UNL d   1      11.494   0.820   2.191  0.00  0.00    -0.024 C 
ATOM     22  C   UNL d   1      12.326   2.122   2.118  0.00  0.00     0.019 C 
ATOM     23  C   UNL d   1      11.379   0.442   3.685  0.00  0.00     0.019 C 
ATOM     24  C   UNL d   1      12.302  -0.276   1.464  0.00  0.00     0.019 C 
ENDBRANCH  18  21
ENDBRANCH  12  15
ENDBRANCH   8  11
ENDBRANCH   1   7
BRANCH   2  25
ATOM     25  C   UNL d   1      -1.827  -2.251  -0.141  0.00  0.00     0.270 C 
ATOM     26  N   UNL d   1      -1.375  -3.515   0.198  0.00  0.00    -0.263 N 
ATOM     27  H   UNL d   1      -0.433  -3.741   0.511  0.00  0.00     0.190 HD
ATOM     28  O   UNL d   1      -3.002  -2.036  -0.436  0.00  0.00    -0.266 OA
BRANCH  26  29
ATOM     29  N   UNL d   1      -2.292  -4.581   0.226  0.00  0.00    -0.263 N 
ATOM     30  C   UNL d   1      -1.787  -5.862   0.401  0.00  0.00     0.270 C 
ATOM     31  O   UNL d   1      -0.597  -6.076   0.601  0.00  0.00    -0.266 OA
ATOM     32  H   UNL d   1      -3.223  -4.380  -0.129  0.00  0.00     0.190 HD
BRANCH  30  33
ATOM     33  C   UNL d   1      -2.760  -6.990   0.313  0.00  0.00     0.033 A 
ATOM     34  C   UNL d   1      -2.297  -8.246  -0.091  0.00  0.00     0.017 A 
ATOM     35  C   UNL d   1      -3.182  -9.329  -0.204  0.00  0.00     0.009 A 
ATOM     36  C   UNL d   1      -4.551  -9.194   0.094  0.00  0.00    -0.051 A 
ATOM     37  C   UNL d   1      -4.985  -7.932   0.541  0.00  0.00     0.009 A 
ATOM     38  C   UNL d   1      -4.106  -6.843   0.649  0.00  0.00     0.017 A 
BRANCH  36  39
ATOM     39  C   UNL d   1      -5.515 -10.383  -0.100  0.00  0.00    -0.024 C 
ATOM     40  C   UNL d   1      -6.979 -10.057   0.278  0.00  0.00     0.019 C 
ATOM     41  C   UNL d   1      -5.512 -10.810  -1.584  0.00  0.00     0.019 C 
ATOM     42  C   UNL d   1      -5.083 -11.588   0.764  0.00  0.00     0.019 C 
ENDBRANCH  36  39
ENDBRANCH  30  33
ENDBRANCH  26  29
ENDBRANCH   2  25
BRANCH   3  43
ATOM     43  C   UNL d   1      -1.060   2.726   0.216  0.00  0.00    -0.024 C 
ATOM     44  C   UNL d   1       0.031   3.801   0.444  0.00  0.00     0.019 C 
ATOM     45  C   UNL d   1      -1.950   3.208  -0.945  0.00  0.00     0.019 C 
ATOM     46  C   UNL d   1      -1.901   2.674   1.513  0.00  0.00     0.019 C 
ENDBRANCH   3  43
TORSDOF 9
