REMARK  4 active torsions:
REMARK  status: ('A' for Active; 'I' for Inactive)
REMARK    1  A    between atoms: C_2  and  S_1 
REMARK    2  A    between atoms: C_8  and  S_1 
REMARK    3  A    between atoms: O_9  and  C_7 
REMARK    4  A    between atoms: C_12  and  O_9 
ROOT
ATOM      1  C   UNL d   1       0.374  -0.588  -1.698  0.00  0.00     0.161 C 
ATOM      2  C   UNL d   1      -0.409  -1.763  -1.769  0.00  0.00     0.113 C 
ATOM      3  N   UNL d   1      -1.015  -2.751  -1.855  0.00  0.00    -0.191 NA
ATOM      4  C   UNL d   1       0.673   0.147  -2.780  0.00  0.00     0.169 C 
ENDROOT
BRANCH   1   5
ATOM      5  S   UNL d   1       0.928  -0.073  -0.141  0.00  0.00     0.190 S 
ATOM      6  O   UNL d   1       0.153  -0.730   0.897  0.00  0.00    -0.221 OA
ATOM      7  O   UNL d   1       1.027   1.377  -0.144  0.00  0.00    -0.221 OA
BRANCH   5   8
ATOM      8  C   UNL d   1       2.612  -0.698  -0.035  0.00  0.00     0.106 C 
ATOM      9  C   UNL d   1       3.216  -0.313   1.319  0.00  0.00     0.026 C 
ATOM     10  C   UNL d   1       2.704  -2.206  -0.232  0.00  0.00     0.026 C 
ENDBRANCH   5   8
ENDBRANCH   1   5
BRANCH   4  11
ATOM     11  O   UNL d   1       0.204  -0.177  -4.027  0.00  0.00    -0.361 OA
BRANCH  11  12
ATOM     12  C   UNL d   1       1.004   0.315  -5.104  0.00  0.00     0.170 C 
ATOM     13  C   UNL d   1       0.392  -0.202  -6.394  0.00  0.00     0.034 C 
ENDBRANCH  11  12
ENDBRANCH   4  11
TORSDOF 4
