REMARK  8 active torsions:
REMARK  status: ('A' for Active; 'I' for Inactive)
REMARK    1  A    between atoms: C_7  and  S_1 
REMARK    2  A    between atoms: C_8  and  S_1 
REMARK    3  A    between atoms: C_2  and  C_3 
REMARK    4  A    between atoms: C_4  and  O_13 
REMARK    5  A    between atoms: C_26  and  C_8 
REMARK    6  A    between atoms: C_11  and  S_23 
REMARK    7  A    between atoms: O_13  and  C_24 
REMARK    8  A    between atoms: S_23  and  C_26 
ROOT
ATOM      1  S   UNL d   1       1.163   0.055  -0.102  0.00  0.00     0.176 S 
ATOM      2  O   UNL d   1       2.587  -0.191  -0.248  0.00  0.00    -0.223 OA
ATOM      3  O   UNL d   1       0.683   1.269   0.530  0.00  0.00    -0.223 OA
ENDROOT
BRANCH   1   4
ATOM      4  C   UNL d   1       0.497  -1.312   0.830  0.00  0.00     0.059 A 
ATOM      5  C   UNL d   1       1.165  -2.541   0.829  0.00  0.00     0.026 A 
ATOM      6  C   UNL d   1       0.712  -3.585   1.647  0.00  0.00     0.038 A 
ATOM      7  C   UNL d   1      -0.417  -3.413   2.448  0.00  0.00     0.078 A 
ATOM      8  C   UNL d   1      -1.052  -2.166   2.468  0.00  0.00     0.038 A 
ATOM      9  C   UNL d   1      -0.603  -1.114   1.665  0.00  0.00     0.026 A 
BRANCH   7  10
ATOM     10  O   UNL d   1      -0.938  -4.327   3.309  0.00  0.00    -0.255 OA
BRANCH  10  11
ATOM     11  C   UNL d   1      -0.876  -5.714   3.001  0.00  0.00     0.530 C 
ATOM     12  F   UNL d   1      -0.347  -5.993   1.792  0.00  0.00    -0.144 F 
ATOM     13  F   UNL d   1      -0.152  -6.349   3.948  0.00  0.00    -0.144 F 
ATOM     14  F   UNL d   1      -2.132  -6.214   3.027  0.00  0.00    -0.144 F 
ENDBRANCH  10  11
ENDBRANCH   7  10
ENDBRANCH   1   4
BRANCH   1  15
ATOM     15  C   UNL d   1       0.407  -0.075  -1.710  0.00  0.00     0.156 C 
BRANCH  15  16
ATOM     16  C   UNL d   1       0.902   1.065  -2.593  0.00  0.00     0.096 C 
BRANCH  16  17
ATOM     17  S   UNL d   1       0.171   0.939  -4.266  0.00  0.00    -0.111 SA
BRANCH  17  18
ATOM     18  C   UNL d   1       0.839   2.410  -5.032  0.00  0.00     0.069 A 
ATOM     19  N   UNL d   1       1.711   3.165  -4.330  0.00  0.00    -0.360 N 
ATOM     20  C   UNL d   1       2.181   4.294  -4.914  0.00  0.00     0.105 A 
ATOM     21  HN  UNL d   1       2.005   2.894  -3.391  1.00  0.00     0.166 HD
ATOM     22  C   UNL d   1       1.822   4.722  -6.182  0.00  0.00     0.063 A 
ATOM     23  C   UNL d   1       0.933   3.917  -6.899  0.00  0.00     0.020 A 
ATOM     24  C   UNL d   1       0.436   2.747  -6.319  0.00  0.00     0.038 A 
BRANCH  22  25
ATOM     25  C   UNL d   1       2.357   6.003  -6.745  0.00  0.00     0.418 C 
ATOM     26  F   UNL d   1       3.198   6.662  -5.901  0.00  0.00    -0.166 F 
ATOM     27  F   UNL d   1       3.057   5.816  -7.898  0.00  0.00    -0.166 F 
ATOM     28  F   UNL d   1       1.368   6.888  -7.050  0.00  0.00    -0.166 F 
ENDBRANCH  22  25
ENDBRANCH  17  18
ENDBRANCH  16  17
ENDBRANCH  15  16
ENDBRANCH   1  15
TORSDOF 8
