REMARK  4 active torsions:
REMARK  status: ('A' for Active; 'I' for Inactive)
REMARK    1  A    between atoms: C_2  and  C_1 
REMARK    2  A    between atoms: C_4  and  C_2 
REMARK    3  A    between atoms: S_8  and  C_3 
REMARK    4  A    between atoms: S_9  and  C_3 
ROOT
ATOM      1  C   UNL d   1       0.322   0.001  -1.318  0.00  0.00     0.183 C 
ATOM      2  O   UNL d   1       0.801   0.063  -2.442  0.00  0.00    -0.288 OA
ENDROOT
BRANCH   1   3
ATOM      3  C   UNL d   1       1.152   0.002  -0.080  0.00  0.00     0.081 C 
ATOM      4  C   UNL d   1       2.444   0.363   0.043  0.00  0.00     0.040 C 
BRANCH   4   5
ATOM      5  S   UNL d   1       3.155   0.228   1.648  0.00  0.00    -0.127 SA
ATOM      6  C   UNL d   1       4.545  -0.887   1.319  0.00  0.00     0.096 C 
ENDBRANCH   4   5
BRANCH   4   7
ATOM      7  S   UNL d   1       3.451   1.006  -1.224  0.00  0.00    -0.127 SA
ATOM      8  C   UNL d   1       2.558   2.520  -1.651  0.00  0.00     0.096 C 
ENDBRANCH   4   7
ENDBRANCH   1   3
BRANCH   1   9
ATOM      9  C   UNL d   1      -1.161  -0.074  -1.191  0.00  0.00     0.014 A 
ATOM     10  C   UNL d   1      -1.925   0.514  -2.216  0.00  0.00     0.018 A 
ATOM     11  C   UNL d   1      -3.319   0.445  -2.193  0.00  0.00     0.043 A 
ATOM     12  C   UNL d   1      -3.952  -0.212  -1.147  0.00  0.00     0.116 A 
ATOM     13  C   UNL d   1      -3.216  -0.796  -0.121  0.00  0.00     0.043 A 
ATOM     14  F   UNL d   1      -5.288  -0.296  -1.131  0.00  0.00    -0.206 F 
ATOM     15  C   UNL d   1      -1.819  -0.731  -0.140  0.00  0.00     0.018 A 
ENDBRANCH   1   9
TORSDOF 4
