REMARK  7 active torsions:
REMARK  status: ('A' for Active; 'I' for Inactive)
REMARK    1  A    between atoms: C_3  and  C_1 
REMARK    2  A    between atoms: C_4  and  CA_2 
REMARK       I    between atoms: N_11  and  C_3 
REMARK    3  A    between atoms: OXT_14  and  C_4 
REMARK    4  A    between atoms: C_15  and  N_11 
REMARK    5  A    between atoms: O_16  and  C_12 
REMARK    6  A    between atoms: C_13  and  C_19 
REMARK    7  A    between atoms: C_19  and  C_15 
ROOT
ATOM      1  C   UNL d   1       1.294  -2.526   0.707  0.00  0.00     0.270 C 
ATOM      2  O   UNL d   1       2.405  -2.584   1.202  0.00  0.00    -0.266 OA
ATOM      3  N   UNL d   1       0.696  -3.627   0.120  0.00  0.00    -0.355 N 
ATOM      4  H   UNL d   1      -0.165  -3.451  -0.391  0.00  0.00     0.162 HD
ENDROOT
BRANCH   1   5
ATOM      5  C   UNL d   1       0.438  -1.292   0.663  0.00  0.00     0.134 A 
ATOM      6  CA  UNL d   1       0.742  -0.053   1.207  0.00  0.00     0.139 A 
ATOM      7  N   UNL d   1      -0.148   1.012   1.113  0.00  0.00    -0.357 N 
ATOM      8  C   UNL d   1      -1.315   0.773   0.474  0.00  0.00     0.105 A 
ATOM      9  HN  UNL d   1       0.070   1.927   1.507  1.00  0.00     0.165 HD
ATOM     10  C   UNL d   1      -1.617  -0.460  -0.064  0.00  0.00     0.105 A 
ATOM     11  N   UNL d   1      -0.763  -1.504   0.010  0.00  0.00    -0.358 N 
ATOM     12  HN  UNL d   1      -0.994  -2.410  -0.398  1.00  0.00     0.165 HD
BRANCH   6  13
ATOM     13  C   UNL d   1       1.983   0.336   1.954  0.00  0.00     0.196 C 
ATOM     14  O   UNL d   1       2.956  -0.329   2.243  0.00  0.00    -0.645 OA
BRANCH  13  15
ATOM     15  OXT UNL d   1       1.891   1.651   2.313  0.00  0.00    -0.772 OA
ATOM     16  HXT UNL d   1       1.029   2.014   2.001  0.00  0.00     0.167 HD
ENDBRANCH  13  15
ENDBRANCH   6  13
ENDBRANCH   1   5
BRANCH   3  17
ATOM     17  C   UNL d   1       1.349  -4.918   0.028  0.00  0.00     0.127 C 
BRANCH  17  18
ATOM     18  C   UNL d   1       0.317  -6.049   0.040  0.00  0.00     0.061 C 
BRANCH  18  19
ATOM     19  C   UNL d   1       0.812  -7.477  -0.024  0.00  0.00    -0.023 A 
ATOM     20  C   UNL d   1      -0.066  -8.580  -0.058  0.00  0.00     0.074 A 
ATOM     21  C   UNL d   1       0.453  -9.881  -0.171  0.00  0.00     0.037 A 
ATOM     22  C   UNL d   1       1.825 -10.112  -0.246  0.00  0.00     0.003 A 
ATOM     23  C   UNL d   1       2.698  -9.037  -0.216  0.00  0.00     0.001 A 
ATOM     24  C   UNL d   1       2.198  -7.739  -0.102  0.00  0.00     0.010 A 
BRANCH  20  25
ATOM     25  O   UNL d   1      -1.435  -8.565  -0.118  0.00  0.00    -0.355 OA
ATOM     26  C   UNL d   1      -2.149  -7.637   0.683  0.00  0.00     0.210 C 
ENDBRANCH  20  25
ENDBRANCH  18  19
ENDBRANCH  17  18
ENDBRANCH   3  17
TORSDOF 7
