REMARK  6 active torsions:
REMARK  status: ('A' for Active; 'I' for Inactive)
REMARK    1  A    between atoms: N_5  and  C_1 
REMARK    2  A    between atoms: S_13  and  C_3 
REMARK    3  A    between atoms: N_4  and  C_12 
REMARK       I    between atoms: C_10  and  N_5 
REMARK    4  A    between atoms: C_19  and  C_10 
REMARK    5  A    between atoms: C_14  and  S_13 
REMARK    6  A    between atoms: C_21  and  C_22 
ROOT
ATOM      1  C   UNL d   1      -5.843   1.573  -1.932  0.00  0.00     0.064 A 
ATOM      2  C   UNL d   1      -6.745   2.444  -4.011  0.00  0.00     0.104 A 
ATOM      3  C   UNL d   1      -5.629   2.881  -1.455  0.00  0.00     0.028 A 
ATOM      4  N   UNL d   1      -5.256  -0.516  -0.519  0.00  0.00    -0.191 NA
ATOM      5  C   UNL d   1      -5.529   0.424  -1.141  0.00  0.00     0.101 C 
ATOM      6  C   UNL d   1      -6.396   1.354  -3.207  0.00  0.00     0.060 A 
ATOM      7  C   UNL d   1      -6.540   3.749  -3.552  0.00  0.00     0.037 A 
ATOM      8  C   UNL d   1      -5.987   3.961  -2.280  0.00  0.00     0.023 A 
ENDROOT
BRANCH   3   9
ATOM      9  S   UNL d   1      -5.116   3.222   0.232  0.00  0.00    -0.062 SA
BRANCH   9  10
ATOM     10  C   UNL d   1      -3.375   3.282   0.052  0.00  0.00     0.135 A 
ATOM     11  S   UNL d   1      -2.340   1.915   0.185  0.00  0.00    -0.026 SA
ATOM     12  C   UNL d   1      -1.021   2.994   0.027  0.00  0.00     0.168 A 
ATOM     13  N   UNL d   1      -1.361   4.255  -0.094  0.00  0.00    -0.278 N 
ATOM     14  N   UNL d   1      -2.738   4.425  -0.085  0.00  0.00    -0.286 N 
ATOM     15  HN  UNL d   1      -0.692   5.020  -0.185  1.00  0.00     0.189 HD
ATOM     16  HN  UNL d   1      -3.202   5.329  -0.174  1.00  0.00     0.188 HD
BRANCH  12  17
ATOM     17  N   UNL d   1       0.215   2.397   0.008  0.00  0.00    -0.302 N 
ATOM     18  C   UNL d   1       1.381   3.133  -0.025  0.00  0.00     0.257 C 
ATOM     19  O   UNL d   1       1.477   4.347   0.099  0.00  0.00    -0.267 OA
ATOM     20  H   UNL d   1       0.240   1.391   0.078  0.00  0.00     0.171 HD
BRANCH  18  21
ATOM     21  C   UNL d   1       2.635   2.329  -0.163  0.00  0.00     0.032 A 
ATOM     22  C   UNL d   1       2.696   1.170  -0.940  0.00  0.00     0.017 A 
ATOM     23  C   UNL d   1       3.877   0.412  -0.982  0.00  0.00     0.009 A 
ATOM     24  C   UNL d   1       5.024   0.785  -0.252  0.00  0.00    -0.051 A 
ATOM     25  C   UNL d   1       4.963   1.998   0.455  0.00  0.00     0.009 A 
ATOM     26  C   UNL d   1       3.787   2.761   0.497  0.00  0.00     0.017 A 
BRANCH  24  27
ATOM     27  C   UNL d   1       6.258  -0.140  -0.205  0.00  0.00    -0.024 C 
ATOM     28  C   UNL d   1       7.403   0.399   0.686  0.00  0.00     0.019 C 
ATOM     29  C   UNL d   1       5.844  -1.510   0.380  0.00  0.00     0.019 C 
ATOM     30  C   UNL d   1       6.846  -0.355  -1.615  0.00  0.00     0.019 C 
ENDBRANCH  24  27
ENDBRANCH  18  21
ENDBRANCH  12  17
ENDBRANCH   9  10
ENDBRANCH   3   9
BRANCH   2  31
ATOM     31  N   UNL d   1      -7.344   2.208  -5.333  0.00  0.00    -0.116 N 
ATOM     32  O   UNL d   1      -7.500   1.032  -5.689  0.00  0.00    -0.532 OA
ATOM     33  O   UNL d   1      -7.656   3.198  -6.009  0.00  0.00    -0.532 OA
ENDBRANCH   2  31
TORSDOF 6
