REMARK  9 active torsions:
REMARK  status: ('A' for Active; 'I' for Inactive)
REMARK    1  A    between atoms: C_8  and  C_1 
REMARK    2  A    between atoms: S_13  and  C_5 
REMARK    3  A    between atoms: O_14  and  N_9 
REMARK    4  A    between atoms: C_11  and  C_15 
REMARK    5  A    between atoms: N_25  and  C_11 
REMARK    6  A    between atoms: C_12  and  O_14 
REMARK    7  A    between atoms: C_16  and  C_12 
REMARK    8  A    between atoms: C_26  and  S_13 
REMARK    9  A    between atoms: C_27  and  C_26 
ROOT
ATOM      1  C   UNL d   1      -0.020  -7.364   0.008  0.00  0.00     0.004 A 
ATOM      2  C   UNL d   1      -0.382  -6.012  -0.068  0.00  0.00     0.022 A 
ATOM      3  C   UNL d   1      -1.725  -5.606  -0.185  0.00  0.00    -0.048 A 
ATOM      4  C   UNL d   1      -1.030  -8.331   0.046  0.00  0.00     0.015 A 
ATOM      5  C   UNL d   1      -2.373  -7.945  -0.012  0.00  0.00     0.002 A 
ATOM      6  C   UNL d   1      -2.718  -6.596  -0.132  0.00  0.00     0.008 A 
ENDROOT
BRANCH   1   7
ATOM      7  C   UNL d   1       1.431  -7.777  -0.024  0.00  0.00     0.109 C 
ATOM      8  N   UNL d   1       1.713  -9.046   0.031  0.00  0.00    -0.246 N 
ATOM      9  HN  UNL d   1       1.017  -9.784   0.134  1.00  0.00     0.196 HD
BRANCH   8  10
ATOM     10  O   UNL d   1       3.103  -9.275  -0.070  0.00  0.00    -0.193 OA
BRANCH  10  11
ATOM     11  C   UNL d   1       3.361 -10.614  -0.053  0.00  0.00     0.315 C 
ATOM     12  O   UNL d   1       2.568 -11.529   0.132  0.00  0.00    -0.257 OA
BRANCH  11  13
ATOM     13  C   UNL d   1       4.815 -10.862  -0.288  0.00  0.00     0.041 A 
ATOM     14  C   UNL d   1       5.276 -12.187  -0.207  0.00  0.00     0.019 A 
ATOM     15  C   UNL d   1       6.623 -12.488  -0.432  0.00  0.00     0.025 A 
ATOM     16  C   UNL d   1       7.517 -11.466  -0.739  0.00  0.00     0.034 A 
ATOM     17  C   UNL d   1       7.076 -10.146  -0.823  0.00  0.00     0.025 A 
ATOM     18 CL   UNL d   1       9.174 -11.835  -1.019  0.00  0.00    -0.084 Cl
ATOM     19  C   UNL d   1       5.727  -9.842  -0.600  0.00  0.00     0.019 A 
ENDBRANCH  11  13
ENDBRANCH  10  11
ENDBRANCH   8  10
BRANCH   7  20
ATOM     20  N   UNL d   1       2.412  -6.814  -0.134  0.00  0.00    -0.286 NA
ATOM     21  H   UNL d   1       3.331  -7.186   0.073  0.00  0.00     0.125 HD
ATOM     22  H   UNL d   1       2.246  -5.936   0.340  0.00  0.00     0.125 HD
ENDBRANCH   7  20
ENDBRANCH   1   7
BRANCH   3  23
ATOM     23  C   UNL d   1      -2.116  -4.142  -0.322  0.00  0.00     0.121 C 
BRANCH  23  24
ATOM     24  S   UNL d   1      -0.913  -3.166  -1.291  0.00  0.00    -0.088 SA
BRANCH  24  25
ATOM     25  C   UNL d   1      -1.563  -1.572  -1.196  0.00  0.00     0.162 A 
ATOM     26  N   UNL d   1      -0.933  -0.471  -1.726  0.00  0.00    -0.312 N 
ATOM     27  C   UNL d   1      -1.794   0.586  -1.509  0.00  0.00     0.209 A 
ATOM     28  C   UNL d   1       0.363  -0.484  -2.357  0.00  0.00     0.160 C 
ATOM     29  N   UNL d   1      -2.846   0.129  -0.844  0.00  0.00    -0.279 N 
ATOM     30  N   UNL d   1      -2.698  -1.220  -0.651  0.00  0.00    -0.278 N 
ATOM     31  HN  UNL d   1      -3.637   0.690  -0.528  1.00  0.00     0.188 HD
ATOM     32  HN  UNL d   1      -3.352  -1.837  -0.169  1.00  0.00     0.189 HD
BRANCH  27  33
ATOM     33  C   UNL d   1      -1.607   1.999  -1.941  0.00  0.00     0.450 C 
ATOM     34  F   UNL d   1      -0.456   2.221  -2.626  0.00  0.00    -0.163 F 
ATOM     35  F   UNL d   1      -2.610   2.413  -2.760  0.00  0.00    -0.163 F 
ATOM     36  F   UNL d   1      -1.583   2.853  -0.884  0.00  0.00    -0.163 F 
ENDBRANCH  27  33
ENDBRANCH  24  25
ENDBRANCH  23  24
ENDBRANCH   3  23
TORSDOF 9
