REMARK  2 active torsions:
REMARK  status: ('A' for Active; 'I' for Inactive)
REMARK    1  A    between atoms: O_13  and  N_5 
REMARK    2  A    between atoms: C_11  and  C_10 
ROOT
ATOM      1  O   UNL d   1      -0.818   1.060  -0.133  0.00  0.00    -0.340 OA
ATOM      2  C   UNL d   1       0.448   0.547  -0.081  0.00  0.00     0.076 A 
ATOM      3  C   UNL d   1       0.738  -0.820  -0.081  0.00  0.00    -0.024 A 
ATOM      4  C   UNL d   1      -1.909   0.140   0.059  0.00  0.00     0.061 C 
ATOM      5  C   UNL d   1       2.076  -1.235  -0.013  0.00  0.00     0.022 A 
ATOM      6  C   UNL d   1       1.480   1.488  -0.052  0.00  0.00     0.038 A 
ATOM      7  C   UNL d   1      -0.359  -1.842  -0.123  0.00  0.00     0.044 C 
ATOM      8  C   UNL d   1       3.106  -0.290   0.021  0.00  0.00    -0.018 A 
ATOM      9  C   UNL d   1      -1.648  -1.210  -0.626  0.00  0.00     0.042 C 
ATOM     10  C   UNL d   1       2.812   1.074  -0.001  0.00  0.00     0.015 A 
ATOM     11  C   UNL d   1      -3.129   0.803  -0.598  0.00  0.00     0.046 C 
ATOM     12  C   UNL d   1      -2.184  -0.000   1.564  0.00  0.00     0.046 C 
ENDROOT
BRANCH   8  13
ATOM     13  C   UNL d   1       4.517  -0.716   0.076  0.00  0.00     0.125 C 
ATOM     14  N   UNL d   1       4.855  -1.967   0.103  0.00  0.00    -0.280 N 
ATOM     15  HN  UNL d   1       4.209  -2.755   0.091  1.00  0.00     0.193 HD
BRANCH  14  16
ATOM     16  O   UNL d   1       6.250  -2.061   0.152  0.00  0.00    -0.290 OA
ATOM     17  H   UNL d   1       6.392  -3.026   0.169  0.00  0.00     0.244 HD
ENDBRANCH  14  16
ENDBRANCH   8  13
TORSDOF 2
