REMARK  7 active torsions:
REMARK  status: ('A' for Active; 'I' for Inactive)
REMARK    1  A    between atoms: N_2  and  C_1 
REMARK    2  A    between atoms: N_5  and  C_3 
REMARK    3  A    between atoms: C_24  and  N_5 
REMARK    4  A    between atoms: N_15  and  C_9 
REMARK    5  A    between atoms: C_12  and  C_24 
REMARK    6  A    between atoms: C_13  and  C_25 
REMARK    7  A    between atoms: C_25  and  N_15 
ROOT
ATOM      1  C   UNL d   1       1.577   1.236   0.048  0.00  0.00     0.130 A 
ATOM      2  C   UNL d   1       0.155   1.281   0.015  0.00  0.00     0.085 A 
ATOM      3  C   UNL d   1      -0.511   0.013   0.009  0.00  0.00     0.099 A 
ATOM      4  C   UNL d   1      -1.945  -0.065   0.077  0.00  0.00     0.104 C 
ATOM      5  N   UNL d   1      -3.099  -0.172   0.119  0.00  0.00    -0.191 NA
ATOM      6  C   UNL d   1       2.276   0.016   0.042  0.00  0.00     0.041 A 
ATOM      7  C   UNL d   1       0.192  -1.231   0.018  0.00  0.00     0.051 A 
ATOM      8  C   UNL d   1       1.590  -1.194   0.009  0.00  0.00     0.033 A 
ENDROOT
BRANCH   2   9
ATOM      9  N   UNL d   1      -0.525   2.507   0.038  0.00  0.00    -0.382 N 
ATOM     10  H   UNL d   1       0.064   3.342   0.113  0.00  0.00     0.160 HD
BRANCH   9  11
ATOM     11  C   UNL d   1      -1.804   2.774  -0.628  0.00  0.00     0.166 C 
BRANCH  11  12
ATOM     12  C   UNL d   1      -1.981   4.172  -1.165  0.00  0.00    -0.000 A 
ATOM     13  S   UNL d   1      -3.558   4.855  -1.212  0.00  0.00    -0.105 SA
ATOM     14  C   UNL d   1      -2.991   6.289  -1.946  0.00  0.00     0.050 A 
ATOM     15  C   UNL d   1      -1.632   6.258  -2.156  0.00  0.00     0.008 A 
ATOM     16  C   UNL d   1      -1.048   5.035  -1.711  0.00  0.00     0.017 A 
ENDBRANCH  11  12
ENDBRANCH   9  11
ENDBRANCH   2   9
BRANCH   7  17
ATOM     17  N   UNL d   1      -0.480  -2.466  -0.059  0.00  0.00    -0.384 N 
ATOM     18  H   UNL d   1      -1.492  -2.429   0.064  0.00  0.00     0.160 HD
BRANCH  17  19
ATOM     19  C   UNL d   1       0.098  -3.639   0.601  0.00  0.00     0.166 C 
BRANCH  19  20
ATOM     20  C   UNL d   1      -0.920  -4.619   1.116  0.00  0.00    -0.000 A 
ATOM     21  S   UNL d   1      -1.535  -4.455   2.709  0.00  0.00    -0.105 SA
ATOM     22  C   UNL d   1      -2.486  -5.868   2.557  0.00  0.00     0.050 A 
ATOM     23  C   UNL d   1      -2.362  -6.441   1.311  0.00  0.00     0.008 A 
ATOM     24  C   UNL d   1      -1.465  -5.714   0.475  0.00  0.00     0.017 A 
ENDBRANCH  19  20
ENDBRANCH  17  19
ENDBRANCH   7  17
BRANCH   1  25
ATOM     25  N   UNL d   1       2.409   2.460   0.060  0.00  0.00    -0.113 N 
ATOM     26  O   UNL d   1       1.842   3.565   0.065  0.00  0.00    -0.532 OA
ATOM     27  O   UNL d   1       3.639   2.323   0.057  0.00  0.00    -0.532 OA
ENDBRANCH   1  25
TORSDOF 7
