REMARK  6 active torsions:
REMARK  status: ('A' for Active; 'I' for Inactive)
REMARK    1  A    between atoms: N_7  and  C_1 
REMARK    2  A    between atoms: C_9  and  C_2 
REMARK    3  A    between atoms: S_3  and  N_7 
REMARK    4  A    between atoms: C_10  and  S_3 
REMARK    5  A    between atoms: C_16  and  N_4 
REMARK    6  A    between atoms: O_17  and  C_9 
ROOT
ATOM      1  C   UNL d   1       0.127  -1.416   0.215  0.00  0.00     0.100 A 
ATOM      2  C   UNL d   1       1.355  -0.784   0.354  0.00  0.00     0.155 A 
ATOM      3  N   UNL d   1       1.066   0.562   0.337  0.00  0.00    -0.285 N 
ATOM      4  N   UNL d   1      -0.254   0.826   0.334  0.00  0.00    -0.300 N 
ATOM      5  HN  UNL d   1      -0.707   1.738   0.391  1.00  0.00     0.187 HD
ATOM      6  C   UNL d   1      -0.838  -0.373   0.239  0.00  0.00     0.052 A 
ATOM      7  C   UNL d   1      -2.314  -0.446   0.085  0.00  0.00     0.072 C 
ENDROOT
BRANCH   1   8
ATOM      8  N   UNL d   1      -0.097  -2.784  -0.015  0.00  0.00    -0.276 N 
ATOM      9  H   UNL d   1       0.714  -3.289  -0.381  0.00  0.00     0.179 HD
BRANCH   8  10
ATOM     10  S   UNL d   1      -0.915  -3.771   1.095  0.00  0.00     0.263 S 
ATOM     11  O   UNL d   1      -1.881  -3.006   1.849  0.00  0.00    -0.200 OA
ATOM     12  O   UNL d   1      -1.287  -4.978   0.386  0.00  0.00    -0.200 OA
BRANCH  10  13
ATOM     13  C   UNL d   1       0.412  -4.222   2.205  0.00  0.00     0.080 A 
ATOM     14  C   UNL d   1       0.569  -3.542   3.416  0.00  0.00     0.027 A 
ATOM     15  C   UNL d   1       1.574  -3.938   4.300  0.00  0.00     0.025 A 
ATOM     16  C   UNL d   1       2.410  -5.009   3.973  0.00  0.00     0.034 A 
ATOM     17  C   UNL d   1       2.246  -5.689   2.766  0.00  0.00     0.025 A 
ATOM     18 CL   UNL d   1       3.639  -5.502   5.069  0.00  0.00    -0.084 Cl
ATOM     19  C   UNL d   1       1.241  -5.303   1.879  0.00  0.00     0.027 A 
ENDBRANCH  10  13
ENDBRANCH   8  10
ENDBRANCH   1   8
BRANCH   2  20
ATOM     20  C   UNL d   1       2.681  -1.325   0.489  0.00  0.00     0.313 C 
ATOM     21  O   UNL d   1       3.653  -0.726   0.930  0.00  0.00    -0.257 OA
BRANCH  20  22
ATOM     22  O   UNL d   1       2.712  -2.623   0.062  0.00  0.00    -0.321 OA
ATOM     23  C   UNL d   1       4.008  -3.221   0.159  0.00  0.00     0.213 C 
ENDBRANCH  20  22
ENDBRANCH   2  20
BRANCH   3  24
ATOM     24  C   UNL d   1       1.976   1.674   0.108  0.00  0.00     0.145 C 
ATOM     25  C   UNL d   1       1.912   2.747   1.180  0.00  0.00     0.028 C 
ENDBRANCH   3  24
TORSDOF 6
