REMARK  3 active torsions:
REMARK  status: ('A' for Active; 'I' for Inactive)
REMARK    1  A    between atoms: C_2  and  C_1 
REMARK       I    between atoms: N_6  and  C_2 
REMARK    2  A    between atoms: C_3  and  C_10 
REMARK    3  A    between atoms: C_10  and  N_6 
ROOT
ATOM      1  C   UNL d   1       0.122   2.004   0.282  0.00  0.00     0.256 C 
ATOM      2  N   UNL d   1       1.317   2.662   0.178  0.00  0.00    -0.352 N 
ATOM      3  O   UNL d   1      -0.882   2.628   0.622  0.00  0.00    -0.267 OA
ATOM      4  H   UNL d   1       1.254   3.628   0.476  0.00  0.00     0.163 HD
ENDROOT
BRANCH   1   5
ATOM      5  C   UNL d   1       0.001   0.564  -0.006  0.00  0.00     0.092 A 
ATOM      6  C   UNL d   1      -0.946   0.079  -0.918  0.00  0.00     0.052 A 
ATOM      7 CL   UNL d   1      -1.929   1.114  -1.894  0.00  0.00    -0.083 Cl
ATOM      8  C   UNL d   1      -1.106  -1.302  -1.098  0.00  0.00     0.025 A 
ATOM      9  C   UNL d   1      -0.326  -2.205  -0.375  0.00  0.00     0.005 A 
ATOM     10  C   UNL d   1       0.608  -1.726   0.539  0.00  0.00     0.043 A 
ATOM     11  C   UNL d   1       0.750  -0.353   0.731  0.00  0.00     0.133 A 
ATOM     12  F   UNL d   1       1.621   0.057   1.663  0.00  0.00    -0.205 F 
ENDBRANCH   1   5
BRANCH   2  13
ATOM     13  C   UNL d   1       2.643   2.189  -0.167  0.00  0.00     0.169 C 
BRANCH  13  14
ATOM     14  C   UNL d   1       3.587   2.217   1.014  0.00  0.00     0.006 A 
ATOM     15  C   UNL d   1       4.804   1.552   1.146  0.00  0.00    -0.047 A 
ATOM     16  C   UNL d   1       5.412   1.820   2.419  0.00  0.00     0.015 A 
ATOM     17  C   UNL d   1       5.443   0.668   0.125  0.00  0.00     0.049 C 
ATOM     18  C   UNL d   1       4.671   2.675   3.195  0.00  0.00     0.051 A 
ATOM     19  S   UNL d   1       3.254   3.187   2.400  0.00  0.00    -0.104 SA
ENDBRANCH  13  14
ENDBRANCH   2  13
TORSDOF 3
