REMARK  4 active torsions:
REMARK  status: ('A' for Active; 'I' for Inactive)
REMARK    1  A    between atoms: C_9  and  C_3 
REMARK    2  A    between atoms: C_12  and  C_4 
REMARK    3  A    between atoms: O_19  and  C_12 
REMARK    4  A    between atoms: C_20  and  O_19 
ROOT
ATOM      1  C   UNL d   1       0.006  -0.636   0.113  0.00  0.00     0.058 A 
ATOM      2  C   UNL d   1       0.016   0.706   0.061  0.00  0.00     0.003 A 
ATOM      3  C   UNL d   1      -2.236   0.232  -0.008  0.00  0.00     0.041 A 
ATOM      4  C   UNL d   1       2.271   0.207   0.073  0.00  0.00     0.088 A 
ATOM      5  C   UNL d   1      -1.294   1.277   0.036  0.00  0.00    -0.030 A 
ATOM      6  C   UNL d   1       1.333   1.260   0.029  0.00  0.00    -0.026 A 
ATOM      7  S   UNL d   1      -1.504  -1.329   0.099  0.00  0.00    -0.079 SA
ATOM      8  S   UNL d   1       1.503  -1.345   0.175  0.00  0.00    -0.075 SA
ATOM      9  C   UNL d   1       1.764   2.688  -0.079  0.00  0.00     0.050 C 
ATOM     10  C   UNL d   1      -1.685   2.719   0.053  0.00  0.00     0.050 C 
ENDROOT
BRANCH   3  11
ATOM     11  C   UNL d   1      -3.733   0.379  -0.139  0.00  0.00     0.067 A 
ATOM     12  N   UNL d   1      -4.337   1.564  -0.316  0.00  0.00    -0.300 N 
ATOM     13  N   UNL d   1      -5.640   1.265  -0.418  0.00  0.00    -0.311 N 
ATOM     14  HN  UNL d   1      -3.902   2.486  -0.361  1.00  0.00     0.187 HD
ATOM     15  C   UNL d   1      -5.906  -0.065  -0.302  0.00  0.00     0.109 A 
ATOM     16  H   UNL d   1      -6.294   2.026  -0.570  0.00  0.00     0.186 HD
ATOM     17  C   UNL d   1      -4.686  -0.672  -0.120  0.00  0.00     0.051 A 
ENDBRANCH   3  11
BRANCH   4  18
ATOM     18  C   UNL d   1       3.727   0.291  -0.021  0.00  0.00     0.300 C 
ATOM     19  O   UNL d   1       4.370   1.317  -0.195  0.00  0.00    -0.259 OA
BRANCH  18  20
ATOM     20  O   UNL d   1       4.285  -0.955   0.009  0.00  0.00    -0.317 OA
BRANCH  20  21
ATOM     21  C   UNL d   1       5.585  -1.082  -0.578  0.00  0.00     0.174 C 
ATOM     22  C   UNL d   1       5.410  -1.263  -2.075  0.00  0.00     0.034 C 
ENDBRANCH  20  21
ENDBRANCH  18  20
ENDBRANCH   4  18
TORSDOF 4
