REMARK  3 active torsions:
REMARK  status: ('A' for Active; 'I' for Inactive)
REMARK    1  A    between atoms: C_5  and  C_1 
REMARK    2  A    between atoms: N_6  and  C_2 
REMARK       I    between atoms: C_7  and  N_6 
REMARK       I    between atoms: N_10  and  C_7 
REMARK    3  A    between atoms: N_14  and  N_10 
ROOT
ATOM      1  C   UNL d   1      -1.398  -0.709   0.123  0.00  0.00     0.097 A 
ATOM      2  C   UNL d   1       0.004  -0.803  -0.184  0.00  0.00     0.097 A 
ATOM      3  N   UNL d   1      -1.679   0.514   0.611  0.00  0.00    -0.258 N 
ATOM      4  HN  UNL d   1      -2.592   0.848   0.921  1.00  0.00     0.195 HD
ATOM      5  C   UNL d   1       0.496   0.443   0.159  0.00  0.00     0.101 A 
ATOM      6  O   UNL d   1      -0.510   1.225   0.611  0.00  0.00    -0.240 OA
ATOM      7  C   UNL d   1       1.820   1.091   0.097  0.00  0.00     0.081 C 
ENDROOT
BRANCH   2   8
ATOM      8  N   UNL d   1       0.855  -1.796  -0.649  0.00  0.00    -0.303 N 
ATOM      9  C   UNL d   1       0.613  -3.040  -1.128  0.00  0.00     0.336 C 
ATOM     10  N   UNL d   1      -0.408  -3.265  -2.041  0.00  0.00    -0.271 N 
ATOM     11  O   UNL d   1       1.397  -3.944  -0.822  0.00  0.00    -0.245 OA
ATOM     12  C   UNL d   1      -1.000  -2.264  -2.922  0.00  0.00     0.176 C 
ATOM     13  H   UNL d   1       1.801  -1.731  -0.291  0.00  0.00     0.171 HD
BRANCH  10  14
ATOM     14  N   UNL d   1      -0.530  -4.617  -2.519  0.00  0.00    -0.244 NA
ATOM     15  H   UNL d   1      -0.105  -5.212  -1.792  0.00  0.00     0.143 HD
ATOM     16  H   UNL d   1       0.131  -4.714  -3.295  0.00  0.00     0.143 HD
ENDBRANCH  10  14
ENDBRANCH   2   8
BRANCH   1  17
ATOM     17  C   UNL d   1      -2.490  -1.682   0.082  0.00  0.00     0.038 A 
ATOM     18  C   UNL d   1      -2.467  -2.850   0.865  0.00  0.00     0.048 A 
ATOM     19 CL   UNL d   1      -1.138  -3.261   1.896  0.00  0.00    -0.083 Cl
ATOM     20  C   UNL d   1      -3.569  -3.718   0.892  0.00  0.00     0.025 A 
ATOM     21  C   UNL d   1      -4.720  -3.426   0.164  0.00  0.00     0.003 A 
ATOM     22  C   UNL d   1      -4.768  -2.269  -0.606  0.00  0.00     0.025 A 
ATOM     23  C   UNL d   1      -3.665  -1.407  -0.654  0.00  0.00     0.048 A 
ATOM     24 CL   UNL d   1      -3.828  -0.019  -1.685  0.00  0.00    -0.083 Cl
ENDBRANCH   1  17
TORSDOF 3
