REMARK  4 active torsions:
REMARK  status: ('A' for Active; 'I' for Inactive)
REMARK    1  A    between atoms: C_5  and  C_1 
REMARK    2  A    between atoms: C_8  and  C_2 
REMARK    3  A    between atoms: C_11  and  C_8 
REMARK    4  A    between atoms: O_12  and  C_8 
ROOT
ATOM      1  C   UNL d   1      -1.577  -0.787  -0.175  0.00  0.00     0.080 C 
ATOM      2  C   UNL d   1      -0.217  -1.252  -0.220  0.00  0.00     0.036 C 
ATOM      3  N   UNL d   1      -1.616   0.551  -0.304  0.00  0.00    -0.260 N 
ATOM      4  HN  UNL d   1      -2.450   1.131  -0.397  1.00  0.00     0.195 HD
ATOM      5  O   UNL d   1      -0.314   0.983  -0.287  0.00  0.00    -0.242 OA
ATOM      6  C   UNL d   1       0.521  -0.079  -0.204  0.00  0.00     0.084 C 
ATOM      7  C   UNL d   1       1.958   0.251  -0.135  0.00  0.00     0.079 C 
ENDROOT
BRANCH   2   8
ATOM      8  C   UNL d   1       0.301  -2.651  -0.218  0.00  0.00     0.189 C 
BRANCH   8   9
ATOM      9  C   UNL d   1       0.699  -3.070  -1.635  0.00  0.00    -0.025 A 
ATOM     10  C   UNL d   1       0.748  -2.217  -2.755  0.00  0.00     0.010 A 
ATOM     11  C   UNL d   1       1.074  -2.701  -4.025  0.00  0.00     0.001 A 
ATOM     12  C   UNL d   1       1.378  -4.044  -4.204  0.00  0.00     0.000 A 
ATOM     13  C   UNL d   1       1.365  -4.905  -3.112  0.00  0.00     0.001 A 
ATOM     14  C   UNL d   1       1.028  -4.423  -1.843  0.00  0.00     0.010 A 
ENDBRANCH   8   9
BRANCH   8  15
ATOM     15  O   UNL d   1       1.420  -2.795   0.661  0.00  0.00    -0.386 OA
ATOM     16  H   UNL d   1       2.204  -2.941   0.108  0.00  0.00     0.210 HD
ENDBRANCH   8  15
ENDBRANCH   2   8
BRANCH   1  17
ATOM     17  C   UNL d   1      -2.836  -1.510   0.038  0.00  0.00     0.037 A 
ATOM     18  C   UNL d   1      -3.612  -1.239   1.187  0.00  0.00     0.048 A 
ATOM     19 CL   UNL d   1      -3.097  -0.155   2.441  0.00  0.00    -0.083 Cl
ATOM     20  C   UNL d   1      -4.857  -1.854   1.387  0.00  0.00     0.025 A 
ATOM     21  C   UNL d   1      -5.340  -2.774   0.465  0.00  0.00     0.003 A 
ATOM     22  C   UNL d   1      -4.585  -3.068  -0.665  0.00  0.00     0.025 A 
ATOM     23  C   UNL d   1      -3.356  -2.428  -0.891  0.00  0.00     0.048 A 
ATOM     24 CL   UNL d   1      -2.589  -2.796  -2.392  0.00  0.00    -0.083 Cl
ENDBRANCH   1  17
TORSDOF 4
