REMARK  6 active torsions:
REMARK  status: ('A' for Active; 'I' for Inactive)
REMARK    1  A    between atoms: C_2  and  C_1 
REMARK    2  A    between atoms: C_3  and  C_1 
REMARK    3  A    between atoms: C_4  and  C_2 
REMARK    4  A    between atoms: C_7  and  C_3 
REMARK    5  A    between atoms: N_9  and  N_5 
REMARK    6  A    between atoms: C_18  and  N_9 
ROOT
ATOM      1  C   UNL d   1       1.231   0.016  -0.133  0.00  0.00     0.150 C 
ATOM      2  N   UNL d   1       2.532   0.047  -0.143  0.00  0.00    -0.310 N 
ATOM      3  HN  UNL d   1       3.065  -0.817  -0.244  1.00  0.00     0.181 HD
ENDROOT
BRANCH   1   4
ATOM      4  C   UNL d   1       0.347   1.220  -0.064  0.00  0.00     0.286 C 
ATOM      5  O   UNL d   1      -0.472   1.274   0.846  0.00  0.00    -0.281 OA
BRANCH   4   6
ATOM      6  C   UNL d   1       0.546   2.237  -1.148  0.00  0.00     0.457 C 
ATOM      7  F   UNL d   1       1.572   1.951  -2.004  0.00  0.00    -0.163 F 
ATOM      8  F   UNL d   1      -0.548   2.420  -1.929  0.00  0.00    -0.163 F 
ATOM      9  F   UNL d   1       0.858   3.463  -0.633  0.00  0.00    -0.163 F 
ENDBRANCH   4   6
ENDBRANCH   1   4
BRANCH   1  10
ATOM     10  C   UNL d   1       0.579  -1.342  -0.198  0.00  0.00     0.220 C 
ATOM     11  O   UNL d   1      -0.341  -1.440  -1.015  0.00  0.00    -0.284 OA
BRANCH  10  12
ATOM     12  C   UNL d   1       1.070  -2.384   0.695  0.00  0.00     0.057 A 
ATOM     13  S   UNL d   1       0.273  -3.908   0.702  0.00  0.00    -0.098 SA
ATOM     14  C   UNL d   1       1.374  -4.567   1.829  0.00  0.00     0.050 A 
ATOM     15  C   UNL d   1       2.328  -3.653   2.213  0.00  0.00     0.009 A 
ATOM     16  C   UNL d   1       2.133  -2.388   1.583  0.00  0.00     0.023 A 
ENDBRANCH  10  12
ENDBRANCH   1  10
BRANCH   2  17
ATOM     17  N   UNL d   1       3.177   1.241  -0.018  0.00  0.00    -0.205 NA
ATOM     18  H   UNL d   1       2.959   1.974  -0.707  0.00  0.00     0.153 HD
BRANCH  17  19
ATOM     19  C   UNL d   1       4.599   1.187   0.015  0.00  0.00     0.027 A 
ATOM     20  C   UNL d   1       5.323  -0.009   0.065  0.00  0.00     0.025 A 
ATOM     21  C   UNL d   1       6.721   0.005   0.070  0.00  0.00     0.002 A 
ATOM     22  C   UNL d   1       7.406   1.220   0.060  0.00  0.00     0.000 A 
ATOM     23  C   UNL d   1       6.700   2.417   0.067  0.00  0.00     0.002 A 
ATOM     24  C   UNL d   1       5.302   2.401   0.053  0.00  0.00     0.025 A 
ENDBRANCH  17  19
ENDBRANCH   2  17
TORSDOF 6
