REMARK  3 active torsions:
REMARK  status: ('A' for Active; 'I' for Inactive)
REMARK    1  A    between atoms: C_3  and  C_1 
REMARK       I    between atoms: N_6  and  C_3 
REMARK    2  A    between atoms: N_10  and  N_6 
REMARK    3  A    between atoms: C_13  and  N_10 
ROOT
ATOM      1  C   UNL d   1       3.382  -1.540   0.234  0.00  0.00     0.273 C 
ATOM      2  N   UNL d   1       3.709  -2.891   0.289  0.00  0.00    -0.282 N 
ATOM      3  O   UNL d   1       2.254  -1.175  -0.104  0.00  0.00    -0.266 OA
ATOM      4  H   UNL d   1       4.687  -3.162   0.255  0.00  0.00     0.184 HD
ENDROOT
BRANCH   2   5
ATOM      5  N   UNL d   1       2.803  -3.802  -0.283  0.00  0.00    -0.203 NA
ATOM      6  H   UNL d   1       1.898  -3.352  -0.481  0.00  0.00     0.153 HD
BRANCH   5   7
ATOM      7  C   UNL d   1       2.616  -5.014   0.425  0.00  0.00     0.029 A 
ATOM      8  C   UNL d   1       1.708  -5.945  -0.101  0.00  0.00     0.049 A 
ATOM      9  C   UNL d   1       1.514  -7.193   0.505  0.00  0.00     0.041 A 
ATOM     10 CL   UNL d   1       0.383  -8.278  -0.225  0.00  0.00    -0.084 Cl
ATOM     11  C   UNL d   1       2.228  -7.547   1.656  0.00  0.00    -0.040 A 
ATOM     12  C   UNL d   1       3.146  -6.626   2.176  0.00  0.00     0.010 A 
ATOM     13  C   UNL d   1       2.040  -8.875   2.335  0.00  0.00     0.050 C 
ATOM     14  C   UNL d   1       3.345  -5.382   1.562  0.00  0.00     0.026 A 
ENDBRANCH   5   7
ENDBRANCH   2   5
BRANCH   1  15
ATOM     15  C   UNL d   1       4.443  -0.608   0.594  0.00  0.00     0.075 A 
ATOM     16  S   UNL d   1       5.974  -1.126   1.148  0.00  0.00    -0.084 SA
ATOM     17  C   UNL d   1       6.522   0.483   1.422  0.00  0.00     0.016 A 
ATOM     18  C   UNL d   1       7.768   0.880   1.950  0.00  0.00     0.019 A 
ATOM     19  C   UNL d   1       5.556   1.421   1.054  0.00  0.00    -0.018 A 
ATOM     20  C   UNL d   1       8.030   2.243   2.111  0.00  0.00     0.001 A 
ATOM     21  C   UNL d   1       7.085   3.191   1.748  0.00  0.00     0.001 A 
ATOM     22  C   UNL d   1       5.854   2.793   1.218  0.00  0.00     0.013 A 
ATOM     23  C   UNL d   1       4.372   0.772   0.565  0.00  0.00     0.037 A 
ENDBRANCH   1  15
TORSDOF 3
