REMARK  7 active torsions:
REMARK  status: ('A' for Active; 'I' for Inactive)
REMARK    1  A    between atoms: N_7  and  S_1 
REMARK    2  A    between atoms: C_17  and  S_1 
REMARK    3  A    between atoms: N_2  and  C_19 
REMARK    4  A    between atoms: C_13  and  C_6 
REMARK       I    between atoms: N_12  and  C_9 
REMARK       I    between atoms: N_16  and  C_9 
REMARK    5  A    between atoms: S_10  and  N_14 
REMARK    6  A    between atoms: C_18  and  S_10 
REMARK    7  A    between atoms: N_14  and  N_12 
ROOT
ATOM      1  S   UNL d   1       0.850  -0.078   0.299  0.00  0.00     0.276 S 
ATOM      2  O   UNL d   1       2.265  -0.041  -0.026  0.00  0.00    -0.200 OA
ATOM      3  O   UNL d   1       0.389   0.689   1.441  0.00  0.00    -0.200 OA
ENDROOT
BRANCH   1   4
ATOM      4  N   UNL d   1       0.346  -1.589   0.503  0.00  0.00    -0.111 N 
ATOM      5  C   UNL d   1       0.690  -2.646  -0.153  0.00  0.00     0.705 C 
ATOM      6  N   UNL d   1       1.518  -2.774  -1.247  0.00  0.00    -0.122 N 
ATOM      7  N   UNL d   1       0.156  -3.877   0.233  0.00  0.00    -0.216 N 
ATOM      8  H   UNL d   1       1.445  -3.610  -1.825  0.00  0.00     0.206 HD
ATOM      9  C   UNL d   1      -0.891  -3.962   1.269  0.00  0.00     0.141 C 
ATOM     10  C   UNL d   1       0.985  -5.095   0.293  0.00  0.00     0.141 C 
ATOM     11  C   UNL d   1      -0.429  -5.061   2.217  0.00  0.00     0.022 C 
ATOM     12  C   UNL d   1       0.299  -6.017   1.297  0.00  0.00     0.022 C 
ATOM     13  HN  UNL d   1      -0.335  -1.731   1.249  1.00  0.00     0.197 HD
BRANCH   6  14
ATOM     14  N   UNL d   1       2.847  -2.159  -1.205  0.00  0.00    -0.208 N 
ATOM     15  H   UNL d   1       2.993  -1.350  -0.579  0.00  0.00     0.201 HD
BRANCH  14  16
ATOM     16  S   UNL d   1       3.863  -2.215  -2.554  0.00  0.00     0.276 S 
ATOM     17  O   UNL d   1       4.702  -3.387  -2.431  0.00  0.00    -0.199 OA
ATOM     18  O   UNL d   1       3.053  -1.992  -3.734  0.00  0.00    -0.199 OA
BRANCH  16  19
ATOM     19  C   UNL d   1       4.867  -0.769  -2.285  0.00  0.00     0.081 A 
ATOM     20  C   UNL d   1       6.006  -0.863  -1.483  0.00  0.00     0.027 A 
ATOM     21  C   UNL d   1       6.783   0.279  -1.255  0.00  0.00     0.025 A 
ATOM     22  C   UNL d   1       6.419   1.493  -1.837  0.00  0.00     0.034 A 
ATOM     23  C   UNL d   1       5.288   1.581  -2.651  0.00  0.00     0.025 A 
ATOM     24 CL   UNL d   1       7.374   2.897  -1.551  0.00  0.00    -0.084 Cl
ATOM     25  C   UNL d   1       4.508   0.444  -2.881  0.00  0.00     0.027 A 
ENDBRANCH  16  19
ENDBRANCH  14  16
ENDBRANCH   6  14
ENDBRANCH   1   4
BRANCH   1  26
ATOM     26  C   UNL d   1      -0.003   0.651  -1.087  0.00  0.00     0.080 A 
ATOM     27  C   UNL d   1      -1.113   0.056  -1.685  0.00  0.00     0.027 A 
ATOM     28  C   UNL d   1      -1.839   0.771  -2.651  0.00  0.00     0.033 A 
ATOM     29  C   UNL d   1      -1.440   2.065  -3.035  0.00  0.00     0.057 A 
ATOM     30  C   UNL d   1      -0.317   2.644  -2.430  0.00  0.00     0.033 A 
ATOM     31  C   UNL d   1       0.408   1.935  -1.471  0.00  0.00     0.027 A 
BRANCH  29  32
ATOM     32  N   UNL d   1      -2.215   2.796  -3.988  0.00  0.00    -0.255 N 
ATOM     33  C   UNL d   1      -1.835   3.835  -4.839  0.00  0.00     0.076 C 
ATOM     34  C   UNL d   1      -3.015   4.381  -5.305  0.00  0.00     0.069 C 
ATOM     35  C   UNL d   1      -0.489   4.203  -5.202  0.00  0.00     0.033 A 
ATOM     36  C   UNL d   1      -4.053   3.552  -4.817  0.00  0.00     0.135 C 
ATOM     37  N   UNL d   1      -3.549   2.534  -4.099  0.00  0.00    -0.289 N 
ATOM     38  HN  UNL d   1      -4.057   1.736  -3.717  1.00  0.00     0.187 HD
ATOM     39  S   UNL d   1      -0.067   5.833  -5.542  0.00  0.00    -0.100 SA
ATOM     40  C   UNL d   1       0.603   3.369  -5.365  0.00  0.00     0.021 A 
ATOM     41  C   UNL d   1       1.567   5.425  -5.838  0.00  0.00     0.050 A 
ATOM     42  C   UNL d   1       1.796   4.077  -5.693  0.00  0.00     0.008 A 
BRANCH  36  43
ATOM     43  C   UNL d   1      -5.524   3.740  -5.092  0.00  0.00     0.434 C 
ATOM     44  F   UNL d   1      -6.319   2.824  -4.481  0.00  0.00    -0.165 F 
ATOM     45  F   UNL d   1      -5.954   4.965  -4.681  0.00  0.00    -0.165 F 
ATOM     46  F   UNL d   1      -5.796   3.670  -6.424  0.00  0.00    -0.165 F 
ENDBRANCH  36  43
ENDBRANCH  29  32
ENDBRANCH   1  26
TORSDOF 7
