REMARK  4 active torsions:
REMARK  status: ('A' for Active; 'I' for Inactive)
REMARK    1  A    between atoms: C_8  and  C_2 
REMARK    2  A    between atoms: C_11  and  N_5 
REMARK    3  A    between atoms: O_18  and  C_8 
REMARK    4  A    between atoms: C_22  and  O_18 
ROOT
ATOM      1  C   UNL d   1      -0.709   1.260   0.075  0.00  0.00     0.098 A 
ATOM      2  C   UNL d   1       1.270  -0.116  -0.084  0.00  0.00     0.131 A 
ATOM      3  N   UNL d   1       0.646  -1.255  -0.064  0.00  0.00    -0.286 N 
ATOM      4  HN  UNL d   1       1.154  -2.138  -0.121  1.00  0.00     0.188 HD
ATOM      5  N   UNL d   1      -0.722  -1.228   0.037  0.00  0.00    -0.238 N 
ATOM      6  C   UNL d   1      -1.452  -0.040   0.165  0.00  0.00     0.142 A 
ATOM      7  C   UNL d   1       0.636   1.237   0.008  0.00  0.00    -0.003 A 
ATOM      8  C   UNL d   1      -1.441   2.481   0.103  0.00  0.00     0.104 C 
ATOM      9  N   UNL d   1      -1.958   3.522   0.104  0.00  0.00    -0.191 NA
ATOM     10  N   UNL d   1      -2.726   0.055   0.422  0.00  0.00    -0.383 N 
ATOM     11  HN  UNL d   1      -3.244   0.931   0.479  1.00  0.00     0.157 HD
ATOM     12  C   UNL d   1       1.478   2.482   0.043  0.00  0.00     0.052 C 
ATOM     13  H   UNL d   1      -3.134  -0.874   0.558  0.00  0.00     0.157 HD
ENDROOT
BRANCH   5  14
ATOM     14  C   UNL d   1      -1.318  -2.527   0.005  0.00  0.00     0.058 A 
ATOM     15  C   UNL d   1      -2.497  -2.787  -0.712  0.00  0.00     0.032 A 
ATOM     16  C   UNL d   1      -3.118  -4.039  -0.654  0.00  0.00     0.009 A 
ATOM     17  C   UNL d   1      -2.558  -5.075   0.100  0.00  0.00    -0.062 A 
ATOM     18  C   UNL d   1      -1.347  -4.852   0.759  0.00  0.00     0.009 A 
ATOM     19  C   UNL d   1      -3.269  -6.391   0.210  0.00  0.00     0.048 C 
ATOM     20  C   UNL d   1      -0.731  -3.597   0.703  0.00  0.00     0.032 A 
ENDBRANCH   5  14
BRANCH   2  21
ATOM     21  C   UNL d   1       2.781  -0.201  -0.301  0.00  0.00     0.312 C 
ATOM     22  O   UNL d   1       3.362   0.506  -1.105  0.00  0.00    -0.258 OA
BRANCH  21  23
ATOM     23  O   UNL d   1       3.297  -1.208   0.434  0.00  0.00    -0.317 OA
BRANCH  23  24
ATOM     24  C   UNL d   1       4.627  -1.605   0.076  0.00  0.00     0.175 C 
ATOM     25  C   UNL d   1       4.593  -2.467  -1.176  0.00  0.00     0.034 C 
ENDBRANCH  23  24
ENDBRANCH  21  23
ENDBRANCH   2  21
TORSDOF 4
