REMARK  5 active torsions:
REMARK  status: ('A' for Active; 'I' for Inactive)
REMARK    1  A    between atoms: C_9  and  C_2 
REMARK    2  A    between atoms: S_11  and  C_3 
REMARK    3  A    between atoms: C_12  and  N_6 
REMARK    4  A    between atoms: C_8  and  O_10 
REMARK    5  A    between atoms: O_10  and  C_16 
ROOT
ATOM      1  C   UNL d   1       1.114  -0.280   0.153  0.00  0.00     0.094 C 
ATOM      2  C   UNL d   1       0.144   0.873   0.099  0.00  0.00     0.033 C 
ATOM      3  C   UNL d   1      -1.156   0.503   0.128  0.00  0.00     0.061 C 
ATOM      4  S   UNL d   1       0.342  -1.674   0.880  0.00  0.00    -0.033 SA
ATOM      5  S   UNL d   1      -1.490  -1.219   0.136  0.00  0.00    -0.043 SA
ATOM      6  N   UNL d   1       2.343  -0.175  -0.253  0.00  0.00    -0.349 N 
ATOM      7  HN  UNL d   1       2.654   0.724  -0.619  1.00  0.00     0.166 HD
ENDROOT
BRANCH   2   8
ATOM      8  C   UNL d   1       0.680   2.241   0.115  0.00  0.00    -0.021 A 
ATOM      9  C   UNL d   1       0.754   2.950   1.320  0.00  0.00     0.012 A 
ATOM     10  C   UNL d   1       1.321   4.224   1.350  0.00  0.00     0.001 A 
ATOM     11  C   UNL d   1       1.812   4.799   0.179  0.00  0.00     0.000 A 
ATOM     12  C   UNL d   1       1.736   4.102  -1.026  0.00  0.00     0.001 A 
ATOM     13  C   UNL d   1       1.177   2.824  -1.058  0.00  0.00     0.012 A 
ENDBRANCH   2   8
BRANCH   6  14
ATOM     14  C   UNL d   1       3.265  -1.229  -0.216  0.00  0.00     0.033 A 
ATOM     15  C   UNL d   1       3.016  -2.481  -0.789  0.00  0.00     0.032 A 
ATOM     16  C   UNL d   1       3.996  -3.479  -0.812  0.00  0.00     0.039 A 
ATOM     17  C   UNL d   1       5.283  -3.205  -0.353  0.00  0.00     0.078 A 
ATOM     18  C   UNL d   1       5.540  -1.958   0.225  0.00  0.00     0.039 A 
ATOM     19  C   UNL d   1       4.543  -0.981   0.291  0.00  0.00     0.032 A 
BRANCH  17  20
ATOM     20  O   UNL d   1       6.362  -4.031  -0.424  0.00  0.00    -0.255 OA
BRANCH  20  21
ATOM     21  C   UNL d   1       6.302  -5.168  -1.278  0.00  0.00     0.530 C 
ATOM     22  F   UNL d   1       5.576  -4.951  -2.395  0.00  0.00    -0.144 F 
ATOM     23  F   UNL d   1       7.560  -5.476  -1.663  0.00  0.00    -0.144 F 
ATOM     24  F   UNL d   1       5.791  -6.220  -0.608  0.00  0.00    -0.144 F 
ENDBRANCH  20  21
ENDBRANCH  17  20
ENDBRANCH   6  14
BRANCH   3  25
ATOM     25  S   UNL d   1      -2.549   1.543   0.241  0.00  0.00    -0.126 SA
ATOM     26  C   UNL d   1      -2.271   2.826  -0.990  0.00  0.00     0.096 C 
ENDBRANCH   3  25
TORSDOF 5
