REMARK  5 active torsions:
REMARK  status: ('A' for Active; 'I' for Inactive)
REMARK    1  A    between atoms: C_3  and  S_1 
REMARK    2  A    between atoms: O_5  and  S_1 
REMARK    3  A    between atoms: S_2  and  C_3 
REMARK    4  A    between atoms: C_4  and  C_8 
REMARK    5  A    between atoms: C_16  and  O_5 
ROOT
ATOM      1  C   UNL d   1       1.332   5.363  -0.317  0.00  0.00     0.048 A 
ATOM      2  C   UNL d   1       0.013   4.978  -0.585  0.00  0.00     0.019 A 
ATOM      3  C   UNL d   1       2.312   4.366  -0.188  0.00  0.00     0.019 A 
ATOM      4  C   UNL d   1       0.665   2.645  -0.628  0.00  0.00     0.089 A 
ATOM      5  C   UNL d   1      -0.321   3.629  -0.727  0.00  0.00     0.039 A 
ATOM      6  C   UNL d   1       1.979   3.016  -0.338  0.00  0.00     0.039 A 
ENDROOT
BRANCH   4   7
ATOM      7  O   UNL d   1       0.439   1.303  -0.798  0.00  0.00    -0.232 OA
BRANCH   7   8
ATOM      8  S   UNL d   1      -0.908   0.768  -1.559  0.00  0.00     0.283 S 
ATOM      9  O   UNL d   1      -1.992   0.765  -0.602  0.00  0.00    -0.197 OA
ATOM     10  O   UNL d   1      -1.005   1.454  -2.832  0.00  0.00    -0.197 OA
BRANCH   8  11
ATOM     11  C   UNL d   1      -0.357  -0.865  -1.856  0.00  0.00     0.310 C 
BRANCH  11  12
ATOM     12  S   UNL d   1      -1.465  -1.757  -2.891  0.00  0.00     0.156 S 
ATOM     13  O   UNL d   1      -0.873  -3.075  -3.060  0.00  0.00    -0.227 OA
ATOM     14  O   UNL d   1      -2.810  -1.641  -2.376  0.00  0.00    -0.227 OA
ATOM     15  C   UNL d   1      -1.409  -0.981  -4.494  0.00  0.00     0.162 C 
ENDBRANCH  11  12
ENDBRANCH   8  11
ENDBRANCH   7   8
ENDBRANCH   4   7
BRANCH   1  16
ATOM     16  C   UNL d   1       1.696   6.820  -0.162  0.00  0.00     0.417 C 
ATOM     17  F   UNL d   1       0.642   7.666  -0.334  0.00  0.00    -0.166 F 
ATOM     18  F   UNL d   1       2.201   7.099   1.071  0.00  0.00    -0.166 F 
ATOM     19  F   UNL d   1       2.643   7.218  -1.055  0.00  0.00    -0.166 F 
ENDBRANCH   1  16
TORSDOF 5
