REMARK  3 active torsions:
REMARK  status: ('A' for Active; 'I' for Inactive)
REMARK    1  A    between atoms: C_2  and  C_1 
REMARK       I    between atoms: N_3  and  C_1 
REMARK    2  A    between atoms: C_17  and  N_4 
REMARK    3  A    between atoms: C_16  and  C_17 
ROOT
ATOM      1  C   UNL d   1       0.704   0.070  -0.229  0.00  0.00     0.258 C 
ATOM      2  N   UNL d   1       0.218   1.210   0.448  0.00  0.00    -0.344 N 
ATOM      3  N   UNL d   1      -0.887   3.773   1.484  0.00  0.00     0.095 N 
ATOM      4  O   UNL d   1       1.507   0.154  -1.151  0.00  0.00    -0.267 OA
ATOM      5  C   UNL d   1       0.679   2.506  -0.069  0.00  0.00     0.156 C 
ATOM      6  C   UNL d   1      -1.034   1.248   1.218  0.00  0.00     0.156 C 
ATOM      7  C   UNL d   1       0.480   3.661   0.930  0.00  0.00     0.292 C 
ATOM      8  C   UNL d   1      -1.208   2.482   2.126  0.00  0.00     0.292 C 
ENDROOT
BRANCH   1   9
ATOM      9  C   UNL d   1       0.291  -1.293   0.197  0.00  0.00     0.092 A 
ATOM     10  C   UNL d   1      -1.055  -1.657   0.232  0.00  0.00     0.133 A 
ATOM     11  F   UNL d   1      -2.011  -0.825  -0.200  0.00  0.00    -0.205 F 
ATOM     12  C   UNL d   1      -1.468  -2.899   0.713  0.00  0.00     0.043 A 
ATOM     13  C   UNL d   1      -0.523  -3.853   1.066  0.00  0.00     0.005 A 
ATOM     14  C   UNL d   1       0.831  -3.554   0.931  0.00  0.00     0.025 A 
ATOM     15  C   UNL d   1       1.244  -2.277   0.512  0.00  0.00     0.052 A 
ATOM     16 CL   UNL d   1       2.952  -2.008   0.448  0.00  0.00    -0.083 Cl
ENDBRANCH   1   9
BRANCH   3  17
ATOM     17  C   UNL d   1      -1.901   4.116   0.469  0.00  0.00     0.311 C 
BRANCH  17  18
ATOM     18  C   UNL d   1      -1.669   5.448  -0.213  0.00  0.00    -0.027 A 
ATOM     19  C   UNL d   1      -1.513   5.504  -1.608  0.00  0.00     0.048 A 
ATOM     20  C   UNL d   1      -1.309   6.737  -2.191  0.00  0.00     0.105 A 
ATOM     21  O   UNL d   1      -1.135   6.965  -3.520  0.00  0.00    -0.323 OA
ATOM     22  C   UNL d   1      -1.261   7.891  -1.447  0.00  0.00     0.105 A 
ATOM     23  C   UNL d   1      -0.955   8.396  -3.525  0.00  0.00     0.352 A 
ATOM     24  O   UNL d   1      -1.051   8.993  -2.215  0.00  0.00    -0.323 OA
ATOM     25  C   UNL d   1      -1.414   7.878  -0.077  0.00  0.00     0.040 A 
ATOM     26  C   UNL d   1      -1.620   6.642   0.543  0.00  0.00     0.012 A 
ENDBRANCH  17  18
ENDBRANCH   3  17
TORSDOF 3
