REMARK  4 active torsions:
REMARK  status: ('A' for Active; 'I' for Inactive)
REMARK    1  A    between atoms: N_2  and  C_1 
REMARK       I    between atoms: C_6  and  N_2 
REMARK    2  A    between atoms: C_4  and  C_7 
REMARK    3  A    between atoms: C_5  and  C_8 
REMARK       I    between atoms: N_13  and  C_6 
REMARK    4  A    between atoms: C_12  and  N_13 
ROOT
ATOM      1  N   UNL d   1       5.541  -1.270  -0.402  0.00  0.00    -0.303 N 
ATOM      2  C   UNL d   1       4.422  -0.621   0.028  0.00  0.00     0.325 C 
ATOM      3  N   UNL d   1       4.319   0.721  -0.187  0.00  0.00    -0.309 N 
ATOM      4  O   UNL d   1       3.571  -1.321   0.576  0.00  0.00    -0.247 OA
ATOM      5  H   UNL d   1       5.481  -2.254  -0.167  0.00  0.00     0.171 HD
ATOM      6  H   UNL d   1       5.141   1.155  -0.584  0.00  0.00     0.170 HD
ENDROOT
BRANCH   3   7
ATOM      7  C   UNL d   1       3.185   1.539  -0.000  0.00  0.00     0.037 A 
ATOM      8  C   UNL d   1       1.971   1.075   0.511  0.00  0.00     0.045 A 
ATOM      9  C   UNL d   1       0.836   1.901   0.566  0.00  0.00     0.050 A 
ATOM     10  C   UNL d   1       0.936   3.225   0.118  0.00  0.00     0.032 A 
ATOM     11  C   UNL d   1       2.150   3.721  -0.382  0.00  0.00     0.050 A 
ATOM     12  C   UNL d   1       3.272   2.873  -0.417  0.00  0.00     0.045 A 
BRANCH   9  13
ATOM     13  C   UNL d   1      -0.470   1.331   1.066  0.00  0.00     0.417 C 
ATOM     14  F   UNL d   1      -1.510   2.207   0.976  0.00  0.00    -0.166 F 
ATOM     15  F   UNL d   1      -0.857   0.227   0.369  0.00  0.00    -0.166 F 
ATOM     16  F   UNL d   1      -0.414   0.954   2.372  0.00  0.00    -0.166 F 
ENDBRANCH   9  13
BRANCH  11  17
ATOM     17  C   UNL d   1       2.256   5.133  -0.908  0.00  0.00     0.417 C 
ATOM     18  F   UNL d   1       1.051   5.754  -1.040  0.00  0.00    -0.166 F 
ATOM     19  F   UNL d   1       3.007   5.934  -0.106  0.00  0.00    -0.166 F 
ATOM     20  F   UNL d   1       2.837   5.184  -2.139  0.00  0.00    -0.166 F 
ENDBRANCH  11  17
ENDBRANCH   3   7
BRANCH   1  21
ATOM     21  C   UNL d   1       6.619  -0.909  -1.179  0.00  0.00     0.079 A 
ATOM     22  S   UNL d   1       6.865   0.652  -1.781  0.00  0.00    -0.072 SA
ATOM     23  C   UNL d   1       8.261   0.182  -2.678  0.00  0.00     0.017 A 
ATOM     24  C   UNL d   1       9.043   0.984  -3.532  0.00  0.00     0.020 A 
ATOM     25  C   UNL d   1       8.559  -1.168  -2.474  0.00  0.00    -0.016 A 
ATOM     26  C   UNL d   1      10.127   0.404  -4.196  0.00  0.00     0.001 A 
ATOM     27  C   UNL d   1      10.441  -0.933  -4.005  0.00  0.00     0.001 A 
ATOM     28  C   UNL d   1       9.674  -1.721  -3.144  0.00  0.00     0.013 A 
ATOM     29  C   UNL d   1       7.610  -1.771  -1.584  0.00  0.00     0.050 A 
ENDBRANCH   1  21
TORSDOF 4
