REMARK  4 active torsions:
REMARK  status: ('A' for Active; 'I' for Inactive)
REMARK    1  A    between atoms: C_6  and  C_1 
REMARK    2  A    between atoms: C_7  and  C_2 
REMARK    3  A    between atoms: S_11  and  C_5 
REMARK    4  A    between atoms: O_13  and  C_7 
ROOT
ATOM      1  C   UNL d   1      -0.079  -1.351  -0.052  0.00  0.00     0.022 C 
ATOM      2  C   UNL d   1       1.305  -1.223  -0.177  0.00  0.00     0.092 C 
ATOM      3  C   UNL d   1      -0.678  -0.059   0.229  0.00  0.00     0.081 C 
ATOM      4  S   UNL d   1       1.797   0.422  -0.157  0.00  0.00    -0.074 SA
ATOM      5  C   UNL d   1       0.214   0.984   0.090  0.00  0.00     0.063 C 
ATOM      6  C   UNL d   1      -2.046   0.150   0.611  0.00  0.00     0.102 C 
ATOM      7  N   UNL d   1      -3.150   0.325   0.928  0.00  0.00    -0.191 NA
ENDROOT
BRANCH   1   8
ATOM      8  C   UNL d   1      -0.780  -2.652  -0.091  0.00  0.00    -0.001 A 
ATOM      9  C   UNL d   1      -1.927  -2.873  -0.885  0.00  0.00     0.045 A 
ATOM     10 CL   UNL d   1      -2.525  -1.709  -2.022  0.00  0.00    -0.083 Cl
ATOM     11  C   UNL d   1      -2.613  -4.095  -0.832  0.00  0.00     0.024 A 
ATOM     12  C   UNL d   1      -2.130  -5.139  -0.047  0.00  0.00     0.002 A 
ATOM     13  C   UNL d   1      -0.971  -4.959   0.698  0.00  0.00     0.001 A 
ATOM     14  C   UNL d   1      -0.320  -3.721   0.700  0.00  0.00     0.014 A 
ENDBRANCH   1   8
BRANCH   5  15
ATOM     15  S   UNL d   1      -0.096   2.717   0.210  0.00  0.00    -0.126 SA
ATOM     16  C   UNL d   1      -1.006   3.000  -1.330  0.00  0.00     0.096 C 
ENDBRANCH   5  15
BRANCH   2  17
ATOM     17  C   UNL d   1       2.333  -2.236  -0.360  0.00  0.00     0.184 C 
ATOM     18  O   UNL d   1       2.211  -3.287  -0.961  0.00  0.00    -0.646 OA
BRANCH  17  19
ATOM     19  O   UNL d   1       3.480  -1.927   0.305  0.00  0.00    -0.772 OA
ATOM     20  H   UNL d   1       3.431  -1.063   0.758  0.00  0.00     0.167 HD
ENDBRANCH  17  19
ENDBRANCH   2  17
TORSDOF 4
