REMARK  5 active torsions:
REMARK  status: ('A' for Active; 'I' for Inactive)
REMARK    1  A    between atoms: C_8  and  N_1 
REMARK    2  A    between atoms: S_14  and  C_2 
REMARK    3  A    between atoms: O_18  and  C_3 
REMARK    4  A    between atoms: C_11  and  C_17 
REMARK    5  A    between atoms: C_17  and  S_14 
ROOT
ATOM      1  N   UNL d   1      -0.165  -1.367   0.100  0.00  0.00    -0.255 N 
ATOM      2  C   UNL d   1       1.077  -0.763   0.216  0.00  0.00     0.169 A 
ATOM      3  C   UNL d   1      -1.037  -0.285   0.060  0.00  0.00     0.245 A 
ATOM      4  N   UNL d   1       0.954   0.543   0.275  0.00  0.00    -0.276 N 
ATOM      5  HN  UNL d   1       1.715   1.214   0.386  1.00  0.00     0.189 HD
ATOM      6  N   UNL d   1      -0.378   0.845   0.160  0.00  0.00    -0.263 N 
ATOM      7  HN  UNL d   1      -0.783   1.781   0.154  1.00  0.00     0.190 HD
ENDROOT
BRANCH   2   8
ATOM      8  S   UNL d   1       2.607  -1.570   0.082  0.00  0.00    -0.086 SA
BRANCH   8   9
ATOM      9  C   UNL d   1       3.482  -0.841   1.498  0.00  0.00     0.140 C 
BRANCH   9  10
ATOM     10  C   UNL d   1       2.899  -1.279   2.805  0.00  0.00     0.026 A 
ATOM     11  N   UNL d   1       3.274  -2.507   3.338  0.00  0.00    -0.356 N 
ATOM     12  C   UNL d   1       2.687  -2.699   4.500  0.00  0.00     0.047 A 
ATOM     13  HN  UNL d   1       3.913  -3.165   2.891  1.00  0.00     0.166 HD
ATOM     14  C   UNL d   1       2.898  -3.891   5.366  0.00  0.00     0.076 C 
ATOM     15  S   UNL d   1       1.622  -1.449   5.002  0.00  0.00    -0.087 SA
ATOM     16  C   UNL d   1       2.000  -0.570   3.583  0.00  0.00     0.077 A 
ENDBRANCH   9  10
ENDBRANCH   8   9
ENDBRANCH   2   8
BRANCH   1  17
ATOM     17  C   UNL d   1      -0.505  -2.748   0.045  0.00  0.00     0.048 A 
ATOM     18  C   UNL d   1       0.219  -3.689   0.787  0.00  0.00     0.072 A 
ATOM     19  C   UNL d   1      -0.121  -5.036   0.711  0.00  0.00     0.118 A 
ATOM     20  F   UNL d   1       0.575  -5.931   1.424  0.00  0.00    -0.206 F 
ATOM     21  C   UNL d   1      -1.176  -5.467  -0.083  0.00  0.00     0.042 A 
ATOM     22  C   UNL d   1      -1.909  -4.537  -0.814  0.00  0.00     0.005 A 
ATOM     23  C   UNL d   1      -1.579  -3.178  -0.752  0.00  0.00     0.030 A 
ENDBRANCH   1  17
BRANCH   3  24
ATOM     24  O   UNL d   1      -2.364  -0.328   0.042  0.00  0.00    -0.331 OA
ATOM     25  H   UNL d   1      -2.651  -1.180   0.406  0.00  0.00     0.221 HD
ENDBRANCH   3  24
TORSDOF 5
