REMARK  3 active torsions:
REMARK  status: ('A' for Active; 'I' for Inactive)
REMARK       I    between atoms: N_3  and  C_1 
REMARK       I    between atoms: N_4  and  C_1 
REMARK       I    between atoms: C_2  and  N_5 
REMARK    1  A    between atoms: C_6  and  C_2 
REMARK    2  A    between atoms: C_8  and  N_4 
REMARK    3  A    between atoms: O_20  and  C_15 
ROOT
ATOM      1  C   UNL d   1       0.577  -0.232   0.419  0.00  0.00     0.323 C 
ATOM      2  C   UNL d   1      -2.685   0.738   4.364  0.00  0.00     0.260 C 
ATOM      3  N   UNL d   1       0.023  -0.167   1.703  0.00  0.00    -0.332 N 
ATOM      4  N   UNL d   1       1.802   0.379   0.297  0.00  0.00    -0.306 N 
ATOM      5  N   UNL d   1      -2.408   0.984   3.011  0.00  0.00    -0.346 N 
ATOM      6  O   UNL d   1       0.026  -0.851  -0.488  0.00  0.00    -0.247 OA
ATOM      7  C   UNL d   1      -1.177  -0.974   1.986  0.00  0.00     0.147 C 
ATOM      8  C   UNL d   1      -2.478  -0.162   2.085  0.00  0.00     0.146 C 
ATOM      9  O   UNL d   1      -2.950  -0.412   4.728  0.00  0.00    -0.267 OA
ATOM     10  C   UNL d   1      -0.153   2.078   2.805  0.00  0.00     0.040 C 
ATOM     11  C   UNL d   1       0.467   0.684   2.811  0.00  0.00     0.129 C 
ATOM     12  C   UNL d   1      -1.649   2.126   2.499  0.00  0.00     0.127 C 
ATOM     13  H   UNL d   1       2.264   0.652   1.145  0.00  0.00     0.171 HD
ENDROOT
BRANCH   4  14
ATOM     14  C   UNL d   1       2.696   0.270  -0.790  0.00  0.00     0.069 A 
ATOM     15  C   UNL d   1       4.073   0.315  -0.499  0.00  0.00     0.095 A 
ATOM     16  C   UNL d   1       5.022   0.339  -1.522  0.00  0.00     0.039 A 
ATOM     17  C   UNL d   1       4.602   0.270  -2.849  0.00  0.00     0.003 A 
ATOM     18  C   UNL d   1       3.241   0.172  -3.146  0.00  0.00     0.002 A 
ATOM     19  C   UNL d   1       2.287   0.167  -2.119  0.00  0.00     0.032 A 
BRANCH  15  20
ATOM     20  O   UNL d   1       4.544   0.349   0.795  0.00  0.00    -0.354 OA
ATOM     21  C   UNL d   1       4.286  -0.880   1.488  0.00  0.00     0.210 C 
ENDBRANCH  15  20
ENDBRANCH   4  14
BRANCH   2  22
ATOM     22  C   UNL d   1      -2.651   1.846   5.325  0.00  0.00     0.072 A 
ATOM     23  S   UNL d   1      -2.086   1.520   6.918  0.00  0.00    -0.097 SA
ATOM     24  C   UNL d   1      -2.351   3.130   7.425  0.00  0.00     0.050 A 
ATOM     25  C   UNL d   1      -2.868   3.907   6.415  0.00  0.00     0.009 A 
ATOM     26  C   UNL d   1      -3.074   3.158   5.217  0.00  0.00     0.025 A 
ENDBRANCH   2  22
TORSDOF 3
