REMARK  5 active torsions:
REMARK  status: ('A' for Active; 'I' for Inactive)
REMARK    1  A    between atoms: C_2  and  S_1 
REMARK    2  A    between atoms: C_8  and  S_1 
REMARK    3  A    between atoms: S_3  and  N_4 
REMARK    4  A    between atoms: C_13  and  S_3 
REMARK    5  A    between atoms: N_4  and  C_6 
ROOT
ATOM      1  C   UNL d   1       0.358  -1.101  -1.232  0.00  0.00     0.155 C 
ATOM      2  C   UNL d   1      -0.396  -2.159  -0.891  0.00  0.00     0.132 C 
ATOM      3  C   UNL d   1       0.863  -0.146  -0.293  0.00  0.00     0.113 C 
ATOM      4  N   UNL d   1       1.245   0.643   0.469  0.00  0.00    -0.191 NA
ENDROOT
BRANCH   1   5
ATOM      5  S   UNL d   1       0.787  -0.953  -2.912  0.00  0.00     0.194 S 
ATOM      6  O   UNL d   1       0.638  -2.249  -3.557  0.00  0.00    -0.221 OA
ATOM      7  O   UNL d   1       2.075  -0.290  -3.000  0.00  0.00    -0.221 OA
BRANCH   5   8
ATOM      8  C   UNL d   1      -0.449   0.151  -3.679  0.00  0.00     0.058 C 
ATOM      9  C   UNL d   1      -0.444   1.527  -3.007  0.00  0.00     0.031 C 
ATOM     10  C   UNL d   1      -0.070   0.336  -5.167  0.00  0.00     0.031 C 
ATOM     11  C   UNL d   1      -1.857  -0.458  -3.610  0.00  0.00     0.031 C 
ENDBRANCH   5   8
ENDBRANCH   1   5
BRANCH   2  12
ATOM     12  N   UNL d   1      -0.741  -2.390   0.487  0.00  0.00    -0.321 N 
ATOM     13  HN  UNL d   1      -0.357  -1.777   1.206  1.00  0.00     0.175 HD
BRANCH  12  14
ATOM     14  S   UNL d   1      -1.682  -3.547   0.902  0.00  0.00     0.052 S 
ATOM     15  O   UNL d   1      -2.997  -3.745   0.320  0.00  0.00    -0.245 OA
ATOM     16  C   UNL d   1      -1.881  -3.468   2.667  0.00  0.00     0.142 C 
BRANCH  14  17
ATOM     17  C   UNL d   1      -0.784  -5.074   0.684  0.00  0.00     0.038 A 
ATOM     18  C   UNL d   1       0.604  -5.100   0.853  0.00  0.00     0.022 A 
ATOM     19  C   UNL d   1       1.297  -6.291   0.634  0.00  0.00     0.001 A 
ATOM     20  C   UNL d   1       0.606  -7.444   0.258  0.00  0.00     0.000 A 
ATOM     21  C   UNL d   1      -0.780  -7.412   0.098  0.00  0.00     0.001 A 
ATOM     22  C   UNL d   1      -1.480  -6.224   0.306  0.00  0.00     0.022 A 
ENDBRANCH  14  17
ENDBRANCH  12  14
ENDBRANCH   2  12
TORSDOF 5
