REMARK  0 active torsions:
REMARK  status: ('A' for Active; 'I' for Inactive)
ROOT
ATOM      1  C   UNL d   1       0.221  -0.702  -0.004  0.00  0.00     0.071 A 
ATOM      2  C   UNL d   1       0.225   0.702  -0.003  0.00  0.00     0.071 A 
ATOM      3  N   UNL d   1       1.324  -1.457  -0.003  0.00  0.00    -0.352 N 
ATOM      4  HN  UNL d   1       1.306  -2.477  -0.004  1.00  0.00     0.166 HD
ATOM      5  N   UNL d   1       1.339   1.445  -0.001  0.00  0.00    -0.352 N 
ATOM      6  HN  UNL d   1       1.332   2.465  -0.001  1.00  0.00     0.166 HD
ATOM      7  C   UNL d   1      -1.161  -1.139  -0.002  0.00  0.00     0.005 A 
ATOM      8  C   UNL d   1      -1.156   1.146  -0.002  0.00  0.00     0.005 A 
ATOM      9  C   UNL d   1      -1.952   0.004  -0.001  0.00  0.00    -0.001 A 
ATOM     10  C   UNL d   1       2.466  -0.734  -0.002  0.00  0.00     0.059 A 
ATOM     11  C   UNL d   1       2.475   0.708  -0.000  0.00  0.00     0.059 A 
ATOM     12  C   UNL d   1      -3.343   0.004   0.002  0.00  0.00    -0.024 A 
ATOM     13  C   UNL d   1      -1.762  -2.383  -0.000  0.00  0.00     0.014 A 
ATOM     14  C   UNL d   1      -1.757   2.390  -0.001  0.00  0.00     0.014 A 
ATOM     15  C   UNL d   1      -3.166  -2.441   0.003  0.00  0.00     0.002 A 
ATOM     16  C   UNL d   1      -3.163   2.449   0.001  0.00  0.00     0.002 A 
ATOM     17  C   UNL d   1       3.676  -1.412  -0.001  0.00  0.00     0.032 A 
ATOM     18  C   UNL d   1       3.698   1.364   0.003  0.00  0.00     0.032 A 
ATOM     19  C   UNL d   1      -3.954  -1.267   0.004  0.00  0.00     0.012 A 
ATOM     20  C   UNL d   1      -3.953   1.275   0.003  0.00  0.00     0.012 A 
ATOM     21  C   UNL d   1       4.893  -0.729   0.003  0.00  0.00     0.002 A 
ATOM     22  C   UNL d   1       4.904   0.660   0.005  0.00  0.00     0.002 A 
ENDROOT
TORSDOF 0
