REMARK  8 active torsions:
REMARK  status: ('A' for Active; 'I' for Inactive)
REMARK    1  A    between atoms: C_9  and  C_3 
REMARK    2  A    between atoms: O_16  and  C_4 
REMARK    3  A    between atoms: S_12  and  C_5 
REMARK    4  A    between atoms: C_11  and  C_9 
REMARK    5  A    between atoms: C_10  and  C_17 
REMARK       I    between atoms: N_13  and  C_10 
REMARK    6  A    between atoms: O_19  and  C_11 
REMARK    7  A    between atoms: C_17  and  S_12 
REMARK    8  A    between atoms: C_18  and  N_13 
ROOT
ATOM      1  N   UNL d   1      -0.774   1.284   0.060  0.00  0.00    -0.317 N 
ATOM      2  HN  UNL d   1      -1.236   2.189  -0.025  1.00  0.00     0.170 HD
ATOM      3  C   UNL d   1      -0.853  -1.128  -0.043  0.00  0.00     0.024 C 
ATOM      4  C   UNL d   1      -1.404   0.134  -0.191  0.00  0.00     0.150 C 
ATOM      5  C   UNL d   1       0.499   1.167   0.428  0.00  0.00     0.146 C 
ATOM      6  N   UNL d   1       1.190   0.020   0.473  0.00  0.00    -0.340 N 
ATOM      7  HN  UNL d   1       2.183   0.004   0.706  1.00  0.00     0.167 HD
ATOM      8  C   UNL d   1       0.511  -1.113   0.197  0.00  0.00     0.018 C 
ATOM      9  C   UNL d   1       1.354  -2.358   0.178  0.00  0.00     0.069 C 
ENDROOT
BRANCH   5  10
ATOM     10  S   UNL d   1       1.270   2.542   1.230  0.00  0.00    -0.085 SA
BRANCH  10  11
ATOM     11  C   UNL d   1       0.057   2.747   2.562  0.00  0.00     0.185 C 
BRANCH  11  12
ATOM     12  C   UNL d   1      -0.119   1.570   3.522  0.00  0.00     0.231 C 
ATOM     13  N   UNL d   1       0.822   0.560   3.466  0.00  0.00    -0.327 N 
ATOM     14  H   UNL d   1       1.567   0.672   2.783  0.00  0.00     0.169 HD
ATOM     15  O   UNL d   1      -1.045   1.619   4.335  0.00  0.00    -0.272 OA
BRANCH  13  16
ATOM     16  C   UNL d   1       0.906  -0.580   4.296  0.00  0.00     0.034 A 
ATOM     17  C   UNL d   1      -0.086  -0.959   5.202  0.00  0.00     0.029 A 
ATOM     18  C   UNL d   1       0.108  -2.045   6.061  0.00  0.00     0.002 A 
ATOM     19  C   UNL d   1       1.296  -2.769   6.016  0.00  0.00     0.000 A 
ATOM     20  C   UNL d   1       2.273  -2.432   5.083  0.00  0.00     0.002 A 
ATOM     21  C   UNL d   1       2.073  -1.351   4.217  0.00  0.00     0.029 A 
ENDBRANCH  13  16
ENDBRANCH  11  12
ENDBRANCH  10  11
ENDBRANCH   5  10
BRANCH   4  22
ATOM     22  O   UNL d   1      -2.685   0.298  -0.622  0.00  0.00    -0.346 OA
ATOM     23  H   UNL d   1      -3.241   0.040   0.144  0.00  0.00     0.219 HD
ENDBRANCH   4  22
BRANCH   3  24
ATOM     24  C   UNL d   1      -1.635  -2.408  -0.188  0.00  0.00     0.156 C 
BRANCH  24  25
ATOM     25  C   UNL d   1      -3.018  -2.413   0.443  0.00  0.00     0.262 C 
ATOM     26  O   UNL d   1      -3.568  -1.456   0.975  0.00  0.00    -0.265 OA
BRANCH  25  27
ATOM     27  O   UNL d   1      -3.577  -3.649   0.307  0.00  0.00    -0.326 OA
ATOM     28  C   UNL d   1      -4.910  -3.754   0.816  0.00  0.00     0.213 C 
ENDBRANCH  25  27
ENDBRANCH  24  25
ENDBRANCH   3  24
TORSDOF 8
