REMARK  3 active torsions:
REMARK  status: ('A' for Active; 'I' for Inactive)
REMARK    1  A    between atoms: C_4  and  C_1 
REMARK       I    between atoms: N_7  and  C_4 
REMARK    2  A    between atoms: C_12  and  N_7 
REMARK    3  A    between atoms: C_13  and  N_7 
ROOT
ATOM      1  C   UNL d   1      -0.003  -1.141   0.077  0.00  0.00     0.107 A 
ATOM      2  N   UNL d   1      -0.919  -0.096   0.035  0.00  0.00    -0.355 N 
ATOM      3  C   UNL d   1       1.253  -0.524  -0.001  0.00  0.00    -0.022 A 
ATOM      4  C   UNL d   1       1.049   0.905   0.029  0.00  0.00    -0.032 A 
ATOM      5  C   UNL d   1      -0.312   1.123   0.037  0.00  0.00     0.012 A 
ATOM      6  C   UNL d   1       2.623  -1.100  -0.141  0.00  0.00     0.051 C 
ATOM      7  C   UNL d   1       2.088   1.976   0.008  0.00  0.00     0.050 C 
ATOM      8  C   UNL d   1      -1.086   2.392   0.013  0.00  0.00     0.068 C 
ATOM      9  H   UNL d   1      -1.919  -0.258  -0.002  0.00  0.00     0.166 HD
ENDROOT
BRANCH   1  10
ATOM     10  C   UNL d   1      -0.588  -2.489   0.087  0.00  0.00     0.270 C 
ATOM     11  N   UNL d   1       0.034  -3.598   0.704  0.00  0.00    -0.347 N 
ATOM     12  O   UNL d   1      -1.709  -2.640  -0.411  0.00  0.00    -0.266 OA
BRANCH  11  13
ATOM     13  C   UNL d   1      -0.598  -4.910   0.506  0.00  0.00     0.121 C 
ATOM     14  C   UNL d   1      -1.548  -5.300   1.634  0.00  0.00     0.026 C 
ENDBRANCH  11  13
BRANCH  11  15
ATOM     15  C   UNL d   1       1.327  -3.552   1.384  0.00  0.00     0.121 C 
ATOM     16  C   UNL d   1       1.546  -4.510   2.542  0.00  0.00     0.026 C 
ENDBRANCH  11  15
ENDBRANCH   1  10
TORSDOF 3
