REMARK  5 active torsions:
REMARK  status: ('A' for Active; 'I' for Inactive)
REMARK    1  A    between atoms: N_5  and  C_1 
REMARK    2  A    between atoms: C_3  and  C_2 
REMARK       I    between atoms: N_6  and  C_3 
REMARK    3  A    between atoms: O_19  and  C_4 
REMARK       I    between atoms: C_8  and  N_6 
REMARK       I    between atoms: N_12  and  C_8 
REMARK    4  A    between atoms: O_21  and  C_9 
REMARK    5  A    between atoms: C_11  and  N_12 
ROOT
ATOM      1  C   UNL d   1       2.834  -2.719  -0.568  0.00  0.00     0.265 C 
ATOM      2  N   UNL d   1       4.164  -2.613  -0.914  0.00  0.00    -0.275 N 
ATOM      3  C   UNL d   1       4.607  -1.820  -1.933  0.00  0.00     0.327 C 
ATOM      4  N   UNL d   1       5.918  -1.952  -2.325  0.00  0.00    -0.306 N 
ATOM      5  O   UNL d   1       2.301  -3.821  -0.463  0.00  0.00    -0.267 OA
ATOM      6  O   UNL d   1       3.940  -0.908  -2.420  0.00  0.00    -0.247 OA
ATOM      7  H   UNL d   1       4.603  -3.510  -0.887  0.00  0.00     0.173 HD
ATOM      8  H   UNL d   1       6.211  -1.071  -2.754  0.00  0.00     0.170 HD
ENDROOT
BRANCH   1   9
ATOM      9  C   UNL d   1       2.098  -1.487  -0.179  0.00  0.00     0.102 A 
ATOM     10  C   UNL d   1       2.686  -0.608   0.752  0.00  0.00     0.119 A 
ATOM     11  C   UNL d   1       1.989   0.544   1.124  0.00  0.00     0.138 A 
ATOM     12  C   UNL d   1       0.690   0.786   0.667  0.00  0.00     0.061 A 
ATOM     13  C   UNL d   1       0.095  -0.108  -0.228  0.00  0.00     0.048 A 
ATOM     14  C   UNL d   1       0.787  -1.256  -0.657  0.00  0.00     0.104 A 
ATOM     15 BR   UNL d   1      -1.630   0.386  -0.858  0.00  0.00    -0.048 Br
BRANCH  10  16
ATOM     16  O   UNL d   1       3.929  -0.855   1.274  0.00  0.00    -0.352 OA
ATOM     17  C   UNL d   1       3.864  -1.730   2.403  0.00  0.00     0.210 C 
ENDBRANCH  10  16
BRANCH  11  18
ATOM     18  N   UNL d   1       2.591   1.526   2.013  0.00  0.00    -0.113 N 
ATOM     19  O   UNL d   1       3.749   1.892   1.780  0.00  0.00    -0.532 OA
ATOM     20  O   UNL d   1       1.879   1.954   2.933  0.00  0.00    -0.532 OA
ENDBRANCH  11  18
BRANCH  14  21
ATOM     21  O   UNL d   1       0.310  -2.088  -1.639  0.00  0.00    -0.353 OA
ATOM     22  C   UNL d   1      -0.899  -2.774  -1.316  0.00  0.00     0.210 C 
ENDBRANCH  14  21
ENDBRANCH   1   9
BRANCH   4  23
ATOM     23  C   UNL d   1       6.979  -2.728  -1.800  0.00  0.00     0.064 C 
ATOM     24  C   UNL d   1       8.205  -2.065  -1.554  0.00  0.00     0.061 C 
ATOM     25 CL   UNL d   1       8.402  -0.385  -1.933  0.00  0.00    -0.082 Cl
ATOM     26  C   UNL d   1       9.297  -2.726  -0.987  0.00  0.00     0.026 C 
ATOM     27  C   UNL d   1       9.195  -4.071  -0.670  0.00  0.00     0.002 C 
ATOM     28  C   UNL d   1       8.024  -4.764  -0.981  0.00  0.00     0.009 C 
ATOM     29  C   UNL d   1       6.925  -4.123  -1.594  0.00  0.00    -0.034 C 
ATOM     30  C   UNL d   1       5.835  -5.026  -2.103  0.00  0.00     0.050 C 
ENDBRANCH   4  23
TORSDOF 5
