REMARK  3 active torsions:
REMARK  status: ('A' for Active; 'I' for Inactive)
REMARK    1  A    between atoms: C_5  and  C_1 
REMARK    2  A    between atoms: N_2  and  C_5 
REMARK    3  A    between atoms: C_12  and  C_10 
ROOT
ATOM      1  N   UNL d   1      -2.676   2.747  -0.738  0.00  0.00     0.101 N 
ATOM      2  C   UNL d   1      -3.661   3.869  -0.613  0.00  0.00     0.252 C 
ATOM      3  C   UNL d   1      -5.160   3.457  -0.893  0.00  0.00     0.187 C 
ATOM      4  O   UNL d   1      -5.242   2.714  -2.132  0.00  0.00    -0.377 OA
ATOM      5  C   UNL d   1      -2.945   1.967  -1.964  0.00  0.00     0.299 C 
ATOM      6  C   UNL d   1      -4.411   1.558  -2.108  0.00  0.00     0.199 C 
ATOM      7  C   UNL d   1      -3.151   4.973  -1.562  0.00  0.00     0.046 C 
ENDROOT
BRANCH   1   8
ATOM      8  C   UNL d   1      -2.564   1.898   0.463  0.00  0.00     0.312 C 
BRANCH   8   9
ATOM      9  C   UNL d   1      -1.321   0.988   0.422  0.00  0.00    -0.017 A 
ATOM     10  C   UNL d   1      -0.023   1.577   0.534  0.00  0.00    -0.047 A 
ATOM     11  C   UNL d   1       1.143   0.791   0.334  0.00  0.00    -0.049 A 
ATOM     12  C   UNL d   1       0.141   3.061   0.799  0.00  0.00     0.049 C 
ATOM     13  C   UNL d   1       2.519   1.429   0.347  0.00  0.00     0.049 C 
ATOM     14  C   UNL d   1       1.037  -0.609   0.146  0.00  0.00    -0.049 A 
ATOM     15  C   UNL d   1      -0.242  -1.212   0.066  0.00  0.00    -0.049 A 
ATOM     16  C   UNL d   1       2.299  -1.431  -0.020  0.00  0.00     0.049 C 
ATOM     17  C   UNL d   1      -1.423  -0.417   0.189  0.00  0.00    -0.047 A 
ATOM     18  C   UNL d   1      -0.324  -2.707  -0.178  0.00  0.00     0.049 C 
ATOM     19  C   UNL d   1      -2.756  -1.116   0.045  0.00  0.00     0.049 C 
ENDBRANCH   8   9
ENDBRANCH   1   8
BRANCH   3  20
ATOM     20  C   UNL d   1      -6.237   4.540  -0.986  0.00  0.00    -0.027 A 
ATOM     21  C   UNL d   1      -7.451   4.237  -1.638  0.00  0.00     0.010 A 
ATOM     22  C   UNL d   1      -8.452   5.194  -1.820  0.00  0.00     0.001 A 
ATOM     23  C   UNL d   1      -8.267   6.484  -1.337  0.00  0.00     0.000 A 
ATOM     24  C   UNL d   1      -7.102   6.794  -0.640  0.00  0.00     0.001 A 
ATOM     25  C   UNL d   1      -6.109   5.825  -0.441  0.00  0.00     0.010 A 
ENDBRANCH   3  20
TORSDOF 3
