REMARK  4 active torsions:
REMARK  status: ('A' for Active; 'I' for Inactive)
REMARK    1  A    between atoms: O_2  and  S_1 
REMARK    2  A    between atoms: C_3  and  S_1 
REMARK    3  A    between atoms: C_10  and  O_2 
REMARK    4  A    between atoms: C_20  and  C_14 
ROOT
ATOM      1  N   UNL d   1       0.752  -1.721   7.954  0.00  0.00    -0.197 NA
ATOM      2  C   UNL d   1       1.331  -0.886   7.393  0.00  0.00     0.063 C 
ATOM      3  C   UNL d   1       2.069   0.188   6.710  0.00  0.00     0.162 C 
ENDROOT
BRANCH   3   4
ATOM      4  C   UNL d   1       1.669   0.367   5.263  0.00  0.00    -0.045 A 
ATOM      5  C   UNL d   1       0.359   0.725   4.908  0.00  0.00     0.011 A 
ATOM      6  C   UNL d   1       0.004   0.886   3.564  0.00  0.00     0.039 A 
ATOM      7  C   UNL d   1       0.949   0.690   2.554  0.00  0.00     0.089 A 
ATOM      8  C   UNL d   1       2.260   0.368   2.902  0.00  0.00     0.039 A 
ATOM      9  C   UNL d   1       2.616   0.203   4.244  0.00  0.00     0.011 A 
BRANCH   7  10
ATOM     10  O   UNL d   1       0.515   0.878   1.264  0.00  0.00    -0.229 OA
BRANCH  10  11
ATOM     11  S   UNL d   1       1.225   0.105   0.009  0.00  0.00     0.303 S 
ATOM     12  O   UNL d   1       1.002  -1.320   0.161  0.00  0.00    -0.193 OA
ATOM     13  O   UNL d   1       2.556   0.643  -0.203  0.00  0.00    -0.193 OA
BRANCH  11  14
ATOM     14  C   UNL d   1       0.284   0.619  -1.415  0.00  0.00     0.086 A 
ATOM     15  C   UNL d   1      -0.251   1.910  -1.467  0.00  0.00     0.027 A 
ATOM     16  C   UNL d   1      -1.016   2.287  -2.573  0.00  0.00     0.025 A 
ATOM     17  C   UNL d   1      -1.237   1.379  -3.611  0.00  0.00     0.034 A 
ATOM     18  C   UNL d   1      -0.686   0.098  -3.564  0.00  0.00     0.025 A 
ATOM     19 CL   UNL d   1      -2.206   1.841  -4.956  0.00  0.00    -0.084 Cl
ATOM     20  C   UNL d   1       0.079  -0.287  -2.461  0.00  0.00     0.027 A 
ENDBRANCH  11  14
ENDBRANCH  10  11
ENDBRANCH   7  10
ENDBRANCH   3   4
TORSDOF 4
