REMARK  7 active torsions:
REMARK  status: ('A' for Active; 'I' for Inactive)
REMARK    1  A    between atoms: N_2  and  C_1 
REMARK    2  A    between atoms: C_3  and  C_1 
REMARK    3  A    between atoms: C_4  and  C_1 
REMARK    4  A    between atoms: N_7  and  C_1 
REMARK       I    between atoms: C_5  and  N_2 
REMARK    5  A    between atoms: C_6  and  C_5 
REMARK    6  A    between atoms: C_10  and  N_7 
REMARK    7  A    between atoms: O_25  and  C_12 
ROOT
ATOM      1  C   UNL d   1       0.877  -0.006  -0.316  0.00  0.00     0.306 C 
ENDROOT
BRANCH   1   2
ATOM      2  N   UNL d   1       0.430   0.638   0.944  0.00  0.00    -0.315 N 
ATOM      3  C   UNL d   1       0.656   0.117   2.193  0.00  0.00     0.256 C 
ATOM      4  O   UNL d   1       1.231  -0.953   2.343  0.00  0.00    -0.267 OA
ATOM      5  H   UNL d   1       0.132   1.602   0.867  0.00  0.00     0.165 HD
BRANCH   3   6
ATOM      6  C   UNL d   1       0.168   0.923   3.350  0.00  0.00     0.065 A 
ATOM      7  C   UNL d   1       0.786   0.850   4.610  0.00  0.00     0.084 A 
ATOM      8  C   UNL d   1       0.224   1.511   5.709  0.00  0.00     0.038 A 
ATOM      9  C   UNL d   1      -0.919   2.295   5.553  0.00  0.00     0.003 A 
ATOM     10  C   UNL d   1      -1.516   2.409   4.301  0.00  0.00     0.001 A 
ATOM     11  C   UNL d   1      -0.984   1.720   3.208  0.00  0.00     0.020 A 
BRANCH   7  12
ATOM     12  O   UNL d   1       1.899   0.104   4.890  0.00  0.00    -0.355 OA
ATOM     13  C   UNL d   1       3.069   0.569   4.218  0.00  0.00     0.210 C 
ENDBRANCH   7  12
ENDBRANCH   3   6
ENDBRANCH   1   2
BRANCH   1  14
ATOM     14  C   UNL d   1       0.045   0.525  -1.521  0.00  0.00     0.441 C 
ATOM     15  F   UNL d   1      -0.272   1.839  -1.335  0.00  0.00    -0.166 F 
ATOM     16  F   UNL d   1       0.701   0.447  -2.700  0.00  0.00    -0.166 F 
ATOM     17  F   UNL d   1      -1.142  -0.110  -1.668  0.00  0.00    -0.166 F 
ENDBRANCH   1  14
BRANCH   1  18
ATOM     18  C   UNL d   1       0.618  -1.553  -0.426  0.00  0.00     0.441 C 
ATOM     19  F   UNL d   1      -0.589  -1.908   0.072  0.00  0.00    -0.166 F 
ATOM     20  F   UNL d   1       0.663  -1.986  -1.712  0.00  0.00    -0.166 F 
ATOM     21  F   UNL d   1       1.564  -2.276   0.226  0.00  0.00    -0.166 F 
ENDBRANCH   1  18
BRANCH   1  22
ATOM     22  N   UNL d   1       2.350   0.259  -0.403  0.00  0.00    -0.349 N 
ATOM     23  H   UNL d   1       2.867  -0.494   0.063  0.00  0.00     0.162 HD
BRANCH  22  24
ATOM     24  C   UNL d   1       3.060   1.437  -0.471  0.00  0.00     0.032 A 
ATOM     25  C   UNL d   1       2.504   2.716  -0.480  0.00  0.00     0.056 A 
ATOM     26  C   UNL d   1       3.314   3.856  -0.583  0.00  0.00     0.074 A 
ATOM     27 CL   UNL d   1       2.581   5.414  -0.520  0.00  0.00    -0.081 Cl
ATOM     28  C   UNL d   1       4.690   3.727  -0.724  0.00  0.00     0.138 A 
ATOM     29  C   UNL d   1       5.267   2.469  -0.769  0.00  0.00     0.046 A 
ATOM     30  F   UNL d   1       5.478   4.807  -0.823  0.00  0.00    -0.204 F 
ATOM     31  C   UNL d   1       4.455   1.338  -0.648  0.00  0.00     0.032 A 
ENDBRANCH  22  24
ENDBRANCH   1  22
TORSDOF 7
