REMARK  9 active torsions:
REMARK  status: ('A' for Active; 'I' for Inactive)
REMARK    1  A    between atoms: C_2  and  C_1 
REMARK    2  A    between atoms: C_3  and  C_1 
REMARK    3  A    between atoms: C_5  and  C_1 
REMARK    4  A    between atoms: O_20  and  C_1 
REMARK       I    between atoms: C_4  and  N_6 
REMARK       I    between atoms: N_10  and  C_4 
REMARK    5  A    between atoms: O_22  and  C_5 
REMARK    6  A    between atoms: N_6  and  C_7 
REMARK    7  A    between atoms: O_23  and  C_9 
REMARK    8  A    between atoms: C_13  and  N_10 
REMARK    9  A    between atoms: C_28  and  O_22 
ROOT
ATOM      1  C   UNL d   1       0.564  -0.796   1.006  0.00  0.00    -0.002 C 
ATOM      2  C   UNL d   1       0.319  -2.947   2.840  0.00  0.00     0.069 C 
ATOM      3  C   UNL d   1       0.378  -2.107   0.560  0.00  0.00     0.050 C 
ATOM      4  C   UNL d   1       0.353  -3.184   1.453  0.00  0.00     0.095 C 
ATOM      5  C   UNL d   1       0.439  -0.567   2.387  0.00  0.00     0.013 C 
ATOM      6  C   UNL d   1       0.296  -1.626   3.291  0.00  0.00     0.033 C 
ENDROOT
BRANCH   2   7
ATOM      7  N   UNL d   1       0.228  -4.060   3.714  0.00  0.00    -0.306 N 
ATOM      8  C   UNL d   1       0.218  -4.165   5.084  0.00  0.00     0.325 C 
ATOM      9  N   UNL d   1       0.917  -3.201   5.775  0.00  0.00    -0.309 N 
ATOM     10  O   UNL d   1      -0.322  -5.138   5.592  0.00  0.00    -0.247 OA
ATOM     11  H   UNL d   1       1.676  -2.794   5.268  0.00  0.00     0.170 HD
ATOM     12  H   UNL d   1      -0.043  -4.926   3.248  0.00  0.00     0.171 HD
BRANCH   9  13
ATOM     13  C   UNL d   1       0.911  -3.014   7.173  0.00  0.00     0.037 A 
ATOM     14  C   UNL d   1      -0.123  -3.445   8.003  0.00  0.00     0.053 A 
ATOM     15  C   UNL d   1      -0.082  -3.187   9.378  0.00  0.00     0.036 A 
ATOM     16 CL   UNL d   1      -1.379  -3.695  10.394  0.00  0.00    -0.084 Cl
ATOM     17  C   UNL d   1       0.998  -2.503   9.942  0.00  0.00     0.024 A 
ATOM     18  C   UNL d   1       2.027  -2.065   9.123  0.00  0.00     0.004 A 
ATOM     19  C   UNL d   1       1.984  -2.304   7.747  0.00  0.00     0.029 A 
ENDBRANCH   9  13
ENDBRANCH   2   7
BRANCH   4  20
ATOM     20  O   UNL d   1       0.337  -4.489   1.014  0.00  0.00    -0.354 OA
ATOM     21  C   UNL d   1       1.136  -4.743  -0.150  0.00  0.00     0.210 C 
ENDBRANCH   4  20
BRANCH   1  22
ATOM     22  C   UNL d   1       0.966   0.337   0.050  0.00  0.00     0.271 C 
BRANCH  22  23
ATOM     23  C   UNL d   1       1.732  -0.087  -1.247  0.00  0.00     0.432 C 
ATOM     24  F   UNL d   1       2.175  -1.370  -1.214  0.00  0.00    -0.167 F 
ATOM     25  F   UNL d   1       1.006   0.034  -2.381  0.00  0.00    -0.167 F 
ATOM     26  F   UNL d   1       2.854   0.663  -1.416  0.00  0.00    -0.167 F 
ENDBRANCH  22  23
BRANCH  22  27
ATOM     27  C   UNL d   1      -0.237   1.122  -0.487  0.00  0.00     0.308 C 
ATOM     28  O   UNL d   1      -1.376   0.685  -0.607  0.00  0.00    -0.261 OA
BRANCH  27  29
ATOM     29  O   UNL d   1       0.162   2.373  -0.869  0.00  0.00    -0.319 OA
BRANCH  29  30
ATOM     30  C   UNL d   1      -0.834   3.224  -1.452  0.00  0.00     0.174 C 
ATOM     31  C   UNL d   1      -1.668   3.878  -0.367  0.00  0.00     0.034 C 
ENDBRANCH  29  30
ENDBRANCH  27  29
ENDBRANCH  22  27
BRANCH  22  32
ATOM     32  O   UNL d   1       1.807   1.217   0.853  0.00  0.00    -0.368 OA
ATOM     33  H   UNL d   1       2.553   0.680   1.175  0.00  0.00     0.212 HD
ENDBRANCH  22  32
ENDBRANCH   1  22
TORSDOF 9
