REMARK  9 active torsions:
REMARK  status: ('A' for Active; 'I' for Inactive)
REMARK    1  A    between atoms: C_5  and  N_1 
REMARK    2  A    between atoms: S_2  and  C_9 
REMARK    3  A    between atoms: N_24  and  S_2 
REMARK    4  A    between atoms: C_6  and  C_8 
REMARK    5  A    between atoms: C_15  and  N_29 
REMARK    6  A    between atoms: C_35  and  N_24 
REMARK    7  A    between atoms: N_29  and  C_36 
REMARK    8  A    between atoms: C_34  and  C_35 
REMARK    9  A    between atoms: C_36  and  C_34 
ROOT
ATOM      1  S   UNL d   1       6.430  -4.403   0.348  0.00  0.00     0.258 S 
ATOM      2  O   UNL d   1       7.120  -4.351  -0.919  0.00  0.00    -0.201 OA
ATOM      3  O   UNL d   1       7.109  -4.204   1.607  0.00  0.00    -0.201 OA
ENDROOT
BRANCH   1   4
ATOM      4  C   UNL d   1       5.084  -3.245   0.264  0.00  0.00     0.081 C 
ATOM      5  C   UNL d   1       4.852  -2.339   1.298  0.00  0.00     0.027 C 
ATOM      6  C   UNL d   1       3.757  -1.473   1.218  0.00  0.00     0.033 C 
ATOM      7  C   UNL d   1       2.857  -1.558   0.143  0.00  0.00     0.067 C 
ATOM      8  C   UNL d   1       3.118  -2.457  -0.901  0.00  0.00     0.062 C 
ATOM      9  C   UNL d   1       4.261  -3.248  -0.868  0.00  0.00     0.051 C 
ATOM     10 CL   UNL d   1       2.124  -2.568  -2.312  0.00  0.00    -0.082 Cl
BRANCH   7  11
ATOM     11  N   UNL d   1       1.731  -0.714   0.120  0.00  0.00    -0.250 N 
ATOM     12  C   UNL d   1       1.826   0.653   0.075  0.00  0.00     0.232 C 
ATOM     13  C   UNL d   1       0.449   1.226  -0.105  0.00  0.00     0.123 C 
ATOM     14  O   UNL d   1       2.843   1.331   0.106  0.00  0.00    -0.273 OA
ATOM     15  C   UNL d   1      -0.486   0.025   0.056  0.00  0.00     0.050 C 
ATOM     16  C   UNL d   1       0.438  -1.170   0.095  0.00  0.00     0.240 C 
ATOM     17  C   UNL d   1      -1.533  -0.100  -1.049  0.00  0.00     0.020 C 
ATOM     18  C   UNL d   1      -1.339   0.114   1.325  0.00  0.00     0.020 C 
ATOM     19  O   UNL d   1       0.064  -2.335   0.188  0.00  0.00    -0.272 OA
ATOM     20  C   UNL d   1      -2.692   0.782  -0.600  0.00  0.00     0.001 C 
ATOM     21  C   UNL d   1      -2.575   0.909   0.917  0.00  0.00     0.001 C 
ENDBRANCH   7  11
ENDBRANCH   1   4
BRANCH   1  22
ATOM     22  N   UNL d   1       5.658  -5.899   0.476  0.00  0.00    -0.315 N 
ATOM     23  H   UNL d   1       5.478  -6.139   1.450  0.00  0.00     0.172 HD
BRANCH  22  24
ATOM     24  C   UNL d   1       4.721  -6.329  -0.571  0.00  0.00     0.133 C 
BRANCH  24  25
ATOM     25  C   UNL d   1       4.273  -7.776  -0.414  0.00  0.00     0.035 C 
BRANCH  25  26
ATOM     26  C   UNL d   1       3.539  -7.963   0.906  0.00  0.00     0.095 C 
BRANCH  26  27
ATOM     27  N   UNL d   1       2.929  -9.283   0.986  0.00  0.00    -0.277 NA
ATOM     28  H   UNL d   1       3.572 -10.041   0.763  0.00  0.00     0.129 HD
BRANCH  27  29
ATOM     29  C   UNL d   1       2.349  -9.532   2.248  0.00  0.00     0.102 A 
ATOM     30  N   UNL d   1       2.301  -8.524   3.153  0.00  0.00    -0.355 N 
ATOM     31  C   UNL d   1       1.740  -8.757   4.359  0.00  0.00     0.105 A 
ATOM     32  HN  UNL d   1       2.683  -7.605   2.927  1.00  0.00     0.166 HD
ATOM     33  C   UNL d   1       1.190  -9.971   4.730  0.00  0.00     0.065 A 
ATOM     34  C   UNL d   1       1.218 -11.005   3.791  0.00  0.00     0.044 A 
ATOM     35  C   UNL d   1       1.799 -10.789   2.542  0.00  0.00     0.073 A 
ATOM     36 CL   UNL d   1       1.845 -12.091   1.409  0.00  0.00    -0.081 Cl
BRANCH  33  37
ATOM     37  C   UNL d   1       0.611 -10.123   6.100  0.00  0.00     0.418 C 
ATOM     38  F   UNL d   1       0.092 -11.358   6.334  0.00  0.00    -0.166 F 
ATOM     39  F   UNL d   1       1.534  -9.912   7.076  0.00  0.00    -0.166 F 
ATOM     40  F   UNL d   1      -0.396  -9.240   6.340  0.00  0.00    -0.166 F 
ENDBRANCH  33  37
ENDBRANCH  27  29
ENDBRANCH  26  27
ENDBRANCH  25  26
ENDBRANCH  24  25
ENDBRANCH  22  24
ENDBRANCH   1  22
TORSDOF 9
