REMARK  2 active torsions:
REMARK  status: ('A' for Active; 'I' for Inactive)
REMARK    1  A    between atoms: N_2  and  C_1 
REMARK    2  A    between atoms: C_7  and  C_4 
ROOT
ATOM      1  C   UNL d   1       0.483   1.085   0.372  0.00  0.00     0.144 A 
ATOM      2  S   UNL d   1      -0.659  -0.011   0.979  0.00  0.00    -0.066 SA
ATOM      3  C   UNL d   1       0.045  -1.327   0.120  0.00  0.00     0.039 A 
ATOM      4  C   UNL d   1       1.396   0.492  -0.472  0.00  0.00     0.045 A 
ATOM      5  C   UNL d   1       1.142  -0.908  -0.615  0.00  0.00     0.022 A 
ENDROOT
BRANCH   3   6
ATOM      6  C   UNL d   1      -0.566  -2.686   0.254  0.00  0.00     0.301 C 
ATOM      7  O   UNL d   1       0.033  -3.343   1.378  0.00  0.00    -0.354 OA
ATOM      8  C   UNL d   1       0.561  -4.566   0.861  0.00  0.00     0.197 C 
ATOM      9  C   UNL d   1      -0.173  -4.773  -0.438  0.00  0.00     0.197 C 
ATOM     10  O   UNL d   1      -0.313  -3.443  -0.936  0.00  0.00    -0.354 OA
ENDBRANCH   3   6
BRANCH   1  11
ATOM     11  N   UNL d   1       0.432   2.477   0.748  0.00  0.00    -0.108 N 
ATOM     12  O   UNL d   1       1.334   3.198   0.300  0.00  0.00    -0.531 OA
ATOM     13  O   UNL d   1      -0.491   2.858   1.476  0.00  0.00    -0.531 OA
ENDBRANCH   1  11
TORSDOF 2
