REMARK  2 active torsions:
REMARK  status: ('A' for Active; 'I' for Inactive)
REMARK    1  A    between atoms: C_7  and  C_3 
REMARK    2  A    between atoms: N_13  and  C_4 
ROOT
ATOM      1  N   UNL d   1       0.110  -1.299   0.589  0.00  0.00    -0.336 N 
ATOM      2  HN  UNL d   1       0.523  -2.119   1.032  1.00  0.00     0.168 HD
ATOM      3  C   UNL d   1      -1.134  -1.270  -0.023  0.00  0.00     0.051 A 
ATOM      4  C   UNL d   1       0.680  -0.121   0.517  0.00  0.00     0.142 A 
ATOM      5  S   UNL d   1      -0.226   1.087  -0.300  0.00  0.00    -0.064 SA
ATOM      6  C   UNL d   1      -1.489  -0.044  -0.550  0.00  0.00     0.083 A 
ENDROOT
BRANCH   3   7
ATOM      7  C   UNL d   1      -1.987  -2.452  -0.052  0.00  0.00    -0.006 A 
ATOM      8  C   UNL d   1      -1.885  -3.401   0.976  0.00  0.00     0.059 A 
ATOM      9  C   UNL d   1      -2.703  -4.527   0.972  0.00  0.00     0.155 A 
ATOM     10  F   UNL d   1      -2.604  -5.417   1.969  0.00  0.00    -0.203 F 
ATOM     11  C   UNL d   1      -3.620  -4.729  -0.053  0.00  0.00     0.154 A 
ATOM     12  C   UNL d   1      -3.726  -3.809  -1.089  0.00  0.00     0.046 A 
ATOM     13  F   UNL d   1      -4.407  -5.812  -0.053  0.00  0.00    -0.203 F 
ATOM     14  C   UNL d   1      -2.910  -2.673  -1.091  0.00  0.00     0.017 A 
ENDBRANCH   3   7
BRANCH   4  15
ATOM     15  N   UNL d   1       1.888   0.146   1.034  0.00  0.00    -0.380 N 
ATOM     16  H   UNL d   1       2.468  -0.652   1.261  0.00  0.00     0.158 HD
ATOM     17  H   UNL d   1       2.391   0.959   0.699  0.00  0.00     0.158 HD
ENDBRANCH   4  15
TORSDOF 2
