REMARK  5 active torsions:
REMARK  status: ('A' for Active; 'I' for Inactive)
REMARK    1  A    between atoms: C_2  and  C_1 
REMARK    2  A    between atoms: C_7  and  C_3 
REMARK    3  A    between atoms: C_8  and  C_4 
REMARK    4  A    between atoms: O_17  and  C_7 
REMARK    5  A    between atoms: O_18  and  C_8 
ROOT
ATOM      1  C   UNL d   1       1.255  -1.395   0.004  0.00  0.00     0.004 C 
ATOM      2  C   UNL d   1       2.346  -0.593   0.453  0.00  0.00     0.049 C 
ATOM      3  C   UNL d   1       0.114  -0.672  -0.543  0.00  0.00    -0.014 C 
ATOM      4  C   UNL d   1       2.313   0.809   0.404  0.00  0.00     0.020 C 
ATOM      5  C   UNL d   1       0.188   0.736  -0.722  0.00  0.00    -0.025 C 
ATOM      6  C   UNL d   1       1.250   1.465  -0.190  0.00  0.00     0.013 C 
ATOM      7  C   UNL d   1      -1.101  -1.262  -0.984  0.00  0.00     0.013 C 
ATOM      8  C   UNL d   1      -0.776   1.431  -1.474  0.00  0.00     0.012 C 
ATOM      9  C   UNL d   1      -2.019  -0.583  -1.795  0.00  0.00     0.001 C 
ATOM     10  C   UNL d   1      -1.838   0.761  -2.068  0.00  0.00     0.001 C 
ENDROOT
BRANCH   1  11
ATOM     11  C   UNL d   1       1.305  -2.930   0.046  0.00  0.00     0.004 C 
ATOM     12  C   UNL d   1       1.699  -3.632   1.223  0.00  0.00     0.049 C 
ATOM     13  C   UNL d   1       1.722  -5.037   1.275  0.00  0.00     0.020 C 
ATOM     14  C   UNL d   1       1.265  -5.786   0.204  0.00  0.00     0.013 C 
ATOM     15  C   UNL d   1       0.800  -5.157  -0.946  0.00  0.00    -0.025 C 
ATOM     16  C   UNL d   1       0.911  -3.743  -1.094  0.00  0.00    -0.014 C 
ATOM     17  C   UNL d   1       0.184  -5.949  -1.930  0.00  0.00     0.012 C 
ATOM     18  C   UNL d   1       0.555  -3.257  -2.381  0.00  0.00     0.013 C 
ATOM     19  C   UNL d   1      -0.122  -4.035  -3.326  0.00  0.00     0.001 C 
ATOM     20  C   UNL d   1      -0.340  -5.380  -3.084  0.00  0.00     0.001 C 
BRANCH  12  21
ATOM     21  C   UNL d   1       2.021  -2.962   2.512  0.00  0.00     0.177 C 
ATOM     22  O   UNL d   1       1.365  -2.065   2.998  0.00  0.00    -0.646 OA
BRANCH  21  23
ATOM     23  O   UNL d   1       3.159  -3.434   3.075  0.00  0.00    -0.773 OA
ATOM     24  H   UNL d   1       3.753  -3.887   2.439  0.00  0.00     0.167 HD
ENDBRANCH  21  23
ENDBRANCH  12  21
ENDBRANCH   1  11
BRANCH   2  25
ATOM     25  C   UNL d   1       3.630  -1.163   0.923  0.00  0.00     0.177 C 
ATOM     26  O   UNL d   1       4.234  -2.051   0.358  0.00  0.00    -0.646 OA
BRANCH  25  27
ATOM     27  O   UNL d   1       4.051  -0.612   2.091  0.00  0.00    -0.773 OA
ATOM     28  H   UNL d   1       3.328  -0.191   2.599  0.00  0.00     0.167 HD
ENDBRANCH  25  27
ENDBRANCH   2  25
TORSDOF 5
