REMARK  7 active torsions:
REMARK  status: ('A' for Active; 'I' for Inactive)
REMARK    1  A    between atoms: C_2  and  C_1 
REMARK    2  A    between atoms: C_4  and  C_1 
REMARK       I    between atoms: N_5  and  C_2 
REMARK    3  A    between atoms: O_7  and  C_4 
REMARK    4  A    between atoms: O_8  and  C_4 
REMARK    5  A    between atoms: N_6  and  N_5 
REMARK    6  A    between atoms: C_10  and  O_7 
REMARK    7  A    between atoms: C_9  and  O_8 
ROOT
ATOM      1  C   UNL d   1       0.825  -0.004  -0.024  0.00  0.00     0.164 C 
ENDROOT
BRANCH   1   2
ATOM      2  C   UNL d   1       0.209  -0.308   1.318  0.00  0.00     0.236 C 
ATOM      3  O   UNL d   1       0.735  -0.058   2.396  0.00  0.00    -0.272 OA
ATOM      4  N   UNL d   1      -1.085  -0.814   1.192  0.00  0.00    -0.294 N 
ATOM      5  H   UNL d   1      -1.535  -0.875   0.282  0.00  0.00     0.183 HD
BRANCH   4   6
ATOM      6  N   UNL d   1      -1.842  -1.095   2.345  0.00  0.00    -0.247 NA
ATOM      7  H   UNL d   1      -1.389  -0.602   3.127  0.00  0.00     0.143 HD
ATOM      8  H   UNL d   1      -1.703  -2.084   2.571  0.00  0.00     0.143 HD
ENDBRANCH   4   6
ENDBRANCH   1   2
BRANCH   1   9
ATOM      9  C   UNL d   1       2.348  -0.071   0.003  0.00  0.00     0.268 C 
BRANCH   9  10
ATOM     10  O   UNL d   1       2.697  -1.411   0.373  0.00  0.00    -0.361 OA
BRANCH  10  11
ATOM     11  C   UNL d   1       4.096  -1.573   0.594  0.00  0.00     0.166 C 
ATOM     12  C   UNL d   1       4.338  -2.998   1.056  0.00  0.00     0.033 C 
ENDBRANCH  10  11
ENDBRANCH   9  10
BRANCH   9  13
ATOM     13  O   UNL d   1       2.874   0.180  -1.306  0.00  0.00    -0.361 OA
BRANCH  13  14
ATOM     14  C   UNL d   1       2.681   1.505  -1.787  0.00  0.00     0.166 C 
ATOM     15  C   UNL d   1       3.315   1.604  -3.161  0.00  0.00     0.033 C 
ENDBRANCH  13  14
ENDBRANCH   9  13
ENDBRANCH   1   9
TORSDOF 7
