REMARK  2 active torsions:
REMARK  status: ('A' for Active; 'I' for Inactive)
REMARK    1  A    between atoms: C_3  and  C_1 
REMARK    2  A    between atoms: C_4  and  C_3 
ROOT
ATOM      1  C   UNL d   1      -1.419   2.989  -0.127  0.00  0.00     0.190 C 
ATOM      2  O   UNL d   1      -2.484   2.527   0.276  0.00  0.00    -0.287 OA
ENDROOT
BRANCH   1   3
ATOM      3  C   UNL d   1      -0.181   2.147  -0.113  0.00  0.00     0.082 C 
ATOM      4  C   UNL d   1      -0.100   0.814  -0.230  0.00  0.00     0.040 C 
ATOM      5  S   UNL d   1      -1.429  -0.270  -0.501  0.00  0.00    -0.122 SA
ATOM      6  S   UNL d   1       1.472   0.050  -0.120  0.00  0.00    -0.122 SA
ATOM      7  C   UNL d   1      -0.429  -1.778  -0.684  0.00  0.00     0.090 C 
ATOM      8  C   UNL d   1       0.822  -1.623   0.162  0.00  0.00     0.090 C 
ENDBRANCH   1   3
BRANCH   1   9
ATOM      9  C   UNL d   1      -1.299   4.393  -0.516  0.00  0.00     0.054 A 
ATOM     10  S   UNL d   1      -0.044   4.972  -1.532  0.00  0.00    -0.098 SA
ATOM     11  C   UNL d   1      -0.660   6.566  -1.509  0.00  0.00     0.050 A 
ATOM     12  C   UNL d   1      -1.800   6.667  -0.745  0.00  0.00     0.009 A 
ATOM     13  C   UNL d   1      -2.173   5.413  -0.182  0.00  0.00     0.023 A 
ENDBRANCH   1   9
TORSDOF 2
