REMARK  8 active torsions:
REMARK  status: ('A' for Active; 'I' for Inactive)
REMARK    1  A    between atoms: C_8  and  C_1 
REMARK    2  A    between atoms: N_16  and  C_2 
REMARK    3  A    between atoms: C_7  and  C_3 
REMARK    4  A    between atoms: C_10  and  C_7 
REMARK    5  A    between atoms: O_20  and  C_8 
REMARK    6  A    between atoms: O_21  and  C_10 
REMARK    7  A    between atoms: C_23  and  O_20 
REMARK    8  A    between atoms: C_24  and  O_21 
ROOT
ATOM      1  C   UNL d   1      -1.170   2.185   1.247  0.00  0.00     0.205 C 
ATOM      2  C   UNL d   1       0.112   2.923   1.391  0.00  0.00     0.075 C 
ATOM      3  N   UNL d   1       1.145   3.434   1.489  0.00  0.00    -0.196 NA
ENDROOT
BRANCH   1   4
ATOM      4  C   UNL d   1      -1.226   1.366  -0.088  0.00  0.00     0.092 C 
ATOM      5  C   UNL d   1      -2.507   0.543  -0.240  0.00  0.00     0.073 C 
ATOM      6  C   UNL d   1      -2.488  -0.801  -0.121  0.00  0.00     0.134 C 
ATOM      7  O   UNL d   1      -1.334  -1.479   0.246  0.00  0.00    -0.296 OA
ATOM      8  C   UNL d   1      -0.115  -0.900   0.011  0.00  0.00     0.102 A 
ATOM      9  C   UNL d   1      -0.005   0.465  -0.267  0.00  0.00    -0.011 A 
ATOM     10  C   UNL d   1       1.022  -1.716   0.040  0.00  0.00     0.047 A 
ATOM     11  C   UNL d   1       1.250   0.973  -0.640  0.00  0.00     0.034 A 
ATOM     12  C   UNL d   1       2.380   0.154  -0.610  0.00  0.00     0.036 A 
ATOM     13 CL   UNL d   1       3.919   0.811  -1.008  0.00  0.00    -0.084 Cl
ATOM     14  C   UNL d   1       2.277  -1.185  -0.248  0.00  0.00     0.046 A 
ATOM     15 BR   UNL d   1       0.899  -3.564   0.451  0.00  0.00    -0.048 Br
BRANCH   5  16
ATOM     16  C   UNL d   1      -3.738   1.308  -0.570  0.00  0.00     0.293 C 
ATOM     17  O   UNL d   1      -3.706   2.452  -0.996  0.00  0.00    -0.259 OA
BRANCH  16  18
ATOM     18  O   UNL d   1      -4.860   0.613  -0.247  0.00  0.00    -0.318 OA
BRANCH  18  19
ATOM     19  C   UNL d   1      -6.123   1.256  -0.475  0.00  0.00     0.174 C 
ATOM     20  C   UNL d   1      -6.562   1.070  -1.915  0.00  0.00     0.034 C 
ENDBRANCH  18  19
ENDBRANCH  16  18
ENDBRANCH   5  16
BRANCH   6  21
ATOM     21  N   UNL d   1      -3.551  -1.659  -0.272  0.00  0.00    -0.282 NA
ATOM     22  H   UNL d   1      -4.453  -1.219  -0.098  0.00  0.00     0.126 HD
ATOM     23  H   UNL d   1      -3.417  -2.521   0.252  0.00  0.00     0.126 HD
ENDBRANCH   6  21
ENDBRANCH   1   4
BRANCH   1  24
ATOM     24  C   UNL d   1      -1.270   1.267   2.450  0.00  0.00     0.277 C 
ATOM     25  O   UNL d   1      -0.318   0.823   3.064  0.00  0.00    -0.264 OA
BRANCH  24  26
ATOM     26  O   UNL d   1      -2.567   0.963   2.763  0.00  0.00    -0.321 OA
BRANCH  26  27
ATOM     27  C   UNL d   1      -2.710   0.070   3.893  0.00  0.00     0.174 C 
ATOM     28  C   UNL d   1      -2.481  -1.376   3.480  0.00  0.00     0.034 C 
ENDBRANCH  26  27
ENDBRANCH  24  26
ENDBRANCH   1  24
TORSDOF 8
