REMARK  5 active torsions:
REMARK  status: ('A' for Active; 'I' for Inactive)
REMARK    1  A    between atoms: S_8  and  C_2 
REMARK    2  A    between atoms: C_10  and  C_4 
REMARK    3  A    between atoms: C_7  and  C_9 
REMARK    4  A    between atoms: C_14  and  S_8 
REMARK    5  A    between atoms: O_25  and  C_10 
ROOT
ATOM      1  C   UNL d   1       0.085  -0.780   0.122  0.00  0.00     0.042 A 
ATOM      2  C   UNL d   1       1.193  -1.602   0.072  0.00  0.00     0.062 A 
ATOM      3  C   UNL d   1       0.437   0.620   0.016  0.00  0.00    -0.018 A 
ATOM      4  C   UNL d   1       1.811   0.808  -0.070  0.00  0.00     0.088 A 
ATOM      5  S   UNL d   1       2.636  -0.695  -0.038  0.00  0.00    -0.075 SA
ATOM      6  C   UNL d   1      -1.306  -1.210   0.238  0.00  0.00     0.162 C 
ATOM      7  C   UNL d   1      -0.620   1.705  -0.011  0.00  0.00     0.050 C 
ATOM      8  C   UNL d   1      -2.037   1.204   0.401  0.00  0.00    -0.037 C 
ATOM      9  C   UNL d   1      -2.325  -0.182  -0.216  0.00  0.00     0.093 C 
ATOM     10  O   UNL d   1      -1.660  -2.303   0.675  0.00  0.00    -0.292 OA
ATOM     11  C   UNL d   1      -3.098   2.192  -0.115  0.00  0.00     0.015 C 
ATOM     12  C   UNL d   1      -2.155   1.137   1.939  0.00  0.00     0.015 C 
ENDROOT
BRANCH   2  13
ATOM     13  S   UNL d   1       1.274  -3.358   0.130  0.00  0.00    -0.064 SA
BRANCH  13  14
ATOM     14  C   UNL d   1       0.457  -3.801  -1.403  0.00  0.00     0.074 A 
ATOM     15  N   UNL d   1      -0.061  -2.839  -2.205  0.00  0.00    -0.359 N 
ATOM     16  C   UNL d   1      -0.645  -3.231  -3.362  0.00  0.00     0.105 A 
ATOM     17  HN  UNL d   1      -0.013  -1.854  -1.946  1.00  0.00     0.166 HD
ATOM     18  C   UNL d   1      -0.726  -4.549  -3.786  0.00  0.00     0.063 A 
ATOM     19  C   UNL d   1      -0.190  -5.526  -2.944  0.00  0.00     0.020 A 
ATOM     20  C   UNL d   1       0.402  -5.150  -1.739  0.00  0.00     0.038 A 
BRANCH  18  21
ATOM     21  C   UNL d   1      -1.342  -4.899  -5.105  0.00  0.00     0.418 C 
ATOM     22  F   UNL d   1      -1.828  -3.822  -5.784  0.00  0.00    -0.166 F 
ATOM     23  F   UNL d   1      -0.455  -5.498  -5.947  0.00  0.00    -0.166 F 
ATOM     24  F   UNL d   1      -2.384  -5.766  -4.985  0.00  0.00    -0.166 F 
ENDBRANCH  18  21
ENDBRANCH  13  14
ENDBRANCH   2  13
BRANCH   4  25
ATOM     25  C   UNL d   1       2.543   2.068  -0.183  0.00  0.00     0.300 C 
ATOM     26  O   UNL d   1       2.025   3.175  -0.257  0.00  0.00    -0.259 OA
BRANCH  25  27
ATOM     27  O   UNL d   1       3.895   1.865  -0.185  0.00  0.00    -0.322 OA
ATOM     28  C   UNL d   1       4.681   3.055  -0.253  0.00  0.00     0.213 C 
ENDBRANCH  25  27
ENDBRANCH   4  25
TORSDOF 5
