REMARK  4 active torsions:
REMARK  status: ('A' for Active; 'I' for Inactive)
REMARK    1  A    between atoms: S_13  and  C_3 
REMARK    2  A    between atoms: C_7  and  C_4 
REMARK    3  A    between atoms: O_10  and  C_7 
REMARK    4  A    between atoms: C_15  and  O_10 
ROOT
ATOM      1  C   UNL d   1       0.078  -1.072  -0.067  0.00  0.00     0.041 A 
ATOM      2  C   UNL d   1       0.394   0.347  -0.073  0.00  0.00    -0.018 A 
ATOM      3  C   UNL d   1       1.215  -1.856  -0.023  0.00  0.00     0.056 A 
ATOM      4  C   UNL d   1       1.769   0.576  -0.052  0.00  0.00     0.089 A 
ATOM      5  S   UNL d   1       2.627  -0.910   0.011  0.00  0.00    -0.076 SA
ATOM      6  C   UNL d   1      -1.304  -1.553  -0.102  0.00  0.00     0.162 C 
ATOM      7  C   UNL d   1      -0.697   1.396  -0.129  0.00  0.00     0.050 C 
ATOM      8  C   UNL d   1      -2.103   0.833   0.238  0.00  0.00    -0.037 C 
ATOM      9  C   UNL d   1      -2.346  -0.514  -0.476  0.00  0.00     0.093 C 
ATOM     10  O   UNL d   1      -1.636  -2.711   0.137  0.00  0.00    -0.292 OA
ATOM     11  C   UNL d   1      -3.194   1.821  -0.219  0.00  0.00     0.015 C 
ATOM     12  C   UNL d   1      -2.237   0.658   1.766  0.00  0.00     0.015 C 
ENDROOT
BRANCH   4  13
ATOM     13  C   UNL d   1       2.504   1.840  -0.099  0.00  0.00     0.306 C 
ATOM     14  O   UNL d   1       2.004   2.951  -0.220  0.00  0.00    -0.258 OA
BRANCH  13  15
ATOM     15  O   UNL d   1       3.884   1.590  -0.006  0.00  0.00    -0.275 OA
BRANCH  15  16
ATOM     16  C   UNL d   1       5.005   2.446  -0.118  0.00  0.00     0.079 A 
ATOM     17  C   UNL d   1       4.933   3.824  -0.270  0.00  0.00     0.037 A 
ATOM     18  C   UNL d   1       6.120   4.550  -0.408  0.00  0.00     0.003 A 
ATOM     19  C   UNL d   1       7.358   3.898  -0.390  0.00  0.00     0.000 A 
ATOM     20  C   UNL d   1       7.418   2.515  -0.227  0.00  0.00     0.003 A 
ATOM     21  C   UNL d   1       6.239   1.788  -0.087  0.00  0.00     0.037 A 
ENDBRANCH  15  16
ENDBRANCH  13  15
ENDBRANCH   4  13
BRANCH   3  22
ATOM     22  S   UNL d   1       1.351  -3.609  -0.046  0.00  0.00    -0.126 SA
ATOM     23  C   UNL d   1       1.422  -3.929   1.731  0.00  0.00     0.096 C 
ENDBRANCH   3  22
TORSDOF 4
