REMARK  3 active torsions:
REMARK  status: ('A' for Active; 'I' for Inactive)
REMARK    1  A    between atoms: C_8  and  C_3 
REMARK    2  A    between atoms: O_16  and  C_6 
REMARK       I    between atoms: N_13  and  C_8 
REMARK    3  A    between atoms: C_15  and  N_13 
ROOT
ATOM      1  S   UNL d   1       2.161  -1.095   0.292  0.00  0.00     0.273 S 
ATOM      2  N   UNL d   1       0.680  -1.735  -0.225  0.00  0.00    -0.269 N 
ATOM      3  C   UNL d   1       2.238   0.540  -0.213  0.00  0.00     0.181 C 
ATOM      4  C   UNL d   1      -0.402  -0.786  -0.229  0.00  0.00     0.100 A 
ATOM      5  C   UNL d   1      -0.231   0.583  -0.353  0.00  0.00     0.040 A 
ATOM      6  C   UNL d   1       1.083   1.174  -0.485  0.00  0.00     0.108 C 
ATOM      7  S   UNL d   1      -2.040  -1.229  -0.126  0.00  0.00    -0.075 SA
ATOM      8  C   UNL d   1      -1.505   1.284  -0.295  0.00  0.00    -0.033 A 
ATOM      9  C   UNL d   1      -2.560   0.391  -0.155  0.00  0.00    -0.012 A 
ATOM     10  O   UNL d   1       3.199  -1.824  -0.422  0.00  0.00    -0.200 OA
ATOM     11  O   UNL d   1       2.159  -1.139   1.742  0.00  0.00    -0.200 OA
ATOM     12  C   UNL d   1       0.444  -3.154   0.088  0.00  0.00     0.170 C 
ATOM     13  C   UNL d   1      -1.718   2.768  -0.375  0.00  0.00     0.050 C 
ATOM     14  C   UNL d   1      -4.018   0.702  -0.035  0.00  0.00     0.057 C 
ENDROOT
BRANCH   3  15
ATOM     15  C   UNL d   1       3.536   1.257  -0.266  0.00  0.00     0.272 C 
ATOM     16  N   UNL d   1       4.685   0.498  -0.287  0.00  0.00    -0.322 N 
ATOM     17  H   UNL d   1       4.595  -0.510  -0.427  0.00  0.00     0.169 HD
ATOM     18  O   UNL d   1       3.510   2.488  -0.337  0.00  0.00    -0.266 OA
BRANCH  16  19
ATOM     19  C   UNL d   1       6.014   0.981  -0.241  0.00  0.00     0.036 A 
ATOM     20  C   UNL d   1       6.354   2.301   0.068  0.00  0.00     0.053 A 
ATOM     21  C   UNL d   1       7.693   2.697   0.077  0.00  0.00     0.036 A 
ATOM     22 CL   UNL d   1       8.099   4.328   0.456  0.00  0.00    -0.084 Cl
ATOM     23  C   UNL d   1       8.706   1.788  -0.214  0.00  0.00     0.024 A 
ATOM     24  C   UNL d   1       8.377   0.465  -0.501  0.00  0.00     0.004 A 
ATOM     25  C   UNL d   1       7.038   0.062  -0.505  0.00  0.00     0.029 A 
ENDBRANCH  16  19
ENDBRANCH   3  15
BRANCH   6  26
ATOM     26  O   UNL d   1       1.050   2.488  -0.936  0.00  0.00    -0.358 OA
ATOM     27  H   UNL d   1       1.950   2.881  -0.855  0.00  0.00     0.217 HD
ENDBRANCH   6  26
TORSDOF 3
