REMARK  7 active torsions:
REMARK  status: ('A' for Active; 'I' for Inactive)
REMARK    1  A    between atoms: N_5  and  C_1 
REMARK       I    between atoms: C_8  and  N_5 
REMARK    2  A    between atoms: C_15  and  C_8 
REMARK    3  A    between atoms: N_9  and  C_12 
REMARK    4  A    between atoms: C_12  and  C_19 
REMARK    5  A    between atoms: C_20  and  C_15 
REMARK    6  A    between atoms: C_19  and  C_21 
REMARK    7  A    between atoms: C_21  and  C_20 
ROOT
ATOM      1  N   UNL d   1      -1.796  -2.676   1.132  0.00  0.00    -0.312 N 
ATOM      2  C   UNL d   1      -2.421  -2.965  -0.064  0.00  0.00     0.223 C 
ATOM      3  O   UNL d   1      -2.035  -2.672  -1.193  0.00  0.00    -0.273 OA
ATOM      4  H   UNL d   1      -2.242  -2.937   1.998  0.00  0.00     0.170 HD
ENDROOT
BRANCH   2   5
ATOM      5  C   UNL d   1      -3.692  -3.774   0.114  0.00  0.00     0.103 C 
BRANCH   5   6
ATOM      6  C   UNL d   1      -3.360  -5.263   0.155  0.00  0.00     0.009 C 
BRANCH   6   7
ATOM      7  C   UNL d   1      -4.622  -6.123   0.214  0.00  0.00     0.002 C 
BRANCH   7   8
ATOM      8  C   UNL d   1      -4.270  -7.617   0.256  0.00  0.00     0.030 C 
BRANCH   8   9
ATOM      9  C   UNL d   1      -5.507  -8.532   0.294  0.00  0.00     0.272 C 
BRANCH   9  10
ATOM     10  N   UNL d   1      -6.442  -8.254  -0.794  0.00  0.00     0.092 N 
ATOM     11  C   UNL d   1      -5.929  -8.629  -2.127  0.00  0.00     0.298 C 
ATOM     12  C   UNL d   1      -6.922  -8.153  -3.199  0.00  0.00     0.198 C 
ATOM     13  O   UNL d   1      -8.209  -8.760  -3.016  0.00  0.00    -0.388 OA
ATOM     14  C   UNL d   1      -8.719  -8.463  -1.707  0.00  0.00     0.198 C 
ATOM     15  C   UNL d   1      -7.746  -8.917  -0.605  0.00  0.00     0.298 C 
ENDBRANCH   9  10
ENDBRANCH   8   9
ENDBRANCH   7   8
ENDBRANCH   6   7
ENDBRANCH   5   6
ENDBRANCH   2   5
BRANCH   1  16
ATOM     16  C   UNL d   1      -0.589  -2.006   1.234  0.00  0.00     0.130 A 
ATOM     17  N   UNL d   1       0.164  -1.600   0.208  0.00  0.00    -0.245 N 
ATOM     18  O   UNL d   1       1.272  -0.988   0.751  0.00  0.00    -0.241 OA
ATOM     19  HN  UNL d   1      -0.041  -1.720  -0.784  1.00  0.00     0.196 HD
ATOM     20  C   UNL d   1       1.187  -1.019   2.105  0.00  0.00     0.076 A 
ATOM     21  C   UNL d   1       0.024  -1.658   2.463  0.00  0.00     0.084 A 
ATOM     22  C   UNL d   1       2.301  -0.392   2.834  0.00  0.00     0.079 C 
ENDBRANCH   1  16
TORSDOF 7
