REMARK  6 active torsions:
REMARK  status: ('A' for Active; 'I' for Inactive)
REMARK    1  A    between atoms: C_6  and  C_1 
REMARK    2  A    between atoms: S_14  and  C_3 
REMARK    3  A    between atoms: C_7  and  C_6 
REMARK    4  A    between atoms: N_12  and  C_8 
REMARK    5  A    between atoms: C_16  and  N_12 
REMARK    6  A    between atoms: O_23  and  C_18 
ROOT
ATOM      1  C   UNL d   1      -2.193  -3.452   0.031  0.00  0.00     0.111 C 
ATOM      2  C   UNL d   1      -2.811  -4.654  -0.051  0.00  0.00     0.115 C 
ATOM      3  C   UNL d   1      -2.973  -2.268   0.107  0.00  0.00     0.105 C 
ATOM      4  N   UNL d   1      -3.672  -1.341   0.154  0.00  0.00    -0.191 NA
ENDROOT
BRANCH   1   5
ATOM      5  C   UNL d   1      -0.685  -3.360   0.091  0.00  0.00     0.211 C 
ATOM      6  O   UNL d   1      -0.067  -4.309   0.574  0.00  0.00    -0.285 OA
BRANCH   5   7
ATOM      7  C   UNL d   1       0.009  -2.146  -0.378  0.00  0.00     0.065 C 
ATOM      8  S   UNL d   1      -0.604  -1.252  -1.711  0.00  0.00    -0.078 SA
ATOM      9  C   UNL d   1       0.603  -0.051  -1.601  0.00  0.00     0.052 C 
ATOM     10  C   UNL d   1       1.546  -0.399  -0.656  0.00  0.00    -0.005 A 
ATOM     11  C   UNL d   1       1.228  -1.618   0.042  0.00  0.00    -0.025 A 
ATOM     12  C   UNL d   1       2.743   0.325  -0.364  0.00  0.00     0.010 A 
ATOM     13  C   UNL d   1       2.142  -2.181   1.103  0.00  0.00     0.045 A 
ATOM     14  C   UNL d   1       3.452  -1.388   1.324  0.00  0.00     0.032 A 
ATOM     15  C   UNL d   1       3.631  -0.116   0.540  0.00  0.00    -0.025 A 
BRANCH   9  16
ATOM     16  S   UNL d   1       0.617   1.342  -2.682  0.00  0.00    -0.126 SA
ATOM     17  C   UNL d   1      -0.962   2.128  -2.281  0.00  0.00     0.096 C 
ENDBRANCH   9  16
ENDBRANCH   5   7
ENDBRANCH   1   5
BRANCH   2  18
ATOM     18  N   UNL d   1      -4.176  -4.863  -0.131  0.00  0.00    -0.364 N 
ATOM     19  H   UNL d   1      -4.756  -4.024  -0.137  0.00  0.00     0.165 HD
BRANCH  18  20
ATOM     20  C   UNL d   1      -4.933  -6.043  -0.231  0.00  0.00     0.032 A 
ATOM     21  C   UNL d   1      -4.404  -7.334  -0.145  0.00  0.00     0.032 A 
ATOM     22  C   UNL d   1      -5.233  -8.464  -0.273  0.00  0.00     0.039 A 
ATOM     23  C   UNL d   1      -6.599  -8.323  -0.502  0.00  0.00     0.068 A 
ATOM     24  C   UNL d   1      -7.138  -7.043  -0.591  0.00  0.00     0.039 A 
ATOM     25  C   UNL d   1      -6.314  -5.920  -0.457  0.00  0.00     0.032 A 
BRANCH  23  26
ATOM     26  O   UNL d   1      -7.508  -9.334  -0.662  0.00  0.00    -0.356 OA
ATOM     27  C   UNL d   1      -7.011 -10.663  -0.590  0.00  0.00     0.210 C 
ENDBRANCH  23  26
ENDBRANCH  18  20
ENDBRANCH   2  18
TORSDOF 6
