REMARK  2 active torsions:
REMARK  status: ('A' for Active; 'I' for Inactive)
REMARK    1  A    between atoms: N_6  and  C_1 
REMARK       I    between atoms: C_8  and  N_6 
REMARK    2  A    between atoms: C_9  and  C_8 
ROOT
ATOM      1  N   UNL d   1      -2.260   3.836  -0.838  0.00  0.00    -0.152 N 
ATOM      2  C   UNL d   1      -1.818   2.946   0.122  0.00  0.00     0.287 C 
ATOM      3  O   UNL d   1      -0.661   2.588   0.313  0.00  0.00    -0.265 OA
ATOM      4  H   UNL d   1      -3.259   3.996  -0.903  0.00  0.00     0.187 HD
ENDROOT
BRANCH   2   5
ATOM      5  C   UNL d   1      -2.894   2.372   0.975  0.00  0.00     0.117 A 
ATOM      6  N   UNL d   1      -4.178   2.780   0.752  0.00  0.00    -0.358 N 
ATOM      7  C   UNL d   1      -5.096   2.214   1.584  0.00  0.00     0.113 A 
ATOM      8  HN  UNL d   1      -4.428   3.451   0.026  1.00  0.00     0.165 HD
ATOM      9  C   UNL d   1      -4.769   1.289   2.577  0.00  0.00     0.020 A 
ATOM     10  N   UNL d   1      -3.488   0.897   2.777  0.00  0.00    -0.366 N 
ATOM     11  C   UNL d   1      -5.816   0.707   3.475  0.00  0.00     0.069 C 
ATOM     12  C   UNL d   1      -2.561   1.454   1.960  0.00  0.00     0.123 A 
ATOM     13  HN  UNL d   1      -3.237   0.222   3.500  1.00  0.00     0.165 HD
ENDBRANCH   2   5
BRANCH   1  14
ATOM     14  C   UNL d   1      -1.370   4.464  -1.678  0.00  0.00     0.710 A 
ATOM     15  N   UNL d   1      -0.055   4.445  -1.680  0.00  0.00    -0.117 N 
ATOM     16  N   UNL d   1       0.350   5.240  -2.725  0.00  0.00     0.006 NA
ATOM     17  HN  UNL d   1       0.548   3.938  -1.033  1.00  0.00     0.202 HD
ATOM     18  N   UNL d   1      -0.693   5.742  -3.369  0.00  0.00     0.006 NA
ATOM     19  N   UNL d   1      -1.761   5.262  -2.717  0.00  0.00    -0.117 N 
ATOM     20  H   UNL d   1      -2.687   5.494  -3.048  0.00  0.00     0.202 HD
ENDBRANCH   1  14
TORSDOF 2
