REMARK  3 active torsions:
REMARK  status: ('A' for Active; 'I' for Inactive)
REMARK    1  A    between atoms: O_8  and  C_3 
REMARK    2  A    between atoms: C_7  and  O_8 
REMARK    3  A    between atoms: N_15  and  C_11 
ROOT
ATOM      1  N   UNL d   1      -1.646  -1.172  -1.141  0.00  0.00    -0.345 N 
ATOM      2  HN  UNL d   1      -2.348  -1.910  -1.083  1.00  0.00     0.167 HD
ATOM      3  C   UNL d   1      -1.879   0.063  -0.654  0.00  0.00     0.148 C 
ATOM      4  C   UNL d   1      -0.436  -1.389  -1.710  0.00  0.00     0.113 C 
ATOM      5  C   UNL d   1       0.549  -0.418  -1.885  0.00  0.00     0.021 C 
ATOM      6  C   UNL d   1      -0.911   1.062  -0.656  0.00  0.00     0.058 C 
ATOM      7  C   UNL d   1       0.309   0.815  -1.287  0.00  0.00     0.029 C 
ENDROOT
BRANCH   3   8
ATOM      8  O   UNL d   1      -3.126   0.218  -0.087  0.00  0.00    -0.294 OA
BRANCH   8   9
ATOM      9  C   UNL d   1      -3.773   1.430  -0.192  0.00  0.00     0.078 A 
ATOM     10  C   UNL d   1      -3.670   2.287  -1.293  0.00  0.00     0.045 A 
ATOM     11  C   UNL d   1      -4.314   3.534  -1.294  0.00  0.00    -0.038 A 
ATOM     12  C   UNL d   1      -4.086   4.478  -2.443  0.00  0.00     0.050 C 
ATOM     13  C   UNL d   1      -5.139   3.868  -0.210  0.00  0.00     0.040 A 
ATOM     14  C   UNL d   1      -5.299   2.981   0.859  0.00  0.00     0.027 A 
ATOM     15 CL   UNL d   1      -5.979   5.375  -0.143  0.00  0.00    -0.084 Cl
ATOM     16  C   UNL d   1      -4.614   1.766   0.868  0.00  0.00     0.039 A 
ENDBRANCH   8   9
ENDBRANCH   3   8
BRANCH   5  17
ATOM     17  N   UNL d   1       1.810  -0.722  -2.406  0.00  0.00    -0.302 NA
ATOM     18  H   UNL d   1       1.812  -1.501  -3.057  0.00  0.00     0.124 HD
ATOM     19  H   UNL d   1       2.305   0.084  -2.776  0.00  0.00     0.124 HD
ENDBRANCH   5  17
TORSDOF 3
