REMARK  3 active torsions:
REMARK  status: ('A' for Active; 'I' for Inactive)
REMARK    1  A    between atoms: C_13  and  C_10 
REMARK    2  A    between atoms: C_12  and  C_14 
REMARK    3  A    between atoms: C_22  and  C_16 
ROOT
ATOM      1  C   UNL d   1      -0.357  -0.636   0.001  0.00  0.00     0.139 A 
ATOM      2  C   UNL d   1      -0.499   0.767  -0.011  0.00  0.00     0.058 A 
ATOM      3  C   UNL d   1       0.937  -1.290  -0.005  0.00  0.00     0.291 A 
ATOM      4  N   UNL d   1      -1.536  -1.256   0.018  0.00  0.00    -0.254 N 
ATOM      5  HN  UNL d   1      -1.708  -2.261   0.032  1.00  0.00     0.195 HD
ATOM      6  N   UNL d   1       1.864   1.013  -0.028  0.00  0.00    -0.300 N 
ATOM      7  HN  UNL d   1       2.702   1.594  -0.037  1.00  0.00     0.187 HD
ATOM      8  N   UNL d   1       2.001  -0.371  -0.021  0.00  0.00    -0.260 N 
ATOM      9  C   UNL d   1       0.692   1.589  -0.024  0.00  0.00     0.037 A 
ATOM     10  C   UNL d   1      -1.871   1.002  -0.010  0.00  0.00     0.113 A 
ATOM     11  O   UNL d   1      -2.471  -0.246   0.014  0.00  0.00    -0.236 OA
ATOM     12  O   UNL d   1       1.092  -2.509   0.002  0.00  0.00    -0.264 OA
ATOM     13  C   UNL d   1       3.357  -0.881  -0.032  0.00  0.00     0.181 C 
ATOM     14  C   UNL d   1       0.713   3.091  -0.028  0.00  0.00     0.070 C 
ENDROOT
BRANCH  10  15
ATOM     15  C   UNL d   1      -2.646   2.199  -0.028  0.00  0.00     0.041 C 
ATOM     16  C   UNL d   1      -3.989   2.181   0.007  0.00  0.00     0.014 C 
BRANCH  16  17
ATOM     17  C   UNL d   1      -4.819   3.401  -0.013  0.00  0.00    -0.036 A 
ATOM     18  C   UNL d   1      -6.097   3.346  -0.582  0.00  0.00     0.012 A 
ATOM     19  C   UNL d   1      -6.923   4.477  -0.603  0.00  0.00     0.017 A 
ATOM     20  C   UNL d   1      -6.490   5.688  -0.045  0.00  0.00     0.048 A 
ATOM     21  C   UNL d   1      -5.217   5.740   0.538  0.00  0.00     0.017 A 
ATOM     22  C   UNL d   1      -4.396   4.607   0.563  0.00  0.00     0.012 A 
BRANCH  20  23
ATOM     23  C   UNL d   1      -7.365   6.918  -0.051  0.00  0.00     0.417 C 
ATOM     24  F   UNL d   1      -8.574   6.727  -0.647  0.00  0.00    -0.166 F 
ATOM     25  F   UNL d   1      -7.635   7.369   1.206  0.00  0.00    -0.166 F 
ATOM     26  F   UNL d   1      -6.787   7.964  -0.705  0.00  0.00    -0.166 F 
ENDBRANCH  20  23
ENDBRANCH  16  17
ENDBRANCH  10  15
TORSDOF 3
