REMARK  5 active torsions:
REMARK  status: ('A' for Active; 'I' for Inactive)
REMARK    1  A    between atoms: C_7  and  S_1 
REMARK    2  A    between atoms: N_8  and  S_1 
REMARK    3  A    between atoms: C_4  and  C_6 
REMARK    4  A    between atoms: C_13  and  N_5 
REMARK       I    between atoms: C_6  and  N_9 
REMARK    5  A    between atoms: N_9  and  N_8 
ROOT
ATOM      1  C   UNL d   1       0.370   0.650  -3.820  0.00  0.00     0.292 C 
ATOM      2  N   UNL d   1       1.462   0.951  -4.616  0.00  0.00    -0.255 N 
ATOM      3  O   UNL d   1       0.020   1.319  -2.859  0.00  0.00    -0.264 OA
ATOM      4  H   UNL d   1       1.745   0.351  -5.400  0.00  0.00     0.191 HD
ENDROOT
BRANCH   1   5
ATOM      5  C   UNL d   1      -0.396  -0.608  -4.243  0.00  0.00     0.168 A 
ATOM      6  N   UNL d   1      -1.422  -0.961  -3.518  0.00  0.00    -0.286 N 
ATOM      7  N   UNL d   1      -2.105  -2.107  -3.856  0.00  0.00    -0.267 N 
ATOM      8  HN  UNL d   1      -1.712  -0.400  -2.717  1.00  0.00     0.188 HD
ATOM      9  C   UNL d   1      -1.752  -2.886  -4.940  0.00  0.00     0.120 A 
ATOM     10  C   UNL d   1      -0.744  -2.626  -5.772  0.00  0.00     0.076 A 
ATOM     11  C   UNL d   1       0.009  -1.410  -5.463  0.00  0.00     0.206 A 
ATOM     12  O   UNL d   1       0.934  -1.031  -6.171  0.00  0.00    -0.286 OA
BRANCH   7  13
ATOM     13  C   UNL d   1      -3.224  -2.413  -3.016  0.00  0.00     0.056 A 
ATOM     14  C   UNL d   1      -3.963  -1.379  -2.407  0.00  0.00     0.034 A 
ATOM     15  C   UNL d   1      -5.080  -1.655  -1.613  0.00  0.00     0.044 A 
ATOM     16  C   UNL d   1      -5.459  -2.973  -1.402  0.00  0.00     0.116 A 
ATOM     17  C   UNL d   1      -4.742  -4.018  -1.968  0.00  0.00     0.044 A 
ATOM     18  F   UNL d   1      -6.526  -3.242  -0.638  0.00  0.00    -0.206 F 
ATOM     19  C   UNL d   1      -3.631  -3.739  -2.771  0.00  0.00     0.034 A 
ENDBRANCH   7  13
ENDBRANCH   1   5
BRANCH   2  20
ATOM     20  N   UNL d   1       2.241   2.132  -4.350  0.00  0.00    -0.220 N 
ATOM     21  H   UNL d   1       1.972   2.785  -3.605  0.00  0.00     0.200 HD
BRANCH  20  22
ATOM     22  S   UNL d   1       3.548   2.540  -5.330  0.00  0.00     0.278 S 
ATOM     23  O   UNL d   1       4.093   3.800  -4.880  0.00  0.00    -0.199 OA
ATOM     24  O   UNL d   1       4.374   1.353  -5.426  0.00  0.00    -0.199 OA
BRANCH  22  25
ATOM     25  C   UNL d   1       2.791   2.790  -6.913  0.00  0.00     0.102 A 
ATOM     26  C   UNL d   1       1.810   3.763  -7.113  0.00  0.00     0.057 A 
ATOM     27 CL   UNL d   1       1.224   4.814  -5.877  0.00  0.00    -0.083 Cl
ATOM     28  C   UNL d   1       1.234   3.900  -8.383  0.00  0.00     0.025 A 
ATOM     29  C   UNL d   1       1.634   3.080  -9.440  0.00  0.00     0.002 A 
ATOM     30  C   UNL d   1       2.613   2.112  -9.238  0.00  0.00     0.002 A 
ATOM     31  C   UNL d   1       3.192   1.965  -7.978  0.00  0.00     0.027 A 
ENDBRANCH  22  25
ENDBRANCH  20  22
ENDBRANCH   2  20
TORSDOF 5
