REMARK  10 active torsions:
REMARK  status: ('A' for Active; 'I' for Inactive)
REMARK    1  A    between atoms: S_10  and  C_2 
REMARK    2  A    between atoms: C_20  and  C_7 
REMARK    3  A    between atoms: C_8  and  C_11 
REMARK    4  A    between atoms: C_14  and  S_10 
REMARK    5  A    between atoms: C_11  and  C_14 
REMARK    6  A    between atoms: S_21  and  C_20 
REMARK    7  A    between atoms: C_25  and  S_21 
REMARK    8  A    between atoms: C_23  and  O_24 
REMARK    9  A    between atoms: O_24  and  C_26 
REMARK   10  A    between atoms: C_26  and  C_25 
ROOT
ATOM      1  N   UNL d   1       0.923   0.047  -0.118  0.00  0.00    -0.319 N 
ATOM      2  C   UNL d   1       0.059   1.063  -0.413  0.00  0.00     0.162 A 
ATOM      3  N   UNL d   1      -1.175   0.615  -0.388  0.00  0.00    -0.278 N 
ATOM      4  HN  UNL d   1      -2.020   1.172  -0.519  1.00  0.00     0.189 HD
ATOM      5  N   UNL d   1      -1.125  -0.737  -0.153  0.00  0.00    -0.286 N 
ATOM      6  HN  UNL d   1      -1.927  -1.362  -0.077  1.00  0.00     0.188 HD
ATOM      7  C   UNL d   1       0.143  -1.086  -0.043  0.00  0.00     0.109 A 
ATOM      8  C   UNL d   1       2.355   0.101   0.017  0.00  0.00     0.159 C 
ENDROOT
BRANCH   2   9
ATOM      9  S   UNL d   1       0.550   2.659  -0.856  0.00  0.00    -0.085 SA
BRANCH   9  10
ATOM     10  C   UNL d   1      -0.996   3.263  -1.597  0.00  0.00     0.166 C 
BRANCH  10  11
ATOM     11  C   UNL d   1      -0.879   4.691  -2.110  0.00  0.00     0.170 C 
ATOM     12  O   UNL d   1       0.095   5.411  -1.904  0.00  0.00    -0.291 OA
BRANCH  11  13
ATOM     13  C   UNL d   1      -2.055   5.256  -2.848  0.00  0.00     0.032 A 
ATOM     14  C   UNL d   1      -1.912   6.212  -3.870  0.00  0.00     0.049 A 
ATOM     15  C   UNL d   1      -3.045   6.787  -4.466  0.00  0.00     0.048 A 
ATOM     16 CL   UNL d   1      -0.383   6.702  -4.514  0.00  0.00    -0.083 Cl
ATOM     17  C   UNL d   1      -4.318   6.402  -4.059  0.00  0.00     0.035 A 
ATOM     18  C   UNL d   1      -4.476   5.434  -3.074  0.00  0.00     0.025 A 
ATOM     19 CL   UNL d   1      -5.704   7.122  -4.778  0.00  0.00    -0.084 Cl
ATOM     20  C   UNL d   1      -3.352   4.864  -2.469  0.00  0.00     0.018 A 
ENDBRANCH  11  13
ENDBRANCH  10  11
ENDBRANCH   9  10
ENDBRANCH   2   9
BRANCH   7  21
ATOM     21  C   UNL d   1       0.666  -2.474   0.039  0.00  0.00     0.151 C 
BRANCH  21  22
ATOM     22  S   UNL d   1       0.928  -3.044   1.746  0.00  0.00    -0.159 SA
BRANCH  22  23
ATOM     23  C   UNL d   1      -0.798  -3.109   2.364  0.00  0.00     0.101 C 
BRANCH  23  24
ATOM     24  C   UNL d   1      -1.708  -4.009   1.535  0.00  0.00     0.186 C 
BRANCH  24  25
ATOM     25  O   UNL d   1      -2.987  -4.107   2.162  0.00  0.00    -0.350 OA
BRANCH  25  26
ATOM     26  C   UNL d   1      -3.920  -4.863   1.499  0.00  0.00     0.068 A 
ATOM     27  C   UNL d   1      -3.712  -5.551   0.299  0.00  0.00     0.037 A 
ATOM     28  C   UNL d   1      -4.740  -6.304  -0.271  0.00  0.00     0.003 A 
ATOM     29  C   UNL d   1      -5.985  -6.376   0.352  0.00  0.00     0.000 A 
ATOM     30  C   UNL d   1      -6.201  -5.686   1.544  0.00  0.00     0.003 A 
ATOM     31  C   UNL d   1      -5.173  -4.933   2.113  0.00  0.00     0.037 A 
ENDBRANCH  25  26
ENDBRANCH  24  25
ENDBRANCH  23  24
ENDBRANCH  22  23
ENDBRANCH  21  22
ENDBRANCH   7  21
TORSDOF 10
