REMARK  8 active torsions:
REMARK  status: ('A' for Active; 'I' for Inactive)
REMARK       I    between atoms: N_8  and  C_1 
REMARK       I    between atoms: N_14  and  C_1 
REMARK    1  A    between atoms: C_13  and  C_2 
REMARK    2  A    between atoms: C_5  and  C_20 
REMARK    3  A    between atoms: C_10  and  N_8 
REMARK    4  A    between atoms: N_16  and  C_13 
REMARK    5  A    between atoms: C_22  and  N_14 
REMARK    6  A    between atoms: S_19  and  C_23 
REMARK    7  A    between atoms: C_20  and  S_19 
REMARK    8  A    between atoms: C_23  and  C_22 
ROOT
ATOM      1  C   UNL d   1       2.297   0.013  -1.604  0.00  0.00     0.320 C 
ATOM      2  N   UNL d   1       3.023  -0.788  -2.441  0.00  0.00    -0.309 N 
ATOM      3  O   UNL d   1       1.505   0.888  -1.935  0.00  0.00    -0.247 OA
ATOM      4  N   UNL d   1       2.518  -0.161  -0.271  0.00  0.00    -0.342 N 
ATOM      5  H   UNL d   1       3.661  -1.429  -2.009  0.00  0.00     0.170 HD
ATOM      6  H   UNL d   1       1.957   0.481   0.279  0.00  0.00     0.164 HD
ENDROOT
BRANCH   4   7
ATOM      7  C   UNL d   1       3.300  -1.152   0.446  0.00  0.00     0.134 C 
BRANCH   7   8
ATOM      8  C   UNL d   1       4.809  -0.888   0.416  0.00  0.00     0.094 C 
BRANCH   8   9
ATOM      9  S   UNL d   1       5.637  -2.131   1.468  0.00  0.00    -0.161 SA
BRANCH   9  10
ATOM     10  C   UNL d   1       7.373  -1.624   1.252  0.00  0.00     0.139 C 
BRANCH  10  11
ATOM     11  C   UNL d   1       7.620  -0.221   1.657  0.00  0.00     0.062 A 
ATOM     12  O   UNL d   1       8.259   0.562   0.741  0.00  0.00    -0.317 OA
ATOM     13  C   UNL d   1       8.401   1.799   1.297  0.00  0.00     0.081 A 
ATOM     14  C   UNL d   1       7.837   1.818   2.555  0.00  0.00     0.037 A 
ATOM     15  C   UNL d   1       7.352   0.511   2.796  0.00  0.00     0.036 A 
BRANCH  13  16
ATOM     16  C   UNL d   1       9.119   2.820   0.480  0.00  0.00     0.335 C 
BRANCH  16  17
ATOM     17  N   UNL d   1      10.217   3.468   1.223  0.00  0.00     0.086 N 
ATOM     18  C   UNL d   1      11.293   2.516   1.522  0.00  0.00     0.309 C 
ATOM     19  C   UNL d   1      10.751   4.586   0.444  0.00  0.00     0.309 C 
ENDBRANCH  16  17
ENDBRANCH  13  16
ENDBRANCH  10  11
ENDBRANCH   9  10
ENDBRANCH   8   9
ENDBRANCH   7   8
ENDBRANCH   4   7
BRANCH   2  20
ATOM     20  C   UNL d   1       3.099  -0.694  -3.848  0.00  0.00     0.037 A 
ATOM     21  C   UNL d   1       2.235   0.076  -4.626  0.00  0.00     0.054 A 
ATOM     22  C   UNL d   1       2.432   0.186  -6.008  0.00  0.00     0.042 A 
ATOM     23 CL   UNL d   1       1.313   1.151  -6.908  0.00  0.00    -0.084 Cl
ATOM     24  C   UNL d   1       3.504  -0.464  -6.636  0.00  0.00    -0.040 A 
ATOM     25  C   UNL d   1       4.337  -1.278  -5.857  0.00  0.00     0.011 A 
ATOM     26  C   UNL d   1       3.771  -0.316  -8.105  0.00  0.00     0.050 C 
ATOM     27  C   UNL d   1       4.131  -1.399  -4.479  0.00  0.00     0.030 A 
ENDBRANCH   2  20
TORSDOF 8
