REMARK  7 active torsions:
REMARK  status: ('A' for Active; 'I' for Inactive)
REMARK    1  A    between atoms: N_2  and  S_1 
REMARK    2  A    between atoms: C_6  and  S_1 
REMARK    3  A    between atoms: C_3  and  N_2 
REMARK    4  A    between atoms: C_19  and  C_18 
REMARK    5  A    between atoms: C_21  and  C_19 
REMARK    6  A    between atoms: C_23  and  C_21 
REMARK    7  A    between atoms: C_22  and  C_23 
ROOT
ATOM      1  S   UNL d   1       1.131  -0.041   0.033  0.00  0.00     0.264 S 
ATOM      2  O   UNL d   1       0.207   1.075   0.127  0.00  0.00    -0.200 OA
ATOM      3  O   UNL d   1       1.373  -0.887   1.179  0.00  0.00    -0.200 OA
ENDROOT
BRANCH   1   4
ATOM      4  N   UNL d   1       2.568   0.602  -0.479  0.00  0.00    -0.265 N 
ATOM      5  H   UNL d   1       2.683   1.608  -0.453  0.00  0.00     0.180 HD
BRANCH   4   6
ATOM      6  C   UNL d   1       3.666  -0.223  -0.765  0.00  0.00     0.132 A 
ATOM      7  N   UNL d   1       3.731  -0.559  -2.069  0.00  0.00    -0.350 N 
ATOM      8  C   UNL d   1       4.830  -1.230  -2.478  0.00  0.00     0.096 A 
ATOM      9  HN  UNL d   1       2.982  -0.318  -2.719  1.00  0.00     0.166 HD
ATOM     10  C   UNL d   1       5.900  -1.558  -1.649  0.00  0.00    -0.045 A 
ATOM     11  C   UNL d   1       5.801  -1.197  -0.302  0.00  0.00     0.031 A 
ATOM     12  C   UNL d   1       7.111  -2.238  -2.200  0.00  0.00     0.049 C 
ATOM     13  C   UNL d   1       4.672  -0.513   0.153  0.00  0.00     0.056 A 
ATOM     14 BR   UNL d   1       4.608   0.036   1.962  0.00  0.00    -0.047 Br
ENDBRANCH   4   6
ENDBRANCH   1   4
BRANCH   1  15
ATOM     15  C   UNL d   1       0.583  -1.078  -1.300  0.00  0.00     0.079 A 
ATOM     16  C   UNL d   1       0.960  -2.425  -1.288  0.00  0.00     0.026 A 
ATOM     17  C   UNL d   1       0.545  -3.272  -2.312  0.00  0.00     0.009 A 
ATOM     18  C   UNL d   1      -0.266  -2.789  -3.344  0.00  0.00    -0.058 A 
ATOM     19  C   UNL d   1      -0.700  -1.453  -3.305  0.00  0.00     0.009 A 
ATOM     20  C   UNL d   1      -0.271  -0.591  -2.292  0.00  0.00     0.026 A 
BRANCH  18  21
ATOM     21  C   UNL d   1      -0.628  -3.687  -4.504  0.00  0.00     0.038 C 
BRANCH  21  22
ATOM     22  C   UNL d   1      -0.035  -3.149  -5.809  0.00  0.00     0.005 C 
BRANCH  22  23
ATOM     23  C   UNL d   1      -0.341  -4.054  -6.998  0.00  0.00    -0.000 C 
BRANCH  23  24
ATOM     24  C   UNL d   1       0.241  -3.465  -8.282  0.00  0.00    -0.005 C 
ATOM     25  C   UNL d   1      -0.058  -4.344  -9.482  0.00  0.00     0.005 C 
ENDBRANCH  23  24
ENDBRANCH  22  23
ENDBRANCH  21  22
ENDBRANCH  18  21
ENDBRANCH   1  15
TORSDOF 7
