REMARK  2 active torsions:
REMARK  status: ('A' for Active; 'I' for Inactive)
REMARK    1  A    between atoms: C_7  and  C_1 
REMARK    2  A    between atoms: C_13  and  N_2 
ROOT
ATOM      1  C   UNL d   1      -0.213   0.693   0.152  0.00  0.00     0.072 C 
ATOM      2  N   UNL d   1      -0.221  -1.403  -0.517  0.00  0.00    -0.263 N 
ATOM      3  N   UNL d   1       1.087  -1.049  -0.485  0.00  0.00    -0.278 N 
ATOM      4  HN  UNL d   1       1.894  -1.633  -0.707  1.00  0.00     0.189 HD
ATOM      5  C   UNL d   1       1.091   0.222  -0.103  0.00  0.00     0.129 C 
ATOM      6  C   UNL d   1      -1.045  -0.331  -0.234  0.00  0.00     0.136 C 
ATOM      7  N   UNL d   1       2.211   0.930   0.067  0.00  0.00    -0.384 N 
ATOM      8  H   UNL d   1       3.105   0.454   0.036  0.00  0.00     0.157 HD
ATOM      9  H   UNL d   1       2.204   1.811   0.576  0.00  0.00     0.157 HD
ENDROOT
BRANCH   1  10
ATOM     10  C   UNL d   1      -0.627   1.958   0.786  0.00  0.00     0.146 A 
ATOM     11  N   UNL d   1       0.178   2.874   1.282  0.00  0.00    -0.270 N 
ATOM     12  N   UNL d   1      -0.630   3.812   1.882  0.00  0.00    -0.007 NA
ATOM     13  HN  UNL d   1       1.197   2.887   1.230  1.00  0.00     0.185 HD
ATOM     14  N   UNL d   1      -1.910   3.487   1.751  0.00  0.00    -0.007 NA
ATOM     15  N   UNL d   1      -1.909   2.343   1.056  0.00  0.00    -0.270 N 
ATOM     16  H   UNL d   1      -2.782   1.885   0.839  0.00  0.00     0.185 HD
ENDBRANCH   1  10
BRANCH   2  17
ATOM     17  C   UNL d   1      -0.600  -2.770  -0.535  0.00  0.00     0.077 A 
ATOM     18  C   UNL d   1      -1.808  -3.228  -1.076  0.00  0.00     0.062 A 
ATOM     19 CL   UNL d   1      -2.825  -2.275  -2.102  0.00  0.00    -0.082 Cl
ATOM     20  C   UNL d   1      -2.190  -4.558  -0.875  0.00  0.00     0.026 A 
ATOM     21  C   UNL d   1      -1.385  -5.427  -0.137  0.00  0.00     0.002 A 
ATOM     22  C   UNL d   1      -0.164  -4.985   0.365  0.00  0.00     0.002 A 
ATOM     23  C   UNL d   1       0.239  -3.668   0.149  0.00  0.00     0.033 A 
ENDBRANCH   2  17
TORSDOF 2
