REMARK  4 active torsions:
REMARK  status: ('A' for Active; 'I' for Inactive)
REMARK    1  A    between atoms: C_3  and  C_1 
REMARK       I    between atoms: C_2  and  N_4 
REMARK    2  A    between atoms: O_8  and  C_2 
REMARK    3  A    between atoms: N_4  and  C_3 
REMARK    4  A    between atoms: C_14  and  O_8 
ROOT
ATOM      1  C   UNL d   1      -0.170   0.678  -0.060  0.00  0.00     0.003 A 
ATOM      2  C   UNL d   1      -0.769   0.016  -1.151  0.00  0.00     0.043 A 
ATOM      3  C   UNL d   1       0.364  -0.127   0.965  0.00  0.00     0.043 A 
ATOM      4 CL   UNL d   1       1.133   0.534   2.368  0.00  0.00    -0.084 Cl
ATOM      5 CL   UNL d   1      -1.461   0.881  -2.484  0.00  0.00    -0.084 Cl
ATOM      6  C   UNL d   1      -0.295  -2.154  -0.191  0.00  0.00     0.003 A 
ATOM      7  C   UNL d   1       0.304  -1.526   0.895  0.00  0.00     0.024 A 
ATOM      8  C   UNL d   1      -0.835  -1.381  -1.213  0.00  0.00     0.024 A 
ENDROOT
BRANCH   1   9
ATOM      9  C   UNL d   1      -0.087   2.187  -0.014  0.00  0.00     0.167 C 
BRANCH   9  10
ATOM     10  N   UNL d   1      -1.389   2.803   0.012  0.00  0.00    -0.333 N 
ATOM     11  C   UNL d   1      -1.643   3.977   0.638  0.00  0.00     0.360 C 
ATOM     12  O   UNL d   1      -0.843   4.616   1.308  0.00  0.00    -0.239 OA
ATOM     13  H   UNL d   1      -2.132   2.452  -0.576  0.00  0.00     0.165 HD
BRANCH  11  14
ATOM     14  O   UNL d   1      -2.947   4.288   0.455  0.00  0.00    -0.304 OA
BRANCH  14  15
ATOM     15  C   UNL d   1      -3.482   5.239   1.385  0.00  0.00     0.176 C 
ATOM     16  C   UNL d   1      -3.930   4.479   2.621  0.00  0.00     0.034 C 
ENDBRANCH  14  15
ENDBRANCH  11  14
ENDBRANCH   9  10
ENDBRANCH   1   9
TORSDOF 4
