REMARK  7 active torsions:
REMARK  status: ('A' for Active; 'I' for Inactive)
REMARK    1  A    between atoms: C_8  and  C_1 
REMARK    2  A    between atoms: C_12  and  C_7 
REMARK    3  A    between atoms: N_10  and  C_9 
REMARK       I    between atoms: C_11  and  N_10 
REMARK    4  A    between atoms: C_18  and  C_11 
REMARK    5  A    between atoms: C_13  and  C_19 
REMARK    6  A    between atoms: O_21  and  C_13 
REMARK    7  A    between atoms: C_19  and  C_18 
ROOT
ATOM      1  C   UNL d   1      -0.621  -2.357   0.046  0.00  0.00     0.043 A 
ATOM      2  C   UNL d   1      -1.533  -2.704  -0.974  0.00  0.00     0.049 A 
ATOM      3  C   UNL d   1      -0.201  -3.359   0.943  0.00  0.00     0.018 A 
ATOM      4  C   UNL d   1      -1.951  -4.038  -1.103  0.00  0.00     0.030 A 
ATOM      5  C   UNL d   1      -0.636  -4.678   0.813  0.00  0.00     0.001 A 
ATOM      6  C   UNL d   1      -1.499  -5.020  -0.220  0.00  0.00     0.002 A 
ENDROOT
BRANCH   1   7
ATOM      7  C   UNL d   1      -0.169  -0.986   0.249  0.00  0.00     0.177 A 
ATOM      8  O   UNL d   1       0.949  -0.807   1.022  0.00  0.00    -0.273 OA
ATOM      9  C   UNL d   1       1.089   0.555   1.016  0.00  0.00     0.174 A 
ATOM     10  N   UNL d   1       0.150   1.153   0.310  0.00  0.00    -0.277 N 
ATOM     11  N   UNL d   1      -0.654   0.154  -0.205  0.00  0.00    -0.277 N 
ATOM     12  HN  UNL d   1       0.038   2.158   0.171  1.00  0.00     0.189 HD
ATOM     13  HN  UNL d   1      -1.462   0.274  -0.815  1.00  0.00     0.189 HD
BRANCH   9  14
ATOM     14  C   UNL d   1       2.218   1.110   1.754  0.00  0.00     0.017 A 
ATOM     15  C   UNL d   1       3.192   0.290   2.347  0.00  0.00     0.017 A 
ATOM     16  C   UNL d   1       4.280   0.847   3.029  0.00  0.00     0.025 A 
ATOM     17  C   UNL d   1       4.401   2.231   3.127  0.00  0.00     0.034 A 
ATOM     18  C   UNL d   1       3.442   3.061   2.552  0.00  0.00     0.025 A 
ATOM     19 CL   UNL d   1       5.742   2.916   3.957  0.00  0.00    -0.084 Cl
ATOM     20  C   UNL d   1       2.357   2.502   1.868  0.00  0.00     0.017 A 
ENDBRANCH   9  14
ENDBRANCH   1   7
BRANCH   2  21
ATOM     21  N   UNL d   1      -2.008  -1.731  -1.892  0.00  0.00    -0.326 N 
ATOM     22  C   UNL d   1      -3.329  -1.663  -2.298  0.00  0.00     0.222 C 
ATOM     23  O   UNL d   1      -4.235  -2.391  -1.895  0.00  0.00    -0.273 OA
ATOM     24  H   UNL d   1      -1.488  -0.857  -1.936  0.00  0.00     0.169 HD
BRANCH  22  25
ATOM     25  C   UNL d   1      -3.592  -0.580  -3.323  0.00  0.00     0.113 C 
BRANCH  25  26
ATOM     26  C   UNL d   1      -4.949   0.073  -3.078  0.00  0.00     0.119 C 
BRANCH  26  27
ATOM     27  C   UNL d   1      -5.256   1.106  -4.127  0.00  0.00     0.139 C 
ATOM     28  O   UNL d   1      -4.535   1.393  -5.064  0.00  0.00    -0.650 OA
BRANCH  27  29
ATOM     29  O   UNL d   1      -6.454   1.712  -3.925  0.00  0.00    -0.776 OA
ATOM     30  H   UNL d   1      -6.929   1.378  -3.137  0.00  0.00     0.167 HD
ENDBRANCH  27  29
ENDBRANCH  26  27
ENDBRANCH  25  26
ENDBRANCH  22  25
ENDBRANCH   2  21
TORSDOF 7
