REMARK  5 active torsions:
REMARK  status: ('A' for Active; 'I' for Inactive)
REMARK    1  A    between atoms: N_5  and  C_4 
REMARK    2  A    between atoms: C_8  and  N_5 
REMARK    3  A    between atoms: C_7  and  C_8 
REMARK    4  A    between atoms: O_10  and  C_7 
REMARK    5  A    between atoms: O_11  and  C_7 
ROOT
ATOM      1  C   UNL d   1       1.472   1.405   1.693  0.00  0.00     0.109 A 
ATOM      2  C   UNL d   1       2.417   2.475   1.811  0.00  0.00     0.105 C 
ATOM      3  N   UNL d   1       3.182   3.344   1.878  0.00  0.00    -0.191 NA
ATOM      4  C   UNL d   1       0.236   1.586   1.035  0.00  0.00     0.052 A 
ATOM      5  C   UNL d   1       1.795   0.170   2.265  0.00  0.00     0.139 A 
ATOM      6  F   UNL d   1       2.960   0.004   2.912  0.00  0.00    -0.204 F 
ATOM      7  C   UNL d   1      -0.293  -0.756   1.549  0.00  0.00     0.005 A 
ATOM      8  C   UNL d   1      -0.630   0.479   0.981  0.00  0.00     0.031 A 
ATOM      9  C   UNL d   1       0.920  -0.907   2.204  0.00  0.00     0.044 A 
ENDROOT
BRANCH   4  10
ATOM     10  N   UNL d   1      -0.152   2.856   0.587  0.00  0.00    -0.384 N 
ATOM     11  H   UNL d   1       0.578   3.382   0.104  0.00  0.00     0.159 HD
BRANCH  10  12
ATOM     12  C   UNL d   1      -1.491   3.092   0.035  0.00  0.00     0.180 C 
BRANCH  12  13
ATOM     13  C   UNL d   1      -1.818   4.603  -0.113  0.00  0.00     0.275 C 
BRANCH  13  14
ATOM     14  O   UNL d   1      -1.048   5.173  -1.177  0.00  0.00    -0.364 OA
ATOM     15  C   UNL d   1      -1.141   6.595  -1.182  0.00  0.00     0.204 C 
ENDBRANCH  13  14
BRANCH  13  16
ATOM     16  O   UNL d   1      -3.226   4.811  -0.300  0.00  0.00    -0.364 OA
ATOM     17  C   UNL d   1      -3.735   4.268  -1.511  0.00  0.00     0.204 C 
ENDBRANCH  13  16
ENDBRANCH  12  13
ENDBRANCH  10  12
ENDBRANCH   4  10
TORSDOF 5
