REMARK  3 active torsions:
REMARK  status: ('A' for Active; 'I' for Inactive)
REMARK    1  A    between atoms: C_2  and  C_1 
REMARK    2  A    between atoms: C_3  and  C_2 
REMARK    3  A    between atoms: N_12  and  C_5 
ROOT
ATOM      1  C   UNL d   1       0.963   2.686  -0.386  0.00  0.00     0.015 A 
ATOM      2  C   UNL d   1       0.533   3.810   0.335  0.00  0.00     0.025 A 
ATOM      3  C   UNL d   1       1.224   4.999   0.168  0.00  0.00    -0.022 A 
ATOM      4  C   UNL d   1       2.314   5.076  -0.685  0.00  0.00     0.075 A 
ATOM      5  O   UNL d   1       2.899   6.314  -0.723  0.00  0.00    -0.350 OA
ATOM      6  C   UNL d   1       2.063   2.784  -1.267  0.00  0.00     0.018 A 
ATOM      7  C   UNL d   1       2.756   3.989  -1.409  0.00  0.00     0.038 A 
ATOM      8  C   UNL d   1       1.932   7.165  -0.063  0.00  0.00     0.180 C 
ATOM      9  C   UNL d   1       1.039   6.307   0.836  0.00  0.00     0.068 C 
ENDROOT
BRANCH   1  10
ATOM     10  C   UNL d   1       0.222   1.405  -0.212  0.00  0.00     0.183 C 
ATOM     11  O   UNL d   1      -0.974   1.410   0.052  0.00  0.00    -0.288 OA
BRANCH  10  12
ATOM     12  C   UNL d   1       1.015   0.150  -0.332  0.00  0.00     0.072 C 
ATOM     13  C   UNL d   1       0.413  -1.031  -0.514  0.00  0.00     0.088 C 
BRANCH  13  14
ATOM     14  N   UNL d   1       0.977  -2.292  -0.660  0.00  0.00    -0.398 N 
ATOM     15  C   UNL d   1       2.410  -2.575  -0.601  0.00  0.00     0.148 C 
ATOM     16  C   UNL d   1       0.151  -3.474  -0.920  0.00  0.00     0.148 C 
ENDBRANCH  13  14
ENDBRANCH  10  12
ENDBRANCH   1  10
TORSDOF 3
