REMARK  2 active torsions:
REMARK  status: ('A' for Active; 'I' for Inactive)
REMARK    1  A    between atoms: N_6  and  C_2 
REMARK    2  A    between atoms: C_9  and  N_6 
ROOT
ATOM      1  O   UNL d   1       1.901  -0.855  -0.119  0.00  0.00    -0.291 OA
ATOM      2  C   UNL d   1       0.816  -1.790   0.027  0.00  0.00     0.243 A 
ATOM      3  C   UNL d   1       1.472   0.437  -0.078  0.00  0.00     0.295 A 
ATOM      4  C   UNL d   1      -0.384  -0.920   0.072  0.00  0.00     0.002 A 
ATOM      5  C   UNL d   1       0.021   0.397   0.014  0.00  0.00     0.049 A 
ATOM      6  O   UNL d   1       2.159   1.435  -0.156  0.00  0.00    -0.259 OA
ATOM      7  C   UNL d   1      -0.870   1.456  -0.001  0.00  0.00     0.018 A 
ATOM      8  C   UNL d   1      -1.734  -1.235   0.108  0.00  0.00     0.012 A 
ATOM      9  C   UNL d   1      -2.231   1.153   0.036  0.00  0.00     0.001 A 
ATOM     10  C   UNL d   1      -2.659  -0.185   0.088  0.00  0.00     0.001 A 
ENDROOT
BRANCH   2  11
ATOM     11  N   UNL d   1       0.964  -2.544   1.260  0.00  0.00    -0.262 NA
ATOM     12  H   UNL d   1       0.142  -3.111   1.454  0.00  0.00     0.130 HD
BRANCH  11  13
ATOM     13  C   UNL d   1       2.125  -3.310   1.438  0.00  0.00     0.012 A 
ATOM     14  C   UNL d   1       2.868  -3.866   0.390  0.00  0.00     0.049 A 
ATOM     15  C   UNL d   1       4.008  -4.642   0.642  0.00  0.00     0.057 A 
ATOM     16 CL   UNL d   1       4.859  -5.279  -0.722  0.00  0.00    -0.082 Cl
ATOM     17  C   UNL d   1       4.413  -4.883   1.957  0.00  0.00     0.055 A 
ATOM     18  C   UNL d   1       3.661  -4.367   3.012  0.00  0.00     0.027 A 
ATOM     19 CL   UNL d   1       5.818  -5.810   2.341  0.00  0.00    -0.083 Cl
ATOM     20  C   UNL d   1       2.518  -3.603   2.751  0.00  0.00     0.025 A 
ENDBRANCH  11  13
ENDBRANCH   2  11
TORSDOF 2
