REMARK  6 active torsions:
REMARK  status: ('A' for Active; 'I' for Inactive)
REMARK    1  A    between atoms: N_11  and  S_1 
REMARK    2  A    between atoms: C_13  and  S_1 
REMARK    3  A    between atoms: C_9  and  C_2 
REMARK    4  A    between atoms: C_3  and  C_10 
REMARK    5  A    between atoms: C_12  and  N_11 
REMARK    6  A    between atoms: O_29  and  C_21 
ROOT
ATOM      1  C   UNL d   1       2.264  -2.999   0.317  0.00  0.00     0.039 A 
ATOM      2  C   UNL d   1       0.989  -2.554   0.728  0.00  0.00     0.037 A 
ATOM      3  C   UNL d   1       2.463  -4.373   0.093  0.00  0.00     0.018 A 
ATOM      4  C   UNL d   1      -0.047  -3.478   0.910  0.00  0.00     0.025 A 
ATOM      5  C   UNL d   1       1.423  -5.286   0.266  0.00  0.00     0.001 A 
ATOM      6  C   UNL d   1       0.168  -4.838   0.668  0.00  0.00     0.002 A 
ENDROOT
BRANCH   1   7
ATOM      7  C   UNL d   1       3.365  -2.069   0.124  0.00  0.00     0.176 A 
ATOM      8  O   UNL d   1       4.422  -2.482  -0.645  0.00  0.00    -0.273 OA
ATOM      9  C   UNL d   1       5.227  -1.370  -0.645  0.00  0.00     0.176 A 
ATOM     10  N   UNL d   1       4.711  -0.386   0.065  0.00  0.00    -0.277 N 
ATOM     11  N   UNL d   1       3.497  -0.824   0.532  0.00  0.00    -0.277 N 
ATOM     12  HN  UNL d   1       5.133   0.527   0.235  1.00  0.00     0.189 HD
ATOM     13  HN  UNL d   1       2.828  -0.290   1.086  1.00  0.00     0.189 HD
BRANCH   9  14
ATOM     14  C   UNL d   1       6.479  -1.458  -1.391  0.00  0.00     0.037 A 
ATOM     15  C   UNL d   1       7.179  -0.319  -1.830  0.00  0.00     0.025 A 
ATOM     16  C   UNL d   1       8.408  -0.451  -2.486  0.00  0.00     0.023 A 
ATOM     17 BR   UNL d   1       6.537   1.463  -1.634  0.00  0.00    -0.050 Br
ATOM     18  C   UNL d   1       8.946  -1.714  -2.720  0.00  0.00     0.038 A 
ATOM     19  C   UNL d   1       8.264  -2.861  -2.320  0.00  0.00     0.069 A 
ATOM     20  C   UNL d   1       7.036  -2.731  -1.666  0.00  0.00     0.054 A 
BRANCH  19  21
ATOM     21  O   UNL d   1       8.908  -4.028  -2.617  0.00  0.00    -0.356 OA
ATOM     22  C   UNL d   1       8.283  -5.245  -2.231  0.00  0.00     0.210 C 
ENDBRANCH  19  21
ENDBRANCH   9  14
ENDBRANCH   1   7
BRANCH   2  23
ATOM     23  N   UNL d   1       0.730  -1.165   1.025  0.00  0.00    -0.180 NA
ATOM     24  H   UNL d   1       1.340  -0.514   0.523  0.00  0.00     0.146 HD
BRANCH  23  25
ATOM     25  S   UNL d   1       0.725  -0.778   2.690  0.00  0.00     0.245 S 
ATOM     26  O   UNL d   1       1.822  -1.466   3.335  0.00  0.00    -0.206 OA
ATOM     27  O   UNL d   1      -0.633  -0.904   3.176  0.00  0.00    -0.206 OA
BRANCH  25  28
ATOM     28  C   UNL d   1       1.135   0.959   2.650  0.00  0.00     0.074 A 
ATOM     29  C   UNL d   1       0.116   1.920   2.631  0.00  0.00     0.026 A 
ATOM     30  C   UNL d   1       0.450   3.278   2.631  0.00  0.00     0.025 A 
ATOM     31  C   UNL d   1       1.788   3.667   2.649  0.00  0.00     0.034 A 
ATOM     32  C   UNL d   1       2.804   2.711   2.678  0.00  0.00     0.025 A 
ATOM     33 CL   UNL d   1       2.195   5.341   2.647  0.00  0.00    -0.084 Cl
ATOM     34  C   UNL d   1       2.477   1.353   2.690  0.00  0.00     0.026 A 
ENDBRANCH  25  28
ENDBRANCH  23  25
ENDBRANCH   2  23
TORSDOF 6
