REMARK  6 active torsions:
REMARK  status: ('A' for Active; 'I' for Inactive)
REMARK    1  A    between atoms: S_3  and  N_1 
REMARK    2  A    between atoms: S_4  and  N_1 
REMARK    3  A    between atoms: C_6  and  S_3 
REMARK    4  A    between atoms: C_7  and  S_4 
REMARK    5  A    between atoms: C_5  and  O_11 
REMARK    6  A    between atoms: O_11  and  C_20 
ROOT
ATOM      1  S   UNL d   1       0.159  -0.617   1.239  0.00  0.00     0.269 S 
ATOM      2  O   UNL d   1       0.606   0.201   2.353  0.00  0.00    -0.200 OA
ATOM      3  O   UNL d   1      -1.215  -0.542   0.784  0.00  0.00    -0.200 OA
ENDROOT
BRANCH   1   4
ATOM      4  N   UNL d   1       1.182  -0.332  -0.073  0.00  0.00    -0.236 N 
ATOM      5  HN  UNL d   1       1.935   0.348   0.028  1.00  0.00     0.189 HD
BRANCH   4   6
ATOM      6  S   UNL d   1       1.003  -1.119  -1.517  0.00  0.00     0.061 S 
ATOM      7  O   UNL d   1       0.900  -2.552  -1.376  0.00  0.00    -0.244 OA
ATOM      8  C   UNL d   1      -0.415  -0.440  -2.328  0.00  0.00     0.143 C 
BRANCH   6   9
ATOM      9  C   UNL d   1       2.430  -0.702  -2.443  0.00  0.00     0.039 A 
ATOM     10  C   UNL d   1       3.327  -1.712  -2.796  0.00  0.00     0.023 A 
ATOM     11  C   UNL d   1       4.444  -1.404  -3.573  0.00  0.00     0.025 A 
ATOM     12  C   UNL d   1       4.656  -0.090  -3.989  0.00  0.00     0.034 A 
ATOM     13  C   UNL d   1       3.765   0.921  -3.625  0.00  0.00     0.025 A 
ATOM     14 CL   UNL d   1       6.021   0.285  -4.966  0.00  0.00    -0.084 Cl
ATOM     15  C   UNL d   1       2.645   0.618  -2.845  0.00  0.00     0.023 A 
ENDBRANCH   6   9
ENDBRANCH   4   6
ENDBRANCH   1   4
BRANCH   1  16
ATOM     16  C   UNL d   1       0.520  -2.299   1.680  0.00  0.00     0.080 A 
ATOM     17  C   UNL d   1       1.833  -2.652   2.007  0.00  0.00     0.028 A 
ATOM     18  C   UNL d   1       2.137  -3.981   2.322  0.00  0.00     0.038 A 
ATOM     19  C   UNL d   1       1.140  -4.956   2.286  0.00  0.00     0.078 A 
ATOM     20  C   UNL d   1      -0.180  -4.579   2.009  0.00  0.00     0.038 A 
ATOM     21  C   UNL d   1      -0.497  -3.255   1.701  0.00  0.00     0.028 A 
BRANCH  19  22
ATOM     22  O   UNL d   1       1.307  -6.276   2.573  0.00  0.00    -0.255 OA
BRANCH  22  23
ATOM     23  C   UNL d   1       2.516  -6.928   2.209  0.00  0.00     0.530 C 
ATOM     24  F   UNL d   1       3.402  -6.149   1.555  0.00  0.00    -0.144 F 
ATOM     25  F   UNL d   1       3.108  -7.409   3.325  0.00  0.00    -0.144 F 
ATOM     26  F   UNL d   1       2.218  -7.977   1.409  0.00  0.00    -0.144 F 
ENDBRANCH  22  23
ENDBRANCH  19  22
ENDBRANCH   1  16
TORSDOF 6
