REMARK  2 active torsions:
REMARK  status: ('A' for Active; 'I' for Inactive)
REMARK    1  A    between atoms: C_3  and  C_1 
REMARK    2  A    between atoms: C_13  and  N_2 
ROOT
ATOM      1  C   UNL d   1      -0.157  -1.347  -0.141  0.00  0.00     0.150 C 
ATOM      2  N   UNL d   1      -1.022  -0.401  -0.695  0.00  0.00    -0.224 N 
ATOM      3  N   UNL d   1      -0.334   0.755  -0.852  0.00  0.00     0.001 NA
ATOM      4  N   UNL d   1       0.833   0.571  -0.260  0.00  0.00    -0.007 NA
ATOM      5  N   UNL d   1       0.962  -0.716   0.178  0.00  0.00    -0.269 N 
ATOM      6  HN  UNL d   1       1.768  -1.115   0.659  1.00  0.00     0.185 HD
ENDROOT
BRANCH   1   7
ATOM      7  C   UNL d   1      -0.346  -2.801  -0.079  0.00  0.00     0.033 A 
ATOM      8  C   UNL d   1       0.058  -3.604   1.007  0.00  0.00    -0.034 A 
ATOM      9  C   UNL d   1      -0.116  -5.023   0.925  0.00  0.00    -0.003 A 
ATOM     10  C   UNL d   1       0.698  -3.011   2.240  0.00  0.00     0.050 C 
ATOM     11  C   UNL d   1       0.308  -5.939   1.919  0.00  0.00     0.014 A 
ATOM     12  C   UNL d   1      -0.746  -5.549  -0.227  0.00  0.00     0.042 A 
ATOM     13  C   UNL d   1       0.095  -7.315   1.786  0.00  0.00     0.001 A 
ATOM     14  C   UNL d   1      -0.552  -7.802   0.663  0.00  0.00     0.002 A 
ATOM     15  C   UNL d   1      -0.965  -6.915  -0.329  0.00  0.00     0.030 A 
ATOM     16  N   UNL d   1      -1.136  -4.785  -1.253  0.00  0.00    -0.364 N 
ATOM     17  C   UNL d   1      -0.896  -3.460  -1.178  0.00  0.00     0.104 A 
ATOM     18  HN  UNL d   1      -1.599  -5.192  -2.065  1.00  0.00     0.165 HD
ENDBRANCH   1   7
BRANCH   2  19
ATOM     19  C   UNL d   1      -2.382  -0.494  -1.093  0.00  0.00     0.056 A 
ATOM     20  C   UNL d   1      -3.253  -1.418  -0.500  0.00  0.00     0.033 A 
ATOM     21  C   UNL d   1      -4.574  -1.521  -0.951  0.00  0.00     0.026 A 
ATOM     22  C   UNL d   1      -5.025  -0.702  -1.984  0.00  0.00     0.034 A 
ATOM     23  C   UNL d   1      -4.173   0.239  -2.559  0.00  0.00     0.026 A 
ATOM     24 CL   UNL d   1      -6.643  -0.851  -2.547  0.00  0.00    -0.084 Cl
ATOM     25  C   UNL d   1      -2.856   0.356  -2.106  0.00  0.00     0.033 A 
ENDBRANCH   2  19
TORSDOF 2
