REMARK  7 active torsions:
REMARK  status: ('A' for Active; 'I' for Inactive)
REMARK    1  A    between atoms: N_3  and  C_1 
REMARK    2  A    between atoms: N_9  and  C_2 
REMARK    3  A    between atoms: C_14  and  N_9 
REMARK    4  A    between atoms: S_10  and  C_11 
REMARK    5  A    between atoms: C_15  and  S_10 
REMARK    6  A    between atoms: C_12  and  C_14 
REMARK    7  A    between atoms: C_16  and  C_13 
ROOT
ATOM      1  C   UNL d   1       0.065   1.200   2.175  0.00  0.00     0.146 C 
ATOM      2  C   UNL d   1       0.452   2.362   1.589  0.00  0.00     0.128 C 
ATOM      3  C   UNL d   1      -0.728   1.243   3.378  0.00  0.00     0.120 C 
ATOM      4  C   UNL d   1       0.089   3.632   2.161  0.00  0.00     0.114 C 
ATOM      5  N   UNL d   1      -0.177   4.663   2.622  0.00  0.00    -0.190 NA
ATOM      6  N   UNL d   1      -1.409   1.234   4.321  0.00  0.00    -0.190 NA
ENDROOT
BRANCH   1   7
ATOM      7  N   UNL d   1       0.453  -0.022   1.633  0.00  0.00    -0.355 N 
ATOM      8  C   UNL d   1      -0.391  -1.005   1.691  0.00  0.00     0.100 C 
ATOM      9  HN  UNL d   1       1.371  -0.141   1.205  1.00  0.00     0.166 HD
BRANCH   8  10
ATOM     10  C   UNL d   1      -0.058  -2.345   1.161  0.00  0.00    -0.021 A 
ATOM     11  C   UNL d   1       1.166  -2.574   0.525  0.00  0.00     0.014 A 
ATOM     12  C   UNL d   1       1.460  -3.843   0.021  0.00  0.00     0.024 A 
ATOM     13  C   UNL d   1       0.532  -4.875   0.156  0.00  0.00     0.034 A 
ATOM     14  C   UNL d   1      -0.687  -4.652   0.797  0.00  0.00     0.024 A 
ATOM     15 CL   UNL d   1       0.892  -6.435  -0.475  0.00  0.00    -0.084 Cl
ATOM     16  C   UNL d   1      -0.986  -3.383   1.302  0.00  0.00     0.014 A 
ENDBRANCH   8  10
ENDBRANCH   1   7
BRANCH   2  17
ATOM     17  N   UNL d   1       1.155   2.468   0.376  0.00  0.00    -0.277 NA
ATOM     18  H   UNL d   1       0.812   3.259  -0.166  0.00  0.00     0.128 HD
BRANCH  17  19
ATOM     19  C   UNL d   1       2.617   2.470   0.315  0.00  0.00     0.133 C 
BRANCH  19  20
ATOM     20  C   UNL d   1       3.195   3.873   0.405  0.00  0.00    -0.028 A 
ATOM     21  C   UNL d   1       2.971   4.876  -0.567  0.00  0.00     0.013 A 
ATOM     22  C   UNL d   1       3.608   6.124  -0.439  0.00  0.00     0.019 A 
ATOM     23  C   UNL d   1       4.445   6.396   0.641  0.00  0.00     0.001 A 
ATOM     24  C   UNL d   1       4.668   5.418   1.601  0.00  0.00     0.001 A 
ATOM     25  C   UNL d   1       4.050   4.170   1.486  0.00  0.00     0.010 A 
BRANCH  21  26
ATOM     26  S   UNL d   1       1.992   4.627  -2.045  0.00  0.00    -0.090 SA
BRANCH  26  27
ATOM     27  C   UNL d   1       0.353   5.205  -1.624  0.00  0.00     0.005 A 
ATOM     28  C   UNL d   1       0.072   6.106  -0.591  0.00  0.00     0.020 A 
ATOM     29  C   UNL d   1      -1.250   6.462  -0.296  0.00  0.00     0.025 A 
ATOM     30  C   UNL d   1      -2.298   5.927  -1.038  0.00  0.00     0.034 A 
ATOM     31  C   UNL d   1      -2.036   5.044  -2.080  0.00  0.00     0.025 A 
ATOM     32 CL   UNL d   1      -3.922   6.350  -0.662  0.00  0.00    -0.084 Cl
ATOM     33  C   UNL d   1      -0.716   4.687  -2.371  0.00  0.00     0.020 A 
ENDBRANCH  26  27
ENDBRANCH  21  26
ENDBRANCH  19  20
ENDBRANCH  17  19
ENDBRANCH   2  17
TORSDOF 7
