REMARK  5 active torsions:
REMARK  status: ('A' for Active; 'I' for Inactive)
REMARK    1  A    between atoms: C_6  and  C_1 
REMARK    2  A    between atoms: C_7  and  C_2 
REMARK    3  A    between atoms: C_10  and  N_3 
REMARK    4  A    between atoms: S_9  and  C_7 
REMARK    5  A    between atoms: C_17  and  S_9 
ROOT
ATOM      1  C   UNL d   1       0.809  -0.534  -0.453  0.00  0.00     0.156 C 
ATOM      2  C   UNL d   1      -0.299  -1.115   0.159  0.00  0.00     0.072 C 
ATOM      3  N   UNL d   1       0.711   0.821  -0.198  0.00  0.00    -0.251 N 
ATOM      4  N   UNL d   1      -0.555   1.150   0.164  0.00  0.00    -0.303 N 
ATOM      5  HN  UNL d   1      -0.982   2.077   0.180  1.00  0.00     0.186 HD
ATOM      6  C   UNL d   1      -1.112  -0.012   0.494  0.00  0.00     0.126 C 
ENDROOT
BRANCH   2   7
ATOM      7  C   UNL d   1      -0.608  -2.528   0.317  0.00  0.00     0.227 C 
ATOM      8  O   UNL d   1      -0.461  -3.352  -0.572  0.00  0.00    -0.279 OA
BRANCH   7   9
ATOM      9  S   UNL d   1      -1.200  -2.902   1.928  0.00  0.00    -0.048 SA
BRANCH   9  10
ATOM     10  C   UNL d   1      -1.043  -4.661   2.164  0.00  0.00     0.008 A 
ATOM     11  C   UNL d   1      -0.135  -5.486   1.490  0.00  0.00     0.021 A 
ATOM     12  C   UNL d   1      -0.066  -6.857   1.774  0.00  0.00     0.025 A 
ATOM     13  C   UNL d   1      -0.887  -7.410   2.753  0.00  0.00     0.034 A 
ATOM     14  C   UNL d   1      -1.776  -6.604   3.454  0.00  0.00     0.025 A 
ATOM     15 CL   UNL d   1      -0.793  -9.090   3.104  0.00  0.00    -0.084 Cl
ATOM     16  C   UNL d   1      -1.852  -5.238   3.158  0.00  0.00     0.021 A 
ENDBRANCH   9  10
ENDBRANCH   7   9
ENDBRANCH   2   7
BRANCH   1  17
ATOM     17  C   UNL d   1       1.872  -1.086  -1.311  0.00  0.00     0.435 C 
ATOM     18  F   UNL d   1       1.725  -2.411  -1.546  0.00  0.00    -0.165 F 
ATOM     19  F   UNL d   1       1.888  -0.479  -2.523  0.00  0.00    -0.165 F 
ATOM     20  F   UNL d   1       3.112  -0.949  -0.784  0.00  0.00    -0.165 F 
ENDBRANCH   1  17
BRANCH   3  21
ATOM     21  C   UNL d   1       1.714   1.825  -0.096  0.00  0.00     0.057 A 
ATOM     22  C   UNL d   1       1.377   3.160  -0.370  0.00  0.00     0.033 A 
ATOM     23  C   UNL d   1       2.312   4.179  -0.161  0.00  0.00     0.026 A 
ATOM     24  C   UNL d   1       3.569   3.871   0.353  0.00  0.00     0.034 A 
ATOM     25  C   UNL d   1       3.904   2.552   0.651  0.00  0.00     0.026 A 
ATOM     26 CL   UNL d   1       4.701   5.128   0.662  0.00  0.00    -0.084 Cl
ATOM     27  C   UNL d   1       2.978   1.527   0.428  0.00  0.00     0.033 A 
ENDBRANCH   3  21
TORSDOF 5
