REMARK  5 active torsions:
REMARK  status: ('A' for Active; 'I' for Inactive)
REMARK    1  A    between atoms: C_4  and  C_1 
REMARK    2  A    between atoms: S_5  and  C_2 
REMARK       I    between atoms: C_3  and  N_6 
REMARK       I    between atoms: N_7  and  C_3 
REMARK    3  A    between atoms: N_6  and  C_4 
REMARK    4  A    between atoms: C_10  and  S_5 
REMARK    5  A    between atoms: C_13  and  N_7 
ROOT
ATOM      1  C   UNL d   1       0.185   1.070   0.089  0.00  0.00    -0.002 A 
ATOM      2  C   UNL d   1       1.595   1.089  -0.087  0.00  0.00     0.015 A 
ATOM      3  C   UNL d   1      -0.448  -0.195   0.067  0.00  0.00     0.043 A 
ATOM      4 CL   UNL d   1      -2.171  -0.399   0.084  0.00  0.00    -0.084 Cl
ATOM      5  C   UNL d   1       2.317  -0.117  -0.165  0.00  0.00     0.019 A 
ATOM      6  C   UNL d   1       1.673  -1.346  -0.112  0.00  0.00     0.003 A 
ATOM      7  C   UNL d   1       0.291  -1.383  -0.009  0.00  0.00     0.024 A 
ENDROOT
BRANCH   1   8
ATOM      8  C   UNL d   1      -0.579   2.377   0.178  0.00  0.00     0.166 C 
BRANCH   8   9
ATOM      9  N   UNL d   1      -1.786   2.367   0.976  0.00  0.00    -0.339 N 
ATOM     10  C   UNL d   1      -2.511   3.543   1.046  0.00  0.00     0.320 C 
ATOM     11  N   UNL d   1      -3.845   3.296   1.302  0.00  0.00    -0.309 N 
ATOM     12  O   UNL d   1      -1.998   4.629   0.819  0.00  0.00    -0.247 OA
ATOM     13  H   UNL d   1      -4.138   2.333   1.265  0.00  0.00     0.170 HD
ATOM     14  H   UNL d   1      -2.314   1.511   0.978  0.00  0.00     0.164 HD
BRANCH  11  15
ATOM     15  C   UNL d   1      -4.871   4.262   1.217  0.00  0.00     0.036 A 
ATOM     16  C   UNL d   1      -6.164   3.811   0.924  0.00  0.00     0.029 A 
ATOM     17  C   UNL d   1      -7.199   4.725   0.709  0.00  0.00     0.002 A 
ATOM     18  C   UNL d   1      -6.958   6.092   0.824  0.00  0.00     0.000 A 
ATOM     19  C   UNL d   1      -5.687   6.544   1.171  0.00  0.00     0.002 A 
ATOM     20  C   UNL d   1      -4.647   5.631   1.367  0.00  0.00     0.029 A 
ENDBRANCH  11  15
ENDBRANCH   8   9
ENDBRANCH   1   8
BRANCH   2  21
ATOM     21  S   UNL d   1       2.619   2.561  -0.140  0.00  0.00    -0.090 SA
BRANCH  21  22
ATOM     22  C   UNL d   1       2.195   3.443  -1.633  0.00  0.00     0.005 A 
ATOM     23  C   UNL d   1       1.357   2.963  -2.646  0.00  0.00     0.020 A 
ATOM     24  C   UNL d   1       1.024   3.774  -3.740  0.00  0.00     0.025 A 
ATOM     25  C   UNL d   1       1.556   5.058  -3.845  0.00  0.00     0.034 A 
ATOM     26  C   UNL d   1       2.431   5.532  -2.875  0.00  0.00     0.025 A 
ATOM     27 CL   UNL d   1       1.126   6.060  -5.175  0.00  0.00    -0.084 Cl
ATOM     28  C   UNL d   1       2.746   4.727  -1.776  0.00  0.00     0.020 A 
ENDBRANCH  21  22
ENDBRANCH   2  21
TORSDOF 5
