REMARK  4 active torsions:
REMARK  status: ('A' for Active; 'I' for Inactive)
REMARK    1  A    between atoms: C_6  and  C_1 
REMARK    2  A    between atoms: C_5  and  C_4 
REMARK    3  A    between atoms: O_12  and  C_6 
REMARK    4  A    between atoms: C_16  and  O_12 
ROOT
ATOM      1  C   UNL d   1       1.804   1.020   0.193  0.00  0.00     0.112 A 
ATOM      2  N   UNL d   1       2.175  -0.684   0.807  0.00  0.00    -0.368 N 
ATOM      3  HN  UNL d   1       2.945  -0.890   1.444  1.00  0.00     0.161 HD
ATOM      4  C   UNL d   1       1.165  -1.828   0.240  0.00  0.00     0.180 A 
ATOM      5  S   UNL d   1      -0.459  -0.936  -1.336  0.00  0.00    -0.111 SA
ATOM      6  C   UNL d   1       0.486   1.128  -0.939  0.00  0.00     0.082 A 
ENDROOT
BRANCH   1   7
ATOM      7  C   UNL d   1       2.650   2.140   0.578  0.00  0.00     0.315 C 
ATOM      8  O   UNL d   1       3.492   2.096   1.466  0.00  0.00    -0.257 OA
BRANCH   7   9
ATOM      9  O   UNL d   1       2.412   3.233  -0.256  0.00  0.00    -0.274 OA
BRANCH   9  10
ATOM     10  C   UNL d   1       3.105   4.433  -0.033  0.00  0.00     0.079 A 
ATOM     11  C   UNL d   1       3.622   5.083  -1.155  0.00  0.00     0.039 A 
ATOM     12  C   UNL d   1       4.203   6.342  -1.007  0.00  0.00     0.026 A 
ATOM     13  C   UNL d   1       4.254   6.937   0.255  0.00  0.00     0.034 A 
ATOM     14  C   UNL d   1       3.742   6.277   1.374  0.00  0.00     0.026 A 
ATOM     15 CL   UNL d   1       4.930   8.509   0.431  0.00  0.00    -0.084 Cl
ATOM     16  C   UNL d   1       3.157   5.020   1.230  0.00  0.00     0.039 A 
ENDBRANCH   9  10
ENDBRANCH   7   9
ENDBRANCH   1   7
BRANCH   4  17
ATOM     17  C   UNL d   1       0.707  -3.085   0.435  0.00  0.00     0.186 C 
ATOM     18  O   UNL d   1       1.066  -3.354  -1.012  0.00  0.00    -0.338 OA
ATOM     19  C   UNL d   1       1.861  -2.327  -1.695  0.00  0.00     0.102 A 
ATOM     20  C   UNL d   1       2.688  -2.758  -2.712  0.00  0.00     0.039 A 
ATOM     21  C   UNL d   1       1.774  -0.766  -1.270  0.00  0.00     0.102 A 
ATOM     22  C   UNL d   1       3.448  -1.789  -3.375  0.00  0.00     0.003 A 
ATOM     23  C   UNL d   1       3.364  -0.404  -3.084  0.00  0.00     0.003 A 
ATOM     24  C   UNL d   1       2.542   0.138  -2.076  0.00  0.00     0.039 A 
ATOM     25  O   UNL d   1       0.506  -0.294   0.214  0.00  0.00    -0.346 OA
ATOM     26  C   UNL d   1      -0.155  -1.765   1.053  0.00  0.00     0.211 C 
ENDBRANCH   4  17
TORSDOF 4
