REMARK  8 active torsions:
REMARK  status: ('A' for Active; 'I' for Inactive)
REMARK    1  A    between atoms: C_11  and  C_1 
REMARK    2  A    between atoms: S_2  and  N_7 
REMARK    3  A    between atoms: C_8  and  S_2 
REMARK    4  A    between atoms: N_7  and  C_3 
REMARK    5  A    between atoms: C_19  and  C_5 
REMARK    6  A    between atoms: C_9  and  C_12 
REMARK    7  A    between atoms: C_10  and  C_13 
REMARK       I    between atoms: N_29  and  C_11 
REMARK    8  A    between atoms: O_33  and  C_30 
ROOT
ATOM      1  N   UNL d   1       2.533   1.607   0.043  0.00  0.00    -0.279 N 
ATOM      2  H   UNL d   1       3.209   1.339   0.760  0.00  0.00     0.179 HD
ENDROOT
BRANCH   1   3
ATOM      3  S   UNL d   1       3.372   2.115  -1.339  0.00  0.00     0.263 S 
ATOM      4  O   UNL d   1       2.461   2.881  -2.159  0.00  0.00    -0.200 OA
ATOM      5  O   UNL d   1       4.607   2.692  -0.852  0.00  0.00    -0.200 OA
BRANCH   3   6
ATOM      6  C   UNL d   1       3.814   0.625  -2.226  0.00  0.00     0.081 A 
ATOM      7  C   UNL d   1       3.004   0.175  -3.275  0.00  0.00     0.041 A 
ATOM      8  C   UNL d   1       3.438  -0.876  -4.104  0.00  0.00     0.050 A 
ATOM      9  C   UNL d   1       4.691  -1.467  -3.859  0.00  0.00     0.032 A 
ATOM     10  C   UNL d   1       5.521  -1.013  -2.822  0.00  0.00     0.050 A 
ATOM     11  C   UNL d   1       5.070   0.037  -2.002  0.00  0.00     0.041 A 
BRANCH   8  12
ATOM     12  C   UNL d   1       2.615  -1.343  -5.285  0.00  0.00     0.417 C 
ATOM     13  F   UNL d   1       1.435  -0.685  -5.424  0.00  0.00    -0.166 F 
ATOM     14  F   UNL d   1       3.278  -1.188  -6.464  0.00  0.00    -0.166 F 
ATOM     15  F   UNL d   1       2.305  -2.666  -5.201  0.00  0.00    -0.166 F 
ENDBRANCH   8  12
BRANCH  10  16
ATOM     16  C   UNL d   1       6.894  -1.631  -2.643  0.00  0.00     0.417 C 
ATOM     17  F   UNL d   1       7.620  -1.060  -1.644  0.00  0.00    -0.166 F 
ATOM     18  F   UNL d   1       6.825  -2.957  -2.348  0.00  0.00    -0.166 F 
ATOM     19  F   UNL d   1       7.654  -1.533  -3.768  0.00  0.00    -0.166 F 
ENDBRANCH  10  16
ENDBRANCH   3   6
ENDBRANCH   1   3
BRANCH   1  20
ATOM     20  C   UNL d   1       1.358   0.835  -0.036  0.00  0.00     0.066 A 
ATOM     21  C   UNL d   1       0.042   1.278  -0.062  0.00  0.00     0.100 A 
ATOM     22  S   UNL d   1      -1.047  -0.055  -0.121  0.00  0.00    -0.082 SA
ATOM     23  C   UNL d   1       0.201  -1.212  -0.002  0.00  0.00     0.018 A 
ATOM     24  C   UNL d   1       1.433  -0.591   0.041  0.00  0.00     0.051 A 
BRANCH  21  25
ATOM     25  C   UNL d   1      -0.557   2.604   0.001  0.00  0.00     0.258 C 
ATOM     26  O   UNL d   1      -1.768   2.836   0.033  0.00  0.00    -0.267 OA
ATOM     27  N   UNL d   1       0.290   3.673   0.045  0.00  0.00    -0.365 N 
ATOM     28  H   UNL d   1       1.262   3.577  -0.221  0.00  0.00     0.159 HD
ATOM     29  H   UNL d   1      -0.134   4.586  -0.029  0.00  0.00     0.159 HD
ENDBRANCH  21  25
BRANCH  23  30
ATOM     30  C   UNL d   1      -0.100  -2.651   0.014  0.00  0.00    -0.019 A 
ATOM     31  C   UNL d   1       0.747  -3.547  -0.656  0.00  0.00     0.015 A 
ATOM     32  C   UNL d   1       0.487  -4.922  -0.659  0.00  0.00     0.037 A 
ATOM     33  C   UNL d   1      -0.626  -5.428   0.008  0.00  0.00     0.068 A 
ATOM     34  C   UNL d   1      -1.470  -4.546   0.684  0.00  0.00     0.037 A 
ATOM     35  C   UNL d   1      -1.210  -3.172   0.692  0.00  0.00     0.015 A 
BRANCH  33  36
ATOM     36  O   UNL d   1      -0.997  -6.741   0.073  0.00  0.00    -0.356 OA
ATOM     37  C   UNL d   1      -0.159  -7.678  -0.592  0.00  0.00     0.210 C 
ENDBRANCH  33  36
ENDBRANCH  23  30
ENDBRANCH   1  20
TORSDOF 8
