REMARK  0 active torsions:
REMARK  status: ('A' for Active; 'I' for Inactive)
ROOT
ATOM      1  C   UNL d   1      -0.391  -1.255  -0.002  0.00  0.00     0.093 A 
ATOM      2  C   UNL d   1       1.024   0.756  -0.003  0.00  0.00     0.093 A 
ATOM      3  S   UNL d   1       1.281  -0.926  -0.003  0.00  0.00    -0.067 SA
ATOM      4  C   UNL d   1      -0.324   1.091  -0.000  0.00  0.00    -0.026 A 
ATOM      5  C   UNL d   1      -1.163  -0.099  -0.000  0.00  0.00    -0.026 A 
ATOM      6  C   UNL d   1      -0.889  -2.598  -0.004  0.00  0.00     0.107 C 
ATOM      7  C   UNL d   1       2.111   1.687  -0.005  0.00  0.00     0.107 C 
ATOM      8  N   UNL d   1      -1.300  -3.683  -0.006  0.00  0.00    -0.191 NA
ATOM      9  N   UNL d   1       2.979   2.458  -0.006  0.00  0.00    -0.191 NA
ATOM     10  C   UNL d   1      -2.665  -0.114   0.001  0.00  0.00     0.051 C 
ATOM     11  C   UNL d   1      -0.809   2.513   0.002  0.00  0.00     0.051 C 
ENDROOT
TORSDOF 0
