REMARK  6 active torsions:
REMARK  status: ('A' for Active; 'I' for Inactive)
REMARK    1  A    between atoms: C_6  and  C_1 
REMARK    2  A    between atoms: C_5  and  C_4 
REMARK    3  A    between atoms: N_20  and  C_6 
REMARK    4  A    between atoms: O_16  and  N_9 
REMARK    5  A    between atoms: C_12  and  C_13 
REMARK    6  A    between atoms: C_13  and  O_16 
ROOT
ATOM      1  C   UNL d   1       1.235   0.828  -0.028  0.00  0.00     0.080 A 
ATOM      2  N   UNL d   1       1.393  -0.560  -0.052  0.00  0.00    -0.347 N 
ATOM      3  HN  UNL d   1       2.294  -1.036  -0.109  1.00  0.00     0.167 HD
ATOM      4  C   UNL d   1       0.226  -1.174   0.009  0.00  0.00     0.087 A 
ATOM      5  S   UNL d   1      -1.135  -0.115   0.014  0.00  0.00    -0.081 SA
ATOM      6  C   UNL d   1      -0.090   1.232   0.027  0.00  0.00     0.084 A 
ENDROOT
BRANCH   1   7
ATOM      7  C   UNL d   1       2.361   1.766  -0.104  0.00  0.00     0.126 C 
ATOM      8  N   UNL d   1       3.565   1.569   0.344  0.00  0.00    -0.244 N 
ATOM      9  HN  UNL d   1       4.323   2.242   0.228  1.00  0.00     0.196 HD
BRANCH   8  10
ATOM     10  O   UNL d   1       3.720   0.336   1.003  0.00  0.00    -0.198 OA
BRANCH  10  11
ATOM     11  C   UNL d   1       4.998   0.227   1.488  0.00  0.00     0.285 C 
ATOM     12  O   UNL d   1       5.900   1.054   1.403  0.00  0.00    -0.263 OA
BRANCH  11  13
ATOM     13  C   UNL d   1       5.201  -1.084   2.168  0.00  0.00     0.087 A 
ATOM     14  C   UNL d   1       6.103  -1.191   3.377  0.00  0.00     0.015 A 
ATOM     15  C   UNL d   1       6.537  -1.787   2.069  0.00  0.00     0.015 A 
ENDBRANCH  11  13
ENDBRANCH  10  11
ENDBRANCH   8  10
BRANCH   7  16
ATOM     16  N   UNL d   1       2.059   2.945  -0.736  0.00  0.00    -0.285 NA
ATOM     17  H   UNL d   1       1.412   2.876  -1.512  0.00  0.00     0.125 HD
ATOM     18  H   UNL d   1       2.905   3.449  -0.987  0.00  0.00     0.125 HD
ENDBRANCH   7  16
ENDBRANCH   1   7
BRANCH   4  19
ATOM     19  C   UNL d   1       0.048  -2.635  -0.020  0.00  0.00     0.036 A 
ATOM     20  C   UNL d   1      -1.024  -3.288   0.610  0.00  0.00     0.132 A 
ATOM     21  C   UNL d   1      -1.186  -4.670   0.537  0.00  0.00     0.085 A 
ATOM     22  F   UNL d   1      -1.928  -2.602   1.324  0.00  0.00    -0.205 F 
ATOM     23  C   UNL d   1      -0.257  -5.423  -0.161  0.00  0.00     0.119 A 
ATOM     24  C   UNL d   1       0.832  -4.819  -0.778  0.00  0.00     0.043 A 
ATOM     25  F   UNL d   1      -0.410  -6.750  -0.241  0.00  0.00    -0.206 F 
ATOM     26  C   UNL d   1       0.988  -3.430  -0.703  0.00  0.00     0.020 A 
ENDBRANCH   4  19
TORSDOF 6
