REMARK  3 active torsions:
REMARK  status: ('A' for Active; 'I' for Inactive)
REMARK       I    between atoms: C_4  and  N_8 
REMARK    1  A    between atoms: C_10  and  C_4 
REMARK    2  A    between atoms: N_8  and  C_5 
REMARK    3  A    between atoms: C_9  and  C_10 
ROOT
ATOM      1  C   UNL d   1       3.692   4.107   1.137  0.00  0.00     0.222 C 
ATOM      2  N   UNL d   1       2.865   3.248   1.823  0.00  0.00    -0.356 N 
ATOM      3  O   UNL d   1       3.388   4.623   0.069  0.00  0.00    -0.273 OA
ATOM      4  H   UNL d   1       3.215   2.843   2.682  0.00  0.00     0.162 HD
ENDROOT
BRANCH   2   5
ATOM      5  C   UNL d   1       1.482   2.953   1.461  0.00  0.00     0.088 C 
ATOM      6  C   UNL d   1       1.349   1.948   0.290  0.00  0.00     0.061 C 
ATOM      7  C   UNL d   1       1.037   0.496   0.721  0.00  0.00     0.225 C 
ATOM      8  N   UNL d   1       1.632   0.178   2.013  0.00  0.00     0.093 N 
ATOM      9  C   UNL d   1      -0.451   0.275   1.070  0.00  0.00     0.038 C 
ATOM     10  C   UNL d   1       0.848   0.958   2.969  0.00  0.00     0.225 C 
ATOM     11  C   UNL d   1       3.071   0.141   2.081  0.00  0.00     0.310 C 
ATOM     12  C   UNL d   1       0.757   2.484   2.723  0.00  0.00     0.061 C 
ATOM     13  C   UNL d   1      -0.506   0.341   2.603  0.00  0.00     0.038 C 
ENDBRANCH   2   5
BRANCH   1  14
ATOM     14  C   UNL d   1       5.070   4.283   1.767  0.00  0.00     0.144 C 
BRANCH  14  15
ATOM     15  C   UNL d   1       5.085   4.511   3.264  0.00  0.00    -0.011 A 
ATOM     16  C   UNL d   1       4.208   5.418   3.870  0.00  0.00     0.123 A 
ATOM     17  F   UNL d   1       3.313   6.084   3.129  0.00  0.00    -0.206 F 
ATOM     18  C   UNL d   1       4.231   5.647   5.244  0.00  0.00     0.043 A 
ATOM     19  C   UNL d   1       5.160   4.982   6.040  0.00  0.00     0.003 A 
ATOM     20  C   UNL d   1       6.060   4.092   5.455  0.00  0.00     0.001 A 
ATOM     21  C   UNL d   1       6.026   3.858   4.076  0.00  0.00     0.011 A 
ENDBRANCH  14  15
ENDBRANCH   1  14
TORSDOF 3
