REMARK  7 active torsions:
REMARK  status: ('A' for Active; 'I' for Inactive)
REMARK    1  A    between atoms: S_12  and  C_3 
REMARK    2  A    between atoms: O_20  and  C_4 
REMARK    3  A    between atoms: C_7  and  N_10 
REMARK    4  A    between atoms: C_9  and  C_19 
REMARK       I    between atoms: N_10  and  C_9 
REMARK    5  A    between atoms: C_23  and  C_11 
REMARK    6  A    between atoms: C_19  and  S_12 
REMARK    7  A    between atoms: C_24  and  C_23 
ROOT
ATOM      1  S   UNL d   1       2.086  -2.410   1.228  0.00  0.00    -0.085 SA
ENDROOT
BRANCH   1   2
ATOM      2  C   UNL d   1       1.305  -0.938   0.591  0.00  0.00     0.146 A 
ATOM      3  N   UNL d   1       0.125  -0.595   1.120  0.00  0.00    -0.318 N 
ATOM      4  C   UNL d   1      -0.385   0.546   0.646  0.00  0.00     0.143 A 
ATOM      5  HN  UNL d   1      -0.347  -1.159   1.827  1.00  0.00     0.170 HD
ATOM      6  C   UNL d   1       0.189   1.357  -0.295  0.00  0.00     0.081 A 
ATOM      7  C   UNL d   1       1.395   0.916  -0.785  0.00  0.00     0.015 A 
ATOM      8  N   UNL d   1       1.960  -0.229  -0.350  0.00  0.00    -0.340 N 
ATOM      9  HN  UNL d   1       2.855  -0.548  -0.720  1.00  0.00     0.167 HD
BRANCH   4  10
ATOM     10  O   UNL d   1      -1.577   0.896   1.199  0.00  0.00    -0.346 OA
ATOM     11  H   UNL d   1      -1.716   0.157   1.820  0.00  0.00     0.219 HD
ENDBRANCH   4  10
BRANCH   7  12
ATOM     12  C   UNL d   1       2.172   1.725  -1.794  0.00  0.00     0.057 C 
BRANCH  12  13
ATOM     13  C   UNL d   1       2.368   1.016  -3.137  0.00  0.00     0.002 C 
ATOM     14  C   UNL d   1       1.067   0.799  -3.896  0.00  0.00     0.005 C 
ENDBRANCH  12  13
ENDBRANCH   7  12
ENDBRANCH   1   2
BRANCH   1  15
ATOM     15  C   UNL d   1       3.580  -2.369   0.210  0.00  0.00     0.185 C 
BRANCH  15  16
ATOM     16  C   UNL d   1       4.639  -3.404   0.528  0.00  0.00     0.231 C 
ATOM     17  N   UNL d   1       4.409  -4.263   1.583  0.00  0.00    -0.326 N 
ATOM     18  H   UNL d   1       3.473  -4.236   1.981  0.00  0.00     0.169 HD
ATOM     19  O   UNL d   1       5.640  -3.436  -0.189  0.00  0.00    -0.272 OA
BRANCH  17  20
ATOM     20  C   UNL d   1       5.275  -5.301   2.001  0.00  0.00     0.037 A 
ATOM     21  C   UNL d   1       6.619  -5.377   1.623  0.00  0.00     0.053 A 
ATOM     22  C   UNL d   1       7.399  -6.479   1.977  0.00  0.00     0.037 A 
ATOM     23 CL   UNL d   1       9.040  -6.564   1.468  0.00  0.00    -0.084 Cl
ATOM     24  C   UNL d   1       6.856  -7.517   2.724  0.00  0.00     0.048 A 
ATOM     25  C   UNL d   1       5.534  -7.421   3.148  0.00  0.00     0.037 A 
ATOM     26  C   UNL d   1       4.745  -6.315   2.805  0.00  0.00     0.053 A 
ATOM     27 CL   UNL d   1       4.849  -8.697   4.077  0.00  0.00    -0.084 Cl
ENDBRANCH  17  20
ENDBRANCH  15  16
ENDBRANCH   1  15
TORSDOF 7
