REMARK  3 active torsions:
REMARK  status: ('A' for Active; 'I' for Inactive)
REMARK    1  A    between atoms: N_2  and  C_1 
REMARK    2  A    between atoms: O_17  and  C_1 
REMARK       I    between atoms: C_9  and  N_2 
REMARK    3  A    between atoms: C_13  and  C_9 
ROOT
ATOM      1  N   UNL d   1      -4.579   0.123  -0.784  0.00  0.00    -0.312 N 
ATOM      2  C   UNL d   1      -3.898  -0.977  -1.236  0.00  0.00     0.255 C 
ATOM      3  O   UNL d   1      -3.256  -0.952  -2.278  0.00  0.00    -0.268 OA
ATOM      4  H   UNL d   1      -5.171   0.088   0.030  0.00  0.00     0.166 HD
ENDROOT
BRANCH   2   5
ATOM      5  C   UNL d   1      -3.939  -2.186  -0.357  0.00  0.00     0.044 A 
ATOM      6  C   UNL d   1      -3.964  -3.496  -0.837  0.00  0.00     0.005 A 
ATOM      7  C   UNL d   1      -3.874  -4.547   0.107  0.00  0.00     0.027 A 
ATOM      8  C   UNL d   1      -4.132  -4.104  -2.156  0.00  0.00    -0.010 A 
ATOM      9  C   UNL d   1      -3.945  -5.834  -0.607  0.00  0.00     0.194 A 
ATOM     10  C   UNL d   1      -3.791  -4.376   1.478  0.00  0.00     0.016 A 
ATOM     11  O   UNL d   1      -3.883  -6.944  -0.112  0.00  0.00    -0.287 OA
ATOM     12  C   UNL d   1      -4.133  -5.509  -2.026  0.00  0.00     0.026 A 
ATOM     13  C   UNL d   1      -4.343  -6.391  -3.073  0.00  0.00     0.016 A 
ATOM     14  C   UNL d   1      -4.559  -5.838  -4.330  0.00  0.00     0.001 A 
ATOM     15  C   UNL d   1      -4.554  -4.443  -4.501  0.00  0.00     0.001 A 
ATOM     16  C   UNL d   1      -4.347  -3.573  -3.417  0.00  0.00     0.013 A 
ATOM     17  C   UNL d   1      -3.819  -3.072   1.950  0.00  0.00     0.002 A 
ATOM     18  C   UNL d   1      -3.883  -1.992   1.048  0.00  0.00     0.018 A 
ENDBRANCH   2   5
BRANCH   1  19
ATOM     19  C   UNL d   1      -4.626   1.361  -1.503  0.00  0.00     0.269 C 
ATOM     20  C   UNL d   1      -3.277   2.071  -1.769  0.00  0.00     0.224 C 
ATOM     21  C   UNL d   1      -3.312   2.601  -3.136  0.00  0.00     0.029 A 
ATOM     22  O   UNL d   1      -2.396   2.324  -0.965  0.00  0.00    -0.286 OA
ATOM     23  C   UNL d   1      -2.414   3.471  -3.732  0.00  0.00     0.016 A 
ATOM     24  C   UNL d   1      -4.484   2.212  -3.778  0.00  0.00     0.029 A 
ATOM     25  C   UNL d   1      -2.728   3.962  -5.003  0.00  0.00     0.001 A 
ATOM     26  C   UNL d   1      -3.919   3.578  -5.649  0.00  0.00     0.001 A 
ATOM     27  C   UNL d   1      -4.809   2.687  -5.038  0.00  0.00     0.016 A 
ATOM     28  C   UNL d   1      -5.290   1.355  -2.900  0.00  0.00     0.224 C 
ATOM     29  O   UNL d   1      -6.324   0.814  -3.252  0.00  0.00    -0.286 OA
BRANCH  19  30
ATOM     30  O   UNL d   1      -5.406   2.181  -0.635  0.00  0.00    -0.358 OA
ATOM     31  H   UNL d   1      -4.920   3.012  -0.489  0.00  0.00     0.213 HD
ENDBRANCH  19  30
ENDBRANCH   1  19
TORSDOF 3
