REMARK  6 active torsions:
REMARK  status: ('A' for Active; 'I' for Inactive)
REMARK    1  A    between atoms: C_2  and  N_1 
REMARK    2  A    between atoms: O_4  and  C_3 
REMARK    3  A    between atoms: C_9  and  O_4 
REMARK    4  A    between atoms: O_10  and  C_11 
REMARK    5  A    between atoms: C_12  and  O_10 
REMARK    6  A    between atoms: C_18  and  C_12 
ROOT
ATOM      1  C   UNL d   1      -0.554   2.087  -0.467  0.00  0.00     0.078 A 
ATOM      2  C   UNL d   1       0.590   3.667   1.543  0.00  0.00     0.069 A 
ATOM      3  C   UNL d   1       0.759   2.548  -0.596  0.00  0.00     0.040 A 
ATOM      4  C   UNL d   1      -1.311   2.462   0.643  0.00  0.00     0.040 A 
ATOM      5  C   UNL d   1       1.337   3.307   0.421  0.00  0.00     0.039 A 
ATOM      6  C   UNL d   1      -0.736   3.241   1.653  0.00  0.00     0.039 A 
ENDROOT
BRANCH   1   7
ATOM      7  O   UNL d   1      -1.179   1.303  -1.411  0.00  0.00    -0.291 OA
BRANCH   7   8
ATOM      8  C   UNL d   1      -0.446   0.269  -1.979  0.00  0.00     0.181 A 
ATOM      9  C   UNL d   1      -0.835  -0.263  -3.196  0.00  0.00     0.154 A 
ATOM     10  C   UNL d   1      -0.091  -1.293  -3.778  0.00  0.00     0.042 A 
ATOM     11  C   UNL d   1       1.034  -1.763  -3.107  0.00  0.00     0.020 A 
ATOM     12  C   UNL d   1       1.341  -1.211  -1.877  0.00  0.00     0.090 A 
ATOM     13  N   UNL d   1       0.618  -0.226  -1.297  0.00  0.00    -0.345 N 
ATOM     14  HN  UNL d   1       0.865   0.134  -0.375  1.00  0.00     0.167 HD
BRANCH   9  15
ATOM     15  N   UNL d   1      -2.007   0.225  -3.872  0.00  0.00    -0.111 N 
ATOM     16  O   UNL d   1      -2.072   1.438  -4.111  0.00  0.00    -0.532 OA
ATOM     17  O   UNL d   1      -2.848  -0.620  -4.209  0.00  0.00    -0.532 OA
ENDBRANCH   9  15
ENDBRANCH   7   8
ENDBRANCH   1   7
BRANCH   2  18
ATOM     18  O   UNL d   1       1.263   4.424   2.461  0.00  0.00    -0.347 OA
BRANCH  18  19
ATOM     19  C   UNL d   1       0.449   5.203   3.335  0.00  0.00     0.214 C 
BRANCH  19  20
ATOM     20  C   UNL d   1       1.290   6.303   3.933  0.00  0.00    -0.034 A 
ATOM     21  C   UNL d   1       1.076   7.638   3.564  0.00  0.00     0.009 A 
ATOM     22  C   UNL d   1       1.833   8.662   4.134  0.00  0.00     0.001 A 
ATOM     23  C   UNL d   1       2.818   8.360   5.071  0.00  0.00     0.000 A 
ATOM     24  C   UNL d   1       3.055   7.034   5.432  0.00  0.00     0.001 A 
ATOM     25  C   UNL d   1       2.297   6.008   4.863  0.00  0.00     0.009 A 
ENDBRANCH  19  20
ENDBRANCH  18  19
ENDBRANCH   2  18
TORSDOF 6
