REMARK  3 active torsions:
REMARK  status: ('A' for Active; 'I' for Inactive)
REMARK    1  A    between atoms: C_3  and  N_1 
REMARK    2  A    between atoms: C_2  and  C_5 
REMARK       I    between atoms: N_4  and  C_2 
REMARK    3  A    between atoms: N_8  and  N_4 
REMARK       I    between atoms: C_9  and  N_8 
ROOT
ATOM      1  C   UNL d   1       0.222   0.742  -1.042  0.00  0.00     0.103 A 
ATOM      2  C   UNL d   1      -0.215   1.715  -3.227  0.00  0.00     0.036 A 
ATOM      3  C   UNL d   1       0.506   0.826  -2.413  0.00  0.00     0.053 A 
ATOM      4  C   UNL d   1      -0.780   1.535  -0.472  0.00  0.00     0.036 A 
ATOM      5  C   UNL d   1      -1.208   2.520  -2.646  0.00  0.00     0.017 A 
ATOM      6  C   UNL d   1      -1.488   2.426  -1.277  0.00  0.00     0.003 A 
ENDROOT
BRANCH   2   7
ATOM      7  C   UNL d   1       0.091   1.722  -4.691  0.00  0.00     0.270 C 
ATOM      8  N   UNL d   1      -0.593   2.611  -5.493  0.00  0.00    -0.263 N 
ATOM      9  H   UNL d   1      -1.211   3.350  -5.173  0.00  0.00     0.190 HD
ATOM     10  O   UNL d   1       0.918   0.935  -5.156  0.00  0.00    -0.266 OA
BRANCH   8  11
ATOM     11  N   UNL d   1      -0.349   2.583  -6.872  0.00  0.00    -0.268 N 
ATOM     12  C   UNL d   1      -0.619   3.722  -7.599  0.00  0.00     0.232 C 
ATOM     13  O   UNL d   1      -1.092   4.739  -7.098  0.00  0.00    -0.272 OA
ATOM     14  C   UNL d   1      -0.307   3.606  -9.066  0.00  0.00     0.119 C 
ATOM     15  H   UNL d   1       0.273   1.847  -7.204  0.00  0.00     0.190 HD
ENDBRANCH   8  11
ENDBRANCH   2   7
BRANCH   1  16
ATOM     16  N   UNL d   1       0.981  -0.188  -0.195  0.00  0.00    -0.116 N 
ATOM     17  O   UNL d   1       1.895  -0.835  -0.721  0.00  0.00    -0.532 OA
ATOM     18  O   UNL d   1       0.661  -0.266   1.001  0.00  0.00    -0.532 OA
ENDBRANCH   1  16
TORSDOF 3
