REMARK  3 active torsions:
REMARK  status: ('A' for Active; 'I' for Inactive)
REMARK    1  A    between atoms: N_2  and  C_1 
REMARK    2  A    between atoms: C_14  and  C_6 
REMARK    3  A    between atoms: C_16  and  C_7 
ROOT
ATOM      1  C   UNL d   1       1.371   0.785   0.012  0.00  0.00     0.134 A 
ATOM      2  N   UNL d   1       1.445  -0.589   0.107  0.00  0.00    -0.334 N 
ATOM      3  HN  UNL d   1       2.306  -1.119   0.240  1.00  0.00     0.168 HD
ATOM      4  C   UNL d   1       0.092   1.331  -0.015  0.00  0.00     0.062 A 
ATOM      5  C   UNL d   1       0.244  -1.118   0.003  0.00  0.00     0.086 A 
ATOM      6  S   UNL d   1      -1.039   0.029  -0.041  0.00  0.00    -0.067 SA
ENDROOT
BRANCH   1   7
ATOM      7  N   UNL d   1       2.559   1.509   0.023  0.00  0.00    -0.259 N 
ATOM      8  C   UNL d   1       3.160   1.859  -1.177  0.00  0.00     0.333 A 
ATOM      9  N   UNL d   1       4.312   2.612  -1.040  0.00  0.00    -0.299 N 
ATOM     10  O   UNL d   1       2.734   1.610  -2.300  0.00  0.00    -0.246 OA
ATOM     11  C   UNL d   1       4.882   3.010   0.142  0.00  0.00     0.105 A 
ATOM     12  H   UNL d   1       4.745   2.900  -1.905  0.00  0.00     0.171 HD
ATOM     13  C   UNL d   1       4.181   2.573   1.372  0.00  0.00     0.059 A 
ATOM     14  S   UNL d   1       6.278   3.929   0.123  0.00  0.00    -0.060 SA
ATOM     15  C   UNL d   1       3.064   1.843   1.253  0.00  0.00     0.106 A 
ENDBRANCH   1   7
BRANCH   4  16
ATOM     16  C   UNL d   1      -0.353   2.737  -0.013  0.00  0.00    -0.015 A 
ATOM     17  C   UNL d   1       0.363   3.709  -0.729  0.00  0.00     0.013 A 
ATOM     18  C   UNL d   1       0.062   5.068  -0.624  0.00  0.00     0.001 A 
ATOM     19  C   UNL d   1      -1.004   5.480   0.163  0.00  0.00     0.000 A 
ATOM     20  C   UNL d   1      -1.774   4.530   0.831  0.00  0.00     0.001 A 
ATOM     21  C   UNL d   1      -1.447   3.170   0.751  0.00  0.00     0.013 A 
ENDBRANCH   4  16
BRANCH   5  22
ATOM     22  C   UNL d   1       0.001  -2.570  -0.041  0.00  0.00    -0.002 A 
ATOM     23  C   UNL d   1       0.927  -3.436   0.567  0.00  0.00     0.014 A 
ATOM     24  C   UNL d   1       0.771  -4.823   0.501  0.00  0.00     0.001 A 
ATOM     25  C   UNL d   1      -0.312  -5.369  -0.181  0.00  0.00     0.000 A 
ATOM     26  C   UNL d   1      -1.241  -4.529  -0.791  0.00  0.00     0.001 A 
ATOM     27  C   UNL d   1      -1.087  -3.140  -0.720  0.00  0.00     0.014 A 
ENDBRANCH   5  22
TORSDOF 3
