REMARK  5 active torsions:
REMARK  status: ('A' for Active; 'I' for Inactive)
REMARK    1  A    between atoms: C_4  and  C_1 
REMARK    2  A    between atoms: N_5  and  C_2 
REMARK    3  A    between atoms: C_3  and  N_5 
REMARK    4  A    between atoms: O_8  and  C_3 
REMARK    5  A    between atoms: O_9  and  C_4 
ROOT
ATOM      1  C   UNL d   1       1.449  -0.171   0.252  0.00  0.00     0.066 A 
ATOM      2  C   UNL d   1       0.600  -1.243  -0.097  0.00  0.00     0.051 A 
ATOM      3  C   UNL d   1       0.915   1.134   0.326  0.00  0.00     0.020 A 
ATOM      4  C   UNL d   1      -0.765  -0.977  -0.298  0.00  0.00     0.030 A 
ATOM      5  C   UNL d   1      -0.438   1.377   0.099  0.00  0.00     0.001 A 
ATOM      6  C   UNL d   1      -1.281   0.317  -0.204  0.00  0.00     0.002 A 
ENDROOT
BRANCH   2   7
ATOM      7  N   UNL d   1       1.069  -2.578  -0.146  0.00  0.00    -0.327 N 
ATOM      8  H   UNL d   1       1.919  -2.769   0.380  0.00  0.00     0.169 HD
BRANCH   7   9
ATOM      9  C   UNL d   1       0.543  -3.674  -0.780  0.00  0.00     0.214 C 
ATOM     10  S   UNL d   1      -0.350  -3.727  -2.190  0.00  0.00    -0.033 SA
BRANCH   9  11
ATOM     11  O   UNL d   1       0.979  -4.805  -0.163  0.00  0.00    -0.332 OA
ATOM     12  C   UNL d   1       0.215  -6.027  -0.243  0.00  0.00     0.212 C 
ENDBRANCH   9  11
ENDBRANCH   7   9
ENDBRANCH   2   7
BRANCH   1  13
ATOM     13  C   UNL d   1       2.913  -0.263   0.527  0.00  0.00     0.295 C 
ATOM     14  O   UNL d   1       3.638   0.719   0.637  0.00  0.00    -0.259 OA
BRANCH  13  15
ATOM     15  O   UNL d   1       3.329  -1.549   0.686  0.00  0.00    -0.322 OA
ATOM     16  C   UNL d   1       4.728  -1.671   0.967  0.00  0.00     0.213 C 
ENDBRANCH  13  15
ENDBRANCH   1  13
TORSDOF 5
