REMARK  3 active torsions:
REMARK  status: ('A' for Active; 'I' for Inactive)
REMARK    1  A    between atoms: C_8  and  C_2 
REMARK    2  A    between atoms: C_7  and  C_9 
REMARK    3  A    between atoms: O_15  and  C_7 
ROOT
ATOM      1  C   UNL d   1       2.456  -1.664  -0.012  0.00  0.00    -0.008 A 
ATOM      2  C   UNL d   1       4.736  -3.322  -0.120  0.00  0.00     0.037 A 
ATOM      3  C   UNL d   1       2.608  -2.611  -1.038  0.00  0.00     0.015 A 
ATOM      4  C   UNL d   1       3.452  -1.573   0.970  0.00  0.00     0.015 A 
ATOM      5  C   UNL d   1       4.582  -2.396   0.917  0.00  0.00     0.019 A 
ATOM      6  C   UNL d   1       3.736  -3.440  -1.093  0.00  0.00     0.019 A 
ENDROOT
BRANCH   1   7
ATOM      7  C   UNL d   1       1.264  -0.825   0.028  0.00  0.00     0.063 A 
ATOM      8  N   UNL d   1       0.065  -1.252  -0.533  0.00  0.00    -0.292 N 
ATOM      9  N   UNL d   1      -0.897  -0.355  -0.388  0.00  0.00    -0.061 NA
ATOM     10  HN  UNL d   1      -0.059  -2.149  -1.002  1.00  0.00     0.183 HD
ATOM     11  S   UNL d   1      -0.385   1.025   0.404  0.00  0.00    -0.010 SA
ATOM     12  C   UNL d   1       1.217   0.439   0.591  0.00  0.00     0.096 A 
ENDBRANCH   1   7
BRANCH   2  13
ATOM     13  C   UNL d   1       5.944  -4.186  -0.105  0.00  0.00     0.176 C 
ATOM     14  O   UNL d   1       6.526  -4.484   0.925  0.00  0.00    -0.646 OA
BRANCH  13  15
ATOM     15  O   UNL d   1       6.369  -4.570  -1.326  0.00  0.00    -0.773 OA
ATOM     16  H   UNL d   1       5.937  -4.126  -2.078  0.00  0.00     0.167 HD
ENDBRANCH  13  15
ENDBRANCH   2  13
TORSDOF 3
