REMARK  2 active torsions:
REMARK  status: ('A' for Active; 'I' for Inactive)
REMARK    1  A    between atoms: N_8  and  C_1 
REMARK       I    between atoms: C_9  and  N_8 
REMARK    2  A    between atoms: C_11  and  C_9 
ROOT
ATOM      1  C   UNL d   1       2.325  -0.654  -0.401  0.00  0.00     0.155 C 
ATOM      2  S   UNL d   1       2.242   1.059  -0.624  0.00  0.00    -0.011 SA
ATOM      3  C   UNL d   1      -0.344   0.343  -0.153  0.00  0.00     0.051 A 
ATOM      4  C   UNL d   1       0.728   1.279   0.194  0.00  0.00     0.229 C 
ATOM      5  N   UNL d   1       1.311  -1.454  -0.419  0.00  0.00    -0.334 N 
ATOM      6  HN  UNL d   1       1.464  -2.459  -0.338  1.00  0.00     0.168 HD
ATOM      7  C   UNL d   1      -0.008  -0.957  -0.549  0.00  0.00     0.066 A 
ATOM      8  C   UNL d   1      -1.060  -1.785  -0.978  0.00  0.00     0.040 A 
ATOM      9  C   UNL d   1      -2.390  -1.339  -0.970  0.00  0.00     0.040 A 
ATOM     10  C   UNL d   1      -1.670   0.792  -0.103  0.00  0.00     0.037 A 
ATOM     11  O   UNL d   1       0.523   2.224   0.942  0.00  0.00    -0.279 OA
ATOM     12  C   UNL d   1      -2.687  -0.058  -0.512  0.00  0.00     0.013 A 
ATOM     13 BR   UNL d   1      -0.729  -3.550  -1.603  0.00  0.00    -0.049 Br
ATOM     14 BR   UNL d   1      -4.480   0.534  -0.450  0.00  0.00    -0.051 Br
ENDROOT
BRANCH   1  15
ATOM     15  N   UNL d   1       3.554  -1.243  -0.179  0.00  0.00    -0.303 N 
ATOM     16  C   UNL d   1       4.832  -0.686  -0.112  0.00  0.00     0.258 C 
ATOM     17  O   UNL d   1       5.104   0.487  -0.330  0.00  0.00    -0.267 OA
ATOM     18  H   UNL d   1       3.458  -2.227   0.023  0.00  0.00     0.171 HD
BRANCH  16  19
ATOM     19  C   UNL d   1       5.947  -1.629   0.203  0.00  0.00     0.038 A 
ATOM     20  C   UNL d   1       7.067  -1.220   0.961  0.00  0.00    -0.046 A 
ATOM     21  C   UNL d   1       7.187   0.112   1.653  0.00  0.00     0.049 C 
ATOM     22  C   UNL d   1       8.166  -2.093   1.068  0.00  0.00     0.007 A 
ATOM     23  C   UNL d   1       8.140  -3.358   0.484  0.00  0.00     0.001 A 
ATOM     24  C   UNL d   1       7.014  -3.777  -0.215  0.00  0.00     0.001 A 
ATOM     25  C   UNL d   1       5.927  -2.915  -0.367  0.00  0.00     0.017 A 
ENDBRANCH  16  19
ENDBRANCH   1  15
TORSDOF 2
