REMARK  6 active torsions:
REMARK  status: ('A' for Active; 'I' for Inactive)
REMARK    1  A    between atoms: C_2  and  C_1 
REMARK       I    between atoms: N_3  and  C_2 
REMARK       I    between atoms: C_4  and  N_3 
REMARK       I    between atoms: N_9  and  C_4 
REMARK    2  A    between atoms: O_18  and  C_5 
REMARK    3  A    between atoms: O_19  and  C_6 
REMARK    4  A    between atoms: C_10  and  N_9 
REMARK    5  A    between atoms: C_24  and  C_14 
REMARK    6  A    between atoms: C_23  and  C_15 
ROOT
ATOM      1  C   UNL d   1       0.904  -3.701   1.706  0.00  0.00     0.265 C 
ATOM      2  N   UNL d   1      -0.072  -4.678   1.894  0.00  0.00    -0.275 N 
ATOM      3  C   UNL d   1      -1.149  -4.927   1.073  0.00  0.00     0.327 C 
ATOM      4  N   UNL d   1      -2.013  -3.871   0.842  0.00  0.00    -0.308 N 
ATOM      5  O   UNL d   1       0.649  -2.625   1.181  0.00  0.00    -0.267 OA
ATOM      6  O   UNL d   1      -1.298  -6.077   0.670  0.00  0.00    -0.247 OA
ATOM      7  H   UNL d   1       0.325  -5.582   2.135  0.00  0.00     0.173 HD
ATOM      8  H   UNL d   1      -2.002  -3.184   1.588  0.00  0.00     0.170 HD
ENDROOT
BRANCH   1   9
ATOM      9  C   UNL d   1       2.272  -3.986   2.333  0.00  0.00     0.102 C 
ATOM     10  C   UNL d   1       3.195  -2.938   2.563  0.00  0.00     0.104 C 
ATOM     11  C   UNL d   1       4.329  -3.149   3.378  0.00  0.00     0.047 C 
ATOM     12 BR   UNL d   1       5.512  -1.747   3.883  0.00  0.00    -0.048 Br
ATOM     13  C   UNL d   1       4.599  -4.407   3.905  0.00  0.00     0.048 C 
ATOM     14  C   UNL d   1       3.764  -5.472   3.597  0.00  0.00     0.069 C 
ATOM     15  C   UNL d   1       2.640  -5.283   2.768  0.00  0.00     0.108 C 
ATOM     16 CL   UNL d   1       4.129  -6.993   4.336  0.00  0.00    -0.081 Cl
BRANCH  10  17
ATOM     17  O   UNL d   1       2.973  -1.689   2.043  0.00  0.00    -0.353 OA
ATOM     18  C   UNL d   1       3.878  -1.387   0.970  0.00  0.00     0.210 C 
ENDBRANCH  10  17
BRANCH  15  19
ATOM     19  O   UNL d   1       1.858  -6.355   2.399  0.00  0.00    -0.353 OA
ATOM     20  C   UNL d   1       2.568  -7.300   1.581  0.00  0.00     0.210 C 
ENDBRANCH  15  19
ENDBRANCH   1   9
BRANCH   4  21
ATOM     21  C   UNL d   1      -3.213  -4.043   0.099  0.00  0.00     0.049 C 
ATOM     22  C   UNL d   1      -4.462  -3.612   0.630  0.00  0.00    -0.031 C 
ATOM     23  C   UNL d   1      -5.649  -4.048   0.008  0.00  0.00     0.009 C 
ATOM     24  C   UNL d   1      -5.627  -4.825  -1.149  0.00  0.00     0.001 C 
ATOM     25  C   UNL d   1      -4.406  -5.109  -1.748  0.00  0.00     0.009 C 
ATOM     26  C   UNL d   1      -3.192  -4.687  -1.162  0.00  0.00    -0.031 C 
BRANCH  22  27
ATOM     27  C   UNL d   1      -4.574  -2.726   1.857  0.00  0.00     0.036 C 
ATOM     28  C   UNL d   1      -5.811  -1.819   1.891  0.00  0.00     0.010 C 
ENDBRANCH  22  27
BRANCH  26  29
ATOM     29  C   UNL d   1      -1.924  -4.876  -1.968  0.00  0.00     0.036 C 
ATOM     30  C   UNL d   1      -1.987  -4.201  -3.337  0.00  0.00     0.010 C 
ENDBRANCH  26  29
ENDBRANCH   4  21
TORSDOF 6
