REMARK  6 active torsions:
REMARK  status: ('A' for Active; 'I' for Inactive)
REMARK    1  A    between atoms: C_10  and  C_1 
REMARK    2  A    between atoms: N_9  and  C_2 
REMARK    3  A    between atoms: C_8  and  N_9 
REMARK    4  A    between atoms: O_19  and  C_10 
REMARK    5  A    between atoms: C_17  and  C_11 
REMARK    6  A    between atoms: C_24  and  O_19 
ROOT
ATOM      1  C   UNL d   1       4.439  -3.012  -0.054  0.00  0.00     0.071 C 
ATOM      2  C   UNL d   1       5.823  -2.503  -0.280  0.00  0.00     0.173 C 
ATOM      3  C   UNL d   1       3.451  -2.109   0.047  0.00  0.00     0.107 C 
ATOM      4  C   UNL d   1       6.670  -3.310  -1.267  0.00  0.00     0.094 C 
ATOM      5  C   UNL d   1       4.152  -4.463  -0.179  0.00  0.00     0.164 C 
ATOM      6  C   UNL d   1       6.464  -4.821  -1.064  0.00  0.00     0.025 C 
ATOM      7  O   UNL d   1       6.188  -1.445   0.228  0.00  0.00    -0.291 OA
ATOM      8  C   UNL d   1       4.998  -5.221  -1.173  0.00  0.00     0.085 C 
ATOM      9  O   UNL d   1       3.259  -5.011   0.461  0.00  0.00    -0.292 OA
ENDROOT
BRANCH   3  10
ATOM     10  N   UNL d   1       2.084  -2.286   0.061  0.00  0.00    -0.358 N 
ATOM     11  H   UNL d   1       1.735  -2.637   0.958  0.00  0.00     0.166 HD
BRANCH  10  12
ATOM     12  C   UNL d   1       1.254  -2.450  -1.019  0.00  0.00     0.091 A 
ATOM     13  C   UNL d   1      -0.125  -2.681  -0.992  0.00  0.00     0.080 A 
ATOM     14  C   UNL d   1      -0.679  -2.785  -2.345  0.00  0.00    -0.030 A 
ATOM     15  C   UNL d   1       0.298  -2.594  -3.309  0.00  0.00    -0.012 A 
ATOM     16  C   UNL d   1      -2.119  -3.017  -2.700  0.00  0.00     0.050 C 
ATOM     17  C   UNL d   1       0.160  -2.560  -4.797  0.00  0.00     0.057 C 
ATOM     18  S   UNL d   1       1.836  -2.353  -2.632  0.00  0.00    -0.076 SA
BRANCH  13  19
ATOM     19  C   UNL d   1      -0.918  -2.732   0.251  0.00  0.00     0.296 C 
ATOM     20  O   UNL d   1      -2.141  -2.811   0.275  0.00  0.00    -0.259 OA
BRANCH  19  21
ATOM     21  O   UNL d   1      -0.163  -2.594   1.385  0.00  0.00    -0.318 OA
BRANCH  21  22
ATOM     22  C   UNL d   1      -0.885  -2.240   2.572  0.00  0.00     0.174 C 
ATOM     23  C   UNL d   1      -1.054  -0.731   2.605  0.00  0.00     0.034 C 
ENDBRANCH  21  22
ENDBRANCH  19  21
ENDBRANCH  13  19
ENDBRANCH  10  12
ENDBRANCH   3  10
BRANCH   4  24
ATOM     24  C   UNL d   1       8.150  -2.967  -1.241  0.00  0.00    -0.046 A 
ATOM     25  C   UNL d   1       8.937  -3.176  -0.097  0.00  0.00     0.008 A 
ATOM     26  C   UNL d   1      10.309  -2.906  -0.117  0.00  0.00     0.001 A 
ATOM     27  C   UNL d   1      10.908  -2.418  -1.276  0.00  0.00     0.000 A 
ATOM     28  C   UNL d   1      10.139  -2.192  -2.414  0.00  0.00     0.001 A 
ATOM     29  C   UNL d   1       8.769  -2.465  -2.397  0.00  0.00     0.008 A 
ENDBRANCH   4  24
TORSDOF 6
