REMARK  3 active torsions:
REMARK  status: ('A' for Active; 'I' for Inactive)
REMARK    1  A    between atoms: C_7  and  C_3 
REMARK    2  A    between atoms: C_8  and  C_7 
REMARK    3  A    between atoms: N_10  and  C_9 
ROOT
ATOM      1  C   UNL d   1       2.081  -0.030  -0.322  0.00  0.00     0.231 A 
ATOM      2  N   UNL d   1       1.313   1.121  -0.219  0.00  0.00    -0.326 N 
ATOM      3  C   UNL d   1       1.145  -1.241  -0.106  0.00  0.00     0.117 A 
ATOM      4  C   UNL d   1      -0.022   0.826  -0.023  0.00  0.00     0.042 A 
ATOM      5  C   UNL d   1      -0.199  -0.556   0.034  0.00  0.00    -0.018 A 
ATOM      6  O   UNL d   1       3.277  -0.046  -0.562  0.00  0.00    -0.272 OA
ATOM      7  C   UNL d   1      -1.465  -1.091   0.197  0.00  0.00     0.010 A 
ATOM      8  C   UNL d   1      -1.066   1.719   0.092  0.00  0.00     0.030 A 
ATOM      9  C   UNL d   1      -2.543  -0.205   0.309  0.00  0.00     0.001 A 
ATOM     10  C   UNL d   1      -2.345   1.188   0.263  0.00  0.00     0.002 A 
ATOM     11  H   UNL d   1       1.705   2.045  -0.332  0.00  0.00     0.169 HD
ENDROOT
BRANCH   3  12
ATOM     12  C   UNL d   1       1.506  -2.023   1.160  0.00  0.00     0.057 C 
BRANCH  12  13
ATOM     13  C   UNL d   1       2.862  -2.688   1.157  0.00  0.00    -0.057 A 
ATOM     14  C   UNL d   1       3.799  -2.373   2.150  0.00  0.00     0.009 A 
ATOM     15  C   UNL d   1       5.036  -3.025   2.199  0.00  0.00     0.024 A 
ATOM     16  C   UNL d   1       5.381  -3.975   1.237  0.00  0.00     0.005 A 
ATOM     17  C   UNL d   1       4.431  -4.319   0.273  0.00  0.00     0.024 A 
ATOM     18  C   UNL d   1       3.191  -3.671   0.217  0.00  0.00     0.009 A 
BRANCH  16  19
ATOM     19  N   UNL d   1       6.550  -4.734   1.383  0.00  0.00    -0.303 NA
ATOM     20  H   UNL d   1       6.867  -5.160   0.519  0.00  0.00     0.124 HD
ATOM     21  H   UNL d   1       7.295  -4.237   1.862  0.00  0.00     0.124 HD
ENDBRANCH  16  19
ENDBRANCH  12  13
ENDBRANCH   3  12
TORSDOF 3
