REMARK  3 active torsions:
REMARK  status: ('A' for Active; 'I' for Inactive)
REMARK    1  A    between atoms: C_10  and  C_6 
REMARK    2  A    between atoms: S_9  and  C_10 
REMARK    3  A    between atoms: C_11  and  S_9 
ROOT
ATOM      1  N   UNL d   1       0.359   0.939  -0.276  0.00  0.00    -0.275 N 
ATOM      2  C   UNL d   1       0.877   0.156  -1.266  0.00  0.00     0.327 A 
ATOM      3  C   UNL d   1      -0.287   0.475   0.833  0.00  0.00     0.251 A 
ATOM      4  C   UNL d   1      -0.416  -0.992   0.945  0.00  0.00     0.100 A 
ATOM      5  N   UNL d   1       0.708  -1.191  -1.104  0.00  0.00    -0.311 N 
ATOM      6  C   UNL d   1       0.089  -1.774  -0.020  0.00  0.00     0.028 A 
ATOM      7  O   UNL d   1       1.455   0.626  -2.239  0.00  0.00    -0.247 OA
ATOM      8  O   UNL d   1      -0.746   1.213   1.698  0.00  0.00    -0.268 OA
ATOM      9  H   UNL d   1       0.470   1.936  -0.371  0.00  0.00     0.173 HD
ATOM     10  H   UNL d   1       1.127  -1.774  -1.822  0.00  0.00     0.170 HD
ENDROOT
BRANCH   6  11
ATOM     11  C   UNL d   1      -0.001  -3.283   0.013  0.00  0.00     0.136 C 
BRANCH  11  12
ATOM     12  S   UNL d   1       1.680  -3.993   0.072  0.00  0.00    -0.124 SA
BRANCH  12  13
ATOM     13  C   UNL d   1       1.417  -5.759  -0.026  0.00  0.00     0.001 A 
ATOM     14  C   UNL d   1       0.175  -6.399  -0.005  0.00  0.00     0.019 A 
ATOM     15  C   UNL d   1       0.091  -7.796  -0.085  0.00  0.00     0.008 A 
ATOM     16  C   UNL d   1       1.246  -8.579  -0.185  0.00  0.00    -0.062 A 
ATOM     17  C   UNL d   1       2.489  -7.944  -0.200  0.00  0.00     0.008 A 
ATOM     18  C   UNL d   1       1.144 -10.073  -0.280  0.00  0.00     0.048 C 
ATOM     19  C   UNL d   1       2.570  -6.551  -0.121  0.00  0.00     0.019 A 
ENDBRANCH  12  13
ENDBRANCH  11  12
ENDBRANCH   6  11
TORSDOF 3
