REMARK  3 active torsions:
REMARK  status: ('A' for Active; 'I' for Inactive)
REMARK    1  A    between atoms: C_10  and  C_6 
REMARK    2  A    between atoms: S_16  and  C_7 
REMARK    3  A    between atoms: O_19  and  C_10 
ROOT
ATOM      1  S   UNL d   1      -0.821  -2.141   0.326  0.00  0.00     0.267 S 
ATOM      2  C   UNL d   1      -1.600  -0.612   0.117  0.00  0.00     0.116 A 
ATOM      3  C   UNL d   1      -0.809   0.587  -0.008  0.00  0.00     0.032 A 
ATOM      4  N   UNL d   1       0.739  -1.949  -0.295  0.00  0.00    -0.275 N 
ATOM      5  C   UNL d   1       0.708   0.512   0.009  0.00  0.00     0.045 A 
ATOM      6  C   UNL d   1      -1.615   1.712  -0.122  0.00  0.00     0.092 A 
ATOM      7  C   UNL d   1      -2.956  -0.387   0.111  0.00  0.00     0.066 A 
ATOM      8  C   UNL d   1       1.375  -0.699  -0.145  0.00  0.00     0.063 A 
ATOM      9  S   UNL d   1      -3.285   1.278  -0.058  0.00  0.00    -0.074 SA
ATOM     10  O   UNL d   1      -0.746  -2.302   1.758  0.00  0.00    -0.200 OA
ATOM     11  O   UNL d   1      -1.546  -3.051  -0.535  0.00  0.00    -0.200 OA
ATOM     12  S   UNL d   1       1.798   1.802   0.227  0.00  0.00    -0.099 SA
ATOM     13  C   UNL d   1       2.793  -0.522  -0.156  0.00  0.00     0.039 A 
ATOM     14  C   UNL d   1       3.158   0.789   0.049  0.00  0.00     0.053 A 
ATOM     15  C   UNL d   1       1.361  -3.098  -0.959  0.00  0.00     0.170 C 
ENDROOT
BRANCH   6  16
ATOM     16  C   UNL d   1      -1.298   3.112  -0.359  0.00  0.00     0.184 C 
ATOM     17  O   UNL d   1      -0.353   3.546  -1.000  0.00  0.00    -0.646 OA
BRANCH  16  18
ATOM     18  O   UNL d   1      -2.206   3.956   0.203  0.00  0.00    -0.772 OA
ATOM     19  H   UNL d   1      -2.931   3.477   0.650  0.00  0.00     0.167 HD
ENDBRANCH  16  18
ENDBRANCH   6  16
BRANCH   7  20
ATOM     20  S   UNL d   1      -4.280  -1.526   0.312  0.00  0.00    -0.126 SA
ATOM     21  C   UNL d   1      -4.522  -2.078  -1.396  0.00  0.00     0.096 C 
ENDBRANCH   7  20
TORSDOF 3
