REMARK  10 active torsions:
REMARK  status: ('A' for Active; 'I' for Inactive)
REMARK    1  A    between atoms: C_2  and  S_1 
REMARK    2  A    between atoms: N_6  and  S_1 
REMARK    3  A    between atoms: C_9  and  C_4 
REMARK    4  A    between atoms: N_10  and  N_6 
REMARK    5  A    between atoms: C_8  and  O_14 
REMARK    6  A    between atoms: O_25  and  C_9 
REMARK       I    between atoms: C_11  and  N_10 
REMARK    7  A    between atoms: C_20  and  C_11 
REMARK    8  A    between atoms: O_14  and  C_23 
REMARK    9  A    between atoms: O_21  and  C_20 
REMARK   10  A    between atoms: C_24  and  O_21 
ROOT
ATOM      1  N   UNL d   1       0.883   0.488   2.644  0.00  0.00    -0.259 N 
ATOM      2  C   UNL d   1       0.431   1.127   3.774  0.00  0.00     0.260 C 
ATOM      3  O   UNL d   1       0.927   0.872   4.871  0.00  0.00    -0.269 OA
ATOM      4  H   UNL d   1       1.711  -0.097   2.742  0.00  0.00     0.190 HD
ENDROOT
BRANCH   1   5
ATOM      5  N   UNL d   1       0.327   0.694   1.329  0.00  0.00    -0.219 N 
ATOM      6  H   UNL d   1      -0.500   1.276   1.170  0.00  0.00     0.200 HD
BRANCH   5   7
ATOM      7  S   UNL d   1       1.310   0.506  -0.027  0.00  0.00     0.292 S 
ATOM      8  O   UNL d   1       0.487   0.672  -1.200  0.00  0.00    -0.197 OA
ATOM      9  O   UNL d   1       2.520   1.266   0.197  0.00  0.00    -0.197 OA
BRANCH   7  10
ATOM     10  C   UNL d   1       1.832  -1.193  -0.041  0.00  0.00     0.153 A 
ATOM     11  N   UNL d   1       0.971  -2.277  -0.110  0.00  0.00    -0.336 N 
ATOM     12  C   UNL d   1       1.695  -3.463  -0.142  0.00  0.00     0.111 A 
ATOM     13  C   UNL d   1      -0.479  -2.223  -0.147  0.00  0.00     0.157 C 
ATOM     14  C   UNL d   1       3.032  -3.112  -0.046  0.00  0.00     0.039 A 
ATOM     15  C   UNL d   1       3.116  -1.711   0.014  0.00  0.00     0.046 A 
BRANCH  12  16
ATOM     16  C   UNL d   1       1.129  -4.798  -0.259  0.00  0.00     0.309 C 
ATOM     17  O   UNL d   1      -0.060  -5.066  -0.337  0.00  0.00    -0.258 OA
BRANCH  16  18
ATOM     18  O   UNL d   1       2.136  -5.713  -0.272  0.00  0.00    -0.321 OA
ATOM     19  C   UNL d   1       1.709  -7.071  -0.408  0.00  0.00     0.213 C 
ENDBRANCH  16  18
ENDBRANCH  12  16
ENDBRANCH   7  10
ENDBRANCH   5   7
ENDBRANCH   1   5
BRANCH   2  20
ATOM     20  C   UNL d   1      -0.628   2.203   3.592  0.00  0.00     0.280 C 
BRANCH  20  21
ATOM     21  O   UNL d   1      -1.892   1.606   3.334  0.00  0.00    -0.342 OA
BRANCH  21  22
ATOM     22  C   UNL d   1      -2.910   2.469   3.037  0.00  0.00     0.069 A 
ATOM     23  C   UNL d   1      -4.055   1.871   2.512  0.00  0.00     0.039 A 
ATOM     24  C   UNL d   1      -5.154   2.651   2.149  0.00  0.00     0.040 A 
ATOM     25  C   UNL d   1      -5.135   4.036   2.330  0.00  0.00     0.078 A 
ATOM     26  C   UNL d   1      -3.984   4.637   2.832  0.00  0.00     0.040 A 
ATOM     27  C   UNL d   1      -2.884   3.854   3.206  0.00  0.00     0.039 A 
BRANCH  25  28
ATOM     28  O   UNL d   1      -6.264   4.681   1.931  0.00  0.00    -0.255 OA
BRANCH  28  29
ATOM     29  C   UNL d   1      -6.661   5.873   2.595  0.00  0.00     0.530 C 
ATOM     30  F   UNL d   1      -5.944   6.159   3.702  0.00  0.00    -0.144 F 
ATOM     31  F   UNL d   1      -6.571   6.912   1.738  0.00  0.00    -0.144 F 
ATOM     32  F   UNL d   1      -7.955   5.744   2.965  0.00  0.00    -0.144 F 
ENDBRANCH  28  29
ENDBRANCH  25  28
ENDBRANCH  21  22
ENDBRANCH  20  21
ENDBRANCH   2  20
TORSDOF 10
