REMARK  9 active torsions:
REMARK  status: ('A' for Active; 'I' for Inactive)
REMARK    1  A    between atoms: C_5  and  C_1 
REMARK    2  A    between atoms: N_2  and  C_4 
REMARK       I    between atoms: C_3  and  N_2 
REMARK    3  A    between atoms: C_17  and  N_2 
REMARK    4  A    between atoms: C_7  and  C_3 
REMARK       I    between atoms: N_6  and  C_5 
REMARK    5  A    between atoms: C_14  and  N_6 
REMARK    6  A    between atoms: C_8  and  C_14 
REMARK    7  A    between atoms: O_22  and  C_8 
REMARK    8  A    between atoms: C_15  and  C_17 
REMARK    9  A    between atoms: C_25  and  O_22 
ROOT
ATOM      1  C   UNL d   1       1.395  -0.245   0.301  0.00  0.00     0.059 A 
ATOM      2  C   UNL d   1       0.589  -1.393   0.120  0.00  0.00     0.053 A 
ATOM      3  C   UNL d   1       0.763   1.015   0.331  0.00  0.00     0.019 A 
ATOM      4  C   UNL d   1      -0.807  -1.252   0.004  0.00  0.00     0.031 A 
ATOM      5  C   UNL d   1      -0.621   1.140   0.199  0.00  0.00     0.001 A 
ATOM      6  C   UNL d   1      -1.407   0.005   0.044  0.00  0.00     0.002 A 
ENDROOT
BRANCH   2   7
ATOM      7  N   UNL d   1       1.129  -2.698  -0.037  0.00  0.00    -0.309 N 
ATOM      8  C   UNL d   1       1.187  -3.372  -1.278  0.00  0.00     0.258 C 
ATOM      9  O   UNL d   1       1.486  -4.568  -1.336  0.00  0.00    -0.267 OA
BRANCH   8  10
ATOM     10  C   UNL d   1       0.862  -2.699  -2.585  0.00  0.00     0.032 A 
ATOM     11  C   UNL d   1       1.111  -1.353  -2.878  0.00  0.00     0.018 A 
ATOM     12  C   UNL d   1       0.713  -0.793  -4.098  0.00  0.00     0.025 A 
ATOM     13  C   UNL d   1       0.125  -1.594  -5.070  0.00  0.00     0.034 A 
ATOM     14  C   UNL d   1      -0.057  -2.953  -4.835  0.00  0.00     0.025 A 
ATOM     15 CL   UNL d   1      -0.361  -0.905  -6.569  0.00  0.00    -0.084 Cl
ATOM     16  C   UNL d   1       0.305  -3.500  -3.598  0.00  0.00     0.018 A 
ENDBRANCH   8  10
BRANCH   7  17
ATOM     17  C   UNL d   1       1.220  -3.511   1.191  0.00  0.00     0.159 C 
BRANCH  17  18
ATOM     18  C   UNL d   1      -0.093  -4.143   1.551  0.00  0.00    -0.017 C 
ATOM     19  C   UNL d   1      -0.722  -3.948   2.720  0.00  0.00     0.008 C 
ENDBRANCH  17  18
ENDBRANCH   7  17
ENDBRANCH   2   7
BRANCH   1  20
ATOM     20  C   UNL d   1       2.899  -0.202   0.324  0.00  0.00     0.254 C 
ATOM     21  N   UNL d   1       3.599  -1.377   0.462  0.00  0.00    -0.347 N 
ATOM     22  H   UNL d   1       3.103  -2.219   0.696  0.00  0.00     0.163 HD
ATOM     23  O   UNL d   1       3.482   0.875   0.224  0.00  0.00    -0.268 OA
BRANCH  21  24
ATOM     24  C   UNL d   1       5.034  -1.365   0.700  0.00  0.00     0.233 C 
BRANCH  24  25
ATOM     25  C   UNL d   1       5.324  -1.041   2.162  0.00  0.00     0.276 C 
ATOM     26  O   UNL d   1       4.580  -1.316   3.099  0.00  0.00    -0.263 OA
BRANCH  25  27
ATOM     27  O   UNL d   1       6.522  -0.405   2.262  0.00  0.00    -0.321 OA
BRANCH  27  28
ATOM     28  C   UNL d   1       6.760   0.267   3.505  0.00  0.00     0.174 C 
ATOM     29  C   UNL d   1       6.116   1.639   3.447  0.00  0.00     0.034 C 
ENDBRANCH  27  28
ENDBRANCH  25  27
ENDBRANCH  24  25
ENDBRANCH  21  24
ENDBRANCH   1  20
TORSDOF 9
