REMARK  6 active torsions:
REMARK  status: ('A' for Active; 'I' for Inactive)
REMARK    1  A    between atoms: C_3  and  C_1 
REMARK    2  A    between atoms: C_7  and  C_2 
REMARK    3  A    between atoms: O_13  and  C_3 
REMARK    4  A    between atoms: O_14  and  C_6 
REMARK    5  A    between atoms: O_15  and  C_9 
REMARK    6  A    between atoms: C_16  and  O_13 
ROOT
ATOM      1  C   UNL d   1       0.811   0.446  -0.621  0.00  0.00     0.120 C 
ATOM      2  C   UNL d   1       0.321  -0.787  -0.852  0.00  0.00     0.040 C 
ATOM      3  C   UNL d   1       1.975   0.953  -1.271  0.00  0.00     0.105 C 
ATOM      4  N   UNL d   1       2.915   1.361  -1.811  0.00  0.00    -0.191 NA
ENDROOT
BRANCH   1   5
ATOM      5  C   UNL d   1       0.052   1.325   0.301  0.00  0.00     0.303 C 
ATOM      6  O   UNL d   1      -0.966   0.993   0.891  0.00  0.00    -0.258 OA
BRANCH   5   7
ATOM      7  O   UNL d   1       0.602   2.565   0.307  0.00  0.00    -0.317 OA
BRANCH   7   8
ATOM      8  C   UNL d   1      -0.248   3.627   0.756  0.00  0.00     0.174 C 
ATOM      9  C   UNL d   1      -1.060   4.106  -0.433  0.00  0.00     0.034 C 
ENDBRANCH   7   8
ENDBRANCH   5   7
ENDBRANCH   1   5
BRANCH   2  10
ATOM     10  C   UNL d   1       0.972  -1.732  -1.761  0.00  0.00    -0.032 A 
ATOM     11  C   UNL d   1       2.005  -2.541  -1.276  0.00  0.00     0.051 A 
ATOM     12  C   UNL d   1       2.751  -3.352  -2.140  0.00  0.00     0.102 A 
ATOM     13  C   UNL d   1       2.404  -3.402  -3.500  0.00  0.00     0.101 A 
ATOM     14  C   UNL d   1       1.363  -2.592  -3.976  0.00  0.00     0.040 A 
ATOM     15  C   UNL d   1       0.649  -1.758  -3.116  0.00  0.00     0.014 A 
BRANCH  12  16
ATOM     16  O   UNL d   1       3.810  -4.098  -1.691  0.00  0.00    -0.353 OA
ATOM     17  C   UNL d   1       4.548  -3.537  -0.608  0.00  0.00     0.210 C 
ENDBRANCH  12  16
BRANCH  13  18
ATOM     18  O   UNL d   1       3.023  -4.120  -4.490  0.00  0.00    -0.353 OA
ATOM     19  C   UNL d   1       3.614  -5.355  -4.111  0.00  0.00     0.210 C 
ENDBRANCH  13  18
ENDBRANCH   2  10
TORSDOF 6
