REMARK  5 active torsions:
REMARK  status: ('A' for Active; 'I' for Inactive)
REMARK    1  A    between atoms: C_3  and  C_1 
REMARK    2  A    between atoms: N_4  and  C_2 
REMARK    3  A    between atoms: O_10  and  C_3 
REMARK    4  A    between atoms: C_8  and  N_4 
REMARK    5  A    between atoms: O_16  and  C_11 
ROOT
ATOM      1  N   UNL d   1       2.265  -1.364  -0.177  0.00  0.00    -0.262 NA
ATOM      2  H   UNL d   1       2.984  -0.865  -0.714  0.00  0.00     0.133 HD
ENDROOT
BRANCH   1   3
ATOM      3  C   UNL d   1       1.119  -0.583  -0.073  0.00  0.00     0.012 A 
ATOM      4  C   UNL d   1       0.999   0.735  -0.329  0.00  0.00     0.044 A 
ATOM      5  C   UNL d   1      -0.334   1.358  -0.087  0.00  0.00     0.120 A 
ATOM      6  S   UNL d   1      -1.466  -0.006   0.296  0.00  0.00    -0.159 SA
ATOM      7  C   UNL d   1      -0.165  -1.270   0.335  0.00  0.00     0.126 A 
BRANCH   4   8
ATOM      8  C   UNL d   1       2.062   1.656  -0.781  0.00  0.00     0.291 C 
ATOM      9  O   UNL d   1       1.933   2.871  -0.767  0.00  0.00    -0.260 OA
BRANCH   8  10
ATOM     10  O   UNL d   1       3.138   0.976  -1.252  0.00  0.00    -0.323 OA
ATOM     11  C   UNL d   1       4.191   1.791  -1.776  0.00  0.00     0.213 C 
ENDBRANCH   8  10
ENDBRANCH   4   8
ENDBRANCH   1   3
BRANCH   1  12
ATOM     12  C   UNL d   1       2.924  -1.894   0.969  0.00  0.00     0.012 A 
ATOM     13  C   UNL d   1       2.677  -1.438   2.273  0.00  0.00     0.026 A 
ATOM     14  C   UNL d   1       3.401  -1.943   3.353  0.00  0.00     0.038 A 
ATOM     15  C   UNL d   1       4.381  -2.901   3.136  0.00  0.00     0.065 A 
ATOM     16  C   UNL d   1       4.654  -3.361   1.854  0.00  0.00     0.038 A 
ATOM     17  C   UNL d   1       3.928  -2.853   0.773  0.00  0.00     0.026 A 
BRANCH  15  18
ATOM     18  O   UNL d   1       5.065  -3.362   4.223  0.00  0.00    -0.361 OA
ATOM     19  H   UNL d   1       5.698  -4.038   3.927  0.00  0.00     0.217 HD
ENDBRANCH  15  18
ENDBRANCH   1  12
TORSDOF 5
