REMARK  7 active torsions:
REMARK  status: ('A' for Active; 'I' for Inactive)
REMARK    1  A    between atoms: C_4  and  C_1 
REMARK    2  A    between atoms: C_15  and  C_5 
REMARK    3  A    between atoms: S_21  and  C_13 
REMARK    4  A    between atoms: C_17  and  C_26 
REMARK       I    between atoms: N_20  and  C_17 
REMARK    5  A    between atoms: C_27  and  N_20 
REMARK    6  A    between atoms: C_26  and  S_21 
REMARK    7  A    between atoms: C_30  and  C_22 
ROOT
ATOM      1  N   UNL d   1       5.759 -10.899  -0.508  0.00  0.00    -0.335 N 
ATOM      2  HN  UNL d   1       5.288 -10.597   0.345  1.00  0.00     0.168 HD
ATOM      3  C   UNL d   1       5.416 -10.423  -1.711  0.00  0.00     0.145 A 
ATOM      4  C   UNL d   1       6.762 -11.801  -0.489  0.00  0.00     0.062 A 
ATOM      5  N   UNL d   1       5.980 -10.769  -2.877  0.00  0.00    -0.347 N 
ATOM      6  HN  UNL d   1       5.672 -10.371  -3.764  1.00  0.00     0.167 HD
ATOM      7  C   UNL d   1       7.410 -12.225  -1.631  0.00  0.00     0.049 A 
ATOM      8  C   UNL d   1       6.976 -11.669  -2.808  0.00  0.00     0.092 A 
ENDROOT
BRANCH   3   9
ATOM      9  S   UNL d   1       3.969  -9.402  -1.734  0.00  0.00    -0.085 SA
BRANCH   9  10
ATOM     10  C   UNL d   1       3.025 -10.300  -2.993  0.00  0.00     0.185 C 
BRANCH  10  11
ATOM     11  C   UNL d   1       2.649 -11.742  -2.663  0.00  0.00     0.231 C 
ATOM     12  N   UNL d   1       2.894 -12.183  -1.377  0.00  0.00    -0.327 N 
ATOM     13  H   UNL d   1       3.206 -11.487  -0.707  0.00  0.00     0.169 HD
ATOM     14  O   UNL d   1       2.125 -12.420  -3.550  0.00  0.00    -0.272 OA
BRANCH  12  15
ATOM     15  C   UNL d   1       2.846 -13.516  -0.908  0.00  0.00     0.034 A 
ATOM     16  C   UNL d   1       2.574 -14.611  -1.728  0.00  0.00     0.030 A 
ATOM     17  C   UNL d   1       2.624 -15.915  -1.222  0.00  0.00     0.010 A 
ATOM     18  C   UNL d   1       2.946 -16.158   0.119  0.00  0.00    -0.055 A 
ATOM     19  C   UNL d   1       3.193 -15.056   0.948  0.00  0.00     0.010 A 
ATOM     20  C   UNL d   1       3.145 -13.750   0.439  0.00  0.00     0.030 A 
BRANCH  18  21
ATOM     21  C   UNL d   1       3.078 -17.575   0.650  0.00  0.00     0.010 C 
ATOM     22  C   UNL d   1       1.779 -18.372   0.502  0.00  0.00     0.015 C 
ATOM     23  C   UNL d   1       4.238 -18.303  -0.038  0.00  0.00     0.015 C 
ENDBRANCH  18  21
ENDBRANCH  12  15
ENDBRANCH  10  11
ENDBRANCH   9  10
ENDBRANCH   3   9
BRANCH   4  24
ATOM     24  C   UNL d   1       7.107 -12.369   0.810  0.00  0.00     0.066 A 
ATOM     25  N   UNL d   1       8.096 -13.332   0.940  0.00  0.00    -0.346 N 
ATOM     26  C   UNL d   1       8.152 -13.751   2.189  0.00  0.00     0.102 A 
ATOM     27  HN  UNL d   1       8.692 -13.667   0.183  1.00  0.00     0.167 HD
ATOM     28  S   UNL d   1       7.075 -12.975   3.278  0.00  0.00    -0.080 SA
ATOM     29  C   UNL d   1       6.473 -12.022   1.988  0.00  0.00     0.083 A 
BRANCH  26  30
ATOM     30  C   UNL d   1       9.088 -14.848   2.609  0.00  0.00     0.073 A 
ATOM     31  N   UNL d   1       9.087 -15.392   3.884  0.00  0.00    -0.352 N 
ATOM     32  C   UNL d   1       9.966 -16.366   3.953  0.00  0.00     0.047 A 
ATOM     33  HN  UNL d   1       8.492 -15.082   4.652  1.00  0.00     0.166 HD
ATOM     34  C   UNL d   1      10.199 -17.207   5.157  0.00  0.00     0.076 C 
ATOM     35  S   UNL d   1      10.878 -16.648   2.521  0.00  0.00    -0.087 SA
ATOM     36  C   UNL d   1      10.001 -15.404   1.736  0.00  0.00     0.083 A 
ENDBRANCH  26  30
ENDBRANCH   4  24
TORSDOF 7
