REMARK  5 active torsions:
REMARK  status: ('A' for Active; 'I' for Inactive)
REMARK    1  A    between atoms: C_6  and  C_1 
REMARK    2  A    between atoms: C_5  and  C_2 
REMARK       I    between atoms: N_9  and  C_5 
REMARK    3  A    between atoms: N_7  and  C_11 
REMARK    4  A    between atoms: N_15  and  N_9 
REMARK    5  A    between atoms: C_14  and  N_15 
ROOT
ATOM      1  C   UNL d   1       0.221  -2.797   0.393  0.00  0.00     0.275 C 
ATOM      2  N   UNL d   1      -0.875  -3.618   0.127  0.00  0.00    -0.262 N 
ATOM      3  O   UNL d   1       1.389  -3.171   0.408  0.00  0.00    -0.266 OA
ATOM      4  H   UNL d   1      -1.798  -3.338   0.458  0.00  0.00     0.190 HD
ENDROOT
BRANCH   1   5
ATOM      5  C   UNL d   1      -0.080  -1.400   0.660  0.00  0.00     0.094 A 
ATOM      6  C   UNL d   1       0.642  -0.510   1.528  0.00  0.00     0.086 A 
ATOM      7  N   UNL d   1       0.129   0.728   1.464  0.00  0.00    -0.259 N 
ATOM      8  O   UNL d   1      -0.934   0.664   0.601  0.00  0.00    -0.241 OA
ATOM      9  HN  UNL d   1       0.464   1.554   1.960  1.00  0.00     0.195 HD
ATOM     10  C   UNL d   1      -1.086  -0.606   0.144  0.00  0.00     0.090 A 
ATOM     11  C   UNL d   1      -2.244  -0.792  -0.749  0.00  0.00     0.080 C 
BRANCH   6  12
ATOM     12  C   UNL d   1       1.696  -0.800   2.505  0.00  0.00     0.037 A 
ATOM     13  C   UNL d   1       2.921  -0.104   2.501  0.00  0.00     0.048 A 
ATOM     14 CL   UNL d   1       3.377   0.990   1.237  0.00  0.00    -0.083 Cl
ATOM     15  C   UNL d   1       3.847  -0.273   3.543  0.00  0.00     0.025 A 
ATOM     16  C   UNL d   1       3.581  -1.153   4.588  0.00  0.00     0.003 A 
ATOM     17  C   UNL d   1       2.392  -1.875   4.590  0.00  0.00     0.025 A 
ATOM     18  C   UNL d   1       1.453  -1.695   3.566  0.00  0.00     0.048 A 
ATOM     19 CL   UNL d   1      -0.034  -2.574   3.740  0.00  0.00    -0.083 Cl
ENDBRANCH   6  12
ENDBRANCH   1   5
BRANCH   2  20
ATOM     20  N   UNL d   1      -0.745  -5.049   0.020  0.00  0.00    -0.278 N 
ATOM     21  C   UNL d   1       0.441  -5.584  -0.641  0.00  0.00     0.179 C 
BRANCH  20  22
ATOM     22  C   UNL d   1      -1.992  -5.683  -0.162  0.00  0.00     0.121 A 
ATOM     23  N   UNL d   1      -3.063  -5.190   0.520  0.00  0.00    -0.349 N 
ATOM     24  C   UNL d   1      -4.239  -5.876   0.480  0.00  0.00     0.125 A 
ATOM     25  HN  UNL d   1      -2.987  -4.322   1.051  1.00  0.00     0.167 HD
ATOM     26  C   UNL d   1      -4.426  -7.030  -0.265  0.00  0.00     0.118 A 
ATOM     27  C   UNL d   1      -3.367  -7.501  -1.026  0.00  0.00     0.041 A 
ATOM     28  C   UNL d   1      -2.148  -6.822  -0.968  0.00  0.00     0.052 A 
BRANCH  26  29
ATOM     29  N   UNL d   1      -5.702  -7.734  -0.239  0.00  0.00    -0.114 N 
ATOM     30  O   UNL d   1      -6.592  -7.285   0.498  0.00  0.00    -0.532 OA
ATOM     31  O   UNL d   1      -5.817  -8.739  -0.953  0.00  0.00    -0.532 OA
ENDBRANCH  26  29
ENDBRANCH  20  22
ENDBRANCH   2  20
TORSDOF 5
