REMARK  3 active torsions:
REMARK  status: ('A' for Active; 'I' for Inactive)
REMARK    1  A    between atoms: N_5  and  C_1 
REMARK    2  A    between atoms: C_6  and  C_2 
REMARK    3  A    between atoms: O_12  and  C_6 
ROOT
ATOM      1  C   UNL d   1      -0.657  -1.175  -0.108  0.00  0.00     0.082 A 
ATOM      2  C   UNL d   1       0.247   1.401   0.385  0.00  0.00     0.053 A 
ATOM      3  N   UNL d   1      -0.532  -0.754   1.169  0.00  0.00    -0.356 N 
ATOM      4  HN  UNL d   1      -0.752  -1.375   1.948  1.00  0.00     0.166 HD
ATOM      5  C   UNL d   1      -0.107   0.518   1.392  0.00  0.00     0.107 A 
ATOM      6  C   UNL d   1       0.115   0.971  -0.931  0.00  0.00     0.023 A 
ATOM      7  C   UNL d   1      -0.333  -0.327  -1.171  0.00  0.00     0.043 A 
ENDROOT
BRANCH   1   8
ATOM      8  N   UNL d   1      -1.046  -2.490  -0.385  0.00  0.00    -0.265 NA
ATOM      9  C   UNL d   1      -1.067  -3.390   0.787  0.00  0.00     0.123 C 
ATOM     10  C   UNL d   1      -1.292  -4.832   0.295  0.00  0.00     0.182 C 
ATOM     11  O   UNL d   1      -2.508  -4.950  -0.466  0.00  0.00    -0.389 OA
ATOM     12  C   UNL d   1      -2.483  -4.063  -1.596  0.00  0.00     0.182 C 
ATOM     13  C   UNL d   1      -2.300  -2.600  -1.159  0.00  0.00     0.123 C 
ENDBRANCH   1   8
BRANCH   2  14
ATOM     14  C   UNL d   1       0.715   2.750   0.752  0.00  0.00     0.177 C 
ATOM     15  O   UNL d   1       0.325   3.334   1.746  0.00  0.00    -0.646 OA
BRANCH  14  16
ATOM     16  O   UNL d   1       1.635   3.257  -0.096  0.00  0.00    -0.773 OA
ATOM     17  H   UNL d   1       2.004   2.629  -0.744  0.00  0.00     0.167 HD
ENDBRANCH  14  16
ENDBRANCH   2  14
TORSDOF 3
