REMARK  5 active torsions:
REMARK  status: ('A' for Active; 'I' for Inactive)
REMARK    1  A    between atoms: C_4  and  S_1 
REMARK    2  A    between atoms: N_8  and  S_1 
REMARK    3  A    between atoms: N_3  and  C_13 
REMARK    4  A    between atoms: C_12  and  N_8 
REMARK    5  A    between atoms: C_13  and  C_12 
ROOT
ATOM      1  N   UNL d   1       2.552  -0.053  -0.157  0.00  0.00    -0.314 N 
ATOM      2  H   UNL d   1       3.054   0.244   0.680  0.00  0.00     0.172 HD
ENDROOT
BRANCH   1   3
ATOM      3  S   UNL d   1       0.884   0.042   0.012  0.00  0.00     0.258 S 
ATOM      4  O   UNL d   1       0.638   0.877   1.164  0.00  0.00    -0.201 OA
ATOM      5  O   UNL d   1       0.315   0.345  -1.282  0.00  0.00    -0.201 OA
BRANCH   3   6
ATOM      6  C   UNL d   1       0.444  -1.620   0.450  0.00  0.00     0.079 A 
ATOM      7  C   UNL d   1       0.923  -2.153   1.649  0.00  0.00     0.026 A 
ATOM      8  C   UNL d   1       0.616  -3.471   1.984  0.00  0.00     0.008 A 
ATOM      9  C   UNL d   1      -0.178  -4.253   1.133  0.00  0.00    -0.062 A 
ATOM     10  C   UNL d   1      -0.655  -3.703  -0.064  0.00  0.00     0.008 A 
ATOM     11  C   UNL d   1      -0.519  -5.662   1.524  0.00  0.00     0.048 C 
ATOM     12  C   UNL d   1      -0.347  -2.386  -0.409  0.00  0.00     0.026 A 
ENDBRANCH   3   6
ENDBRANCH   1   3
BRANCH   1  13
ATOM     13  C   UNL d   1       3.197  -1.088  -0.986  0.00  0.00     0.152 C 
BRANCH  13  14
ATOM     14  C   UNL d   1       2.742  -1.073  -2.448  0.00  0.00     0.148 C 
BRANCH  14  15
ATOM     15  N   UNL d   1       3.353  -2.110  -3.261  0.00  0.00    -0.331 N 
ATOM     16  C   UNL d   1       4.720  -2.259  -3.459  0.00  0.00     0.318 C 
ATOM     17  N   UNL d   1       4.898  -3.111  -4.540  0.00  0.00    -0.341 N 
ATOM     18  O   UNL d   1       5.622  -1.721  -2.844  0.00  0.00    -0.247 OA
ATOM     19  C   UNL d   1       3.668  -3.230  -5.274  0.00  0.00     0.144 C 
ATOM     20  H   UNL d   1       5.821  -3.157  -4.951  0.00  0.00     0.164 HD
ATOM     21  C   UNL d   1       2.605  -2.851  -4.255  0.00  0.00     0.147 C 
ENDBRANCH  14  15
ENDBRANCH  13  14
ENDBRANCH   1  13
TORSDOF 5
