REMARK  7 active torsions:
REMARK  status: ('A' for Active; 'I' for Inactive)
REMARK    1  A    between atoms: C_3  and  C_1 
REMARK    2  A    between atoms: C_4  and  C_2 
REMARK       I    between atoms: N_9  and  C_3 
REMARK       I    between atoms: N_10  and  C_4 
REMARK    3  A    between atoms: C_15  and  C_5 
REMARK    4  A    between atoms: C_25  and  N_9 
REMARK    5  A    between atoms: C_24  and  N_10 
REMARK    6  A    between atoms: C_13  and  C_24 
REMARK    7  A    between atoms: C_14  and  C_25 
ROOT
ATOM      1  C   UNL d   1       1.468  -0.221   0.024  0.00  0.00     0.033 A 
ATOM      2  C   UNL d   1      -0.784  -1.138  -0.063  0.00  0.00     0.033 A 
ATOM      3  C   UNL d   1      -0.452   1.298   0.151  0.00  0.00    -0.049 A 
ATOM      4  C   UNL d   1       0.600  -1.323  -0.071  0.00  0.00     0.034 A 
ATOM      5  C   UNL d   1      -1.293   0.171   0.037  0.00  0.00     0.025 A 
ATOM      6  C   UNL d   1       0.936   1.072   0.125  0.00  0.00     0.025 A 
ENDROOT
BRANCH   1   7
ATOM      7  C   UNL d   1       2.937  -0.501   0.061  0.00  0.00     0.251 C 
ATOM      8  N   UNL d   1       3.822   0.558   0.099  0.00  0.00    -0.352 N 
ATOM      9  H   UNL d   1       3.527   1.520   0.049  0.00  0.00     0.163 HD
ATOM     10  O   UNL d   1       3.326  -1.665   0.080  0.00  0.00    -0.268 OA
BRANCH   8  11
ATOM     11  C   UNL d   1       5.237   0.298   0.210  0.00  0.00     0.169 C 
BRANCH  11  12
ATOM     12  C   UNL d   1       6.078   1.543   0.234  0.00  0.00     0.000 A 
ATOM     13  S   UNL d   1       5.435   3.128   0.107  0.00  0.00    -0.105 SA
ATOM     14  C   UNL d   1       6.984   3.845   0.213  0.00  0.00     0.050 A 
ATOM     15  C   UNL d   1       7.980   2.905   0.344  0.00  0.00     0.008 A 
ATOM     16  C   UNL d   1       7.457   1.581   0.357  0.00  0.00     0.017 A 
ENDBRANCH  11  12
ENDBRANCH   8  11
ENDBRANCH   1   7
BRANCH   2  17
ATOM     17  C   UNL d   1      -1.763  -2.269  -0.151  0.00  0.00     0.251 C 
ATOM     18  N   UNL d   1      -1.292  -3.558   0.005  0.00  0.00    -0.352 N 
ATOM     19  H   UNL d   1      -0.352  -3.736   0.329  0.00  0.00     0.163 HD
ATOM     20  O   UNL d   1      -2.954  -2.030  -0.332  0.00  0.00    -0.268 OA
BRANCH  18  21
ATOM     21  C   UNL d   1      -2.231  -4.658   0.069  0.00  0.00     0.169 C 
BRANCH  21  22
ATOM     22  C   UNL d   1      -1.508  -5.956   0.262  0.00  0.00     0.000 A 
ATOM     23  S   UNL d   1      -0.592  -6.241   1.687  0.00  0.00    -0.105 SA
ATOM     24  C   UNL d   1      -0.189  -7.827   1.191  0.00  0.00     0.050 A 
ATOM     25  C   UNL d   1      -0.742  -8.144  -0.029  0.00  0.00     0.008 A 
ATOM     26  C   UNL d   1      -1.500  -7.062  -0.567  0.00  0.00     0.017 A 
ENDBRANCH  21  22
ENDBRANCH  18  21
ENDBRANCH   2  17
BRANCH   3  27
ATOM     27  C   UNL d   1      -1.052   2.705   0.347  0.00  0.00    -0.024 C 
ATOM     28  C   UNL d   1       0.010   3.814   0.534  0.00  0.00     0.019 C 
ATOM     29  C   UNL d   1      -1.911   3.097  -0.872  0.00  0.00     0.019 C 
ATOM     30  C   UNL d   1      -1.935   2.711   1.614  0.00  0.00     0.019 C 
ENDBRANCH   3  27
TORSDOF 7
