REMARK  6 active torsions:
REMARK  status: ('A' for Active; 'I' for Inactive)
REMARK    1  A    between atoms: C_6  and  S_1 
REMARK    2  A    between atoms: N_8  and  S_1 
REMARK    3  A    between atoms: C_9  and  C_4 
REMARK    4  A    between atoms: C_5  and  N_12 
REMARK    5  A    between atoms: C_13  and  C_7 
REMARK    6  A    between atoms: O_29  and  C_13 
ROOT
ATOM      1  N   UNL d   1       3.002   5.452  -1.651  0.00  0.00    -0.185 N 
ATOM      2  HN  UNL d   1       2.782   5.294  -0.667  1.00  0.00     0.184 HD
ATOM      3  C   UNL d   1       4.112   6.184  -1.994  0.00  0.00     0.150 A 
ATOM      4  C   UNL d   1       2.207   4.943  -2.601  0.00  0.00     0.680 A 
ATOM      5  C   UNL d   1       4.446   6.403  -3.316  0.00  0.00     0.087 A 
ATOM      6  N   UNL d   1       2.491   5.095  -3.897  0.00  0.00    -0.201 N 
ATOM      7  HN  UNL d   1       1.900   4.680  -4.617  1.00  0.00     0.183 HD
ATOM      8  C   UNL d   1       3.588   5.818  -4.226  0.00  0.00     0.126 A 
ENDROOT
BRANCH   4   9
ATOM      9  N   UNL d   1       1.069   4.277  -2.221  0.00  0.00    -0.216 N 
ATOM     10  C   UNL d   1       0.753   4.093  -0.806  0.00  0.00     0.157 C 
ATOM     11  C   UNL d   1       1.331   2.784  -0.248  0.00  0.00     0.128 C 
ATOM     12  N   UNL d   1       0.718   1.567  -0.901  0.00  0.00    -0.205 NA
ATOM     13  C   UNL d   1       1.181   1.441  -2.329  0.00  0.00     0.109 C 
ATOM     14  C   UNL d   1       0.278   2.176  -3.312  0.00  0.00     0.036 C 
ATOM     15  C   UNL d   1       0.169   3.696  -3.197  0.00  0.00     0.142 C 
BRANCH  12  16
ATOM     16  S   UNL d   1       1.042   0.119  -0.021  0.00  0.00     0.244 S 
ATOM     17  O   UNL d   1       0.373  -0.978  -0.693  0.00  0.00    -0.206 OA
ATOM     18  O   UNL d   1       2.461   0.083   0.264  0.00  0.00    -0.206 OA
BRANCH  16  19
ATOM     19  C   UNL d   1       0.272   0.154   1.532  0.00  0.00     0.081 A 
ATOM     20  C   UNL d   1      -1.141   0.242   1.717  0.00  0.00     0.032 A 
ATOM     21  C   UNL d   1      -1.494   0.143   3.047  0.00  0.00     0.051 A 
ATOM     22  S   UNL d   1      -0.128  -0.017   4.066  0.00  0.00    -0.112 SA
ATOM     23  C   UNL d   1       0.944   0.013   2.732  0.00  0.00     0.074 A 
ENDBRANCH  16  19
ENDBRANCH  12  16
ENDBRANCH   4   9
BRANCH   3  24
ATOM     24  C   UNL d   1       4.929   6.717  -0.835  0.00  0.00     0.434 C 
ATOM     25  F   UNL d   1       4.424   6.355   0.385  0.00  0.00    -0.165 F 
ATOM     26  F   UNL d   1       6.214   6.259  -0.826  0.00  0.00    -0.165 F 
ATOM     27  F   UNL d   1       4.990   8.078  -0.790  0.00  0.00    -0.165 F 
ENDBRANCH   3  24
BRANCH   5  28
ATOM     28  C   UNL d   1       5.582   7.173  -3.871  0.00  0.00     0.296 C 
ATOM     29  O   UNL d   1       5.795   7.255  -5.070  0.00  0.00    -0.259 OA
BRANCH  28  30
ATOM     30  O   UNL d   1       6.312   7.766  -2.908  0.00  0.00    -0.322 OA
ATOM     31  C   UNL d   1       7.412   8.550  -3.383  0.00  0.00     0.213 C 
ENDBRANCH  28  30
ENDBRANCH   5  28
TORSDOF 6
