REMARK  1 active torsions:
REMARK  status: ('A' for Active; 'I' for Inactive)
REMARK    1  A    between atoms: S_14  and  C_5 
ROOT
ATOM      1  S   UNL d   1      -1.021  -2.187   0.483  0.00  0.00     0.267 S 
ATOM      2  C   UNL d   1      -1.791  -0.671   0.204  0.00  0.00     0.116 A 
ATOM      3  C   UNL d   1      -0.926   0.476  -0.033  0.00  0.00     0.029 A 
ATOM      4  N   UNL d   1       0.448  -2.077  -0.321  0.00  0.00    -0.275 N 
ATOM      5  C   UNL d   1      -3.141  -0.393   0.175  0.00  0.00     0.066 A 
ATOM      6  C   UNL d   1      -1.696   1.601  -0.290  0.00  0.00     0.099 A 
ATOM      7  S   UNL d   1      -3.373   1.272  -0.187  0.00  0.00    -0.070 SA
ATOM      8  C   UNL d   1       0.562   0.395  -0.030  0.00  0.00     0.005 A 
ATOM      9  C   UNL d   1       1.205  -0.866  -0.167  0.00  0.00     0.056 A 
ATOM     10  O   UNL d   1      -1.843  -3.173  -0.176  0.00  0.00    -0.200 OA
ATOM     11  O   UNL d   1      -0.797  -2.178   1.912  0.00  0.00    -0.200 OA
ATOM     12  C   UNL d   1      -1.278   2.932  -0.620  0.00  0.00     0.108 C 
ATOM     13  N   UNL d   1      -0.940   4.013  -0.863  0.00  0.00    -0.191 NA
ATOM     14  C   UNL d   1       0.868  -3.142  -1.235  0.00  0.00     0.170 C 
ATOM     15  C   UNL d   1       1.382   1.522   0.153  0.00  0.00     0.014 A 
ATOM     16  C   UNL d   1       2.607  -0.955  -0.154  0.00  0.00     0.031 A 
ATOM     17  C   UNL d   1       2.778   1.418   0.160  0.00  0.00     0.001 A 
ATOM     18  C   UNL d   1       3.390   0.183   0.006  0.00  0.00     0.002 A 
ENDROOT
BRANCH   5  19
ATOM     19  S   UNL d   1      -4.605  -1.364   0.308  0.00  0.00    -0.126 SA
ATOM     20  C   UNL d   1      -4.332  -2.581   1.603  0.00  0.00     0.096 C 
ENDBRANCH   5  19
TORSDOF 1
