REMARK  7 active torsions:
REMARK  status: ('A' for Active; 'I' for Inactive)
REMARK    1  A    between atoms: C_2  and  N_1 
REMARK    2  A    between atoms: S_12  and  C_3 
REMARK    3  A    between atoms: C_4  and  O_14 
REMARK    4  A    between atoms: C_5  and  C_4 
REMARK    5  A    between atoms: C_20  and  S_12 
REMARK    6  A    between atoms: O_14  and  C_22 
REMARK    7  A    between atoms: C_22  and  C_20 
ROOT
ATOM      1  C   UNL d   1       0.053  -2.051   0.762  0.00  0.00     0.108 C 
ENDROOT
BRANCH   1   2
ATOM      2  S   UNL d   1      -0.241  -1.516  -0.967  0.00  0.00    -0.108 SA
BRANCH   2   3
ATOM      3  C   UNL d   1       0.265   0.197  -0.892  0.00  0.00     0.103 A 
ATOM      4  C   UNL d   1       0.287   1.046  -1.993  0.00  0.00     0.136 A 
ATOM      5  C   UNL d   1       0.760   2.359  -1.873  0.00  0.00     0.040 A 
ATOM      6  C   UNL d   1       1.190   2.801  -0.629  0.00  0.00     0.020 A 
ATOM      7  C   UNL d   1       1.127   1.914   0.432  0.00  0.00     0.089 A 
ATOM      8  N   UNL d   1       0.681   0.640   0.324  0.00  0.00    -0.359 N 
ATOM      9  HN  UNL d   1       0.659   0.026   1.137  1.00  0.00     0.166 HD
BRANCH   4  10
ATOM     10  N   UNL d   1      -0.179   0.615  -3.285  0.00  0.00    -0.113 N 
ATOM     11  O   UNL d   1      -1.378   0.332  -3.396  0.00  0.00    -0.532 OA
ATOM     12  O   UNL d   1       0.643   0.645  -4.214  0.00  0.00    -0.532 OA
ENDBRANCH   4  10
ENDBRANCH   2   3
ENDBRANCH   1   2
BRANCH   1  13
ATOM     13  C   UNL d   1      -0.299  -3.528   0.944  0.00  0.00     0.189 C 
BRANCH  13  14
ATOM     14  O   UNL d   1       0.500  -4.387   0.110  0.00  0.00    -0.317 OA
BRANCH  14  15
ATOM     15  C   UNL d   1       1.758  -4.635   0.543  0.00  0.00     0.293 C 
ATOM     16  O   UNL d   1       2.255  -4.213   1.576  0.00  0.00    -0.259 OA
BRANCH  15  17
ATOM     17  C   UNL d   1       2.475  -5.518  -0.417  0.00  0.00     0.041 A 
ATOM     18  C   UNL d   1       1.886  -5.965  -1.607  0.00  0.00     0.041 A 
ATOM     19  C   UNL d   1       2.597  -6.818  -2.450  0.00  0.00     0.035 A 
ATOM     20 CL   UNL d   1       1.866  -7.387  -3.901  0.00  0.00    -0.084 Cl
ATOM     21  C   UNL d   1       3.892  -7.223  -2.128  0.00  0.00     0.024 A 
ATOM     22  C   UNL d   1       4.488  -6.767  -0.953  0.00  0.00     0.003 A 
ATOM     23  C   UNL d   1       3.782  -5.917  -0.099  0.00  0.00     0.018 A 
ENDBRANCH  15  17
ENDBRANCH  14  15
ENDBRANCH  13  14
ENDBRANCH   1  13
TORSDOF 7
