REMARK  9 active torsions:
REMARK  status: ('A' for Active; 'I' for Inactive)
REMARK    1  A    between atoms: C_2  and  S_1 
REMARK    2  A    between atoms: N_6  and  S_1 
REMARK    3  A    between atoms: C_8  and  C_4 
REMARK    4  A    between atoms: C_11  and  N_6 
REMARK    5  A    between atoms: C_13  and  N_6 
REMARK    6  A    between atoms: O_15  and  C_8 
REMARK    7  A    between atoms: C_16  and  C_11 
REMARK    8  A    between atoms: C_18  and  C_13 
REMARK    9  A    between atoms: O_17  and  C_18 
ROOT
ATOM      1  S   UNL d   1       1.199  -0.202  -0.195  0.00  0.00     0.277 S 
ATOM      2  O   UNL d   1       2.454  -0.901  -0.055  0.00  0.00    -0.199 OA
ATOM      3  O   UNL d   1       0.207  -0.667  -1.137  0.00  0.00    -0.199 OA
ENDROOT
BRANCH   1   4
ATOM      4  C   UNL d   1       1.573   1.442  -0.831  0.00  0.00     0.151 A 
ATOM      5  N   UNL d   1       2.818   1.957  -1.194  0.00  0.00    -0.336 N 
ATOM      6  C   UNL d   1       2.669   3.230  -1.750  0.00  0.00     0.111 A 
ATOM      7  C   UNL d   1       4.116   1.325  -1.081  0.00  0.00     0.157 C 
ATOM      8  C   UNL d   1       1.319   3.531  -1.708  0.00  0.00     0.039 A 
ATOM      9  C   UNL d   1       0.648   2.432  -1.150  0.00  0.00     0.046 A 
BRANCH   6  10
ATOM     10  C   UNL d   1       3.748   4.050  -2.278  0.00  0.00     0.309 C 
ATOM     11  O   UNL d   1       4.941   3.767  -2.265  0.00  0.00    -0.258 OA
BRANCH  10  12
ATOM     12  O   UNL d   1       3.238   5.196  -2.814  0.00  0.00    -0.321 OA
ATOM     13  C   UNL d   1       4.219   6.058  -3.389  0.00  0.00     0.213 C 
ENDBRANCH  10  12
ENDBRANCH   6  10
ENDBRANCH   1   4
BRANCH   1  14
ATOM     14  N   UNL d   1       0.512   0.022   1.336  0.00  0.00    -0.299 N 
BRANCH  14  15
ATOM     15  C   UNL d   1      -0.954   0.261   1.414  0.00  0.00     0.174 C 
BRANCH  15  16
ATOM     16  C   UNL d   1      -1.820  -0.924   1.032  0.00  0.00    -0.040 A 
ATOM     17  C   UNL d   1      -1.810  -2.111   1.779  0.00  0.00     0.009 A 
ATOM     18  C   UNL d   1      -2.466  -3.252   1.314  0.00  0.00     0.001 A 
ATOM     19  C   UNL d   1      -3.176  -3.210   0.117  0.00  0.00     0.000 A 
ATOM     20  C   UNL d   1      -3.257  -2.019  -0.599  0.00  0.00     0.001 A 
ATOM     21  C   UNL d   1      -2.591  -0.881  -0.141  0.00  0.00     0.009 A 
ENDBRANCH  15  16
ENDBRANCH  14  15
BRANCH  14  22
ATOM     22  C   UNL d   1       1.076  -0.727   2.496  0.00  0.00     0.161 C 
BRANCH  22  23
ATOM     23  C   UNL d   1       2.519  -0.375   2.867  0.00  0.00     0.184 C 
BRANCH  23  24
ATOM     24  O   UNL d   1       2.659   1.008   3.168  0.00  0.00    -0.399 OA
ATOM     25  H   UNL d   1       3.607   1.160   3.329  0.00  0.00     0.209 HD
ENDBRANCH  23  24
ENDBRANCH  22  23
ENDBRANCH  14  22
ENDBRANCH   1  14
TORSDOF 9
