REMARK  1 active torsions:
REMARK  status: ('A' for Active; 'I' for Inactive)
REMARK    1  A    between atoms: C_3  and  C_1 
ROOT
ATOM      1  C   UNL d   1       2.205   0.666  -0.423  0.00  0.00     0.214 C 
ATOM      2  O   UNL d   1       1.057   1.436  -0.053  0.00  0.00    -0.334 OA
ATOM      3  O   UNL d   1       1.043  -1.464  -0.009  0.00  0.00    -0.345 OA
ATOM      4  C   UNL d   1      -0.084   0.690   0.073  0.00  0.00     0.103 A 
ATOM      5  C   UNL d   1       2.212  -0.691   0.283  0.00  0.00     0.215 C 
ATOM      6  C   UNL d   1      -0.094  -0.707   0.059  0.00  0.00     0.102 A 
ATOM      7  C   UNL d   1      -1.284   1.397   0.137  0.00  0.00     0.040 A 
ATOM      8  C   UNL d   1      -1.305  -1.395   0.058  0.00  0.00     0.039 A 
ATOM      9  C   UNL d   1      -2.496   0.708   0.141  0.00  0.00     0.003 A 
ATOM     10  C   UNL d   1      -2.507  -0.686   0.090  0.00  0.00     0.003 A 
ENDROOT
BRANCH   1  11
ATOM     11  C   UNL d   1       2.382   0.531  -1.952  0.00  0.00     0.103 C 
ATOM     12  S   UNL d   1       3.894   0.402  -2.661  0.00  0.00    -0.063 SA
ATOM     13  N   UNL d   1       1.276   0.485  -2.748  0.00  0.00    -0.391 N 
ATOM     14  H   UNL d   1       0.336   0.599  -2.384  0.00  0.00     0.156 HD
ATOM     15  H   UNL d   1       1.381   0.393  -3.751  0.00  0.00     0.156 HD
ENDBRANCH   1  11
TORSDOF 1
