REMARK  6 active torsions:
REMARK  status: ('A' for Active; 'I' for Inactive)
REMARK    1  A    between atoms: C_7  and  S_1 
REMARK    2  A    between atoms: N_12  and  S_1 
REMARK    3  A    between atoms: N_2  and  C_9 
REMARK    4  A    between atoms: N_6  and  C_23 
REMARK    5  A    between atoms: C_22  and  N_12 
REMARK    6  A    between atoms: C_23  and  C_22 
ROOT
ATOM      1  S   UNL d   1       0.994   0.046   0.043  0.00  0.00     0.241 S 
ATOM      2  O   UNL d   1       0.482   1.365   0.337  0.00  0.00    -0.206 OA
ATOM      3  O   UNL d   1       0.689  -0.635  -1.195  0.00  0.00    -0.206 OA
ENDROOT
BRANCH   1   4
ATOM      4  C   UNL d   1       0.546  -1.050   1.364  0.00  0.00     0.074 A 
ATOM      5  C   UNL d   1      -0.244  -0.588   2.414  0.00  0.00     0.027 A 
ATOM      6  C   UNL d   1      -0.670  -1.481   3.406  0.00  0.00     0.032 A 
ATOM      7  C   UNL d   1      -0.304  -2.838   3.378  0.00  0.00     0.045 A 
ATOM      8  C   UNL d   1       0.510  -3.270   2.316  0.00  0.00     0.032 A 
ATOM      9  C   UNL d   1       0.923  -2.390   1.308  0.00  0.00     0.027 A 
BRANCH   7  10
ATOM     10  N   UNL d   1      -0.753  -3.744   4.386  0.00  0.00    -0.252 N 
ATOM     11  C   UNL d   1      -1.887  -3.560   5.146  0.00  0.00     0.231 A 
ATOM     12  C   UNL d   1      -2.049  -4.714   6.087  0.00  0.00     0.113 A 
ATOM     13  O   UNL d   1      -2.714  -2.659   5.092  0.00  0.00    -0.273 OA
ATOM     14  C   UNL d   1      -0.850  -5.591   5.831  0.00  0.00     0.113 A 
ATOM     15  C   UNL d   1      -0.108  -4.913   4.720  0.00  0.00     0.231 A 
ATOM     16  O   UNL d   1       0.938  -5.370   4.277  0.00  0.00    -0.273 OA
ENDBRANCH   7  10
ENDBRANCH   1   4
BRANCH   1  17
ATOM     17  N   UNL d   1       2.674   0.097   0.146  0.00  0.00    -0.214 NA
ATOM     18  H   UNL d   1       3.080   0.022  -0.789  0.00  0.00     0.140 HD
BRANCH  17  19
ATOM     19  C   UNL d   1       3.268   1.101   1.046  0.00  0.00     0.124 C 
BRANCH  19  20
ATOM     20  C   UNL d   1       4.794   0.953   1.057  0.00  0.00     0.142 C 
BRANCH  20  21
ATOM     21  N   UNL d   1       5.464   1.933   1.888  0.00  0.00    -0.332 N 
ATOM     22  C   UNL d   1       5.806   3.213   1.455  0.00  0.00     0.318 C 
ATOM     23  N   UNL d   1       6.268   3.912   2.560  0.00  0.00    -0.341 N 
ATOM     24  O   UNL d   1       5.732   3.650   0.322  0.00  0.00    -0.247 OA
ATOM     25  C   UNL d   1       6.417   3.032   3.686  0.00  0.00     0.144 C 
ATOM     26  H   UNL d   1       6.740   4.800   2.424  0.00  0.00     0.164 HD
ATOM     27  C   UNL d   1       5.494   1.872   3.333  0.00  0.00     0.147 C 
ENDBRANCH  20  21
ENDBRANCH  19  20
ENDBRANCH  17  19
ENDBRANCH   1  17
TORSDOF 6
