REMARK  2 active torsions:
REMARK  status: ('A' for Active; 'I' for Inactive)
REMARK    1  A    between atoms: C_8  and  C_3 
REMARK    2  A    between atoms: C_9  and  C_4 
ROOT
ATOM      1  C   UNL d   1      -0.017  -0.719   0.000  0.00  0.00     0.012 A 
ATOM      2  C   UNL d   1      -0.012   0.707   0.017  0.00  0.00     0.012 A 
ATOM      3  C   UNL d   1      -1.333  -1.123   0.028  0.00  0.00     0.097 A 
ATOM      4  C   UNL d   1      -1.327   1.119  -0.025  0.00  0.00     0.097 A 
ATOM      5  O   UNL d   1      -2.138   0.001  -0.001  0.00  0.00    -0.307 OA
ATOM      6  C   UNL d   1       1.127  -1.517  -0.034  0.00  0.00     0.015 A 
ATOM      7  C   UNL d   1       1.133   1.501   0.056  0.00  0.00     0.015 A 
ATOM      8  C   UNL d   1       2.298  -0.729  -0.012  0.00  0.00     0.001 A 
ATOM      9  C   UNL d   1       2.302   0.706   0.040  0.00  0.00     0.001 A 
ENDROOT
BRANCH   3  10
ATOM     10  C   UNL d   1      -2.013  -2.416   0.089  0.00  0.00    -0.001 A 
ATOM     11  C   UNL d   1      -1.447  -3.482   0.809  0.00  0.00     0.014 A 
ATOM     12  C   UNL d   1      -2.034  -4.750   0.805  0.00  0.00     0.001 A 
ATOM     13  C   UNL d   1      -3.212  -4.965   0.098  0.00  0.00     0.000 A 
ATOM     14  C   UNL d   1      -3.810  -3.909  -0.590  0.00  0.00     0.001 A 
ATOM     15  C   UNL d   1      -3.215  -2.642  -0.593  0.00  0.00     0.014 A 
ENDBRANCH   3  10
BRANCH   4  16
ATOM     16  C   UNL d   1      -1.996   2.416  -0.108  0.00  0.00    -0.001 A 
ATOM     17  C   UNL d   1      -1.422   3.464  -0.847  0.00  0.00     0.014 A 
ATOM     18  C   UNL d   1      -2.000   4.736  -0.871  0.00  0.00     0.001 A 
ATOM     19  C   UNL d   1      -3.178   4.974  -0.172  0.00  0.00     0.000 A 
ATOM     20  C   UNL d   1      -3.783   3.937   0.538  0.00  0.00     0.001 A 
ATOM     21  C   UNL d   1      -3.198   2.665   0.568  0.00  0.00     0.014 A 
ENDBRANCH   4  16
TORSDOF 2
