REMARK  8 active torsions:
REMARK  status: ('A' for Active; 'I' for Inactive)
REMARK    1  A    between atoms: C_8  and  N_1 
REMARK    2  A    between atoms: C_10  and  C_2 
REMARK    3  A    between atoms: S_9  and  C_5 
REMARK    4  A    between atoms: C_11  and  C_8 
REMARK    5  A    between atoms: C_12  and  S_9 
REMARK    6  A    between atoms: O_20  and  C_11 
REMARK    7  A    between atoms: O_21  and  C_11 
REMARK    8  A    between atoms: C_14  and  C_12 
ROOT
ATOM      1  N   UNL d   1      -0.307  -1.127  -0.292  0.00  0.00    -0.306 N 
ATOM      2  C   UNL d   1       0.900  -0.464  -0.515  0.00  0.00     0.134 A 
ATOM      3  N   UNL d   1       0.633   0.827  -0.635  0.00  0.00    -0.283 N 
ATOM      4  HN  UNL d   1       1.314   1.554  -0.854  1.00  0.00     0.188 HD
ATOM      5  C   UNL d   1      -1.245  -0.135  -0.184  0.00  0.00     0.163 A 
ATOM      6  N   UNL d   1      -0.699   1.030  -0.421  0.00  0.00    -0.278 N 
ATOM      7  HN  UNL d   1      -1.182   1.928  -0.442  1.00  0.00     0.189 HD
ENDROOT
BRANCH   5   8
ATOM      8  S   UNL d   1      -2.895  -0.344   0.286  0.00  0.00    -0.088 SA
BRANCH   8   9
ATOM      9  C   UNL d   1      -3.663   1.073  -0.561  0.00  0.00     0.121 C 
BRANCH   9  10
ATOM     10  C   UNL d   1      -5.158   1.092  -0.336  0.00  0.00    -0.048 A 
ATOM     11  C   UNL d   1      -5.694   1.715   0.802  0.00  0.00     0.009 A 
ATOM     12  C   UNL d   1      -7.073   1.719   1.027  0.00  0.00     0.024 A 
ATOM     13  C   UNL d   1      -7.924   1.095   0.118  0.00  0.00     0.034 A 
ATOM     14  C   UNL d   1      -7.409   0.468  -1.014  0.00  0.00     0.024 A 
ATOM     15 CL   UNL d   1      -9.622   1.096   0.398  0.00  0.00    -0.084 Cl
ATOM     16  C   UNL d   1      -6.030   0.463  -1.240  0.00  0.00     0.009 A 
ENDBRANCH   9  10
ENDBRANCH   8   9
ENDBRANCH   5   8
BRANCH   1  17
ATOM     17  C   UNL d   1      -0.446  -2.561  -0.132  0.00  0.00     0.193 C 
BRANCH  17  18
ATOM     18  C   UNL d   1      -1.724  -3.287  -0.585  0.00  0.00     0.276 C 
BRANCH  18  19
ATOM     19  O   UNL d   1      -1.890  -3.053  -1.986  0.00  0.00    -0.364 OA
ATOM     20  C   UNL d   1      -3.129  -3.555  -2.468  0.00  0.00     0.204 C 
ENDBRANCH  18  19
BRANCH  18  21
ATOM     21  O   UNL d   1      -1.590  -4.699  -0.359  0.00  0.00    -0.364 OA
ATOM     22  C   UNL d   1      -1.588  -5.063   1.016  0.00  0.00     0.204 C 
ENDBRANCH  18  21
ENDBRANCH  17  18
ENDBRANCH   1  17
BRANCH   2  23
ATOM     23  C   UNL d   1       2.253  -1.032  -0.659  0.00  0.00     0.009 A 
ATOM     24  C   UNL d   1       3.165  -0.381  -1.506  0.00  0.00     0.015 A 
ATOM     25  C   UNL d   1       4.450  -0.888  -1.718  0.00  0.00     0.001 A 
ATOM     26  C   UNL d   1       4.848  -2.061  -1.083  0.00  0.00     0.000 A 
ATOM     27  C   UNL d   1       3.977  -2.699  -0.207  0.00  0.00     0.001 A 
ATOM     28  C   UNL d   1       2.700  -2.174   0.023  0.00  0.00     0.015 A 
ENDBRANCH   2  23
TORSDOF 8
