REMARK  4 active torsions:
REMARK  status: ('A' for Active; 'I' for Inactive)
REMARK    1  A    between atoms: C_6  and  C_1 
REMARK    2  A    between atoms: O_14  and  C_2 
REMARK       I    between atoms: N_8  and  C_6 
REMARK       I    between atoms: C_7  and  N_9 
REMARK    3  A    between atoms: C_12  and  C_7 
REMARK    4  A    between atoms: N_9  and  N_8 
ROOT
ATOM      1  C   UNL d   1      -3.339   2.128  -0.053  0.00  0.00     0.273 C 
ATOM      2  N   UNL d   1      -4.718   2.015  -0.013  0.00  0.00    -0.263 N 
ATOM      3  O   UNL d   1      -2.606   1.163   0.137  0.00  0.00    -0.266 OA
ATOM      4  H   UNL d   1      -5.346   2.724  -0.387  0.00  0.00     0.190 HD
ENDROOT
BRANCH   2   5
ATOM      5  N   UNL d   1      -5.278   0.754   0.236  0.00  0.00    -0.263 N 
ATOM      6  C   UNL d   1      -6.527   0.476  -0.276  0.00  0.00     0.270 C 
ATOM      7  O   UNL d   1      -7.193   1.293  -0.905  0.00  0.00    -0.266 OA
ATOM      8  H   UNL d   1      -4.622   0.020   0.505  0.00  0.00     0.190 HD
BRANCH   6   9
ATOM      9  C   UNL d   1      -7.034  -0.901  -0.028  0.00  0.00     0.033 A 
ATOM     10  C   UNL d   1      -6.724  -1.585   1.157  0.00  0.00     0.017 A 
ATOM     11  C   UNL d   1      -7.232  -2.867   1.376  0.00  0.00     0.001 A 
ATOM     12  C   UNL d   1      -8.048  -3.469   0.418  0.00  0.00     0.000 A 
ATOM     13  C   UNL d   1      -8.366  -2.788  -0.758  0.00  0.00     0.001 A 
ATOM     14  C   UNL d   1      -7.867  -1.501  -0.979  0.00  0.00     0.017 A 
ENDBRANCH   6   9
ENDBRANCH   2   5
BRANCH   1  15
ATOM     15  C   UNL d   1      -2.830   3.479  -0.285  0.00  0.00     0.075 A 
ATOM     16  C   UNL d   1      -1.597   3.817  -0.956  0.00  0.00     0.108 A 
ATOM     17  C   UNL d   1      -1.382   5.181  -0.975  0.00  0.00     0.085 A 
ATOM     18 BR   UNL d   1       0.026   6.096  -1.819  0.00  0.00    -0.040 Br
ATOM     19  S   UNL d   1      -2.596   6.051  -0.164  0.00  0.00    -0.090 SA
ATOM     20  C   UNL d   1      -3.465   4.622   0.177  0.00  0.00     0.071 A 
BRANCH  16  21
ATOM     21  O   UNL d   1      -0.854   2.883  -1.608  0.00  0.00    -0.353 OA
ATOM     22  C   UNL d   1       0.516   2.839  -1.224  0.00  0.00     0.210 C 
ENDBRANCH  16  21
ENDBRANCH   1  15
TORSDOF 4
