REMARK  8 active torsions:
REMARK  status: ('A' for Active; 'I' for Inactive)
REMARK    1  A    between atoms: N_3  and  C_1 
REMARK    2  A    between atoms: N_7  and  C_1 
REMARK       I    between atoms: C_2  and  N_4 
REMARK       I    between atoms: N_5  and  C_2 
REMARK    3  A    between atoms: N_4  and  N_3 
REMARK    4  A    between atoms: C_11  and  N_5 
REMARK    5  A    between atoms: C_10  and  N_7 
REMARK    6  A    between atoms: C_9  and  C_10 
REMARK    7  A    between atoms: O_12  and  C_9 
REMARK    8  A    between atoms: O_13  and  C_9 
ROOT
ATOM      1  N   UNL d   1       0.774   1.566  -0.074  0.00  0.00    -0.272 N 
ATOM      2  H   UNL d   1      -0.025   1.786  -0.669  0.00  0.00     0.189 HD
ENDROOT
BRANCH   1   3
ATOM      3  C   UNL d   1       1.163   0.250  -0.035  0.00  0.00     0.186 C 
ATOM      4  S   UNL d   1       1.660  -0.594   1.319  0.00  0.00    -0.040 SA
BRANCH   3   5
ATOM      5  N   UNL d   1       1.204  -0.378  -1.248  0.00  0.00    -0.361 N 
ATOM      6  H   UNL d   1       1.395  -1.377  -1.229  0.00  0.00     0.162 HD
BRANCH   5   7
ATOM      7  C   UNL d   1       1.153   0.262  -2.563  0.00  0.00     0.182 C 
BRANCH   7   8
ATOM      8  C   UNL d   1       2.092  -0.403  -3.595  0.00  0.00     0.275 C 
BRANCH   8   9
ATOM      9  O   UNL d   1       1.568  -1.714  -3.851  0.00  0.00    -0.364 OA
ATOM     10  C   UNL d   1       2.413  -2.478  -4.700  0.00  0.00     0.204 C 
ENDBRANCH   8   9
BRANCH   8  11
ATOM     11  O   UNL d   1       2.130   0.348  -4.811  0.00  0.00    -0.364 OA
ATOM     12  C   UNL d   1       2.874   1.556  -4.713  0.00  0.00     0.204 C 
ENDBRANCH   8  11
ENDBRANCH   7   8
ENDBRANCH   5   7
ENDBRANCH   3   5
ENDBRANCH   1   3
BRANCH   1  13
ATOM     13  N   UNL d   1       0.851   2.373   1.075  0.00  0.00    -0.249 N 
ATOM     14  C   UNL d   1      -0.171   3.286   1.294  0.00  0.00     0.339 C 
ATOM     15  N   UNL d   1       0.151   4.150   2.323  0.00  0.00    -0.308 N 
ATOM     16  O   UNL d   1      -1.197   3.279   0.621  0.00  0.00    -0.245 OA
ATOM     17  H   UNL d   1       1.046   3.989   2.762  0.00  0.00     0.170 HD
ATOM     18  H   UNL d   1       1.794   2.620   1.347  0.00  0.00     0.192 HD
BRANCH  15  19
ATOM     19  C   UNL d   1      -0.602   5.226   2.825  0.00  0.00     0.036 A 
ATOM     20  C   UNL d   1      -1.902   5.520   2.427  0.00  0.00     0.029 A 
ATOM     21  C   UNL d   1      -2.583   6.609   2.986  0.00  0.00     0.002 A 
ATOM     22  C   UNL d   1      -1.963   7.410   3.943  0.00  0.00     0.000 A 
ATOM     23  C   UNL d   1      -0.662   7.122   4.346  0.00  0.00     0.002 A 
ATOM     24  C   UNL d   1       0.013   6.030   3.798  0.00  0.00     0.029 A 
ENDBRANCH  15  19
ENDBRANCH   1  13
TORSDOF 8
