REMARK  5 active torsions:
REMARK  status: ('A' for Active; 'I' for Inactive)
REMARK    1  A    between atoms: C_2  and  C_1 
REMARK       I    between atoms: N_5  and  C_2 
REMARK    2  A    between atoms: N_6  and  C_3 
REMARK    3  A    between atoms: C_10  and  N_5 
REMARK    4  A    between atoms: S_7  and  C_11 
REMARK    5  A    between atoms: C_11  and  C_10 
ROOT
ATOM      1  C   UNL d   1       0.364   1.242   0.058  0.00  0.00     0.052 A 
ATOM      2  C   UNL d   1       0.953   0.021   0.448  0.00  0.00     0.021 A 
ATOM      3  C   UNL d   1      -0.962   1.264  -0.411  0.00  0.00     0.019 A 
ATOM      4  C   UNL d   1       0.223  -1.162   0.255  0.00  0.00     0.024 A 
ATOM      5  C   UNL d   1      -1.691   0.082  -0.536  0.00  0.00     0.001 A 
ATOM      6  C   UNL d   1      -1.096  -1.131  -0.208  0.00  0.00     0.002 A 
ENDROOT
BRANCH   1   7
ATOM      7  C   UNL d   1       1.054   2.560   0.162  0.00  0.00     0.253 C 
ATOM      8  O   UNL d   1       0.413   3.580   0.395  0.00  0.00    -0.268 OA
ATOM      9  N   UNL d   1       2.419   2.561  -0.044  0.00  0.00    -0.356 N 
ATOM     10  H   UNL d   1       2.807   1.746  -0.516  0.00  0.00     0.162 HD
BRANCH   9  11
ATOM     11  C   UNL d   1       3.147   3.814  -0.128  0.00  0.00     0.133 C 
BRANCH  11  12
ATOM     12  C   UNL d   1       4.652   3.625  -0.306  0.00  0.00     0.093 C 
BRANCH  12  13
ATOM     13  S   UNL d   1       5.029   2.800  -1.893  0.00  0.00    -0.172 SA
ATOM     14  C   UNL d   1       6.833   2.789  -1.775  0.00  0.00     0.089 C 
ENDBRANCH  12  13
ENDBRANCH  11  12
ENDBRANCH   9  11
ENDBRANCH   1   7
BRANCH   2  15
ATOM     15  N   UNL d   1       2.304  -0.094   0.842  0.00  0.00    -0.302 NA
ATOM     16  H   UNL d   1       2.626   0.739   1.339  0.00  0.00     0.124 HD
ATOM     17  H   UNL d   1       2.500  -0.939   1.368  0.00  0.00     0.124 HD
ENDBRANCH   2  15
TORSDOF 5
