REMARK  4 active torsions:
REMARK  status: ('A' for Active; 'I' for Inactive)
REMARK    1  A    between atoms: C_3  and  C_4 
REMARK    2  A    between atoms: O_10  and  C_15 
REMARK    3  A    between atoms: C_13  and  O_10 
REMARK    4  A    between atoms: C_15  and  C_11 
ROOT
ATOM      1  O   UNL d   1      -3.662   2.836  -0.288  0.00  0.00    -0.347 OA
ENDROOT
BRANCH   1   2
ATOM      2  C   UNL d   1      -3.317   2.079   0.873  0.00  0.00     0.214 C 
BRANCH   2   3
ATOM      3  C   UNL d   1      -2.079   1.245   0.611  0.00  0.00    -0.032 A 
ATOM      4  C   UNL d   1      -1.092   1.650  -0.304  0.00  0.00     0.035 A 
ATOM      5  C   UNL d   1       0.050   0.869  -0.520  0.00  0.00     0.056 A 
ATOM      6  C   UNL d   1       0.224  -0.322   0.191  0.00  0.00     0.055 A 
ATOM      7 CL   UNL d   1       1.204   1.432  -1.677  0.00  0.00    -0.083 Cl
ATOM      8  C   UNL d   1      -0.740  -0.722   1.119  0.00  0.00     0.026 A 
ATOM      9 CL   UNL d   1       1.603  -1.341  -0.023  0.00  0.00    -0.083 Cl
ATOM     10  C   UNL d   1      -1.880   0.059   1.331  0.00  0.00     0.011 A 
ENDBRANCH   2   3
ENDBRANCH   1   2
BRANCH   1  11
ATOM     11  C   UNL d   1      -4.712   3.701  -0.155  0.00  0.00     0.069 A 
ATOM     12  C   UNL d   1      -4.688   4.797  -1.018  0.00  0.00     0.037 A 
ATOM     13  C   UNL d   1      -5.718   5.740  -0.998  0.00  0.00     0.018 A 
ATOM     14  C   UNL d   1      -6.804   5.579  -0.129  0.00  0.00     0.009 A 
ATOM     15  C   UNL d   1      -6.831   4.481   0.737  0.00  0.00     0.018 A 
ATOM     16  C   UNL d   1      -5.788   3.543   0.720  0.00  0.00     0.037 A 
BRANCH  14  17
ATOM     17  C   UNL d   1      -7.884   6.601  -0.163  0.00  0.00     0.155 C 
ATOM     18  O   UNL d   1      -7.617   7.747  -0.523  0.00  0.00    -0.293 OA
ATOM     19  C   UNL d   1      -9.295   6.217   0.202  0.00  0.00     0.096 C 
ENDBRANCH  14  17
ENDBRANCH   1  11
TORSDOF 4
