REMARK  8 active torsions:
REMARK  status: ('A' for Active; 'I' for Inactive)
REMARK    1  A    between atoms: C_3  and  C_1 
REMARK    2  A    between atoms: N_2  and  C_6 
REMARK       I    between atoms: N_7  and  C_3 
REMARK    3  A    between atoms: O_9  and  C_5 
REMARK    4  A    between atoms: C_16  and  N_7 
REMARK    5  A    between atoms: C_17  and  O_9 
REMARK    6  A    between atoms: C_11  and  C_16 
REMARK    7  A    between atoms: O_19  and  C_11 
REMARK    8  A    between atoms: O_24  and  C_18 
ROOT
ATOM      1  C   UNL d   1       1.562  -0.005   0.186  0.00  0.00     0.068 C 
ATOM      2  C   UNL d   1       0.692  -1.092   0.396  0.00  0.00     0.056 C 
ATOM      3  C   UNL d   1       1.053   1.155  -0.427  0.00  0.00     0.091 C 
ATOM      4  C   UNL d   1      -0.676  -0.964   0.106  0.00  0.00     0.104 C 
ATOM      5  C   UNL d   1      -0.334   1.319  -0.574  0.00  0.00     0.041 C 
ATOM      6  C   UNL d   1      -1.200   0.260  -0.319  0.00  0.00     0.039 C 
ENDROOT
BRANCH   1   7
ATOM      7  C   UNL d   1       2.952  -0.121   0.748  0.00  0.00     0.254 C 
ATOM      8  N   UNL d   1       3.754   0.989   0.662  0.00  0.00    -0.347 N 
ATOM      9  H   UNL d   1       3.425   1.815   0.174  0.00  0.00     0.163 HD
ATOM     10  O   UNL d   1       3.297  -1.138   1.332  0.00  0.00    -0.268 OA
BRANCH   8  11
ATOM     11  C   UNL d   1       4.984   1.141   1.431  0.00  0.00     0.233 C 
BRANCH  11  12
ATOM     12  C   UNL d   1       5.787   2.381   1.034  0.00  0.00     0.276 C 
ATOM     13  O   UNL d   1       6.829   2.722   1.580  0.00  0.00    -0.263 OA
BRANCH  12  14
ATOM     14  O   UNL d   1       5.198   3.038  -0.009  0.00  0.00    -0.325 OA
ATOM     15  C   UNL d   1       5.921   4.148  -0.549  0.00  0.00     0.213 C 
ENDBRANCH  12  14
ENDBRANCH  11  12
ENDBRANCH   8  11
ENDBRANCH   1   7
BRANCH   3  16
ATOM     16  O   UNL d   1       1.906   2.145  -0.874  0.00  0.00    -0.310 OA
BRANCH  16  17
ATOM     17  C   UNL d   1       1.717   2.651  -2.149  0.00  0.00     0.076 A 
ATOM     18  C   UNL d   1       2.224   3.931  -2.382  0.00  0.00     0.040 A 
ATOM     19  C   UNL d   1       2.030   4.563  -3.619  0.00  0.00     0.039 A 
ATOM     20  C   UNL d   1       1.320   3.919  -4.632  0.00  0.00     0.068 A 
ATOM     21  C   UNL d   1       0.860   2.619  -4.415  0.00  0.00     0.039 A 
ATOM     22  C   UNL d   1       1.079   1.976  -3.194  0.00  0.00     0.040 A 
BRANCH  20  23
ATOM     23  O   UNL d   1       1.003   4.431  -5.858  0.00  0.00    -0.356 OA
ATOM     24  C   UNL d   1       1.405   5.764  -6.141  0.00  0.00     0.210 C 
ENDBRANCH  20  23
ENDBRANCH  16  17
ENDBRANCH   3  16
BRANCH   4  25
ATOM     25  N   UNL d   1      -1.576  -2.117   0.243  0.00  0.00    -0.116 N 
ATOM     26  O   UNL d   1      -1.068  -3.220   0.485  0.00  0.00    -0.532 OA
ATOM     27  O   UNL d   1      -2.788  -1.920   0.083  0.00  0.00    -0.532 OA
ENDBRANCH   4  25
TORSDOF 8
