REMARK  6 active torsions:
REMARK  status: ('A' for Active; 'I' for Inactive)
REMARK    1  A    between atoms: C_6  and  C_3 
REMARK    2  A    between atoms: N_10  and  C_4 
REMARK    3  A    between atoms: C_9  and  C_5 
REMARK    4  A    between atoms: O_12  and  C_9 
REMARK    5  A    between atoms: C_18  and  O_12 
REMARK    6  A    between atoms: C_21  and  C_18 
ROOT
ATOM      1  N   UNL d   1       1.233   0.544   0.059  0.00  0.00    -0.185 N 
ATOM      2  HN  UNL d   1       2.149   0.993   0.035  1.00  0.00     0.184 HD
ATOM      3  C   UNL d   1       1.144  -0.825   0.082  0.00  0.00     0.150 A 
ATOM      4  C   UNL d   1       0.125   1.293   0.069  0.00  0.00     0.680 A 
ATOM      5  C   UNL d   1      -0.081  -1.472   0.096  0.00  0.00     0.087 A 
ATOM      6  N   UNL d   1      -1.089   0.731   0.129  0.00  0.00    -0.201 N 
ATOM      7  HN  UNL d   1      -1.931   1.305   0.176  1.00  0.00     0.183 HD
ATOM      8  C   UNL d   1      -1.168  -0.623   0.125  0.00  0.00     0.126 A 
ENDROOT
BRANCH   5   9
ATOM      9  C   UNL d   1      -0.229  -2.948   0.010  0.00  0.00     0.297 C 
ATOM     10  O   UNL d   1       0.718  -3.704  -0.072  0.00  0.00    -0.259 OA
BRANCH   9  11
ATOM     11  O   UNL d   1      -1.535  -3.318  -0.055  0.00  0.00    -0.313 OA
BRANCH  11  12
ATOM     12  C   UNL d   1      -1.783  -4.642  -0.571  0.00  0.00     0.217 C 
BRANCH  12  13
ATOM     13  C   UNL d   1      -2.325  -5.611   0.455  0.00  0.00    -0.034 A 
ATOM     14  C   UNL d   1      -3.621  -6.137   0.324  0.00  0.00     0.009 A 
ATOM     15  C   UNL d   1      -4.083  -7.128   1.195  0.00  0.00     0.001 A 
ATOM     16  C   UNL d   1      -3.257  -7.605   2.209  0.00  0.00     0.000 A 
ATOM     17  C   UNL d   1      -1.972  -7.085   2.357  0.00  0.00     0.001 A 
ATOM     18  C   UNL d   1      -1.508  -6.092   1.487  0.00  0.00     0.009 A 
ENDBRANCH  12  13
ENDBRANCH  11  12
ENDBRANCH   9  11
ENDBRANCH   5   9
BRANCH   3  19
ATOM     19  C   UNL d   1       2.463  -1.573   0.077  0.00  0.00     0.434 C 
ATOM     20  F   UNL d   1       3.545  -0.733   0.111  0.00  0.00    -0.165 F 
ATOM     21  F   UNL d   1       2.625  -2.384   1.160  0.00  0.00    -0.165 F 
ATOM     22  F   UNL d   1       2.657  -2.333  -1.037  0.00  0.00    -0.165 F 
ENDBRANCH   3  19
BRANCH   4  23
ATOM     23  N   UNL d   1       0.238   2.660  -0.098  0.00  0.00    -0.214 N 
ATOM     24  C   UNL d   1      -0.752   3.496   0.593  0.00  0.00     0.167 C 
ATOM     25  C   UNL d   1      -0.704   4.923   0.014  0.00  0.00     0.188 C 
ATOM     26  O   UNL d   1       0.622   5.480   0.064  0.00  0.00    -0.388 OA
ATOM     27  C   UNL d   1       1.537   4.651  -0.673  0.00  0.00     0.188 C 
ATOM     28  C   UNL d   1       1.593   3.230  -0.090  0.00  0.00     0.167 C 
ENDBRANCH   4  23
TORSDOF 6
