REMARK  7 active torsions:
REMARK  status: ('A' for Active; 'I' for Inactive)
REMARK    1  A    between atoms: C_9  and  C_1 
REMARK    2  A    between atoms: S_5  and  C_13 
REMARK    3  A    between atoms: C_17  and  S_5 
REMARK    4  A    between atoms: S_16  and  C_6 
REMARK    5  A    between atoms: C_13  and  C_10 
REMARK    6  A    between atoms: C_14  and  C_21 
REMARK    7  A    between atoms: C_21  and  S_16 
ROOT
ATOM      1  C   UNL d   1       4.353  -5.803  -0.373  0.00  0.00     0.065 A 
ATOM      2  N   UNL d   1       4.064  -4.523  -0.281  0.00  0.00    -0.355 N 
ATOM      3  HN  UNL d   1       4.756  -3.774  -0.316  1.00  0.00     0.166 HD
ATOM      4  C   UNL d   1       2.694  -4.321  -0.131  0.00  0.00     0.026 A 
ATOM      5  S   UNL d   1       2.990  -6.852  -0.223  0.00  0.00    -0.086 SA
ATOM      6  C   UNL d   1       1.961  -5.493  -0.086  0.00  0.00     0.077 A 
ENDROOT
BRANCH   4   7
ATOM      7  C   UNL d   1       2.183  -2.906  -0.094  0.00  0.00     0.140 C 
BRANCH   7   8
ATOM      8  S   UNL d   1       0.771  -2.687   1.040  0.00  0.00    -0.086 SA
BRANCH   8   9
ATOM      9  C   UNL d   1       0.451  -1.000   0.831  0.00  0.00     0.162 A 
ATOM     10  N   UNL d   1      -0.565  -0.325   1.465  0.00  0.00    -0.312 N 
ATOM     11  C   UNL d   1      -0.444   0.989   1.062  0.00  0.00     0.209 A 
ATOM     12  C   UNL d   1      -1.528  -0.925   2.354  0.00  0.00     0.160 C 
ATOM     13  N   UNL d   1       0.569   1.067   0.210  0.00  0.00    -0.279 N 
ATOM     14  N   UNL d   1       1.124  -0.176   0.069  0.00  0.00    -0.278 N 
ATOM     15  HN  UNL d   1       0.883   1.915  -0.262  1.00  0.00     0.188 HD
ATOM     16  HN  UNL d   1       1.919  -0.417  -0.523  1.00  0.00     0.189 HD
BRANCH  11  17
ATOM     17  C   UNL d   1      -1.281   2.145   1.490  0.00  0.00     0.450 C 
ATOM     18  F   UNL d   1      -2.239   1.827   2.399  0.00  0.00    -0.163 F 
ATOM     19  F   UNL d   1      -0.535   3.124   2.066  0.00  0.00    -0.163 F 
ATOM     20  F   UNL d   1      -1.934   2.712   0.442  0.00  0.00    -0.163 F 
ENDBRANCH  11  17
ENDBRANCH   8   9
ENDBRANCH   7   8
ENDBRANCH   4   7
BRANCH   1  21
ATOM     21  C   UNL d   1       5.692  -6.425  -0.550  0.00  0.00     0.210 C 
BRANCH  21  22
ATOM     22  S   UNL d   1       6.977  -5.239  -0.841  0.00  0.00     0.181 S 
ATOM     23  O   UNL d   1       8.239  -5.957  -0.753  0.00  0.00    -0.222 OA
ATOM     24  O   UNL d   1       6.675  -4.481  -2.039  0.00  0.00    -0.222 OA
BRANCH  22  25
ATOM     25  C   UNL d   1       6.966  -4.136   0.553  0.00  0.00     0.059 A 
ATOM     26  C   UNL d   1       7.268  -4.640   1.823  0.00  0.00     0.025 A 
ATOM     27  C   UNL d   1       7.251  -3.782   2.924  0.00  0.00     0.025 A 
ATOM     28  C   UNL d   1       6.949  -2.431   2.746  0.00  0.00     0.034 A 
ATOM     29  C   UNL d   1       6.674  -1.925   1.474  0.00  0.00     0.025 A 
ATOM     30 CL   UNL d   1       6.919  -1.380   4.108  0.00  0.00    -0.084 Cl
ATOM     31  C   UNL d   1       6.686  -2.778   0.369  0.00  0.00     0.025 A 
ENDBRANCH  22  25
ENDBRANCH  21  22
ENDBRANCH   1  21
TORSDOF 7
