REMARK  3 active torsions:
REMARK  status: ('A' for Active; 'I' for Inactive)
REMARK    1  A    between atoms: C_5  and  C_1 
REMARK    2  A    between atoms: C_4  and  N_10 
REMARK       I    between atoms: N_10  and  C_5 
REMARK    3  A    between atoms: C_15  and  C_6 
ROOT
ATOM      1  C   UNL d   1       1.711  -4.890   0.524  0.00  0.00     0.259 C 
ATOM      2  N   UNL d   1       0.823  -4.326  -0.360  0.00  0.00    -0.302 N 
ATOM      3  O   UNL d   1       1.410  -5.673   1.417  0.00  0.00    -0.267 OA
ATOM      4  H   UNL d   1       1.132  -3.750  -1.127  0.00  0.00     0.171 HD
ENDROOT
BRANCH   2   5
ATOM      5  C   UNL d   1      -0.527  -4.451  -0.175  0.00  0.00     0.168 A 
ATOM      6  S   UNL d   1      -1.500  -3.663  -1.339  0.00  0.00    -0.037 SA
ATOM      7  C   UNL d   1      -2.855  -4.167  -0.414  0.00  0.00     0.074 A 
ATOM      8  N   UNL d   1      -2.554  -4.882   0.647  0.00  0.00    -0.296 N 
ATOM      9  N   UNL d   1      -1.190  -5.051   0.781  0.00  0.00    -0.279 N 
ATOM     10  HN  UNL d   1      -3.244  -5.266   1.293  1.00  0.00     0.187 HD
ATOM     11  HN  UNL d   1      -0.752  -5.580   1.536  1.00  0.00     0.189 HD
BRANCH   7  12
ATOM     12  C   UNL d   1      -4.294  -3.801  -0.773  0.00  0.00     0.044 A 
ATOM     13  C   UNL d   1      -5.256  -3.526   0.368  0.00  0.00     0.012 A 
ATOM     14  C   UNL d   1      -5.400  -4.778  -0.425  0.00  0.00     0.012 A 
ENDBRANCH   7  12
ENDBRANCH   2   5
BRANCH   1  15
ATOM     15  C   UNL d   1       3.125  -4.514   0.361  0.00  0.00     0.063 A 
ATOM     16  C   UNL d   1       3.689  -3.577  -0.483  0.00  0.00     0.091 A 
ATOM     17  S   UNL d   1       5.375  -3.413  -0.312  0.00  0.00    -0.065 SA
ATOM     18 CL   UNL d   1       2.927  -2.558  -1.648  0.00  0.00    -0.075 Cl
ATOM     19  C   UNL d   1       5.405  -4.589   0.897  0.00  0.00     0.077 A 
ATOM     20  C   UNL d   1       4.170  -5.112   1.168  0.00  0.00     0.050 A 
ATOM     21 CL   UNL d   1       6.886  -5.010   1.654  0.00  0.00    -0.076 Cl
ENDBRANCH   1  15
TORSDOF 3
