REMARK  3 active torsions:
REMARK  status: ('A' for Active; 'I' for Inactive)
REMARK       I    between atoms: C_2  and  N_1 
REMARK       I    between atoms: C_3  and  N_1 
REMARK    1  A    between atoms: O_4  and  C_2 
REMARK    2  A    between atoms: C_7  and  C_3 
REMARK    3  A    between atoms: C_8  and  O_4 
ROOT
ATOM      1  N   UNL d   1       1.476   0.432  -0.164  0.00  0.00    -0.169 NA
ATOM      2  C   UNL d   1       0.324   0.726   0.533  0.00  0.00     0.350 C 
ATOM      3  C   UNL d   1       2.602  -0.067   0.446  0.00  0.00     0.239 C 
ATOM      4  O   UNL d   1      -0.763   0.449   0.028  0.00  0.00    -0.244 OA
ATOM      5  O   UNL d   1       2.845  -1.270   0.402  0.00  0.00    -0.274 OA
ATOM      6  H   UNL d   1       1.162  -0.228  -0.868  0.00  0.00     0.142 HD
ENDROOT
BRANCH   2   7
ATOM      7  O   UNL d   1       0.520   1.318   1.773  0.00  0.00    -0.266 OA
BRANCH   7   8
ATOM      8  C   UNL d   1      -0.660   1.877   2.278  0.00  0.00     0.080 A 
ATOM      9  C   UNL d   1      -1.722   1.074   2.697  0.00  0.00     0.039 A 
ATOM     10  C   UNL d   1      -2.930   1.675   3.057  0.00  0.00     0.026 A 
ATOM     11  C   UNL d   1      -3.049   3.066   3.031  0.00  0.00     0.034 A 
ATOM     12  C   UNL d   1      -1.958   3.865   2.686  0.00  0.00     0.026 A 
ATOM     13 CL   UNL d   1      -4.559   3.801   3.404  0.00  0.00    -0.084 Cl
ATOM     14  C   UNL d   1      -0.751   3.269   2.315  0.00  0.00     0.039 A 
ENDBRANCH   7   8
ENDBRANCH   2   7
BRANCH   3  15
ATOM     15  C   UNL d   1       3.601   0.905   0.978  0.00  0.00     0.026 A 
ATOM     16  C   UNL d   1       4.860   0.411   1.353  0.00  0.00     0.016 A 
ATOM     17  C   UNL d   1       5.855   1.278   1.812  0.00  0.00     0.001 A 
ATOM     18  C   UNL d   1       5.596   2.643   1.914  0.00  0.00     0.000 A 
ATOM     19  C   UNL d   1       4.351   3.145   1.538  0.00  0.00     0.001 A 
ATOM     20  C   UNL d   1       3.362   2.283   1.055  0.00  0.00     0.016 A 
ENDBRANCH   3  15
TORSDOF 3
