REMARK  1 active torsions:
REMARK  status: ('A' for Active; 'I' for Inactive)
REMARK    1  A    between atoms: C_6  and  C_2 
ROOT
ATOM      1  C   UNL d   1      -0.013  -0.704  -0.070  0.00  0.00     0.024 C 
ATOM      2  C   UNL d   1      -1.284  -1.524   0.129  0.00  0.00     0.110 C 
ATOM      3  C   UNL d   1      -2.561  -0.684  -0.055  0.00  0.00     0.058 C 
ATOM      4  C   UNL d   1      -0.042   0.643  -0.142  0.00  0.00     0.020 C 
ATOM      5  N   UNL d   1      -1.256   1.305  -0.133  0.00  0.00    -0.362 N 
ATOM      6  C   UNL d   1      -2.488   0.668  -0.129  0.00  0.00     0.023 C 
ATOM      7  C   UNL d   1      -3.810  -1.377  -0.094  0.00  0.00     0.098 C 
ATOM      8  C   UNL d   1       1.281  -1.435  -0.182  0.00  0.00     0.158 C 
ATOM      9  N   UNL d   1      -4.833  -1.926  -0.146  0.00  0.00    -0.192 NA
ATOM     10  O   UNL d   1       1.312  -2.664  -0.180  0.00  0.00    -0.293 OA
ATOM     11  C   UNL d   1       1.210   1.488  -0.180  0.00  0.00     0.058 C 
ATOM     12  C   UNL d   1      -3.715   1.543  -0.166  0.00  0.00     0.069 C 
ATOM     13  C   UNL d   1       2.536  -0.625  -0.416  0.00  0.00     0.084 C 
ATOM     14  C   UNL d   1       2.441   0.717   0.289  0.00  0.00     0.014 C 
ATOM     15  H   UNL d   1      -1.244   2.321  -0.191  0.00  0.00     0.165 HD
ENDROOT
BRANCH   2  16
ATOM     16  C   UNL d   1      -1.299  -2.248   1.482  0.00  0.00     0.002 A 
ATOM     17  C   UNL d   1      -1.374  -3.607   1.761  0.00  0.00    -0.047 A 
ATOM     18  C   UNL d   1      -1.385  -3.840   3.178  0.00  0.00     0.015 A 
ATOM     19  C   UNL d   1      -1.435  -4.724   0.770  0.00  0.00     0.049 C 
ATOM     20  C   UNL d   1      -1.311  -2.683   3.916  0.00  0.00     0.051 A 
ATOM     21  S   UNL d   1      -1.227  -1.304   2.928  0.00  0.00    -0.105 SA
ENDBRANCH   2  16
TORSDOF 1
