REMARK  3 active torsions:
REMARK  status: ('A' for Active; 'I' for Inactive)
REMARK    1  A    between atoms: C_9  and  C_6 
REMARK    2  A    between atoms: C_10  and  C_7 
REMARK    3  A    between atoms: S_20  and  C_8 
ROOT
ATOM      1  N   UNL d   1       1.487   1.217   0.046  0.00  0.00    -0.337 N 
ATOM      2  HN  UNL d   1       1.995   2.101   0.088  1.00  0.00     0.167 HD
ATOM      3  C   UNL d   1      -0.596   0.013  -0.009  0.00  0.00     0.107 A 
ATOM      4  N   UNL d   1       1.511  -1.138  -0.116  0.00  0.00    -0.334 N 
ATOM      5  HN  UNL d   1       2.038  -2.009  -0.177  1.00  0.00     0.168 HD
ATOM      6  C   UNL d   1       2.138   0.048  -0.052  0.00  0.00     0.135 A 
ATOM      7  C   UNL d   1       0.133   1.185   0.088  0.00  0.00     0.091 A 
ATOM      8  C   UNL d   1       0.160  -1.144  -0.096  0.00  0.00     0.094 A 
ATOM      9  C   UNL d   1      -2.024  -0.011  -0.060  0.00  0.00     0.104 C 
ATOM     10  N   UNL d   1      -3.182  -0.047  -0.130  0.00  0.00    -0.191 NA
ENDROOT
BRANCH   7  11
ATOM     11  C   UNL d   1      -0.445   2.513   0.272  0.00  0.00     0.103 A 
ATOM     12  O   UNL d   1      -1.648   2.579   0.917  0.00  0.00    -0.320 OA
ATOM     13  C   UNL d   1      -1.980   3.890   1.028  0.00  0.00     0.142 A 
ATOM     14  C   UNL d   1      -1.002   4.680   0.474  0.00  0.00     0.027 A 
ATOM     15  C   UNL d   1      -0.007   3.794  -0.007  0.00  0.00     0.041 A 
ENDBRANCH   7  11
BRANCH   8  16
ATOM     16  S   UNL d   1      -0.604  -2.768  -0.189  0.00  0.00    -0.115 SA
ATOM     17  C   UNL d   1       0.852  -3.849  -0.147  0.00  0.00     0.097 C 
ENDBRANCH   8  16
BRANCH   6  18
ATOM     18  C   UNL d   1       3.615   0.043  -0.083  0.00  0.00     0.092 A 
ATOM     19  N   UNL d   1       4.275   1.237  -0.025  0.00  0.00    -0.360 N 
ATOM     20  C   UNL d   1       5.628   1.181  -0.050  0.00  0.00     0.105 A 
ATOM     21  HN  UNL d   1       3.775   2.124   0.034  1.00  0.00     0.165 HD
ATOM     22  C   UNL d   1       6.324  -0.011  -0.132  0.00  0.00     0.104 A 
ATOM     23  N   UNL d   1       5.699  -1.205  -0.193  0.00  0.00    -0.372 N 
ATOM     24  C   UNL d   1       4.341  -1.147  -0.166  0.00  0.00     0.121 A 
ATOM     25  HN  UNL d   1       6.208  -2.087  -0.254  1.00  0.00     0.164 HD
ENDBRANCH   6  18
TORSDOF 3
