REMARK  2 active torsions:
REMARK  status: ('A' for Active; 'I' for Inactive)
REMARK    1  A    between atoms: C_4  and  C_3 
REMARK    2  A    between atoms: C_14  and  C_5 
ROOT
ATOM      1  N   UNL d   1       1.201   0.116   0.227  0.00  0.00    -0.318 N 
ATOM      2  HN  UNL d   1       2.166   0.217   0.540  1.00  0.00     0.169 HD
ATOM      3  C   UNL d   1       0.538  -0.990  -0.041  0.00  0.00     0.185 A 
ATOM      4  C   UNL d   1       0.272   1.105  -0.020  0.00  0.00     0.138 A 
ATOM      5  N   UNL d   1      -0.931   0.638  -0.387  0.00  0.00    -0.242 N 
ATOM      6  HN  UNL d   1      -1.775   1.171  -0.599  1.00  0.00     0.196 HD
ATOM      7  O   UNL d   1      -0.758  -0.740  -0.409  0.00  0.00    -0.217 OA
ENDROOT
BRANCH   3   8
ATOM      8  C   UNL d   1       1.122  -2.350   0.026  0.00  0.00     0.058 A 
ATOM      9  C   UNL d   1       0.530  -3.583  -0.334  0.00  0.00     0.038 A 
ATOM     10  N   UNL d   1       1.377  -4.604  -0.136  0.00  0.00    -0.305 N 
ATOM     11  C   UNL d   1      -0.824  -3.835  -0.890  0.00  0.00     0.070 C 
ATOM     12  N   UNL d   1       2.491  -4.019   0.337  0.00  0.00    -0.311 N 
ATOM     13  HN  UNL d   1       1.214  -5.596  -0.306  1.00  0.00     0.186 HD
ATOM     14  C   UNL d   1       2.391  -2.665   0.447  0.00  0.00     0.125 A 
ATOM     15  H   UNL d   1       3.286  -4.612   0.561  0.00  0.00     0.186 HD
ENDBRANCH   3   8
BRANCH   4  16
ATOM     16  C   UNL d   1       0.599   2.525   0.066  0.00  0.00     0.010 A 
ATOM     17  C   UNL d   1       1.906   2.934   0.373  0.00  0.00     0.017 A 
ATOM     18  C   UNL d   1       2.237   4.293   0.414  0.00  0.00     0.025 A 
ATOM     19  C   UNL d   1       1.261   5.252   0.152  0.00  0.00     0.034 A 
ATOM     20  C   UNL d   1      -0.044   4.865  -0.143  0.00  0.00     0.025 A 
ATOM     21 CL   UNL d   1       1.670   6.922   0.187  0.00  0.00    -0.084 Cl
ATOM     22  C   UNL d   1      -0.373   3.506  -0.185  0.00  0.00     0.017 A 
ENDBRANCH   4  16
TORSDOF 2
