REMARK  6 active torsions:
REMARK  status: ('A' for Active; 'I' for Inactive)
REMARK       I    between atoms: C_7  and  N_1 
REMARK    1  A    between atoms: C_8  and  C_2 
REMARK    2  A    between atoms: C_19  and  C_6 
REMARK    3  A    between atoms: C_9  and  C_7 
REMARK    4  A    between atoms: O_14  and  C_8 
REMARK    5  A    between atoms: C_20  and  O_14 
REMARK    6  A    between atoms: C_21  and  C_19 
ROOT
ATOM      1  N   UNL d   1      -0.378   1.011   0.026  0.00  0.00    -0.230 N 
ATOM      2  C   UNL d   1      -0.481  -1.207   0.070  0.00  0.00     0.081 A 
ATOM      3  N   UNL d   1       0.912   0.601  -0.084  0.00  0.00    -0.295 N 
ATOM      4  HN  UNL d   1       1.742   1.184  -0.195  1.00  0.00     0.187 HD
ATOM      5  C   UNL d   1      -1.237  -0.054   0.153  0.00  0.00     0.139 A 
ATOM      6  C   UNL d   1       0.857  -0.736  -0.013  0.00  0.00     0.044 A 
ATOM      7  C   UNL d   1      -0.703   2.382   0.001  0.00  0.00     0.276 C 
ATOM      8  O   UNL d   1      -1.821   2.706   0.405  0.00  0.00    -0.265 OA
ENDROOT
BRANCH   7   9
ATOM      9  C   UNL d   1       0.202   3.438  -0.520  0.00  0.00     0.034 A 
ATOM     10  C   UNL d   1       0.968   3.208  -1.673  0.00  0.00     0.019 A 
ATOM     11  C   UNL d   1       1.755   4.230  -2.205  0.00  0.00     0.025 A 
ATOM     12  C   UNL d   1       1.775   5.480  -1.592  0.00  0.00     0.034 A 
ATOM     13  C   UNL d   1       1.008   5.721  -0.449  0.00  0.00     0.025 A 
ATOM     14 CL   UNL d   1       2.740   6.739  -2.257  0.00  0.00    -0.084 Cl
ATOM     15  C   UNL d   1       0.211   4.702   0.081  0.00  0.00     0.019 A 
ENDBRANCH   7   9
BRANCH   6  16
ATOM     16  C   UNL d   1       2.133  -1.523  -0.026  0.00  0.00     0.059 C 
BRANCH  16  17
ATOM     17  C   UNL d   1       2.732  -1.739  -1.417  0.00  0.00     0.002 C 
ATOM     18  C   UNL d   1       1.919  -2.675  -2.298  0.00  0.00     0.005 C 
ENDBRANCH  16  17
ENDBRANCH   6  16
BRANCH   2  19
ATOM     19  C   UNL d   1      -0.968  -2.574   0.028  0.00  0.00     0.296 C 
ATOM     20  O   UNL d   1      -0.230  -3.550   0.018  0.00  0.00    -0.259 OA
BRANCH  19  21
ATOM     21  O   UNL d   1      -2.323  -2.631  -0.118  0.00  0.00    -0.318 OA
BRANCH  21  22
ATOM     22  C   UNL d   1      -2.837  -3.880  -0.598  0.00  0.00     0.174 C 
ATOM     23  C   UNL d   1      -2.858  -3.837  -2.117  0.00  0.00     0.034 C 
ENDBRANCH  21  22
ENDBRANCH  19  21
ENDBRANCH   2  19
TORSDOF 6
