REMARK  2 active torsions:
REMARK  status: ('A' for Active; 'I' for Inactive)
REMARK    1  A    between atoms: C_6  and  C_1 
REMARK    2  A    between atoms: C_14  and  N_3 
ROOT
ATOM      1  C   UNL d   1      -0.296   1.217   0.074  0.00  0.00     0.073 A 
ATOM      2  C   UNL d   1       1.030   0.836   0.093  0.00  0.00     0.136 A 
ATOM      3  N   UNL d   1       1.026  -0.561  -0.044  0.00  0.00    -0.240 N 
ATOM      4  N   UNL d   1      -0.232  -1.030  -0.292  0.00  0.00    -0.302 N 
ATOM      5  HN  UNL d   1      -0.507  -1.981  -0.534  1.00  0.00     0.186 HD
ATOM      6  C   UNL d   1      -1.020   0.037  -0.147  0.00  0.00     0.127 A 
ATOM      7  N   UNL d   1       2.151   1.611   0.154  0.00  0.00    -0.383 N 
ATOM      8  H   UNL d   1       2.039   2.624   0.060  0.00  0.00     0.157 HD
ATOM      9  H   UNL d   1       3.005   1.291  -0.302  0.00  0.00     0.157 HD
ENDROOT
BRANCH   1  10
ATOM     10  C   UNL d   1      -0.871   2.545   0.168  0.00  0.00     0.149 A 
ATOM     11  N   UNL d   1      -0.072   3.661   0.215  0.00  0.00    -0.266 N 
ATOM     12  N   UNL d   1      -0.888   4.705   0.261  0.00  0.00    -0.005 NA
ATOM     13  HN  UNL d   1       0.948   3.682   0.215  1.00  0.00     0.186 HD
ATOM     14  N   UNL d   1      -2.117   4.173   0.240  0.00  0.00    -0.225 N 
ATOM     15  N   UNL d   1      -2.181   2.833   0.174  0.00  0.00    -0.271 N 
ATOM     16  H   UNL d   1      -2.949   4.756   0.269  0.00  0.00     0.205 HD
ATOM     17  HN  UNL d   1      -2.991   2.214   0.139  1.00  0.00     0.190 HD
ENDBRANCH   1  10
BRANCH   3  18
ATOM     18  C   UNL d   1       2.126  -1.464   0.010  0.00  0.00     0.058 A 
ATOM     19  C   UNL d   1       3.293  -1.144   0.714  0.00  0.00     0.032 A 
ATOM     20  C   UNL d   1       4.383  -2.017   0.703  0.00  0.00     0.009 A 
ATOM     21  C   UNL d   1       4.325  -3.219  -0.012  0.00  0.00    -0.062 A 
ATOM     22  C   UNL d   1       3.140  -3.560  -0.674  0.00  0.00     0.009 A 
ATOM     23  C   UNL d   1       5.519  -4.125  -0.042  0.00  0.00     0.048 C 
ATOM     24  C   UNL d   1       2.040  -2.696  -0.652  0.00  0.00     0.032 A 
ENDBRANCH   3  18
TORSDOF 2
