REMARK  3 active torsions:
REMARK  status: ('A' for Active; 'I' for Inactive)
REMARK    1  A    between atoms: C_4  and  C_1 
REMARK       I    between atoms: C_2  and  N_3 
REMARK    2  A    between atoms: C_8  and  C_2 
REMARK    3  A    between atoms: N_3  and  C_5 
ROOT
ATOM      1  C   UNL d   1      -0.559   0.824  -1.013  0.00  0.00     0.049 A 
ATOM      2  C   UNL d   1      -0.342   2.056  -3.556  0.00  0.00     0.057 A 
ATOM      3  C   UNL d   1      -0.456   0.660  -3.437  0.00  0.00     0.061 A 
ATOM      4  C   UNL d   1      -0.558   0.049  -2.181  0.00  0.00     0.042 A 
ATOM      5  C   UNL d   1      -0.416   2.213  -1.130  0.00  0.00     0.018 A 
ATOM      6  C   UNL d   1      -0.307   2.820  -2.386  0.00  0.00     0.032 A 
ATOM      7 CL   UNL d   1      -0.493  -0.352  -4.841  0.00  0.00    -0.082 Cl
ENDROOT
BRANCH   2   8
ATOM      8  N   UNL d   1      -0.349   2.645  -4.847  0.00  0.00    -0.321 N 
ATOM      9  C   UNL d   1      -0.126   3.975  -5.142  0.00  0.00     0.256 C 
ATOM     10  O   UNL d   1       0.385   4.801  -4.393  0.00  0.00    -0.267 OA
ATOM     11  H   UNL d   1      -0.507   2.002  -5.616  0.00  0.00     0.169 HD
BRANCH   9  12
ATOM     12  C   UNL d   1      -0.548   4.426  -6.499  0.00  0.00     0.032 A 
ATOM     13  C   UNL d   1      -1.655   3.861  -7.152  0.00  0.00     0.020 A 
ATOM     14  C   UNL d   1      -2.095   4.402  -8.365  0.00  0.00     0.043 A 
ATOM     15  C   UNL d   1      -1.434   5.497  -8.914  0.00  0.00     0.116 A 
ATOM     16  C   UNL d   1      -0.333   6.061  -8.281  0.00  0.00     0.043 A 
ATOM     17  F   UNL d   1      -1.880   6.027 -10.060  0.00  0.00    -0.206 F 
ATOM     18  C   UNL d   1       0.109   5.527  -7.069  0.00  0.00     0.020 A 
ENDBRANCH   9  12
ENDBRANCH   2   8
BRANCH   1  19
ATOM     19  C   UNL d   1      -0.733   0.202   0.351  0.00  0.00     0.417 C 
ATOM     20  F   UNL d   1      -0.951  -1.142   0.310  0.00  0.00    -0.166 F 
ATOM     21  F   UNL d   1      -1.790   0.729   1.028  0.00  0.00    -0.166 F 
ATOM     22  F   UNL d   1       0.353   0.382   1.150  0.00  0.00    -0.166 F 
ENDBRANCH   1  19
TORSDOF 3
