REMARK  4 active torsions:
REMARK  status: ('A' for Active; 'I' for Inactive)
REMARK    1  A    between atoms: N_2  and  S_1 
REMARK    2  A    between atoms: C_4  and  S_1 
REMARK       I    between atoms: C_5  and  N_2 
REMARK    3  A    between atoms: C_10  and  C_5 
REMARK    4  A    between atoms: O_19  and  C_16 
ROOT
ATOM      1  N   UNL d   1       1.021   1.435  -0.373  0.00  0.00    -0.279 N 
ATOM      2  HN  UNL d   1       1.686   0.669  -0.266  1.00  0.00     0.179 HD
ATOM      3  C   UNL d   1       0.666   2.215   0.737  0.00  0.00     0.262 C 
ATOM      4  O   UNL d   1      -0.467   2.669   0.869  0.00  0.00    -0.267 OA
ENDROOT
BRANCH   1   5
ATOM      5  S   UNL d   1       0.412   1.733  -1.748  0.00  0.00     0.055 S 
ATOM      6  O   UNL d   1       0.609   2.929  -2.539  0.00  0.00    -0.245 OA
ATOM      7  C   UNL d   1      -1.305   1.285  -1.796  0.00  0.00     0.142 C 
BRANCH   5   8
ATOM      8  C   UNL d   1       1.156   0.473  -2.694  0.00  0.00     0.045 A 
ATOM      9  C   UNL d   1       1.600   0.653  -4.040  0.00  0.00     0.029 A 
ATOM     10  C   UNL d   1       2.106  -0.510  -4.577  0.00  0.00     0.051 A 
ATOM     11  S   UNL d   1       2.052  -1.810  -3.464  0.00  0.00    -0.112 SA
ATOM     12  C   UNL d   1       1.345  -0.823  -2.257  0.00  0.00     0.071 A 
ENDBRANCH   5   8
ENDBRANCH   1   5
BRANCH   3  13
ATOM     13  C   UNL d   1       1.634   2.433   1.861  0.00  0.00     0.033 A 
ATOM     14  C   UNL d   1       1.221   3.106   3.021  0.00  0.00     0.020 A 
ATOM     15  C   UNL d   1       2.121   3.332   4.069  0.00  0.00     0.038 A 
ATOM     16  C   UNL d   1       3.442   2.894   3.961  0.00  0.00     0.068 A 
ATOM     17  C   UNL d   1       3.847   2.198   2.821  0.00  0.00     0.038 A 
ATOM     18  C   UNL d   1       2.954   1.974   1.769  0.00  0.00     0.020 A 
BRANCH  16  19
ATOM     19  O   UNL d   1       4.403   3.059   4.920  0.00  0.00    -0.356 OA
ATOM     20  C   UNL d   1       4.266   4.225   5.725  0.00  0.00     0.210 C 
ENDBRANCH  16  19
ENDBRANCH   3  13
TORSDOF 4
