REMARK  8 active torsions:
REMARK  status: ('A' for Active; 'I' for Inactive)
REMARK    1  A    between atoms: N_2  and  C_1 
REMARK    2  A    between atoms: C_3  and  C_1 
REMARK    3  A    between atoms: N_5  and  C_1 
REMARK    4  A    between atoms: C_7  and  C_1 
REMARK       I    between atoms: C_4  and  N_2 
REMARK    5  A    between atoms: C_6  and  C_4 
REMARK    6  A    between atoms: C_8  and  N_5 
REMARK    7  A    between atoms: O_16  and  C_7 
REMARK    8  A    between atoms: C_23  and  O_16 
ROOT
ATOM      1  C   UNL d   1       1.085  -0.114  -0.068  0.00  0.00     0.297 C 
ENDROOT
BRANCH   1   2
ATOM      2  N   UNL d   1       0.744   1.129   0.633  0.00  0.00    -0.314 N 
ATOM      3  C   UNL d   1       1.146   1.469   1.894  0.00  0.00     0.255 C 
ATOM      4  O   UNL d   1       1.905   0.764   2.549  0.00  0.00    -0.268 OA
ATOM      5  H   UNL d   1      -0.046   1.624   0.233  0.00  0.00     0.166 HD
BRANCH   3   6
ATOM      6  C   UNL d   1       0.627   2.767   2.456  0.00  0.00     0.053 A 
ATOM      7  C   UNL d   1       0.029   3.804   1.715  0.00  0.00     0.049 A 
ATOM      8 CL   UNL d   1      -0.257   3.762   0.009  0.00  0.00    -0.083 Cl
ATOM      9  C   UNL d   1      -0.365   4.993   2.350  0.00  0.00     0.025 A 
ATOM     10  C   UNL d   1      -0.171   5.167   3.717  0.00  0.00     0.002 A 
ATOM     11  C   UNL d   1       0.412   4.149   4.462  0.00  0.00     0.001 A 
ATOM     12  C   UNL d   1       0.807   2.961   3.838  0.00  0.00     0.019 A 
ENDBRANCH   3   6
ENDBRANCH   1   2
BRANCH   1  13
ATOM     13  C   UNL d   1       0.710  -0.048  -1.605  0.00  0.00     0.442 C 
ATOM     14  F   UNL d   1       0.049   1.114  -1.885  0.00  0.00    -0.166 F 
ATOM     15  F   UNL d   1       1.775  -0.065  -2.445  0.00  0.00    -0.166 F 
ATOM     16  F   UNL d   1      -0.108  -1.052  -2.004  0.00  0.00    -0.166 F 
ENDBRANCH   1  13
BRANCH   1  17
ATOM     17  N   UNL d   1       0.457  -1.243   0.663  0.00  0.00    -0.345 N 
ATOM     18  H   UNL d   1       1.094  -1.675   1.329  0.00  0.00     0.163 HD
BRANCH  17  19
ATOM     19  C   UNL d   1      -0.890  -1.441   0.920  0.00  0.00     0.069 A 
ATOM     20  C   UNL d   1      -1.935  -0.591   0.524  0.00  0.00     0.142 A 
ATOM     21  F   UNL d   1      -1.676   0.565  -0.104  0.00  0.00    -0.204 F 
ATOM     22  C   UNL d   1      -3.274  -0.885   0.785  0.00  0.00     0.044 A 
ATOM     23  C   UNL d   1      -3.613  -2.074   1.421  0.00  0.00     0.003 A 
ATOM     24  C   UNL d   1      -2.607  -2.965   1.782  0.00  0.00     0.002 A 
ATOM     25  C   UNL d   1      -1.266  -2.651   1.528  0.00  0.00     0.032 A 
ENDBRANCH  17  19
ENDBRANCH   1  17
BRANCH   1  26
ATOM     26  C   UNL d   1       2.620  -0.340  -0.163  0.00  0.00     0.318 C 
ATOM     27  O   UNL d   1       3.144  -1.446  -0.269  0.00  0.00    -0.260 OA
BRANCH  26  28
ATOM     28  O   UNL d   1       3.304   0.845  -0.244  0.00  0.00    -0.318 OA
BRANCH  28  29
ATOM     29  C   UNL d   1       4.704   0.743  -0.543  0.00  0.00     0.174 C 
ATOM     30  C   UNL d   1       5.512   0.404   0.694  0.00  0.00     0.034 C 
ENDBRANCH  28  29
ENDBRANCH  26  28
ENDBRANCH   1  26
TORSDOF 8
