REMARK  2 active torsions:
REMARK  status: ('A' for Active; 'I' for Inactive)
REMARK    1  A    between atoms: C_7  and  C_1 
REMARK    2  A    between atoms: C_8  and  C_4 
ROOT
ATOM      1  C   UNL d   1       0.014  -1.318  -0.016  0.00  0.00     0.070 A 
ATOM      2  N   UNL d   1      -1.352   0.500   0.135  0.00  0.00    -0.259 N 
ATOM      3  HN  UNL d   1      -2.176   1.097   0.193  1.00  0.00     0.195 HD
ATOM      4  C   UNL d   1      -1.337  -0.841   0.042  0.00  0.00     0.081 A 
ATOM      5  O   UNL d   1      -0.042   0.909   0.138  0.00  0.00    -0.241 OA
ATOM      6  C   UNL d   1       0.778  -0.167   0.042  0.00  0.00     0.088 A 
ATOM      7  C   UNL d   1       2.219   0.148  -0.025  0.00  0.00     0.080 C 
ENDROOT
BRANCH   4   8
ATOM      8  C   UNL d   1      -2.601  -1.585   0.035  0.00  0.00    -0.006 A 
ATOM      9  C   UNL d   1      -3.731  -1.047  -0.605  0.00  0.00     0.015 A 
ATOM     10  C   UNL d   1      -4.942  -1.747  -0.629  0.00  0.00     0.024 A 
ATOM     11  C   UNL d   1      -5.034  -2.990  -0.009  0.00  0.00     0.034 A 
ATOM     12  C   UNL d   1      -3.931  -3.531   0.647  0.00  0.00     0.024 A 
ATOM     13 CL   UNL d   1      -6.516  -3.862  -0.051  0.00  0.00    -0.084 Cl
ATOM     14  C   UNL d   1      -2.724  -2.826   0.676  0.00  0.00     0.015 A 
ENDBRANCH   4   8
BRANCH   1  15
ATOM     15  C   UNL d   1       0.489  -2.683  -0.168  0.00  0.00     0.160 C 
ATOM     16  O   UNL d   1      -0.139  -3.503  -0.840  0.00  0.00    -0.293 OA
ATOM     17  C   UNL d   1       1.736  -3.134   0.549  0.00  0.00     0.097 C 
ENDBRANCH   1  15
TORSDOF 2
