REMARK  4 active torsions:
REMARK  status: ('A' for Active; 'I' for Inactive)
REMARK    1  A    between atoms: C_2  and  C_1 
REMARK       I    between atoms: N_3  and  C_1 
REMARK    2  A    between atoms: C_4  and  N_3 
REMARK    3  A    between atoms: C_12  and  C_4 
REMARK    4  A    between atoms: S_11  and  C_5 
ROOT
ATOM      1  C   UNL d   1      -1.098  -0.961   0.934  0.00  0.00     0.121 C 
ATOM      2  N   UNL d   1      -1.817   1.296   2.130  0.00  0.00    -0.195 NA
ATOM      3  C   UNL d   1      -1.483   0.334   1.576  0.00  0.00     0.091 C 
ATOM      4  C   UNL d   1      -1.538  -2.091   1.897  0.00  0.00     0.055 C 
ENDROOT
BRANCH   1   5
ATOM      5  N   UNL d   1       0.383  -1.052   0.819  0.00  0.00    -0.335 N 
ATOM      6  C   UNL d   1       1.150  -0.176   0.070  0.00  0.00     0.255 C 
ATOM      7  O   UNL d   1       0.673   0.742  -0.579  0.00  0.00    -0.268 OA
ATOM      8  H   UNL d   1       0.858  -1.685   1.450  0.00  0.00     0.164 HD
BRANCH   6   9
ATOM      9  C   UNL d   1       2.610  -0.474   0.014  0.00  0.00     0.065 A 
ATOM     10  C   UNL d   1       3.599   0.518  -0.030  0.00  0.00     0.085 A 
ATOM     11  N   UNL d   1       4.908   0.206  -0.242  0.00  0.00    -0.360 N 
ATOM     12  C   UNL d   1       5.251  -1.090  -0.385  0.00  0.00     0.089 A 
ATOM     13  HN  UNL d   1       5.615   0.939  -0.291  1.00  0.00     0.166 HD
ATOM     14  C   UNL d   1       4.349  -2.130  -0.298  0.00  0.00     0.018 A 
ATOM     15  C   UNL d   1       3.009  -1.814  -0.106  0.00  0.00     0.021 A 
BRANCH  10  16
ATOM     16  S   UNL d   1       3.280   2.239   0.350  0.00  0.00    -0.116 SA
ATOM     17  C   UNL d   1       4.897   3.001   0.022  0.00  0.00     0.097 C 
ENDBRANCH  10  16
ENDBRANCH   6   9
ENDBRANCH   1   5
BRANCH   1  18
ATOM     18  C   UNL d   1      -1.799  -1.111  -0.468  0.00  0.00     0.020 C 
ATOM     19  C   UNL d   1      -1.429  -2.416  -1.190  0.00  0.00     0.013 C 
ATOM     20  C   UNL d   1      -3.336  -1.008  -0.417  0.00  0.00     0.013 C 
ENDBRANCH   1  18
TORSDOF 4
