REMARK  11 active torsions:
REMARK  status: ('A' for Active; 'I' for Inactive)
REMARK    1  A    between atoms: C_4  and  C_1 
REMARK    2  A    between atoms: C_5  and  C_2 
REMARK    3  A    between atoms: C_6  and  C_2 
REMARK    4  A    between atoms: N_11  and  C_3 
REMARK    5  A    between atoms: O_16  and  C_4 
REMARK    6  A    between atoms: O_18  and  C_5 
REMARK    7  A    between atoms: O_17  and  C_6 
REMARK    8  A    between atoms: C_10  and  N_12 
REMARK    9  A    between atoms: N_12  and  N_11 
REMARK   10  A    between atoms: C_19  and  O_17 
REMARK   11  A    between atoms: C_20  and  O_18 
ROOT
ATOM      1  N   UNL d   1       2.414   2.926   0.420  0.00  0.00    -0.310 N 
ATOM      2  H   UNL d   1       1.733   3.196   1.147  0.00  0.00     0.186 HD
ENDROOT
BRANCH   1   3
ATOM      3  C   UNL d   1       3.424   3.854   0.269  0.00  0.00     0.131 C 
ATOM      4  C   UNL d   1       3.441   5.203   0.227  0.00  0.00     0.131 C 
BRANCH   4   5
ATOM      5  C   UNL d   1       2.244   6.080   0.202  0.00  0.00     0.300 C 
ATOM      6  O   UNL d   1       2.288   7.247  -0.170  0.00  0.00    -0.259 OA
BRANCH   5   7
ATOM      7  O   UNL d   1       1.113   5.451   0.599  0.00  0.00    -0.318 OA
BRANCH   7   8
ATOM      8  C   UNL d   1      -0.075   6.259   0.584  0.00  0.00     0.174 C 
ATOM      9  C   UNL d   1      -0.610   6.455  -0.828  0.00  0.00     0.034 C 
ENDBRANCH   7   8
ENDBRANCH   5   7
ENDBRANCH   4   5
BRANCH   4  10
ATOM     10  C   UNL d   1       4.792   5.800   0.082  0.00  0.00     0.300 C 
ATOM     11  O   UNL d   1       5.753   5.231  -0.413  0.00  0.00    -0.259 OA
BRANCH  10  12
ATOM     12  O   UNL d   1       4.822   7.043   0.629  0.00  0.00    -0.318 OA
BRANCH  12  13
ATOM     13  C   UNL d   1       6.053   7.769   0.509  0.00  0.00     0.174 C 
ATOM     14  C   UNL d   1       6.203   8.355  -0.884  0.00  0.00     0.034 C 
ENDBRANCH  12  13
ENDBRANCH  10  12
ENDBRANCH   4  10
ENDBRANCH   1   3
BRANCH   1  15
ATOM     15  N   UNL d   1       1.824   2.287  -0.639  0.00  0.00    -0.300 N 
ATOM     16  H   UNL d   1       2.119   2.635  -1.554  0.00  0.00     0.187 HD
BRANCH  15  17
ATOM     17  C   UNL d   1       1.356   1.008  -0.568  0.00  0.00     0.071 A 
ATOM     18  C   UNL d   1       0.881   0.316   0.540  0.00  0.00     0.108 A 
ATOM     19  S   UNL d   1       0.488  -1.315   0.108  0.00  0.00    -0.094 SA
ATOM     20  C   UNL d   1       0.803  -1.045  -1.541  0.00  0.00     0.053 A 
ATOM     21  C   UNL d   1       1.249   0.234  -1.768  0.00  0.00     0.039 A 
BRANCH  18  22
ATOM     22  C   UNL d   1       0.671   0.763   1.911  0.00  0.00     0.302 C 
ATOM     23  O   UNL d   1       1.137   1.773   2.434  0.00  0.00    -0.259 OA
BRANCH  22  24
ATOM     24  O   UNL d   1      -0.212  -0.060   2.557  0.00  0.00    -0.322 OA
ATOM     25  C   UNL d   1      -0.616   0.352   3.863  0.00  0.00     0.213 C 
ENDBRANCH  22  24
ENDBRANCH  18  22
ENDBRANCH  15  17
ENDBRANCH   1  15
TORSDOF 11
