REMARK  4 active torsions:
REMARK  status: ('A' for Active; 'I' for Inactive)
REMARK    1  A    between atoms: N_2  and  S_1 
REMARK    2  A    between atoms: C_5  and  S_1 
REMARK    3  A    between atoms: S_4  and  N_2 
REMARK    4  A    between atoms: C_11  and  S_4 
ROOT
ATOM      1  S   UNL d   1       1.148   0.124   0.009  0.00  0.00     0.269 S 
ATOM      2  O   UNL d   1       1.857   1.165  -0.702  0.00  0.00    -0.200 OA
ATOM      3  O   UNL d   1       1.776  -0.586   1.107  0.00  0.00    -0.200 OA
ENDROOT
BRANCH   1   4
ATOM      4  N   UNL d   1       0.493  -1.032  -1.037  0.00  0.00    -0.236 N 
ATOM      5  HN  UNL d   1      -0.144  -1.738  -0.668  1.00  0.00     0.189 HD
BRANCH   4   6
ATOM      6  S   UNL d   1       0.870  -1.038  -2.653  0.00  0.00     0.061 S 
ATOM      7  O   UNL d   1       0.366   0.132  -3.334  0.00  0.00    -0.244 OA
ATOM      8  C   UNL d   1       0.120  -2.497  -3.313  0.00  0.00     0.143 C 
BRANCH   6   9
ATOM      9  C   UNL d   1       2.602  -1.210  -2.792  0.00  0.00     0.038 A 
ATOM     10  C   UNL d   1       3.229  -2.352  -2.284  0.00  0.00     0.022 A 
ATOM     11  C   UNL d   1       4.608  -2.500  -2.432  0.00  0.00     0.001 A 
ATOM     12  C   UNL d   1       5.353  -1.511  -3.075  0.00  0.00     0.000 A 
ATOM     13  C   UNL d   1       4.723  -0.366  -3.564  0.00  0.00     0.001 A 
ATOM     14  C   UNL d   1       3.344  -0.212  -3.424  0.00  0.00     0.022 A 
ENDBRANCH   6   9
ENDBRANCH   4   6
ENDBRANCH   1   4
BRANCH   1  15
ATOM     15  C   UNL d   1      -0.320   0.897   0.663  0.00  0.00     0.082 A 
ATOM     16  C   UNL d   1      -0.550   0.896   2.043  0.00  0.00     0.050 A 
ATOM     17  C   UNL d   1      -1.644   1.594   2.562  0.00  0.00     0.057 A 
ATOM     18 CL   UNL d   1      -1.859   1.586   4.277  0.00  0.00    -0.083 Cl
ATOM     19  C   UNL d   1      -2.509   2.284   1.702  0.00  0.00     0.055 A 
ATOM     20  C   UNL d   1      -2.278   2.268   0.321  0.00  0.00     0.027 A 
ATOM     21 CL   UNL d   1      -3.862   3.189   2.280  0.00  0.00    -0.083 Cl
ATOM     22  C   UNL d   1      -1.181   1.579  -0.204  0.00  0.00     0.027 A 
ENDBRANCH   1  15
TORSDOF 4
