REMARK  5 active torsions:
REMARK  status: ('A' for Active; 'I' for Inactive)
REMARK    1  A    between atoms: N_6  and  C_1 
REMARK       I    between atoms: C_2  and  N_8 
REMARK    2  A    between atoms: C_7  and  C_2 
REMARK    3  A    between atoms: C_3  and  N_6 
REMARK    4  A    between atoms: N_11  and  C_3 
REMARK    5  A    between atoms: N_8  and  N_11 
ROOT
ATOM      1  C   UNL d   1      -0.440   3.597   0.017  0.00  0.00     0.191 C 
ATOM      2  S   UNL d   1      -0.074   5.077   0.707  0.00  0.00    -0.039 SA
ENDROOT
BRANCH   1   3
ATOM      3  N   UNL d   1       0.420   2.553  -0.271  0.00  0.00    -0.329 N 
ATOM      4  H   UNL d   1       0.001   1.662  -0.032  0.00  0.00     0.168 HD
BRANCH   3   5
ATOM      5  C   UNL d   1       1.841   2.568  -0.176  0.00  0.00     0.078 A 
ATOM      6  C   UNL d   1       2.663   3.527  -0.796  0.00  0.00     0.064 A 
ATOM      7  C   UNL d   1       4.045   3.528  -0.576  0.00  0.00     0.050 A 
ATOM      8 CL   UNL d   1       2.078   4.617  -2.009  0.00  0.00    -0.082 Cl
ATOM      9  C   UNL d   1       4.625   2.535   0.207  0.00  0.00     0.037 A 
ATOM     10  C   UNL d   1       3.847   1.514   0.741  0.00  0.00     0.050 A 
ATOM     11 CL   UNL d   1       6.323   2.544   0.478  0.00  0.00    -0.084 Cl
ATOM     12  C   UNL d   1       2.466   1.527   0.538  0.00  0.00     0.064 A 
ATOM     13 CL   UNL d   1       1.537   0.230   1.215  0.00  0.00    -0.082 Cl
ENDBRANCH   3   5
ENDBRANCH   1   3
BRANCH   1  14
ATOM     14  N   UNL d   1      -1.770   3.323  -0.215  0.00  0.00    -0.273 N 
ATOM     15  H   UNL d   1      -2.408   4.122  -0.185  0.00  0.00     0.189 HD
BRANCH  14  16
ATOM     16  N   UNL d   1      -2.203   2.233  -0.989  0.00  0.00    -0.262 N 
ATOM     17  C   UNL d   1      -3.341   2.421  -1.766  0.00  0.00     0.293 C 
ATOM     18  O   UNL d   1      -3.821   3.537  -1.960  0.00  0.00    -0.264 OA
ATOM     19  H   UNL d   1      -2.023   1.292  -0.655  0.00  0.00     0.190 HD
BRANCH  17  20
ATOM     20  C   UNL d   1      -3.926   1.195  -2.263  0.00  0.00     0.144 A 
ATOM     21  O   UNL d   1      -3.338  -0.008  -1.960  0.00  0.00    -0.317 OA
ATOM     22  C   UNL d   1      -4.095  -0.977  -2.540  0.00  0.00     0.143 A 
ATOM     23  C   UNL d   1      -5.163  -0.424  -3.204  0.00  0.00     0.027 A 
ATOM     24  C   UNL d   1      -5.057   0.975  -3.027  0.00  0.00     0.045 A 
ENDBRANCH  17  20
ENDBRANCH  14  16
ENDBRANCH   1  14
TORSDOF 5
