REMARK  6 active torsions:
REMARK  status: ('A' for Active; 'I' for Inactive)
REMARK       I    between atoms: N_2  and  C_1 
REMARK    1  A    between atoms: C_5  and  C_1 
REMARK    2  A    between atoms: N_6  and  N_2 
REMARK       I    between atoms: C_3  and  N_6 
REMARK    3  A    between atoms: C_14  and  C_3 
REMARK    4  A    between atoms: C_4  and  C_10 
REMARK    5  A    between atoms: O_15  and  C_14 
REMARK    6  A    between atoms: C_16  and  O_15 
ROOT
ATOM      1  C   UNL d   1       0.213   2.205  -4.712  0.00  0.00     0.280 C 
ENDROOT
BRANCH   1   2
ATOM      2  C   UNL d   1      -0.357   1.885  -3.329  0.00  0.00     0.260 C 
ATOM      3  N   UNL d   1      -0.928   2.949  -2.662  0.00  0.00    -0.266 N 
ATOM      4  H   UNL d   1      -1.014   3.873  -3.091  0.00  0.00     0.190 HD
ATOM      5  O   UNL d   1      -0.301   0.755  -2.837  0.00  0.00    -0.269 OA
BRANCH   3   6
ATOM      6  N   UNL d   1      -1.481   2.743  -1.395  0.00  0.00    -0.265 N 
ATOM      7  C   UNL d   1      -1.981   3.825  -0.694  0.00  0.00     0.269 C 
ATOM      8  O   UNL d   1      -2.036   4.949  -1.198  0.00  0.00    -0.269 OA
ATOM      9  H   UNL d   1      -1.379   1.810  -0.992  0.00  0.00     0.190 HD
BRANCH   7  10
ATOM     10  C   UNL d   1      -2.534   3.540   0.701  0.00  0.00     0.271 C 
ATOM     11 CL   UNL d   1      -4.235   3.058   0.557  0.00  0.00    -0.098 Cl
ATOM     12 CL   UNL d   1      -1.597   2.277   1.530  0.00  0.00    -0.098 Cl
ENDBRANCH   7  10
ENDBRANCH   3   6
ENDBRANCH   1   2
BRANCH   1  13
ATOM     13  O   UNL d   1       0.018   3.585  -5.005  0.00  0.00    -0.342 OA
BRANCH  13  14
ATOM     14  C   UNL d   1       0.416   4.027  -6.234  0.00  0.00     0.069 A 
ATOM     15  C   UNL d   1      -0.286   5.138  -6.701  0.00  0.00     0.037 A 
ATOM     16  C   UNL d   1       0.027   5.719  -7.931  0.00  0.00     0.012 A 
ATOM     17  C   UNL d   1       1.072   5.212  -8.718  0.00  0.00    -0.035 A 
ATOM     18  C   UNL d   1       1.787   4.103  -8.227  0.00  0.00     0.012 A 
ATOM     19  C   UNL d   1       1.462   3.513  -6.995  0.00  0.00     0.037 A 
BRANCH  17  20
ATOM     20  C   UNL d   1       1.405   5.878 -10.041  0.00  0.00     0.141 C 
ATOM     21  S   UNL d   1       1.267   4.735 -11.456  0.00  0.00    -0.148 SA
ATOM     22  C   UNL d   1       2.713   5.349 -12.357  0.00  0.00     0.085 C 
ATOM     23  C   UNL d   1       3.790   5.649 -11.335  0.00  0.00     0.085 C 
ATOM     24  S   UNL d   1       3.053   6.661 -10.027  0.00  0.00    -0.148 SA
ENDBRANCH  17  20
ENDBRANCH  13  14
ENDBRANCH   1  13
TORSDOF 6
