REMARK  7 active torsions:
REMARK  status: ('A' for Active; 'I' for Inactive)
REMARK    1  A    between atoms: C_4  and  C_1 
REMARK    2  A    between atoms: C_5  and  C_1 
REMARK    3  A    between atoms: N_2  and  C_6 
REMARK    4  A    between atoms: C_12  and  C_3 
REMARK    5  A    between atoms: O_15  and  C_4 
REMARK    6  A    between atoms: N_7  and  C_5 
REMARK    7  A    between atoms: C_19  and  O_15 
ROOT
ATOM      1  C   UNL d   1       0.960   0.053  -0.075  0.00  0.00     0.102 C 
ATOM      2  C   UNL d   1       0.275  -0.656  -0.994  0.00  0.00     0.039 C 
ENDROOT
BRANCH   1   3
ATOM      3  C   UNL d   1       0.238   0.934   0.865  0.00  0.00     0.302 C 
ATOM      4  O   UNL d   1      -0.972   1.090   0.865  0.00  0.00    -0.259 OA
BRANCH   3   5
ATOM      5  O   UNL d   1       1.129   1.595   1.643  0.00  0.00    -0.317 OA
BRANCH   5   6
ATOM      6  C   UNL d   1       0.625   2.742   2.341  0.00  0.00     0.174 C 
ATOM      7  C   UNL d   1       0.735   3.944   1.421  0.00  0.00     0.034 C 
ENDBRANCH   5   6
ENDBRANCH   3   5
ENDBRANCH   1   3
BRANCH   1   8
ATOM      8  C   UNL d   1       2.480   0.053  -0.075  0.00  0.00    -0.031 C 
BRANCH   8   9
ATOM      9  N   UNL d   1       3.741   0.053  -0.075  0.00  0.00    -0.365 N 
ATOM     10  HN2 UNL d   1       2.721   0.053  -0.075  1.00  0.00     0.165 HD
ATOM     11  HN1 UNL d   1       4.761   0.053  -0.075  1.00  0.00     0.165 HD
ENDBRANCH   8   9
ENDBRANCH   1   8
BRANCH   2  12
ATOM     12  C   UNL d   1       0.946  -1.455  -2.026  0.00  0.00    -0.032 A 
ATOM     13  C   UNL d   1       1.316  -2.779  -1.768  0.00  0.00     0.047 A 
ATOM     14  C   UNL d   1       2.055  -3.489  -2.726  0.00  0.00     0.103 A 
ATOM     15  C   UNL d   1       2.419  -2.891  -3.939  0.00  0.00     0.036 A 
ATOM     16  C   UNL d   1       2.039  -1.574  -4.195  0.00  0.00     0.003 A 
ATOM     17  C   UNL d   1       1.306  -0.859  -3.244  0.00  0.00     0.011 A 
BRANCH  14  18
ATOM     18  N   UNL d   1       2.466  -4.871  -2.446  0.00  0.00    -0.116 N 
ATOM     19  O   UNL d   1       2.108  -5.370  -1.369  0.00  0.00    -0.532 OA
ATOM     20  O   UNL d   1       3.139  -5.458  -3.304  0.00  0.00    -0.532 OA
ENDBRANCH  14  18
ENDBRANCH   2  12
TORSDOF 7
