REMARK  1 active torsions:
REMARK  status: ('A' for Active; 'I' for Inactive)
REMARK    1  A    between atoms: C_5  and  C_1 
ROOT
ATOM      1  C   UNL d   1      -2.018  -0.835  -0.024  0.00  0.00     0.087 A 
ATOM      2  N   UNL d   1      -0.946  -1.595  -0.098  0.00  0.00    -0.349 N 
ATOM      3  HN  UNL d   1      -0.962  -2.610  -0.192  1.00  0.00     0.166 HD
ATOM      4  S   UNL d   1      -1.687   0.853   0.124  0.00  0.00    -0.069 SA
ATOM      5  C   UNL d   1       0.206  -0.830  -0.033  0.00  0.00     0.050 A 
ATOM      6  C   UNL d   1       0.002   0.545   0.058  0.00  0.00     0.033 A 
ATOM      7  C   UNL d   1       1.528  -1.319  -0.060  0.00  0.00     0.031 A 
ATOM      8  C   UNL d   1       1.073   1.455   0.091  0.00  0.00     0.021 A 
ATOM      9  C   UNL d   1       2.602  -0.424  -0.018  0.00  0.00     0.002 A 
ATOM     10  C   UNL d   1       2.374   0.947   0.048  0.00  0.00     0.002 A 
ENDROOT
BRANCH   1  11
ATOM     11  C   UNL d   1      -3.411  -1.327  -0.064  0.00  0.00     0.019 A 
ATOM     12  C   UNL d   1      -3.800  -2.543   0.531  0.00  0.00     0.047 A 
ATOM     13 CL   UNL d   1      -2.718  -3.550   1.435  0.00  0.00    -0.083 Cl
ATOM     14  C   UNL d   1      -5.129  -2.990   0.447  0.00  0.00     0.025 A 
ATOM     15  C   UNL d   1      -6.091  -2.234  -0.220  0.00  0.00     0.002 A 
ATOM     16  C   UNL d   1      -5.730  -1.031  -0.812  0.00  0.00     0.001 A 
ATOM     17  C   UNL d   1      -4.405  -0.588  -0.741  0.00  0.00     0.016 A 
ENDBRANCH   1  11
TORSDOF 1
