REMARK  4 active torsions:
REMARK  status: ('A' for Active; 'I' for Inactive)
REMARK    1  A    between atoms: S_4  and  C_1 
REMARK    2  A    between atoms: C_2  and  C_3 
REMARK       I    between atoms: N_6  and  C_2 
REMARK    3  A    between atoms: C_5  and  S_4 
REMARK    4  A    between atoms: C_12  and  N_6 
ROOT
ATOM      1  C   UNL d   1      -0.049   1.482  -1.012  0.00  0.00     0.090 A 
ATOM      2  C   UNL d   1       0.736   1.480   0.151  0.00  0.00     0.066 A 
ATOM      3  N   UNL d   1      -0.502   0.323  -1.569  0.00  0.00    -0.359 N 
ATOM      4  HN  UNL d   1      -1.083   0.339  -2.407  1.00  0.00     0.166 HD
ATOM      5  C   UNL d   1       1.117   0.244   0.693  0.00  0.00     0.021 A 
ATOM      6  C   UNL d   1      -0.164  -0.845  -0.987  0.00  0.00     0.089 A 
ATOM      7  C   UNL d   1       0.662  -0.936   0.115  0.00  0.00     0.018 A 
ENDROOT
BRANCH   2   8
ATOM      8  C   UNL d   1       0.995   2.716   0.926  0.00  0.00     0.259 C 
ATOM      9  N   UNL d   1       2.225   2.791   1.579  0.00  0.00    -0.323 N 
ATOM     10  H   UNL d   1       2.951   2.145   1.287  0.00  0.00     0.169 HD
ATOM     11  O   UNL d   1       0.107   3.557   0.999  0.00  0.00    -0.267 OA
BRANCH   9  12
ATOM     12  C   UNL d   1       2.559   3.706   2.602  0.00  0.00     0.036 A 
ATOM     13  C   UNL d   1       1.630   4.576   3.193  0.00  0.00     0.056 A 
ATOM     14  C   UNL d   1       2.010   5.426   4.234  0.00  0.00     0.074 A 
ATOM     15 CL   UNL d   1       0.840   6.469   4.946  0.00  0.00    -0.081 Cl
ATOM     16  C   UNL d   1       3.321   5.414   4.693  0.00  0.00     0.138 A 
ATOM     17  C   UNL d   1       4.255   4.558   4.123  0.00  0.00     0.046 A 
ATOM     18  F   UNL d   1       3.707   6.219   5.694  0.00  0.00    -0.204 F 
ATOM     19  C   UNL d   1       3.877   3.701   3.084  0.00  0.00     0.032 A 
ENDBRANCH   9  12
ENDBRANCH   2   8
BRANCH   1  20
ATOM     20  S   UNL d   1      -0.546   2.929  -1.933  0.00  0.00    -0.064 SA
BRANCH  20  21
ATOM     21  C   UNL d   1       1.019   3.662  -2.271  0.00  0.00     0.047 A 
ATOM     22  S   UNL d   1       2.393   2.802  -2.827  0.00  0.00    -0.095 SA
ATOM     23  C   UNL d   1       3.341   4.224  -2.893  0.00  0.00     0.051 A 
ATOM     24  C   UNL d   1       2.623   5.339  -2.526  0.00  0.00     0.009 A 
ATOM     25  C   UNL d   1       1.281   5.014  -2.173  0.00  0.00     0.027 A 
ENDBRANCH  20  21
ENDBRANCH   1  20
TORSDOF 4
