REMARK  5 active torsions:
REMARK  status: ('A' for Active; 'I' for Inactive)
REMARK    1  A    between atoms: C_2  and  C_1 
REMARK    2  A    between atoms: C_13  and  C_8 
REMARK    3  A    between atoms: C_20  and  C_10 
REMARK    4  A    between atoms: O_21  and  C_20 
REMARK    5  A    between atoms: C_22  and  O_21 
ROOT
ATOM      1  C   UNL d   1      -1.499   2.244  -0.040  0.00  0.00     0.075 A 
ATOM      2  N   UNL d   1      -2.396   2.507   0.978  0.00  0.00    -0.349 N 
ATOM      3  HN  UNL d   1      -2.591   1.883   1.761  1.00  0.00     0.166 HD
ATOM      4  C   UNL d   1      -2.965   3.682   0.788  0.00  0.00     0.075 A 
ATOM      5  C   UNL d   1      -1.351   3.258  -0.965  0.00  0.00     0.084 A 
ATOM      6  S   UNL d   1      -2.392   4.562  -0.578  0.00  0.00    -0.084 SA
ENDROOT
BRANCH   1   7
ATOM      7  C   UNL d   1      -0.751   0.957  -0.102  0.00  0.00     0.128 A 
ATOM      8  C   UNL d   1       0.005   0.487  -1.151  0.00  0.00     0.074 A 
ATOM      9  C   UNL d   1       0.510  -0.766  -0.721  0.00  0.00     0.068 A 
ATOM     10  N   UNL d   1       0.095  -1.031   0.526  0.00  0.00    -0.260 N 
ATOM     11  O   UNL d   1      -0.717   0.029   0.896  0.00  0.00    -0.235 OA
ATOM     12  HN  UNL d   1       0.330  -1.848   1.090  1.00  0.00     0.195 HD
BRANCH   9  13
ATOM     13  C   UNL d   1       1.364  -1.686  -1.470  0.00  0.00    -0.006 A 
ATOM     14  C   UNL d   1       1.252  -1.781  -2.864  0.00  0.00     0.039 A 
ATOM     15  C   UNL d   1       2.083  -2.646  -3.587  0.00  0.00     0.056 A 
ATOM     16 CL   UNL d   1       1.878  -2.698  -5.304  0.00  0.00    -0.083 Cl
ATOM     17  C   UNL d   1       3.034  -3.424  -2.922  0.00  0.00     0.055 A 
ATOM     18  C   UNL d   1       3.146  -3.340  -1.531  0.00  0.00     0.026 A 
ATOM     19 CL   UNL d   1       4.097  -4.501  -3.753  0.00  0.00    -0.083 Cl
ATOM     20  C   UNL d   1       2.312  -2.479  -0.808  0.00  0.00     0.015 A 
ENDBRANCH   9  13
ENDBRANCH   1   7
BRANCH   4  21
ATOM     21  C   UNL d   1      -3.994   4.292   1.693  0.00  0.00     0.240 C 
BRANCH  21  22
ATOM     22  O   UNL d   1      -5.267   4.165   1.053  0.00  0.00    -0.345 OA
BRANCH  22  23
ATOM     23  C   UNL d   1      -6.339   4.706   1.712  0.00  0.00     0.070 A 
ATOM     24  C   UNL d   1      -6.294   5.359   2.946  0.00  0.00     0.060 A 
ATOM     25  C   UNL d   1      -7.466   5.877   3.501  0.00  0.00     0.036 A 
ATOM     26 CL   UNL d   1      -7.398   6.690   5.018  0.00  0.00    -0.084 Cl
ATOM     27  C   UNL d   1      -8.686   5.747   2.842  0.00  0.00     0.024 A 
ATOM     28  C   UNL d   1      -8.737   5.091   1.614  0.00  0.00     0.004 A 
ATOM     29  C   UNL d   1      -7.566   4.574   1.055  0.00  0.00     0.037 A 
ENDBRANCH  22  23
ENDBRANCH  21  22
ENDBRANCH   4  21
TORSDOF 5
