REMARK  7 active torsions:
REMARK  status: ('A' for Active; 'I' for Inactive)
REMARK    1  A    between atoms: C_6  and  S_1 
REMARK    2  A    between atoms: N_10  and  S_1 
REMARK    3  A    between atoms: C_2  and  C_17 
REMARK    4  A    between atoms: C_18  and  N_10 
REMARK    5  A    between atoms: C_17  and  S_22 
REMARK    6  A    between atoms: C_25  and  C_18 
REMARK    7  A    between atoms: S_22  and  C_25 
ROOT
ATOM      1  C   UNL d   1       3.170   0.418   1.264  0.00  0.00     0.142 C 
ENDROOT
BRANCH   1   2
ATOM      2  N   UNL d   1       2.635   1.751   1.603  0.00  0.00    -0.315 N 
ATOM      3  H   UNL d   1       3.071   2.209   2.407  0.00  0.00     0.172 HD
BRANCH   2   4
ATOM      4  S   UNL d   1       0.953   1.911   1.602  0.00  0.00     0.258 S 
ATOM      5  O   UNL d   1       0.656   3.307   1.831  0.00  0.00    -0.201 OA
ATOM      6  O   UNL d   1       0.434   1.184   0.472  0.00  0.00    -0.201 OA
BRANCH   4   7
ATOM      7  C   UNL d   1       0.510   1.018   3.081  0.00  0.00     0.079 A 
ATOM      8  C   UNL d   1       0.417   1.701   4.296  0.00  0.00     0.027 A 
ATOM      9  C   UNL d   1       0.082   1.000   5.456  0.00  0.00     0.025 A 
ATOM     10  C   UNL d   1      -0.166  -0.372   5.392  0.00  0.00     0.034 A 
ATOM     11  C   UNL d   1      -0.097  -1.050   4.174  0.00  0.00     0.025 A 
ATOM     12 CL   UNL d   1      -0.555  -1.237   6.827  0.00  0.00    -0.084 Cl
ATOM     13  C   UNL d   1       0.234  -0.353   3.010  0.00  0.00     0.027 A 
ENDBRANCH   4   7
ENDBRANCH   2   4
ENDBRANCH   1   2
BRANCH   1  14
ATOM     14  C   UNL d   1       4.693   0.398   1.326  0.00  0.00     0.094 C 
BRANCH  14  15
ATOM     15  S   UNL d   1       5.314   0.902   2.962  0.00  0.00    -0.163 SA
BRANCH  15  16
ATOM     16  C   UNL d   1       4.477  -0.335   4.026  0.00  0.00     0.114 C 
BRANCH  16  17
ATOM     17  C   UNL d   1       4.806  -0.038   5.452  0.00  0.00    -0.031 A 
ATOM     18  C   UNL d   1       5.519  -0.932   6.340  0.00  0.00    -0.010 A 
ATOM     19  C   UNL d   1       5.778  -0.317   7.569  0.00  0.00     0.015 A 
ATOM     20  C   UNL d   1       5.989  -2.256   6.146  0.00  0.00     0.037 A 
ATOM     21  C   UNL d   1       6.519  -0.966   8.575  0.00  0.00     0.021 A 
ATOM     22  S   UNL d   1       5.105   1.261   7.653  0.00  0.00    -0.101 SA
ATOM     23  C   UNL d   1       6.985  -2.261   8.349  0.00  0.00     0.025 A 
ATOM     24  C   UNL d   1       6.713  -2.900   7.144  0.00  0.00     0.035 A 
ATOM     25 CL   UNL d   1       7.287  -4.501   6.883  0.00  0.00    -0.084 Cl
ATOM     26  C   UNL d   1       4.489   1.156   6.077  0.00  0.00     0.059 A 
ENDBRANCH  16  17
ENDBRANCH  15  16
ENDBRANCH  14  15
ENDBRANCH   1  14
TORSDOF 7
