REMARK  5 active torsions:
REMARK  status: ('A' for Active; 'I' for Inactive)
REMARK    1  A    between atoms: C_2  and  S_1 
REMARK    2  A    between atoms: C_3  and  S_1 
REMARK    3  A    between atoms: C_5  and  C_3 
REMARK    4  A    between atoms: C_4  and  O_8 
REMARK    5  A    between atoms: O_8  and  C_15 
ROOT
ATOM      1  C   UNL d   1       3.546   0.912   0.768  0.00  0.00     0.021 A 
ATOM      2  C   UNL d   1       3.016   1.238   2.026  0.00  0.00     0.019 A 
ATOM      3  C   UNL d   1       4.763   1.482   0.398  0.00  0.00     0.019 A 
ATOM      4  C   UNL d   1       4.953   2.596   2.546  0.00  0.00     0.078 A 
ATOM      5  C   UNL d   1       3.709   2.081   2.908  0.00  0.00     0.038 A 
ATOM      6  C   UNL d   1       5.457   2.318   1.278  0.00  0.00     0.038 A 
ENDROOT
BRANCH   1   7
ATOM      7  C   UNL d   1       2.766  -0.003  -0.116  0.00  0.00     0.224 C 
ATOM      8  O   UNL d   1       1.561  -0.130   0.054  0.00  0.00    -0.279 OA
BRANCH   7   9
ATOM      9  S   UNL d   1       3.626  -1.019  -1.275  0.00  0.00    -0.044 SA
BRANCH   9  10
ATOM     10  C   UNL d   1       3.762   0.048  -2.720  0.00  0.00     0.052 A 
ATOM     11  C   UNL d   1       5.035   0.430  -3.203  0.00  0.00     0.052 A 
ATOM     12 CL   UNL d   1       6.522  -0.156  -2.520  0.00  0.00    -0.083 Cl
ATOM     13  C   UNL d   1       5.169   1.308  -4.288  0.00  0.00     0.025 A 
ATOM     14  C   UNL d   1       4.042   1.787  -4.944  0.00  0.00     0.003 A 
ATOM     15  C   UNL d   1       2.782   1.371  -4.530  0.00  0.00     0.025 A 
ATOM     16  C   UNL d   1       2.638   0.504  -3.436  0.00  0.00     0.052 A 
ATOM     17 CL   UNL d   1       1.020  -0.001  -3.084  0.00  0.00    -0.083 Cl
ENDBRANCH   9  10
ENDBRANCH   7   9
ENDBRANCH   1   7
BRANCH   4  18
ATOM     18  O   UNL d   1       5.738   3.420   3.289  0.00  0.00    -0.255 OA
BRANCH  18  19
ATOM     19  C   UNL d   1       5.743   3.299   4.702  0.00  0.00     0.530 C 
ATOM     20  F   UNL d   1       5.111   2.200   5.164  0.00  0.00    -0.144 F 
ATOM     21  F   UNL d   1       7.028   3.242   5.118  0.00  0.00    -0.144 F 
ATOM     22  F   UNL d   1       5.174   4.397   5.244  0.00  0.00    -0.144 F 
ENDBRANCH  18  19
ENDBRANCH   4  18
TORSDOF 5
