REMARK  3 active torsions:
REMARK  status: ('A' for Active; 'I' for Inactive)
REMARK    1  A    between atoms: O_3  and  N_1 
REMARK    2  A    between atoms: C_2  and  O_3 
REMARK    3  A    between atoms: C_4  and  C_2 
ROOT
ATOM      1  C   UNL d   1      -1.174   2.716  -0.015  0.00  0.00     0.317 C 
ATOM      2  O   UNL d   1      -0.892   3.905  -0.029  0.00  0.00    -0.257 OA
ENDROOT
BRANCH   1   3
ATOM      3  O   UNL d   1      -0.308   1.682  -0.113  0.00  0.00    -0.182 OA
BRANCH   3   4
ATOM      4  N   UNL d   1       0.999   2.005   0.256  0.00  0.00    -0.145 N 
ATOM      5  C   UNL d   1       2.013   1.359  -0.381  0.00  0.00     0.251 C 
ATOM      6  C   UNL d   1       3.229   1.465   0.497  0.00  0.00     0.115 C 
ATOM      7  O   UNL d   1       1.961   0.688  -1.399  0.00  0.00    -0.271 OA
ATOM      8  C   UNL d   1       2.781   2.332   1.666  0.00  0.00     0.115 C 
ATOM      9  C   UNL d   1       1.287   2.305   1.551  0.00  0.00     0.251 C 
ATOM     10  O   UNL d   1       0.516   2.477   2.483  0.00  0.00    -0.271 OA
ENDBRANCH   3   4
ENDBRANCH   1   3
BRANCH   1  11
ATOM     11  C   UNL d   1      -2.558   2.177   0.041  0.00  0.00     0.063 A 
ATOM     12  C   UNL d   1      -2.906   0.959   0.653  0.00  0.00     0.050 A 
ATOM     13 CL   UNL d   1      -1.803  -0.052   1.526  0.00  0.00    -0.083 Cl
ATOM     14  C   UNL d   1      -4.233   0.517   0.622  0.00  0.00     0.025 A 
ATOM     15  C   UNL d   1      -5.222   1.290   0.015  0.00  0.00     0.002 A 
ATOM     16  C   UNL d   1      -4.892   2.516  -0.556  0.00  0.00     0.001 A 
ATOM     17  C   UNL d   1      -3.568   2.961  -0.542  0.00  0.00     0.019 A 
ENDBRANCH   1  11
TORSDOF 3
