REMARK  4 active torsions:
REMARK  status: ('A' for Active; 'I' for Inactive)
REMARK    1  A    between atoms: C_2  and  C_1 
REMARK       I    between atoms: N_3  and  C_2 
REMARK       I    between atoms: C_5  and  N_3 
REMARK    2  A    between atoms: C_4  and  N_8 
REMARK       I    between atoms: N_8  and  C_5 
REMARK    3  A    between atoms: O_23  and  C_6 
REMARK    4  A    between atoms: O_24  and  C_7 
ROOT
ATOM      1  C   UNL d   1       0.190  -3.585  -0.626  0.00  0.00     0.244 C 
ATOM      2  N   UNL d   1       1.211  -3.877  -1.519  0.00  0.00    -0.175 NA
ATOM      3  C   UNL d   1       2.195  -4.737  -1.118  0.00  0.00     0.305 C 
ATOM      4  N   UNL d   1       2.031  -6.024  -1.577  0.00  0.00    -0.310 N 
ATOM      5  O   UNL d   1      -0.415  -4.431   0.017  0.00  0.00    -0.273 OA
ATOM      6  O   UNL d   1       3.207  -4.314  -0.567  0.00  0.00    -0.253 OA
ATOM      7  H   UNL d   1       1.695  -3.020  -1.766  0.00  0.00     0.141 HD
ATOM      8  H   UNL d   1       1.127  -6.423  -1.338  0.00  0.00     0.170 HD
ENDROOT
BRANCH   1   9
ATOM      9  C   UNL d   1      -0.213  -2.136  -0.600  0.00  0.00     0.096 A 
ATOM     10  C   UNL d   1       0.779  -1.135  -0.569  0.00  0.00     0.108 A 
ATOM     11  C   UNL d   1       0.439   0.215  -0.720  0.00  0.00     0.070 A 
ATOM     12 CL   UNL d   1       1.643   1.449  -0.794  0.00  0.00    -0.081 Cl
ATOM     13  C   UNL d   1      -0.893   0.585  -0.859  0.00  0.00     0.053 A 
ATOM     14  C   UNL d   1      -1.890  -0.391  -0.829  0.00  0.00     0.070 A 
ATOM     15  C   UNL d   1      -1.564  -1.750  -0.661  0.00  0.00     0.108 A 
ATOM     16 CL   UNL d   1      -3.516   0.144  -1.078  0.00  0.00    -0.081 Cl
BRANCH  10  17
ATOM     17  O   UNL d   1       2.098  -1.500  -0.477  0.00  0.00    -0.353 OA
ATOM     18  C   UNL d   1       2.571  -1.401   0.873  0.00  0.00     0.210 C 
ENDBRANCH  10  17
BRANCH  15  19
ATOM     19  O   UNL d   1      -2.541  -2.712  -0.663  0.00  0.00    -0.353 OA
ATOM     20  C   UNL d   1      -3.340  -2.666   0.525  0.00  0.00     0.210 C 
ENDBRANCH  15  19
ENDBRANCH   1   9
BRANCH   4  21
ATOM     21  C   UNL d   1       3.138  -6.915  -1.683  0.00  0.00     0.079 A 
ATOM     22  C   UNL d   1       4.372  -6.537  -2.260  0.00  0.00     0.064 A 
ATOM     23  C   UNL d   1       5.457  -7.420  -2.274  0.00  0.00     0.050 A 
ATOM     24 CL   UNL d   1       4.594  -5.055  -3.138  0.00  0.00    -0.082 Cl
ATOM     25  C   UNL d   1       5.312  -8.701  -1.756  0.00  0.00     0.037 A 
ATOM     26  C   UNL d   1       4.084  -9.123  -1.254  0.00  0.00     0.050 A 
ATOM     27 CL   UNL d   1       6.650  -9.782  -1.771  0.00  0.00    -0.084 Cl
ATOM     28  C   UNL d   1       3.002  -8.237  -1.229  0.00  0.00     0.064 A 
ATOM     29 CL   UNL d   1       1.500  -8.813  -0.593  0.00  0.00    -0.082 Cl
ENDBRANCH   4  21
TORSDOF 4
