REMARK  2 active torsions:
REMARK  status: ('A' for Active; 'I' for Inactive)
REMARK    1  A    between atoms: N_2  and  C_1 
REMARK       I    between atoms: C_3  and  N_2 
REMARK    2  A    between atoms: C_6  and  C_3 
ROOT
ATOM      1  N   UNL d   1       0.149   1.827   0.141  0.00  0.00    -0.321 N 
ATOM      2  C   UNL d   1       1.311   2.562   0.006  0.00  0.00     0.256 C 
ATOM      3  O   UNL d   1       2.414   2.097  -0.226  0.00  0.00    -0.267 OA
ATOM      4  H   UNL d   1      -0.652   2.224  -0.339  0.00  0.00     0.169 HD
ENDROOT
BRANCH   1   5
ATOM      5  C   UNL d   1       0.135   0.414   0.292  0.00  0.00     0.070 A 
ATOM      6  C   UNL d   1       0.802  -0.255   1.335  0.00  0.00     0.039 A 
ATOM      7  C   UNL d   1       0.576  -1.625   1.558  0.00  0.00     0.028 A 
ATOM      8 BR   UNL d   1       1.891   0.623   2.627  0.00  0.00    -0.049 Br
ATOM      9  C   UNL d   1      -0.318  -2.349   0.759  0.00  0.00    -0.059 A 
ATOM     10  C   UNL d   1      -0.925  -1.705  -0.321  0.00  0.00     0.028 A 
ATOM     11  C   UNL d   1      -0.590  -3.796   1.045  0.00  0.00     0.048 C 
ATOM     12  C   UNL d   1      -0.702  -0.341  -0.548  0.00  0.00     0.039 A 
ATOM     13 BR   UNL d   1      -1.510   0.437  -2.087  0.00  0.00    -0.049 Br
ENDBRANCH   1   5
BRANCH   2  14
ATOM     14  C   UNL d   1       1.145   4.047   0.111  0.00  0.00     0.032 A 
ATOM     15  C   UNL d   1       0.142   4.617   0.909  0.00  0.00     0.018 A 
ATOM     16  C   UNL d   1       0.113   6.001   1.113  0.00  0.00     0.025 A 
ATOM     17  C   UNL d   1       1.078   6.813   0.518  0.00  0.00     0.034 A 
ATOM     18  C   UNL d   1       2.058   6.259  -0.303  0.00  0.00     0.025 A 
ATOM     19 CL   UNL d   1       1.082   8.504   0.831  0.00  0.00    -0.084 Cl
ATOM     20  C   UNL d   1       2.093   4.876  -0.505  0.00  0.00     0.018 A 
ENDBRANCH   2  14
TORSDOF 2
