REMARK  2 active torsions:
REMARK  status: ('A' for Active; 'I' for Inactive)
REMARK    1  A    between atoms: C_6  and  C_2 
REMARK    2  A    between atoms: C_17  and  C_11 
ROOT
ATOM      1  C   UNL d   1       0.231  -0.830  -0.022  0.00  0.00     0.143 A 
ATOM      2  C   UNL d   1       1.547  -1.241   0.006  0.00  0.00     0.072 A 
ATOM      3  N   UNL d   1       0.271   0.574  -0.027  0.00  0.00    -0.244 N 
ATOM      4  N   UNL d   1      -0.951  -1.523  -0.023  0.00  0.00    -0.336 N 
ATOM      5  HN  UNL d   1      -0.964  -2.543  -0.027  1.00  0.00     0.167 HD
ATOM      6  N   UNL d   1       1.549   1.038  -0.029  0.00  0.00    -0.302 N 
ATOM      7  HN  UNL d   1       1.860   2.009  -0.047  1.00  0.00     0.186 HD
ATOM      8  C   UNL d   1      -2.059  -0.831  -0.017  0.00  0.00     0.120 A 
ATOM      9  C   UNL d   1      -0.917   1.320  -0.020  0.00  0.00     0.034 A 
ATOM     10  C   UNL d   1      -2.098   0.674  -0.016  0.00  0.00     0.061 A 
ATOM     11  C   UNL d   1       2.304  -0.061  -0.003  0.00  0.00     0.127 A 
ATOM     12  C   UNL d   1      -0.847   2.817  -0.006  0.00  0.00     0.070 C 
ENDROOT
BRANCH   2  13
ATOM     13  C   UNL d   1       2.112  -2.578   0.056  0.00  0.00     0.143 A 
ATOM     14  N   UNL d   1       3.474  -2.744   0.153  0.00  0.00    -0.323 N 
ATOM     15  C   UNL d   1       3.586  -4.051   0.218  0.00  0.00     0.144 A 
ATOM     16  HN  UNL d   1       4.208  -2.035   0.169  1.00  0.00     0.169 HD
ATOM     17  C   UNL d   1       4.788  -4.888   0.365  0.00  0.00     0.100 C 
ATOM     18  O   UNL d   1       2.391  -4.704   0.153  0.00  0.00    -0.223 OA
ATOM     19  N   UNL d   1       1.409  -3.718   0.045  0.00  0.00    -0.242 N 
ATOM     20  HN  UNL d   1       0.399  -3.837  -0.025  1.00  0.00     0.196 HD
ENDBRANCH   2  13
BRANCH   8  21
ATOM     21  C   UNL d   1      -3.410  -1.554  -0.007  0.00  0.00     0.432 C 
ATOM     22  F   UNL d   1      -4.466  -0.690   0.012  0.00  0.00    -0.165 F 
ATOM     23  F   UNL d   1      -3.588  -2.339  -1.103  0.00  0.00    -0.165 F 
ATOM     24  F   UNL d   1      -3.561  -2.355   1.082  0.00  0.00    -0.165 F 
ENDBRANCH   8  21
TORSDOF 2
