REMARK  1 active torsions:
REMARK  status: ('A' for Active; 'I' for Inactive)
REMARK    1  A    between atoms: S_11  and  C_4 
ROOT
ATOM      1  C   UNL d   1       0.415   0.775   0.110  0.00  0.00     0.040 A 
ATOM      2  C   UNL d   1       0.392  -0.658   0.021  0.00  0.00    -0.035 A 
ATOM      3  C   UNL d   1      -0.811   1.561   0.158  0.00  0.00     0.162 C 
ATOM      4  C   UNL d   1       1.714   1.262   0.099  0.00  0.00     0.055 A 
ATOM      5  S   UNL d   1       2.872  -0.002   0.110  0.00  0.00    -0.093 SA
ATOM      6  C   UNL d   1       1.659  -1.194   0.046  0.00  0.00     0.059 A 
ATOM      7  C   UNL d   1      -0.857  -1.468  -0.119  0.00  0.00     0.049 C 
ATOM      8  C   UNL d   1      -2.195  -0.691  -0.001  0.00  0.00    -0.037 C 
ATOM      9  C   UNL d   1      -2.114   0.850  -0.174  0.00  0.00     0.093 C 
ATOM     10  O   UNL d   1      -0.830   2.764   0.403  0.00  0.00    -0.292 OA
ATOM     11  C   UNL d   1      -2.844  -1.020   1.361  0.00  0.00     0.015 C 
ATOM     12  C   UNL d   1      -3.146  -1.224  -1.101  0.00  0.00     0.015 C 
ENDROOT
BRANCH   4  13
ATOM     13  S   UNL d   1       2.271   2.932   0.006  0.00  0.00    -0.126 SA
ATOM     14  C   UNL d   1       2.320   3.350   1.761  0.00  0.00     0.096 C 
ENDBRANCH   4  13
TORSDOF 1
