REMARK  0 active torsions:
REMARK  status: ('A' for Active; 'I' for Inactive)
ROOT
ATOM      1  C   UNL d   1       2.366  -0.656  -0.081  0.00  0.00     0.113 A 
ATOM      2  C   UNL d   1       1.228  -1.371  -0.019  0.00  0.00     0.044 A 
ATOM      3  C   UNL d   1       2.316   0.831  -0.079  0.00  0.00     0.266 A 
ATOM      4  N   UNL d   1       1.073   1.407  -0.073  0.00  0.00    -0.321 N 
ATOM      5  C   UNL d   1      -0.088  -0.719   0.042  0.00  0.00     0.015 A 
ATOM      6  C   UNL d   1      -0.125   0.682  -0.021  0.00  0.00     0.048 A 
ATOM      7  C   UNL d   1       3.632  -1.298  -0.161  0.00  0.00     0.105 C 
ATOM      8  N   UNL d   1       4.631  -1.885  -0.229  0.00  0.00    -0.191 NA
ATOM      9  C   UNL d   1      -1.313  -1.383   0.153  0.00  0.00     0.017 A 
ATOM     10  N   UNL d   1      -2.503  -0.720   0.136  0.00  0.00    -0.369 N 
ATOM     11  HN  UNL d   1      -3.385  -1.229   0.194  1.00  0.00     0.165 HD
ATOM     12  O   UNL d   1       3.329   1.524  -0.093  0.00  0.00    -0.267 OA
ATOM     13  C   UNL d   1      -1.332   1.372  -0.025  0.00  0.00     0.047 A 
ATOM     14  C   UNL d   1      -2.489   0.626   0.041  0.00  0.00     0.090 A 
ATOM     15  C   UNL d   1      -1.455  -2.872   0.285  0.00  0.00     0.069 C 
ATOM     16  H   UNL d   1       1.060   2.420  -0.083  0.00  0.00     0.169 HD
ENDROOT
TORSDOF 0
