REMARK  4 active torsions:
REMARK  status: ('A' for Active; 'I' for Inactive)
REMARK    1  A    between atoms: N_9  and  C_1 
REMARK    2  A    between atoms: C_15  and  C_7 
REMARK    3  A    between atoms: S_16  and  C_8 
REMARK    4  A    between atoms: C_11  and  N_9 
ROOT
ATOM      1  C   UNL d   1       0.073   1.083  -0.169  0.00  0.00     0.131 A 
ATOM      2  N   UNL d   1       1.419   1.139  -0.085  0.00  0.00    -0.327 N 
ATOM      3  HN  UNL d   1       1.907   2.035  -0.066  1.00  0.00     0.169 HD
ATOM      4  N   UNL d   1       1.514  -1.224  -0.061  0.00  0.00    -0.335 N 
ATOM      5  HN  UNL d   1       2.068  -2.078  -0.003  1.00  0.00     0.168 HD
ATOM      6  C   UNL d   1      -0.605  -0.129  -0.231  0.00  0.00     0.122 A 
ATOM      7  C   UNL d   1       2.096  -0.017  -0.029  0.00  0.00     0.118 A 
ATOM      8  C   UNL d   1       0.173  -1.270  -0.173  0.00  0.00     0.095 A 
ATOM      9  C   UNL d   1      -2.020  -0.171  -0.403  0.00  0.00     0.106 C 
ATOM     10  N   UNL d   1      -3.171  -0.171  -0.550  0.00  0.00    -0.191 NA
ENDROOT
BRANCH   1  11
ATOM     11  N   UNL d   1      -0.654   2.295  -0.184  0.00  0.00    -0.340 N 
ATOM     12  H   UNL d   1      -1.285   2.371   0.613  0.00  0.00     0.167 HD
BRANCH  11  13
ATOM     13  C   UNL d   1      -0.220   3.562  -0.634  0.00  0.00     0.055 A 
ATOM     14  C   UNL d   1      -0.681   4.745  -0.022  0.00  0.00     0.062 A 
ATOM     15  C   UNL d   1      -0.354   6.003  -0.534  0.00  0.00     0.050 A 
ATOM     16 CL   UNL d   1      -1.668   4.668   1.397  0.00  0.00    -0.082 Cl
ATOM     17  C   UNL d   1       0.435   6.089  -1.677  0.00  0.00     0.035 A 
ATOM     18  C   UNL d   1       0.921   4.937  -2.289  0.00  0.00     0.026 A 
ATOM     19 CL   UNL d   1       0.797   7.629  -2.351  0.00  0.00    -0.084 Cl
ATOM     20  C   UNL d   1       0.600   3.680  -1.766  0.00  0.00     0.033 A 
ENDBRANCH  11  13
ENDBRANCH   1  11
BRANCH   8  21
ATOM     21  S   UNL d   1      -0.542  -2.913  -0.270  0.00  0.00    -0.115 SA
ATOM     22  C   UNL d   1       0.927  -3.947  -0.021  0.00  0.00     0.097 C 
ENDBRANCH   8  21
BRANCH   7  23
ATOM     23  C   UNL d   1       3.570   0.024   0.056  0.00  0.00     0.008 A 
ATOM     24  C   UNL d   1       4.277   1.238   0.111  0.00  0.00     0.015 A 
ATOM     25  C   UNL d   1       5.674   1.267   0.174  0.00  0.00     0.001 A 
ATOM     26  C   UNL d   1       6.401   0.079   0.187  0.00  0.00     0.000 A 
ATOM     27  C   UNL d   1       5.729  -1.139   0.139  0.00  0.00     0.001 A 
ATOM     28  C   UNL d   1       4.333  -1.163   0.076  0.00  0.00     0.015 A 
ENDBRANCH   7  23
TORSDOF 4
