REMARK  7 active torsions:
REMARK  status: ('A' for Active; 'I' for Inactive)
REMARK    1  A    between atoms: N_3  and  S_1 
REMARK    2  A    between atoms: C_4  and  S_1 
REMARK    3  A    between atoms: C_2  and  C_9 
REMARK    4  A    between atoms: C_11  and  N_3 
REMARK    5  A    between atoms: O_12  and  C_10 
REMARK    6  A    between atoms: C_21  and  O_12 
REMARK    7  A    between atoms: O_29  and  C_24 
ROOT
ATOM      1  N   UNL d   1      -0.083  -4.762  -0.071  0.00  0.00    -0.344 N 
ATOM      2  HN  UNL d   1      -0.861  -5.418  -0.150  1.00  0.00     0.167 HD
ATOM      3  C   UNL d   1       1.170  -5.105  -0.452  0.00  0.00     0.148 A 
ATOM      4  C   UNL d   1       0.752  -2.572   0.489  0.00  0.00     0.058 A 
ATOM      5  C   UNL d   1      -0.258  -3.520   0.417  0.00  0.00     0.120 A 
ATOM      6  C   UNL d   1       2.235  -4.215  -0.459  0.00  0.00     0.059 A 
ATOM      7  C   UNL d   1       2.013  -2.917   0.012  0.00  0.00     0.036 A 
ENDROOT
BRANCH   4   8
ATOM      8  N   UNL d   1       0.489  -1.261   0.975  0.00  0.00    -0.279 N 
ATOM      9  H   UNL d   1      -0.036  -1.182   1.845  0.00  0.00     0.179 HD
BRANCH   8  10
ATOM     10  S   UNL d   1       0.025  -0.079  -0.140  0.00  0.00     0.263 S 
ATOM     11  O   UNL d   1       1.032   0.022  -1.169  0.00  0.00    -0.200 OA
ATOM     12  O   UNL d   1      -0.376   1.073   0.646  0.00  0.00    -0.200 OA
BRANCH  10  13
ATOM     13  C   UNL d   1      -1.455  -0.749  -0.879  0.00  0.00     0.079 A 
ATOM     14  C   UNL d   1      -2.705  -0.480  -0.313  0.00  0.00     0.026 A 
ATOM     15  C   UNL d   1      -3.860  -0.978  -0.924  0.00  0.00     0.018 A 
ATOM     16  C   UNL d   1      -3.776  -1.739  -2.104  0.00  0.00     0.048 A 
ATOM     17  C   UNL d   1      -2.512  -1.999  -2.656  0.00  0.00     0.018 A 
ATOM     18  C   UNL d   1      -1.355  -1.498  -2.055  0.00  0.00     0.026 A 
BRANCH  16  19
ATOM     19  C   UNL d   1      -5.035  -2.244  -2.774  0.00  0.00     0.417 C 
ATOM     20  F   UNL d   1      -4.799  -2.944  -3.919  0.00  0.00    -0.166 F 
ATOM     21  F   UNL d   1      -5.757  -3.072  -1.971  0.00  0.00    -0.166 F 
ATOM     22  F   UNL d   1      -5.877  -1.233  -3.124  0.00  0.00    -0.166 F 
ENDBRANCH  16  19
ENDBRANCH  10  13
ENDBRANCH   8  10
ENDBRANCH   4   8
BRANCH   3  23
ATOM     23  O   UNL d   1       1.422  -6.423  -0.820  0.00  0.00    -0.294 OA
BRANCH  23  24
ATOM     24  C   UNL d   1       0.645  -7.385  -0.205  0.00  0.00     0.078 A 
ATOM     25  C   UNL d   1       0.208  -8.462  -0.975  0.00  0.00     0.040 A 
ATOM     26  C   UNL d   1      -0.627  -9.438  -0.408  0.00  0.00     0.039 A 
ATOM     27  C   UNL d   1      -1.022  -9.335   0.928  0.00  0.00     0.068 A 
ATOM     28  C   UNL d   1      -0.539  -8.282   1.704  0.00  0.00     0.039 A 
ATOM     29  C   UNL d   1       0.312  -7.328   1.151  0.00  0.00     0.040 A 
BRANCH  27  30
ATOM     30  O   UNL d   1      -1.864 -10.177   1.599  0.00  0.00    -0.356 OA
ATOM     31  C   UNL d   1      -2.396 -11.276   0.876  0.00  0.00     0.210 C 
ENDBRANCH  27  30
ENDBRANCH  23  24
ENDBRANCH   3  23
TORSDOF 7
