REMARK  5 active torsions:
REMARK  status: ('A' for Active; 'I' for Inactive)
REMARK    1  A    between atoms: C_8  and  C_1 
REMARK       I    between atoms: C_7  and  N_9 
REMARK       I    between atoms: N_15  and  C_7 
REMARK    2  A    between atoms: C_10  and  C_8 
REMARK    3  A    between atoms: C_23  and  N_15 
REMARK    4  A    between atoms: C_24  and  C_23 
REMARK    5  A    between atoms: C_25  and  C_24 
ROOT
ATOM      1  C   UNL d   1      -5.351  -2.886  -1.187  0.00  0.00     0.318 C 
ATOM      2  N   UNL d   1      -4.871  -1.624  -0.863  0.00  0.00    -0.334 N 
ATOM      3  C   UNL d   1      -3.982   1.087  -0.034  0.00  0.00     0.064 C 
ATOM      4  C   UNL d   1      -4.080  -0.809  -1.774  0.00  0.00     0.128 C 
ATOM      5  C   UNL d   1      -4.768  -1.318   0.565  0.00  0.00     0.128 C 
ATOM      6  O   UNL d   1      -5.946  -3.601  -0.379  0.00  0.00    -0.247 OA
ATOM      7  N   UNL d   1      -5.131  -3.296  -2.483  0.00  0.00    -0.343 N 
ATOM      8  C   UNL d   1      -4.717   0.170   0.940  0.00  0.00     0.032 C 
ATOM      9  C   UNL d   1      -4.199   0.671  -1.494  0.00  0.00     0.032 C 
ATOM     10  H   UNL d   1      -4.311  -2.938  -2.942  0.00  0.00     0.164 HD
ENDROOT
BRANCH   3  11
ATOM     11  C   UNL d   1      -2.533   1.523   0.318  0.00  0.00     0.164 C 
ATOM     12  O   UNL d   1      -1.645   1.233  -0.492  0.00  0.00    -0.292 OA
BRANCH  11  13
ATOM     13  C   UNL d   1      -2.127   2.389   1.554  0.00  0.00     0.023 A 
ATOM     14  C   UNL d   1      -0.805   2.192   2.116  0.00  0.00    -0.041 A 
ATOM     15  C   UNL d   1      -0.286   3.066   3.135  0.00  0.00    -0.049 A 
ATOM     16  C   UNL d   1       0.135   1.091   1.656  0.00  0.00     0.050 C 
ATOM     17  C   UNL d   1       1.117   2.913   3.708  0.00  0.00     0.049 C 
ATOM     18  C   UNL d   1      -1.066   4.135   3.627  0.00  0.00    -0.049 A 
ATOM     19  C   UNL d   1      -2.363   4.335   3.109  0.00  0.00    -0.049 A 
ATOM     20  C   UNL d   1      -0.486   5.059   4.686  0.00  0.00     0.049 C 
ATOM     21  C   UNL d   1      -2.902   3.473   2.081  0.00  0.00    -0.041 A 
ATOM     22  C   UNL d   1      -3.149   5.530   3.637  0.00  0.00     0.049 C 
ATOM     23  C   UNL d   1      -4.272   3.901   1.623  0.00  0.00     0.050 C 
ENDBRANCH  11  13
ENDBRANCH   3  11
BRANCH   7  24
ATOM     24  C   UNL d   1      -5.625  -4.573  -2.968  0.00  0.00     0.124 C 
BRANCH  24  25
ATOM     25  C   UNL d   1      -7.060  -4.455  -3.479  0.00  0.00     0.019 C 
BRANCH  25  26
ATOM     26  C   UNL d   1      -7.585  -5.799  -3.982  0.00  0.00    -0.003 C 
ATOM     27  C   UNL d   1      -9.014  -5.683  -4.489  0.00  0.00     0.005 C 
ENDBRANCH  25  26
ENDBRANCH  24  25
ENDBRANCH   7  24
TORSDOF 5
