REMARK  8 active torsions:
REMARK  status: ('A' for Active; 'I' for Inactive)
REMARK    1  A    between atoms: C_2  and  C_1 
REMARK    2  A    between atoms: O_11  and  N_3 
REMARK    3  A    between atoms: C_5  and  O_11 
REMARK       I    between atoms: N_10  and  C_5 
REMARK    4  A    between atoms: C_6  and  C_13 
REMARK    5  A    between atoms: N_22  and  C_6 
REMARK    6  A    between atoms: O_16  and  C_9 
REMARK    7  A    between atoms: C_23  and  N_10 
REMARK    8  A    between atoms: C_24  and  O_16 
ROOT
ATOM      1  C   UNL d   1      -4.076  -1.568  -8.732  0.00  0.00     0.004 A 
ATOM      2  C   UNL d   1      -4.680  -1.494  -7.475  0.00  0.00     0.017 A 
ATOM      3  C   UNL d   1      -4.634  -2.397  -9.719  0.00  0.00     0.017 A 
ATOM      4  C   UNL d   1      -6.404  -3.044  -8.206  0.00  0.00     0.077 A 
ATOM      5  C   UNL d   1      -5.798  -3.123  -9.458  0.00  0.00     0.038 A 
ATOM      6  C   UNL d   1      -5.853  -2.216  -7.220  0.00  0.00     0.038 A 
ENDROOT
BRANCH   1   7
ATOM      7  C   UNL d   1      -2.871  -0.739  -9.058  0.00  0.00     0.109 C 
ATOM      8  N   UNL d   1      -2.082  -0.317  -8.103  0.00  0.00    -0.244 N 
ATOM      9  HN  UNL d   1      -2.201  -0.489  -7.105  1.00  0.00     0.196 HD
BRANCH   8  10
ATOM     10  O   UNL d   1      -1.027   0.424  -8.703  0.00  0.00    -0.179 OA
BRANCH  10  11
ATOM     11  C   UNL d   1      -0.075   0.902  -7.828  0.00  0.00     0.387 C 
ATOM     12  N   UNL d   1      -0.342   0.650  -6.503  0.00  0.00    -0.301 N 
ATOM     13  H   UNL d   1      -1.210   0.142  -6.379  0.00  0.00     0.171 HD
ATOM     14  O   UNL d   1       0.890   1.512  -8.275  0.00  0.00    -0.236 OA
BRANCH  12  15
ATOM     15  C   UNL d   1       0.429   1.024  -5.386  0.00  0.00     0.037 A 
ATOM     16  C   UNL d   1       1.658   1.685  -5.480  0.00  0.00     0.031 A 
ATOM     17  C   UNL d   1       2.383   2.027  -4.332  0.00  0.00     0.026 A 
ATOM     18  C   UNL d   1       1.877   1.711  -3.076  0.00  0.00     0.034 A 
ATOM     19  C   UNL d   1       0.653   1.056  -2.962  0.00  0.00     0.026 A 
ATOM     20 CL   UNL d   1       2.767   2.127  -1.666  0.00  0.00    -0.084 Cl
ATOM     21  C   UNL d   1      -0.067   0.712  -4.114  0.00  0.00     0.031 A 
ENDBRANCH  12  15
ENDBRANCH  10  11
ENDBRANCH   8  10
BRANCH   7  22
ATOM     22  N   UNL d   1      -2.655  -0.430 -10.385  0.00  0.00    -0.286 NA
ATOM     23  H   UNL d   1      -1.958   0.300 -10.503  0.00  0.00     0.125 HD
ATOM     24  H   UNL d   1      -3.487  -0.249 -10.936  0.00  0.00     0.125 HD
ENDBRANCH   7  22
ENDBRANCH   1   7
BRANCH   4  25
ATOM     25  O   UNL d   1      -7.590  -3.727  -8.066  0.00  0.00    -0.294 OA
BRANCH  25  26
ATOM     26  C   UNL d   1      -7.868  -4.335  -6.851  0.00  0.00     0.147 A 
ATOM     27  C   UNL d   1      -9.208  -4.528  -6.549  0.00  0.00     0.057 A 
ATOM     28  C   UNL d   1      -9.530  -5.123  -5.332  0.00  0.00     0.022 A 
ATOM     29  C   UNL d   1      -8.506  -5.519  -4.461  0.00  0.00     0.063 A 
ATOM     30  C   UNL d   1      -7.198  -5.318  -4.876  0.00  0.00     0.106 A 
ATOM     31  N   UNL d   1      -6.858  -4.743  -6.050  0.00  0.00    -0.346 N 
ATOM     32  HN  UNL d   1      -5.882  -4.622  -6.321  1.00  0.00     0.167 HD
BRANCH  29  33
ATOM     33  C   UNL d   1      -8.800  -6.125  -3.125  0.00  0.00     0.418 C 
ATOM     34  F   UNL d   1      -7.684  -6.443  -2.412  0.00  0.00    -0.166 F 
ATOM     35  F   UNL d   1      -9.524  -7.274  -3.219  0.00  0.00    -0.166 F 
ATOM     36  F   UNL d   1      -9.524  -5.291  -2.328  0.00  0.00    -0.166 F 
ENDBRANCH  29  33
ENDBRANCH  25  26
ENDBRANCH   4  25
TORSDOF 8
