REMARK  5 active torsions:
REMARK  status: ('A' for Active; 'I' for Inactive)
REMARK    1  A    between atoms: C_6  and  C_1 
REMARK    2  A    between atoms: N_10  and  C_2 
REMARK    3  A    between atoms: C_5  and  C_13 
REMARK    4  A    between atoms: O_15  and  C_6 
REMARK    5  A    between atoms: N_8  and  N_10 
ROOT
ATOM      1  N   UNL d   1       1.412   2.447  -0.074  0.00  0.00    -0.299 N 
ATOM      2  H   UNL d   1       0.919   3.345  -0.006  0.00  0.00     0.187 HD
ENDROOT
BRANCH   1   3
ATOM      3  N   UNL d   1       2.656   2.447  -0.611  0.00  0.00    -0.310 N 
ATOM      4  C   UNL d   1       3.107   3.585  -1.028  0.00  0.00     0.123 C 
ATOM      5  HN  UNL d   1       3.209   1.593  -0.683  1.00  0.00     0.186 HD
BRANCH   4   6
ATOM      6  C   UNL d   1       4.454   3.685  -1.617  0.00  0.00     0.041 A 
ATOM      7  C   UNL d   1       5.038   2.562  -2.213  0.00  0.00     0.129 A 
ATOM      8  F   UNL d   1       4.370   1.406  -2.341  0.00  0.00    -0.205 F 
ATOM      9  C   UNL d   1       6.332   2.611  -2.726  0.00  0.00     0.043 A 
ATOM     10  C   UNL d   1       7.062   3.794  -2.651  0.00  0.00     0.005 A 
ATOM     11  C   UNL d   1       6.483   4.928  -2.079  0.00  0.00     0.025 A 
ATOM     12  C   UNL d   1       5.180   4.879  -1.567  0.00  0.00     0.048 A 
ATOM     13 CL   UNL d   1       4.554   6.326  -0.858  0.00  0.00    -0.083 Cl
ENDBRANCH   4   6
ENDBRANCH   1   3
BRANCH   1  14
ATOM     14  C   UNL d   1       0.656   1.311  -0.005  0.00  0.00     0.077 A 
ATOM     15  C   UNL d   1      -0.733   1.370   0.037  0.00  0.00     0.108 A 
ATOM     16  S   UNL d   1      -1.423  -0.197   0.051  0.00  0.00    -0.093 SA
ATOM     17  C   UNL d   1       0.104  -0.945   0.019  0.00  0.00     0.059 A 
ATOM     18  C   UNL d   1       1.154  -0.045   0.008  0.00  0.00    -0.026 A 
ATOM     19  C   UNL d   1       2.580  -0.502   0.014  0.00  0.00     0.051 C 
BRANCH  15  20
ATOM     20  C   UNL d   1      -1.549   2.572   0.040  0.00  0.00     0.302 C 
ATOM     21  O   UNL d   1      -1.102   3.715   0.050  0.00  0.00    -0.259 OA
BRANCH  20  22
ATOM     22  O   UNL d   1      -2.882   2.279   0.014  0.00  0.00    -0.322 OA
ATOM     23  C   UNL d   1      -3.738   3.421  -0.003  0.00  0.00     0.213 C 
ENDBRANCH  20  22
ENDBRANCH  15  20
ENDBRANCH   1  14
TORSDOF 5
