REMARK  4 active torsions:
REMARK  status: ('A' for Active; 'I' for Inactive)
REMARK    1  A    between atoms: C_4  and  C_1 
REMARK    2  A    between atoms: C_5  and  C_2 
REMARK       I    between atoms: N_6  and  C_4 
REMARK       I    between atoms: N_7  and  C_5 
REMARK    3  A    between atoms: C_11  and  N_6 
REMARK    4  A    between atoms: C_12  and  N_7 
ROOT
ATOM      1  C   UNL d   1       0.246   1.206  -0.188  0.00  0.00     0.071 A 
ATOM      2  C   UNL d   1       0.219  -1.198   0.211  0.00  0.00     0.071 A 
ATOM      3  C   UNL d   1       0.930  -0.004   0.011  0.00  0.00     0.147 A 
ATOM      4  F   UNL d   1       2.274  -0.019   0.011  0.00  0.00    -0.204 F 
ATOM      5  C   UNL d   1      -1.160   1.194  -0.231  0.00  0.00     0.020 A 
ATOM      6  C   UNL d   1      -1.187  -1.158   0.249  0.00  0.00     0.020 A 
ATOM      7  C   UNL d   1      -1.874   0.026   0.007  0.00  0.00     0.002 A 
ENDROOT
BRANCH   1   8
ATOM      8  C   UNL d   1       0.896   2.550  -0.284  0.00  0.00     0.259 C 
ATOM      9  N   UNL d   1       2.254   2.630  -0.039  0.00  0.00    -0.323 N 
ATOM     10  H   UNL d   1       2.790   1.770  -0.055  0.00  0.00     0.169 HD
ATOM     11  O   UNL d   1       0.177   3.512  -0.543  0.00  0.00    -0.267 OA
BRANCH   9  12
ATOM     12  C   UNL d   1       2.971   3.810   0.273  0.00  0.00     0.035 A 
ATOM     13  C   UNL d   1       2.354   5.032   0.578  0.00  0.00     0.032 A 
ATOM     14  C   UNL d   1       3.115   6.139   0.968  0.00  0.00     0.044 A 
ATOM     15  C   UNL d   1       4.494   6.029   1.045  0.00  0.00     0.116 A 
ATOM     16  C   UNL d   1       5.129   4.833   0.733  0.00  0.00     0.044 A 
ATOM     17  F   UNL d   1       5.222   7.083   1.436  0.00  0.00    -0.206 F 
ATOM     18  C   UNL d   1       4.367   3.723   0.352  0.00  0.00     0.032 A 
ENDBRANCH   9  12
ENDBRANCH   1   8
BRANCH   2  19
ATOM     19  C   UNL d   1       0.839  -2.554   0.314  0.00  0.00     0.259 C 
ATOM     20  N   UNL d   1       2.188  -2.671   0.034  0.00  0.00    -0.323 N 
ATOM     21  H   UNL d   1       2.745  -1.825   0.025  0.00  0.00     0.169 HD
ATOM     22  O   UNL d   1       0.106  -3.496   0.612  0.00  0.00    -0.267 OA
BRANCH  20  23
ATOM     23  C   UNL d   1       2.867  -3.874  -0.279  0.00  0.00     0.035 A 
ATOM     24  C   UNL d   1       2.212  -5.082  -0.554  0.00  0.00     0.032 A 
ATOM     25  C   UNL d   1       2.935  -6.213  -0.945  0.00  0.00     0.044 A 
ATOM     26  C   UNL d   1       4.316  -6.142  -1.052  0.00  0.00     0.116 A 
ATOM     27  C   UNL d   1       4.988  -4.960  -0.769  0.00  0.00     0.044 A 
ATOM     28  F   UNL d   1       5.009  -7.221  -1.439  0.00  0.00    -0.206 F 
ATOM     29  C   UNL d   1       4.265  -3.824  -0.388  0.00  0.00     0.032 A 
ENDBRANCH  20  23
ENDBRANCH   2  19
TORSDOF 4
