REMARK  5 active torsions:
REMARK  status: ('A' for Active; 'I' for Inactive)
REMARK    1  A    between atoms: C_2  and  C_1 
REMARK       I    between atoms: N_7  and  C_2 
REMARK    2  A    between atoms: O_11  and  C_3 
REMARK       I    between atoms: C_5  and  N_8 
REMARK    3  A    between atoms: C_12  and  C_5 
REMARK    4  A    between atoms: N_8  and  N_7 
REMARK    5  A    between atoms: C_10  and  O_11 
ROOT
ATOM      1  C   UNL d   1      -0.110   1.186  -0.063  0.00  0.00     0.147 A 
ATOM      2  C   UNL d   1      -0.164  -1.016   0.049  0.00  0.00     0.191 A 
ATOM      3  O   UNL d   1      -0.946   0.106   0.096  0.00  0.00    -0.282 OA
ATOM      4  C   UNL d   1       1.188   0.740  -0.235  0.00  0.00     0.048 A 
ATOM      5  C   UNL d   1       1.149  -0.669  -0.192  0.00  0.00     0.067 A 
ENDROOT
BRANCH   1   6
ATOM      6  C   UNL d   1      -0.609   2.546  -0.026  0.00  0.00     0.293 C 
ATOM      7  N   UNL d   1      -1.968   2.701   0.169  0.00  0.00    -0.262 N 
ATOM      8  H   UNL d   1      -2.617   1.918   0.241  0.00  0.00     0.190 HD
ATOM      9  O   UNL d   1       0.122   3.531  -0.157  0.00  0.00    -0.264 OA
BRANCH   7  10
ATOM     10  N   UNL d   1      -2.498   4.006   0.189  0.00  0.00    -0.267 N 
ATOM     11  C   UNL d   1      -3.866   4.171   0.181  0.00  0.00     0.243 C 
ATOM     12  O   UNL d   1      -4.626   3.199   0.244  0.00  0.00    -0.271 OA
ATOM     13  H   UNL d   1      -1.834   4.763   0.039  0.00  0.00     0.190 HD
BRANCH  11  14
ATOM     14  C   UNL d   1      -4.368   5.626   0.092  0.00  0.00     0.032 C 
ATOM     15  C   UNL d   1      -3.877   6.284  -1.205  0.00  0.00     0.025 C 
ATOM     16  C   UNL d   1      -5.909   5.630   0.092  0.00  0.00     0.025 C 
ATOM     17  C   UNL d   1      -3.877   6.441   1.299  0.00  0.00     0.025 C 
ENDBRANCH  11  14
ENDBRANCH   7  10
ENDBRANCH   1   6
BRANCH   2  18
ATOM     18  O   UNL d   1      -0.815  -2.164   0.250  0.00  0.00    -0.288 OA
BRANCH  18  19
ATOM     19  C   UNL d   1      -0.118  -3.273   0.687  0.00  0.00     0.081 A 
ATOM     20  C   UNL d   1       0.784  -3.201   1.754  0.00  0.00     0.061 A 
ATOM     21  C   UNL d   1       1.475  -4.342   2.156  0.00  0.00     0.038 A 
ATOM     22 CL   UNL d   1       2.625  -4.230   3.431  0.00  0.00    -0.084 Cl
ATOM     23  C   UNL d   1       1.251  -5.565   1.532  0.00  0.00     0.048 A 
ATOM     24  C   UNL d   1       0.318  -5.638   0.498  0.00  0.00     0.038 A 
ATOM     25  C   UNL d   1      -0.372  -4.500   0.072  0.00  0.00     0.061 A 
ATOM     26 CL   UNL d   1       0.020  -7.154  -0.262  0.00  0.00    -0.084 Cl
ENDBRANCH  18  19
ENDBRANCH   2  18
TORSDOF 5
