REMARK  1 active torsions:
REMARK  status: ('A' for Active; 'I' for Inactive)
REMARK       I    between atoms: N_7  and  C_1 
REMARK       I    between atoms: N_8  and  C_1 
REMARK    1  A    between atoms: N_4  and  N_2 
ROOT
ATOM      1  N   UNL d   1       1.062   2.217   0.824  0.00  0.00    -0.307 N 
ATOM      2  HN  UNL d   1       2.011   2.368   0.481  1.00  0.00     0.186 HD
ATOM      3  C   UNL d   1       0.363   3.124   1.441  0.00  0.00     0.004 C 
ATOM      4  C   UNL d   1       0.994   4.502   1.644  0.00  0.00     0.054 C 
ATOM      5  C   UNL d   1      -1.056   2.914   1.961  0.00  0.00     0.054 C 
ATOM      6  C   UNL d   1      -2.054   2.667   0.825  0.00  0.00     0.006 C 
ATOM      7  C   UNL d   1       0.962   5.338   0.358  0.00  0.00     0.006 C 
ATOM      8  C   UNL d   1       0.245   6.685   0.536  0.00  0.00     0.000 C 
ATOM      9  C   UNL d   1      -3.387   3.402   1.020  0.00  0.00     0.000 C 
ATOM     10  C   UNL d   1      -0.566   7.112  -0.700  0.00  0.00     0.000 C 
ATOM     11  C   UNL d   1      -3.866   4.104  -0.262  0.00  0.00     0.000 C 
ATOM     12  C   UNL d   1      -2.051   7.368  -0.382  0.00  0.00     0.000 C 
ATOM     13  C   UNL d   1      -3.937   5.636  -0.118  0.00  0.00     0.000 C 
ATOM     14  C   UNL d   1      -3.007   6.388  -1.083  0.00  0.00     0.000 C 
ENDROOT
BRANCH   1  15
ATOM     15  N   UNL d   1       0.369   1.013   0.683  0.00  0.00    -0.281 N 
ATOM     16  C   UNL d   1       1.009   0.117   0.001  0.00  0.00     0.141 C 
ATOM     17  N   UNL d   1       0.486  -1.102  -0.258  0.00  0.00    -0.278 NA
ATOM     18  N   UNL d   1       2.240   0.254  -0.537  0.00  0.00    -0.278 NA
ATOM     19  H   UNL d   1      -0.507  -1.113  -0.048  0.00  0.00     0.126 HD
ATOM     20  H   UNL d   1       0.660  -1.384  -1.215  0.00  0.00     0.126 HD
ATOM     21  H   UNL d   1       2.628   1.127  -0.191  0.00  0.00     0.126 HD
ATOM     22  H   UNL d   1       2.840  -0.524  -0.289  0.00  0.00     0.126 HD
ATOM     23  HN  UNL d   1      -0.557   0.853   1.081  1.00  0.00     0.189 HD
ENDBRANCH   1  15
TORSDOF 1
