REMARK  4 active torsions:
REMARK  status: ('A' for Active; 'I' for Inactive)
REMARK    1  A    between atoms: C_8  and  C_1 
REMARK    2  A    between atoms: O_17  and  C_6 
REMARK    3  A    between atoms: C_10  and  O_12 
REMARK    4  A    between atoms: O_12  and  C_11 
ROOT
ATOM      1  C   UNL d   1      -0.674   1.052  -0.344  0.00  0.00     0.120 A 
ATOM      2  N   UNL d   1       0.489   1.079  -1.020  0.00  0.00    -0.321 N 
ATOM      3  HN  UNL d   1       0.908   1.950  -1.343  1.00  0.00     0.169 HD
ATOM      4  N   UNL d   1      -1.264  -0.075   0.098  0.00  0.00    -0.344 N 
ATOM      5  HN  UNL d   1      -2.152  -0.043   0.600  1.00  0.00     0.167 HD
ATOM      6  C   UNL d   1       1.061  -0.110  -1.242  0.00  0.00     0.165 A 
ATOM      7  C   UNL d   1       0.558  -1.329  -0.839  0.00  0.00     0.106 A 
ATOM      8  C   UNL d   1      -0.638  -1.259  -0.146  0.00  0.00     0.033 A 
ATOM      9 CL   UNL d   1       1.376  -2.799  -1.197  0.00  0.00    -0.078 Cl
ATOM     10  C   UNL d   1      -1.343  -2.460   0.411  0.00  0.00     0.070 C 
ENDROOT
BRANCH   1  11
ATOM     11  C   UNL d   1      -1.345   2.344  -0.115  0.00  0.00     0.042 A 
ATOM     12  C   UNL d   1      -2.191   2.645   0.978  0.00  0.00     0.092 A 
ATOM     13  C   UNL d   1      -2.840   3.891   1.039  0.00  0.00     0.038 A 
ATOM     14  C   UNL d   1      -2.648   4.861   0.052  0.00  0.00     0.003 A 
ATOM     15  C   UNL d   1      -1.803   4.592  -1.015  0.00  0.00     0.001 A 
ATOM     16  C   UNL d   1      -1.162   3.358  -1.083  0.00  0.00     0.018 A 
BRANCH  12  17
ATOM     17  O   UNL d   1      -2.606   1.768   1.944  0.00  0.00    -0.254 OA
BRANCH  17  18
ATOM     18  C   UNL d   1      -1.623   1.164   2.778  0.00  0.00     0.530 C 
ATOM     19  F   UNL d   1      -0.352   1.349   2.365  0.00  0.00    -0.144 F 
ATOM     20  F   UNL d   1      -1.731   1.681   4.025  0.00  0.00    -0.144 F 
ATOM     21  F   UNL d   1      -1.875  -0.161   2.868  0.00  0.00    -0.144 F 
ENDBRANCH  17  18
ENDBRANCH  12  17
ENDBRANCH   1  11
BRANCH   6  22
ATOM     22  O   UNL d   1       2.231  -0.003  -1.929  0.00  0.00    -0.345 OA
ATOM     23  H   UNL d   1       2.299   0.966  -2.028  0.00  0.00     0.219 HD
ENDBRANCH   6  22
TORSDOF 4
