REMARK  5 active torsions:
REMARK  status: ('A' for Active; 'I' for Inactive)
REMARK    1  A    between atoms: C_5  and  C_1 
REMARK    2  A    between atoms: N_9  and  C_2 
REMARK    3  A    between atoms: N_8  and  C_3 
REMARK       I    between atoms: C_4  and  N_6 
REMARK       I    between atoms: N_7  and  C_4 
REMARK    4  A    between atoms: N_6  and  C_5 
REMARK    5  A    between atoms: C_11  and  N_7 
ROOT
ATOM      1  C   UNL d   1       2.858  -0.576   0.334  0.00  0.00     0.167 C 
ENDROOT
BRANCH   1   2
ATOM      2  C   UNL d   1       1.416  -0.332  -0.117  0.00  0.00     0.007 A 
ATOM      3  C   UNL d   1       0.505  -1.432  -0.222  0.00  0.00     0.039 A 
ATOM      4  C   UNL d   1      -0.859  -1.149  -0.413  0.00  0.00     0.030 A 
ATOM      5  C   UNL d   1      -1.330   0.157  -0.507  0.00  0.00     0.004 A 
ATOM      6  C   UNL d   1      -0.437   1.219  -0.454  0.00  0.00     0.024 A 
ATOM      7  C   UNL d   1       0.941   1.004  -0.271  0.00  0.00     0.020 A 
BRANCH   3   8
ATOM      8  N   UNL d   1       0.950  -2.760  -0.121  0.00  0.00    -0.389 N 
ATOM      9  C   UNL d   1       0.040  -3.792   0.371  0.00  0.00     0.149 C 
ATOM     10  C   UNL d   1       1.797  -3.201  -1.238  0.00  0.00     0.149 C 
ENDBRANCH   3   8
BRANCH   7  11
ATOM     11  N   UNL d   1       1.856   2.099  -0.274  0.00  0.00    -0.291 NA
ATOM     12  C   UNL d   1       1.397   3.261   0.502  0.00  0.00     0.116 C 
ATOM     13  C   UNL d   1       2.200   2.449  -1.663  0.00  0.00     0.116 C 
ENDBRANCH   7  11
ENDBRANCH   1   2
BRANCH   1  14
ATOM     14  N   UNL d   1       3.860  -0.156  -0.627  0.00  0.00    -0.338 N 
ATOM     15  C   UNL d   1       4.625  -1.020  -1.362  0.00  0.00     0.320 C 
ATOM     16  N   UNL d   1       5.338  -0.378  -2.351  0.00  0.00    -0.309 N 
ATOM     17  O   UNL d   1       4.636  -2.228  -1.164  0.00  0.00    -0.247 OA
ATOM     18  H   UNL d   1       5.518   0.600  -2.193  0.00  0.00     0.170 HD
ATOM     19  H   UNL d   1       3.906   0.835  -0.783  0.00  0.00     0.164 HD
BRANCH  16  20
ATOM     20  C   UNL d   1       5.998  -0.990  -3.439  0.00  0.00     0.036 A 
ATOM     21  C   UNL d   1       5.763  -2.310  -3.835  0.00  0.00     0.029 A 
ATOM     22  C   UNL d   1       6.431  -2.854  -4.938  0.00  0.00     0.002 A 
ATOM     23  C   UNL d   1       7.340  -2.082  -5.655  0.00  0.00     0.000 A 
ATOM     24  C   UNL d   1       7.573  -0.761  -5.277  0.00  0.00     0.002 A 
ATOM     25  C   UNL d   1       6.898  -0.215  -4.180  0.00  0.00     0.029 A 
ENDBRANCH  16  20
ENDBRANCH   1  14
TORSDOF 5
