REMARK  5 active torsions:
REMARK  status: ('A' for Active; 'I' for Inactive)
REMARK    1  A    between atoms: N_5  and  C_1 
REMARK    2  A    between atoms: C_3  and  C_2 
REMARK       I    between atoms: N_6  and  C_3 
REMARK    3  A    between atoms: O_22  and  C_4 
REMARK       I    between atoms: C_8  and  N_6 
REMARK       I    between atoms: N_12  and  C_8 
REMARK    4  A    between atoms: O_24  and  C_9 
REMARK    5  A    between atoms: C_10  and  N_12 
ROOT
ATOM      1  C   UNL d   1       3.540  -2.809  -1.002  0.00  0.00     0.265 C 
ATOM      2  N   UNL d   1       4.830  -2.461  -1.406  0.00  0.00    -0.275 N 
ATOM      3  C   UNL d   1       5.686  -1.464  -0.983  0.00  0.00     0.327 C 
ATOM      4  N   UNL d   1       5.267  -0.735   0.103  0.00  0.00    -0.308 N 
ATOM      5  O   UNL d   1       3.090  -2.467   0.086  0.00  0.00    -0.267 OA
ATOM      6  O   UNL d   1       6.731  -1.299  -1.607  0.00  0.00    -0.247 OA
ATOM      7  H   UNL d   1       5.180  -2.871  -2.264  0.00  0.00     0.173 HD
ATOM      8  H   UNL d   1       4.617  -1.244   0.691  0.00  0.00     0.170 HD
ENDROOT
BRANCH   1   9
ATOM      9  C   UNL d   1       2.714  -3.586  -2.013  0.00  0.00     0.102 C 
ATOM     10  C   UNL d   1       1.309  -3.660  -1.898  0.00  0.00     0.119 C 
ATOM     11  C   UNL d   1       0.556  -4.066  -3.018  0.00  0.00     0.138 C 
ATOM     12  C   UNL d   1       1.158  -4.453  -4.220  0.00  0.00     0.061 C 
ATOM     13  C   UNL d   1       2.540  -4.537  -4.272  0.00  0.00     0.048 C 
ATOM     14  C   UNL d   1       3.309  -4.156  -3.160  0.00  0.00     0.104 C 
ATOM     15 BR   UNL d   1       3.338  -5.181  -5.870  0.00  0.00    -0.048 Br
BRANCH  10  16
ATOM     16  O   UNL d   1       0.750  -3.698  -0.646  0.00  0.00    -0.352 OA
ATOM     17  C   UNL d   1       0.043  -2.524  -0.254  0.00  0.00     0.210 C 
ENDBRANCH  10  16
BRANCH  11  18
ATOM     18  N   UNL d   1      -0.894  -4.105  -2.980  0.00  0.00    -0.113 N 
ATOM     19  O   UNL d   1      -1.484  -3.048  -2.727  0.00  0.00    -0.532 OA
ATOM     20  O   UNL d   1      -1.434  -5.173  -3.297  0.00  0.00    -0.532 OA
ENDBRANCH  11  18
BRANCH  14  21
ATOM     21  O   UNL d   1       4.663  -4.409  -3.166  0.00  0.00    -0.353 OA
ATOM     22  C   UNL d   1       4.905  -5.771  -2.766  0.00  0.00     0.210 C 
ENDBRANCH  14  21
ENDBRANCH   1   9
BRANCH   4  23
ATOM     23  C   UNL d   1       5.973   0.346   0.691  0.00  0.00     0.048 A 
ATOM     24  C   UNL d   1       6.478   1.436  -0.055  0.00  0.00    -0.034 A 
ATOM     25  C   UNL d   1       7.103   2.510   0.619  0.00  0.00     0.015 A 
ATOM     26  C   UNL d   1       6.374   1.584  -1.550  0.00  0.00     0.050 C 
ATOM     27  C   UNL d   1       7.187   2.556   2.010  0.00  0.00    -0.061 A 
ATOM     28  C   UNL d   1       6.697   1.474   2.740  0.00  0.00     0.015 A 
ATOM     29  C   UNL d   1       7.830   3.717   2.707  0.00  0.00     0.048 C 
ATOM     30  C   UNL d   1       6.105   0.365   2.101  0.00  0.00    -0.034 A 
ATOM     31  C   UNL d   1       5.665  -0.770   2.988  0.00  0.00     0.050 C 
ENDBRANCH   4  23
TORSDOF 5
