REMARK  4 active torsions:
REMARK  status: ('A' for Active; 'I' for Inactive)
REMARK    1  A    between atoms: C_8  and  C_1 
REMARK    2  A    between atoms: C_7  and  C_8 
REMARK    3  A    between atoms: S_16  and  C_10 
REMARK    4  A    between atoms: S_17  and  C_10 
ROOT
ATOM      1  C   UNL d   1      -0.233  -0.947   1.043  0.00  0.00     0.079 C 
ATOM      2  S   UNL d   1       1.159  -0.096   1.566  0.00  0.00    -0.065 SA
ATOM      3  C   UNL d   1       0.508   1.371   0.969  0.00  0.00     0.092 C 
ATOM      4  N   UNL d   1      -0.764   1.299   0.633  0.00  0.00    -0.352 N 
ATOM      5  HN  UNL d   1      -1.345   2.097   0.375  1.00  0.00     0.166 HD
ATOM      6  C   UNL d   1      -1.203  -0.022   0.678  0.00  0.00     0.027 C 
ATOM      7  C   UNL d   1       1.295   2.565   0.762  0.00  0.00     0.038 A 
ATOM      8  S   UNL d   1       2.975   2.663   1.125  0.00  0.00    -0.099 SA
ATOM      9  C   UNL d   1       0.855   3.745   0.187  0.00  0.00     0.022 A 
ATOM     10  C   UNL d   1       3.112   4.222   0.448  0.00  0.00     0.050 A 
ATOM     11  C   UNL d   1       1.903   4.693  -0.007  0.00  0.00     0.008 A 
ATOM     12  C   UNL d   1      -2.603  -0.307   0.255  0.00  0.00     0.070 C 
ENDROOT
BRANCH   1  13
ATOM     13  C   UNL d   1      -0.315  -2.407   1.007  0.00  0.00     0.192 C 
ATOM     14  O   UNL d   1      -1.361  -2.970   0.694  0.00  0.00    -0.287 OA
BRANCH  13  15
ATOM     15  C   UNL d   1       0.930  -3.217   1.265  0.00  0.00     0.082 C 
ATOM     16  C   UNL d   1       1.058  -4.548   1.378  0.00  0.00     0.040 C 
BRANCH  16  17
ATOM     17  S   UNL d   1      -0.247  -5.692   1.274  0.00  0.00    -0.127 SA
ATOM     18  C   UNL d   1      -0.117  -6.148  -0.472  0.00  0.00     0.096 C 
ENDBRANCH  16  17
BRANCH  16  19
ATOM     19  S   UNL d   1       2.684  -5.176   1.620  0.00  0.00    -0.127 SA
ATOM     20  C   UNL d   1       2.517  -5.923   3.259  0.00  0.00     0.096 C 
ENDBRANCH  16  19
ENDBRANCH  13  15
ENDBRANCH   1  13
TORSDOF 4
