REMARK  4 active torsions:
REMARK  status: ('A' for Active; 'I' for Inactive)
REMARK    1  A    between atoms: C_16  and  C_1 
REMARK    2  A    between atoms: C_6  and  C_4 
REMARK    3  A    between atoms: O_20  and  C_16 
REMARK    4  A    between atoms: C_21  and  O_20 
ROOT
ATOM      1  C   UNL d   1       1.324   0.785   0.044  0.00  0.00     0.115 A 
ATOM      2  N   UNL d   1       1.430  -0.610   0.057  0.00  0.00    -0.345 N 
ATOM      3  HN  UNL d   1       2.310  -1.125   0.099  1.00  0.00     0.167 HD
ATOM      4  C   UNL d   1       0.237  -1.168   0.005  0.00  0.00     0.085 A 
ATOM      5  S   UNL d   1      -1.079  -0.055   0.029  0.00  0.00    -0.081 SA
ATOM      6  C   UNL d   1       0.022   1.250   0.046  0.00  0.00     0.087 A 
ENDROOT
BRANCH   4   7
ATOM      7  C   UNL d   1       0.008  -2.628  -0.037  0.00  0.00     0.000 A 
ATOM      8  C   UNL d   1      -1.111  -3.170  -0.715  0.00  0.00     0.048 A 
ATOM      9  C   UNL d   1      -1.213  -4.573  -0.686  0.00  0.00     0.086 A 
ATOM     10  N   UNL d   1      -2.152  -5.361  -1.227  0.00  0.00    -0.240 N 
ATOM     11  C   UNL d   1      -0.239  -5.415  -0.018  0.00  0.00     0.085 A 
ATOM     12  O   UNL d   1      -1.784  -6.658  -0.904  0.00  0.00    -0.156 OA
ATOM     13  HN  UNL d   1      -2.968  -5.068  -1.764  1.00  0.00     0.197 HD
ATOM     14  N   UNL d   1      -0.612  -6.693  -0.165  0.00  0.00    -0.240 N 
ATOM     15  HN  UNL d   1      -0.133  -7.520   0.192  1.00  0.00     0.197 HD
ATOM     16  C   UNL d   1       0.883  -4.887   0.643  0.00  0.00     0.035 A 
ATOM     17  C   UNL d   1       0.969  -3.477   0.602  0.00  0.00     0.017 A 
ENDBRANCH   4   7
BRANCH   1  18
ATOM     18  C   UNL d   1       2.486   1.671  -0.044  0.00  0.00     0.310 C 
ATOM     19  O   UNL d   1       2.389   2.891  -0.122  0.00  0.00    -0.258 OA
BRANCH  18  20
ATOM     20  O   UNL d   1       3.659   0.980  -0.126  0.00  0.00    -0.317 OA
BRANCH  20  21
ATOM     21  C   UNL d   1       4.762   1.712  -0.674  0.00  0.00     0.175 C 
ATOM     22  C   UNL d   1       4.720   1.563  -2.186  0.00  0.00     0.034 C 
ENDBRANCH  20  21
ENDBRANCH  18  20
ENDBRANCH   1  18
TORSDOF 4
