REMARK  5 active torsions:
REMARK  status: ('A' for Active; 'I' for Inactive)
REMARK    1  A    between atoms: C_4  and  C_1 
REMARK    2  A    between atoms: C_5  and  C_1 
REMARK    3  A    between atoms: N_6  and  N_2 
REMARK    4  A    between atoms: C_8  and  C_4 
REMARK    5  A    between atoms: C_10  and  N_6 
ROOT
ATOM      1  C   UNL d   1       0.978  -0.099   0.015  0.00  0.00     0.140 C 
ATOM      2  N   UNL d   1       0.246  -0.473  -1.000  0.00  0.00    -0.310 N 
ATOM      3  HN  UNL d   1      -0.769  -0.375  -0.980  1.00  0.00     0.181 HD
ENDROOT
BRANCH   1   4
ATOM      4  C   UNL d   1       2.499  -0.179   0.021  0.00  0.00     0.213 C 
ATOM      5  O   UNL d   1       3.048  -1.104  -0.576  0.00  0.00    -0.285 OA
BRANCH   4   6
ATOM      6  C   UNL d   1       3.303   0.828   0.753  0.00  0.00     0.016 A 
ATOM      7  C   UNL d   1       4.537   0.429   1.286  0.00  0.00     0.015 A 
ATOM      8  C   UNL d   1       5.293   1.320   2.047  0.00  0.00     0.001 A 
ATOM      9  C   UNL d   1       4.828   2.615   2.269  0.00  0.00     0.000 A 
ATOM     10  C   UNL d   1       3.621   3.030   1.706  0.00  0.00     0.001 A 
ATOM     11  C   UNL d   1       2.862   2.144   0.938  0.00  0.00     0.015 A 
ENDBRANCH   4   6
ENDBRANCH   1   4
BRANCH   1  12
ATOM     12  C   UNL d   1       0.215   0.359   1.242  0.00  0.00     0.177 C 
ATOM     13  O   UNL d   1       0.690   0.126   2.347  0.00  0.00    -0.291 OA
ATOM     14  C   UNL d   1      -1.041   1.156   1.038  0.00  0.00     0.098 C 
ENDBRANCH   1  12
BRANCH   2  15
ATOM     15  N   UNL d   1       0.880  -0.998  -2.090  0.00  0.00    -0.205 NA
ATOM     16  H   UNL d   1       1.838  -1.353  -1.946  0.00  0.00     0.153 HD
BRANCH  15  17
ATOM     17  C   UNL d   1       0.125  -1.891  -2.890  0.00  0.00     0.027 A 
ATOM     18  C   UNL d   1      -1.267  -1.788  -3.016  0.00  0.00     0.027 A 
ATOM     19  C   UNL d   1      -1.981  -2.671  -3.834  0.00  0.00     0.026 A 
ATOM     20  C   UNL d   1      -1.301  -3.657  -4.545  0.00  0.00     0.034 A 
ATOM     21  C   UNL d   1       0.085  -3.756  -4.457  0.00  0.00     0.026 A 
ATOM     22 CL   UNL d   1      -2.175  -4.753  -5.542  0.00  0.00    -0.084 Cl
ATOM     23  C   UNL d   1       0.793  -2.866  -3.645  0.00  0.00     0.027 A 
ENDBRANCH  15  17
ENDBRANCH   2  15
TORSDOF 5
