REMARK  4 active torsions:
REMARK  status: ('A' for Active; 'I' for Inactive)
REMARK    1  A    between atoms: S_5  and  C_1 
REMARK    2  A    between atoms: C_7  and  C_2 
REMARK    3  A    between atoms: S_8  and  C_7 
REMARK    4  A    between atoms: C_14  and  S_8 
ROOT
ATOM      1  C   UNL d   1      -1.264   1.759  -0.130  0.00  0.00     0.111 A 
ATOM      2  C   UNL d   1      -1.673  -0.713  -0.206  0.00  0.00     0.070 A 
ATOM      3  S   UNL d   1      -2.622   0.725  -0.160  0.00  0.00    -0.072 SA
ATOM      4  C   UNL d   1      -0.099   1.021  -0.189  0.00  0.00    -0.000 A 
ATOM      5  C   UNL d   1      -0.317  -0.405  -0.277  0.00  0.00    -0.024 A 
ATOM      6  C   UNL d   1       1.227   1.557  -0.144  0.00  0.00     0.010 C 
ATOM      7  C   UNL d   1       2.306   0.782  -0.328  0.00  0.00    -0.025 C 
ATOM      8  C   UNL d   1       0.858  -1.355  -0.303  0.00  0.00     0.045 C 
ATOM      9  C   UNL d   1       2.213  -0.688  -0.616  0.00  0.00     0.032 C 
ENDROOT
BRANCH   2  10
ATOM     10  C   UNL d   1      -2.432  -1.956  -0.110  0.00  0.00     0.231 C 
ATOM     11  O   UNL d   1      -3.476  -2.076   0.524  0.00  0.00    -0.279 OA
BRANCH  10  12
ATOM     12  S   UNL d   1      -1.840  -3.312  -1.059  0.00  0.00    -0.047 SA
BRANCH  12  13
ATOM     13  C   UNL d   1      -1.183  -4.406   0.191  0.00  0.00     0.008 A 
ATOM     14  C   UNL d   1      -1.704  -4.508   1.486  0.00  0.00     0.019 A 
ATOM     15  C   UNL d   1      -1.092  -5.332   2.435  0.00  0.00     0.001 A 
ATOM     16  C   UNL d   1       0.029  -6.082   2.092  0.00  0.00     0.000 A 
ATOM     17  C   UNL d   1       0.525  -6.029   0.792  0.00  0.00     0.001 A 
ATOM     18  C   UNL d   1      -0.081  -5.200  -0.154  0.00  0.00     0.019 A 
ENDBRANCH  12  13
ENDBRANCH  10  12
ENDBRANCH   2  10
BRANCH   1  19
ATOM     19  S   UNL d   1      -1.660   3.495  -0.019  0.00  0.00     0.179 S 
ATOM     20  O   UNL d   1      -0.397   4.193   0.107  0.00  0.00    -0.222 OA
ATOM     21  O   UNL d   1      -2.572   3.770  -1.111  0.00  0.00    -0.222 OA
ATOM     22  C   UNL d   1      -2.526   3.651   1.522  0.00  0.00     0.167 C 
ENDBRANCH   1  19
TORSDOF 4
