REMARK  4 active torsions:
REMARK  status: ('A' for Active; 'I' for Inactive)
REMARK    1  A    between atoms: C_5  and  C_1 
REMARK    2  A    between atoms: C_2  and  C_7 
REMARK       I    between atoms: N_4  and  C_2 
REMARK    3  A    between atoms: C_3  and  N_4 
REMARK    4  A    between atoms: C_15  and  C_6 
ROOT
ATOM      1  C   UNL d   1      -4.174   3.862   0.316  0.00  0.00     0.252 C 
ATOM      2  N   UNL d   1      -3.122   4.442  -0.360  0.00  0.00    -0.352 N 
ATOM      3  O   UNL d   1      -4.676   4.326   1.327  0.00  0.00    -0.268 OA
ATOM      4  H   UNL d   1      -2.704   3.921  -1.116  0.00  0.00     0.163 HD
ENDROOT
BRANCH   1   5
ATOM      5  C   UNL d   1      -4.623   2.538  -0.230  0.00  0.00     0.032 A 
ATOM      6  C   UNL d   1      -5.186   1.608   0.655  0.00  0.00     0.033 A 
ATOM      7  C   UNL d   1      -5.501   0.305   0.225  0.00  0.00     0.048 A 
ATOM      8  C   UNL d   1      -5.254  -0.048  -1.112  0.00  0.00     0.016 A 
ATOM      9  C   UNL d   1      -4.744   0.887  -2.010  0.00  0.00     0.002 A 
ATOM     10  C   UNL d   1      -4.441   2.180  -1.574  0.00  0.00     0.017 A 
BRANCH   7  11
ATOM     11  C   UNL d   1      -6.071  -0.721   1.175  0.00  0.00     0.417 C 
ATOM     12  F   UNL d   1      -6.338  -0.233   2.416  0.00  0.00    -0.166 F 
ATOM     13  F   UNL d   1      -5.226  -1.773   1.360  0.00  0.00    -0.166 F 
ATOM     14  F   UNL d   1      -7.239  -1.256   0.722  0.00  0.00    -0.166 F 
ENDBRANCH   7  11
ENDBRANCH   1   5
BRANCH   2  15
ATOM     15  C   UNL d   1      -2.372   5.625   0.041  0.00  0.00     0.089 C 
ATOM     16  C   UNL d   1      -1.569   5.520   1.367  0.00  0.00     0.012 C 
ATOM     17  C   UNL d   1      -0.564   6.695   1.368  0.00  0.00     0.007 C 
ATOM     18  C   UNL d   1      -1.276   8.047   1.286  0.00  0.00     0.005 C 
ATOM     19  C   UNL d   1      -2.281   8.142   0.127  0.00  0.00    -0.017 C 
ATOM     20  C   UNL d   1      -3.210   6.915   0.066  0.00  0.00     0.029 C 
ATOM     21  C   UNL d   1      -3.077   9.442   0.232  0.00  0.00     0.010 C 
BRANCH  16  22
ATOM     22  C   UNL d   1      -0.904   4.145   1.652  0.00  0.00    -0.017 C 
ATOM     23  C   UNL d   1       0.123   3.708   0.609  0.00  0.00     0.010 C 
ATOM     24  C   UNL d   1      -0.260   4.113   3.047  0.00  0.00     0.010 C 
ENDBRANCH  16  22
ENDBRANCH   2  15
TORSDOF 4
