REMARK  4 active torsions:
REMARK  status: ('A' for Active; 'I' for Inactive)
REMARK    1  A    between atoms: C_8  and  C_1 
REMARK    2  A    between atoms: C_9  and  C_1 
REMARK    3  A    between atoms: C_2  and  C_8 
REMARK    4  A    between atoms: C_3  and  C_9 
ROOT
ATOM      1  C   UNL d   1       0.106  -0.814  -0.169  0.00  0.00     0.145 C 
ATOM      2  N   UNL d   1      -1.822   0.981  -0.277  0.00  0.00    -0.195 NA
ATOM      3  N   UNL d   1       2.369   0.458  -0.624  0.00  0.00    -0.195 NA
ATOM      4  C   UNL d   1      -0.982   0.179  -0.221  0.00  0.00     0.085 C 
ATOM      5  C   UNL d   1       1.384  -0.120  -0.420  0.00  0.00     0.085 C 
ENDROOT
BRANCH   1   6
ATOM      6  C   UNL d   1       0.121  -1.527   1.226  0.00  0.00     0.082 C 
BRANCH   6   7
ATOM      7  C   UNL d   1       0.467  -0.734   2.483  0.00  0.00    -0.012 A 
ATOM      8  C   UNL d   1      -0.530  -0.132   3.280  0.00  0.00     0.042 A 
ATOM      9 CL   UNL d   1      -2.215  -0.262   2.910  0.00  0.00    -0.084 Cl
ATOM     10  C   UNL d   1      -0.208   0.556   4.458  0.00  0.00     0.024 A 
ATOM     11  C   UNL d   1       1.113   0.657   4.877  0.00  0.00     0.003 A 
ATOM     12  C   UNL d   1       2.115   0.062   4.120  0.00  0.00     0.024 A 
ATOM     13  C   UNL d   1       1.799  -0.633   2.946  0.00  0.00     0.042 A 
ATOM     14 CL   UNL d   1       3.118  -1.421   2.148  0.00  0.00    -0.084 Cl
ENDBRANCH   6   7
ENDBRANCH   1   6
BRANCH   1  15
ATOM     15  C   UNL d   1      -0.133  -1.940  -1.238  0.00  0.00     0.082 C 
BRANCH  15  16
ATOM     16  C   UNL d   1      -0.181  -1.537  -2.708  0.00  0.00    -0.012 A 
ATOM     17  C   UNL d   1       0.987  -1.495  -3.500  0.00  0.00     0.042 A 
ATOM     18 CL   UNL d   1       2.513  -2.076  -2.926  0.00  0.00    -0.084 Cl
ATOM     19  C   UNL d   1       0.957  -1.030  -4.821  0.00  0.00     0.024 A 
ATOM     20  C   UNL d   1      -0.243  -0.632  -5.398  0.00  0.00     0.003 A 
ATOM     21  C   UNL d   1      -1.420  -0.734  -4.666  0.00  0.00     0.024 A 
ATOM     22  C   UNL d   1      -1.394  -1.192  -3.342  0.00  0.00     0.042 A 
ATOM     23 CL   UNL d   1      -2.928  -1.369  -2.560  0.00  0.00    -0.084 Cl
ENDBRANCH  15  16
ENDBRANCH   1  15
TORSDOF 4
