REMARK  5 active torsions:
REMARK  status: ('A' for Active; 'I' for Inactive)
REMARK    1  A    between atoms: C_6  and  C_1 
REMARK    2  A    between atoms: S_13  and  C_3 
REMARK       I    between atoms: N_8  and  C_6 
REMARK    3  A    between atoms: C_7  and  N_9 
REMARK    4  A    between atoms: N_14  and  C_7 
REMARK    5  A    between atoms: N_9  and  N_8 
ROOT
ATOM      1  C   UNL d   1      -1.750  -0.852  -0.043  0.00  0.00     0.082 A 
ATOM      2  S   UNL d   1      -2.631   0.622  -0.014  0.00  0.00    -0.076 SA
ATOM      3  C   UNL d   1      -1.218   1.581   0.060  0.00  0.00     0.052 A 
ATOM      4  C   UNL d   1      -0.381  -0.611  -0.015  0.00  0.00    -0.023 A 
ATOM      5  C   UNL d   1      -0.086   0.793   0.052  0.00  0.00    -0.005 A 
ATOM      6  C   UNL d   1       1.267   1.250   0.122  0.00  0.00     0.010 C 
ATOM      7  C   UNL d   1       2.301   0.397   0.053  0.00  0.00    -0.025 C 
ATOM      8  C   UNL d   1       0.706  -1.654   0.005  0.00  0.00     0.045 C 
ATOM      9  C   UNL d   1       2.140  -1.093  -0.096  0.00  0.00     0.032 C 
ENDROOT
BRANCH   1  10
ATOM     10  C   UNL d   1      -2.437  -2.141  -0.088  0.00  0.00     0.277 C 
ATOM     11  N   UNL d   1      -3.820  -2.094  -0.003  0.00  0.00    -0.263 N 
ATOM     12  H   UNL d   1      -4.323  -1.225   0.164  0.00  0.00     0.190 HD
ATOM     13  O   UNL d   1      -1.859  -3.224  -0.187  0.00  0.00    -0.265 OA
BRANCH  11  14
ATOM     14  N   UNL d   1      -4.557  -3.285  -0.014  0.00  0.00    -0.274 N 
ATOM     15  H   UNL d   1      -3.991  -4.131  -0.049  0.00  0.00     0.189 HD
BRANCH  14  16
ATOM     16  C   UNL d   1      -5.856  -3.326   0.475  0.00  0.00     0.186 C 
ATOM     17  S   UNL d   1      -6.687  -1.974   1.011  0.00  0.00    -0.040 SA
BRANCH  16  18
ATOM     18  N   UNL d   1      -6.361  -4.610   0.427  0.00  0.00    -0.370 N 
ATOM     19  C   UNL d   1      -7.699  -5.038   0.794  0.00  0.00     0.148 C 
ATOM     20  H   UNL d   1      -5.822  -5.280  -0.105  0.00  0.00     0.161 HD
ENDBRANCH  16  18
ENDBRANCH  14  16
ENDBRANCH  11  14
ENDBRANCH   1  10
BRANCH   3  21
ATOM     21  S   UNL d   1      -1.348   3.334   0.177  0.00  0.00    -0.126 SA
ATOM     22  C   UNL d   1      -0.759   3.825  -1.459  0.00  0.00     0.096 C 
ENDBRANCH   3  21
TORSDOF 5
