REMARK  9 active torsions:
REMARK  status: ('A' for Active; 'I' for Inactive)
REMARK    1  A    between atoms: S_2  and  C_1 
REMARK    2  A    between atoms: N_14  and  S_2 
REMARK    3  A    between atoms: C_10  and  C_4 
REMARK    4  A    between atoms: C_7  and  C_11 
REMARK    5  A    between atoms: O_22  and  C_10 
REMARK    6  A    between atoms: C_23  and  N_14 
REMARK    7  A    between atoms: C_15  and  N_20 
REMARK    8  A    between atoms: N_20  and  C_27 
REMARK    9  A    between atoms: C_27  and  C_23 
ROOT
ATOM      1  N   UNL d   1       2.004   3.139  -0.222  0.00  0.00    -0.313 N 
ATOM      2  H   UNL d   1       2.427   2.666  -1.016  0.00  0.00     0.172 HD
ENDROOT
BRANCH   1   3
ATOM      3  S   UNL d   1       0.376   2.784  -0.057  0.00  0.00     0.274 S 
ATOM      4  O   UNL d   1      -0.029   3.032   1.305  0.00  0.00    -0.199 OA
ATOM      5  O   UNL d   1       0.146   1.513  -0.705  0.00  0.00    -0.199 OA
BRANCH   3   6
ATOM      6  C   UNL d   1      -0.529   3.973  -1.034  0.00  0.00     0.151 A 
ATOM      7  N   UNL d   1      -0.462   4.120  -2.414  0.00  0.00    -0.336 N 
ATOM      8  C   UNL d   1      -1.315   5.143  -2.830  0.00  0.00     0.111 A 
ATOM      9  C   UNL d   1       0.363   3.354  -3.330  0.00  0.00     0.157 C 
ATOM     10  C   UNL d   1      -1.918   5.640  -1.685  0.00  0.00     0.039 A 
ATOM     11  C   UNL d   1      -1.429   4.926  -0.583  0.00  0.00     0.046 A 
BRANCH   8  12
ATOM     12  C   UNL d   1      -1.529   5.592  -4.197  0.00  0.00     0.309 C 
ATOM     13  O   UNL d   1      -0.972   5.155  -5.195  0.00  0.00    -0.258 OA
BRANCH  12  14
ATOM     14  O   UNL d   1      -2.452   6.595  -4.198  0.00  0.00    -0.321 OA
ATOM     15  C   UNL d   1      -2.769   7.144  -5.476  0.00  0.00     0.213 C 
ENDBRANCH  12  14
ENDBRANCH   8  12
ENDBRANCH   3   6
ENDBRANCH   1   3
BRANCH   1  16
ATOM     16  C   UNL d   1       2.491   4.509   0.043  0.00  0.00     0.147 C 
BRANCH  16  17
ATOM     17  C   UNL d   1       2.097   5.063   1.419  0.00  0.00     0.114 C 
BRANCH  17  18
ATOM     18  N   UNL d   1       2.541   6.455   1.575  0.00  0.00    -0.277 NA
ATOM     19  H   UNL d   1       1.882   6.973   2.152  0.00  0.00     0.129 HD
BRANCH  18  20
ATOM     20  C   UNL d   1       3.812   6.591   2.146  0.00  0.00     0.080 A 
ATOM     21  N   UNL d   1       4.535   5.492   2.417  0.00  0.00    -0.343 N 
ATOM     22  C   UNL d   1       5.743   5.617   3.024  0.00  0.00     0.117 A 
ATOM     23  HN  UNL d   1       4.178   4.569   2.169  1.00  0.00     0.167 HD
ATOM     24  C   UNL d   1       6.279   6.866   3.326  0.00  0.00     0.034 A 
ATOM     25  C   UNL d   1       5.549   8.004   3.001  0.00  0.00     0.005 A 
ATOM     26  C   UNL d   1       4.299   7.865   2.406  0.00  0.00     0.042 A 
BRANCH  22  27
ATOM     27  C   UNL d   1       6.503   4.354   3.387  0.00  0.00     0.432 C 
ATOM     28  F   UNL d   1       5.861   3.198   3.051  0.00  0.00    -0.165 F 
ATOM     29  F   UNL d   1       7.724   4.288   2.780  0.00  0.00    -0.165 F 
ATOM     30  F   UNL d   1       6.754   4.260   4.726  0.00  0.00    -0.165 F 
ENDBRANCH  22  27
ENDBRANCH  18  20
ENDBRANCH  17  18
ENDBRANCH  16  17
ENDBRANCH   1  16
TORSDOF 9
