REMARK  2 active torsions:
REMARK  status: ('A' for Active; 'I' for Inactive)
REMARK    1  A    between atoms: C_4  and  C_1 
REMARK    2  A    between atoms: C_13  and  C_7 
ROOT
ATOM      1  N   UNL d   1      -2.848  -2.467   0.930  0.00  0.00    -0.348 N 
ATOM      2  HN  UNL d   1      -2.179  -2.734   1.652  1.00  0.00     0.166 HD
ATOM      3  C   UNL d   1      -2.625  -1.573  -0.014  0.00  0.00     0.103 A 
ATOM      4  C   UNL d   1      -4.128  -2.994   0.799  0.00  0.00     0.050 A 
ATOM      5  S   UNL d   1      -3.904  -1.371  -1.148  0.00  0.00    -0.080 SA
ATOM      6  C   UNL d   1      -4.825  -2.542  -0.304  0.00  0.00     0.082 A 
ENDROOT
BRANCH   3   7
ATOM      7  C   UNL d   1      -1.345  -0.790  -0.083  0.00  0.00     0.091 A 
ATOM      8  N   UNL d   1      -1.122   0.185  -0.976  0.00  0.00    -0.258 N 
ATOM      9  O   UNL d   1       0.152   0.654  -0.710  0.00  0.00    -0.242 OA
ATOM     10  HN  UNL d   1      -1.759   0.514  -1.701  1.00  0.00     0.195 HD
ATOM     11  C   UNL d   1       0.688  -0.047   0.324  0.00  0.00     0.074 A 
ATOM     12  C   UNL d   1      -0.229  -0.969   0.767  0.00  0.00     0.068 A 
ATOM     13  C   UNL d   1       2.060   0.316   0.717  0.00  0.00     0.079 C 
ENDBRANCH   3   7
BRANCH   4  14
ATOM     14  C   UNL d   1      -4.665  -3.935   1.779  0.00  0.00    -0.009 A 
ATOM     15  C   UNL d   1      -6.043  -4.040   2.016  0.00  0.00     0.014 A 
ATOM     16  C   UNL d   1      -6.536  -4.903   3.000  0.00  0.00     0.007 A 
ATOM     17  C   UNL d   1      -5.660  -5.675   3.770  0.00  0.00    -0.062 A 
ATOM     18  C   UNL d   1      -4.286  -5.587   3.527  0.00  0.00     0.007 A 
ATOM     19  C   UNL d   1      -6.204  -6.569   4.844  0.00  0.00     0.048 C 
ATOM     20  C   UNL d   1      -3.794  -4.720   2.544  0.00  0.00     0.014 A 
ENDBRANCH   4  14
TORSDOF 2
