REMARK  2 active torsions:
REMARK  status: ('A' for Active; 'I' for Inactive)
REMARK    1  A    between atoms: N_11  and  C_3 
REMARK    2  A    between atoms: C_13  and  N_11 
ROOT
ATOM      1  C   UNL d   1       0.564  -0.594   0.065  0.00  0.00     0.049 A 
ATOM      2  C   UNL d   1       1.163   0.654  -0.086  0.00  0.00     0.090 A 
ATOM      3  C   UNL d   1       1.459  -1.691   0.124  0.00  0.00     0.120 A 
ATOM      4  S   UNL d   1       0.048   1.936  -0.169  0.00  0.00    -0.075 SA
ATOM      5  C   UNL d   1      -0.877  -0.444   0.163  0.00  0.00    -0.028 A 
ATOM      6  C   UNL d   1      -1.264   0.881   0.038  0.00  0.00    -0.008 A 
ATOM      7  N   UNL d   1       2.477   0.920  -0.169  0.00  0.00    -0.346 N 
ATOM      8  HN  UNL d   1       2.859   1.858  -0.292  1.00  0.00     0.167 HD
ATOM      9  N   UNL d   1       2.790  -1.433   0.071  0.00  0.00    -0.338 N 
ATOM     10  HN  UNL d   1       3.461  -2.197   0.141  1.00  0.00     0.168 HD
ATOM     11  C   UNL d   1       3.221  -0.175  -0.074  0.00  0.00     0.182 A 
ATOM     12  C   UNL d   1      -1.898  -1.514   0.429  0.00  0.00     0.041 C 
ATOM     13  C   UNL d   1      -2.672   1.393   0.048  0.00  0.00     0.047 C 
ATOM     14  C   UNL d   1      -3.312  -1.067   0.025  0.00  0.00     0.005 C 
ATOM     15  C   UNL d   1      -3.643   0.328   0.572  0.00  0.00     0.005 C 
ENDROOT
BRANCH   3  16
ATOM     16  N   UNL d   1       1.030  -3.034   0.186  0.00  0.00    -0.342 N 
ATOM     17  H   UNL d   1       0.261  -3.208  -0.445  0.00  0.00     0.167 HD
BRANCH  16  18
ATOM     18  C   UNL d   1       1.866  -4.149   0.405  0.00  0.00     0.033 A 
ATOM     19  C   UNL d   1       2.820  -4.143   1.433  0.00  0.00     0.029 A 
ATOM     20  C   UNL d   1       3.693  -5.217   1.617  0.00  0.00     0.002 A 
ATOM     21  C   UNL d   1       3.627  -6.315   0.765  0.00  0.00     0.000 A 
ATOM     22  C   UNL d   1       2.686  -6.341  -0.262  0.00  0.00     0.002 A 
ATOM     23  C   UNL d   1       1.804  -5.266  -0.438  0.00  0.00     0.029 A 
ENDBRANCH  16  18
ENDBRANCH   3  16
TORSDOF 2
