REMARK  6 active torsions:
REMARK  status: ('A' for Active; 'I' for Inactive)
REMARK       I    between atoms: N_3  and  C_1 
REMARK    1  A    between atoms: C_8  and  C_1 
REMARK    2  A    between atoms: C_2  and  C_7 
REMARK    3  A    between atoms: O_9  and  C_2 
REMARK    4  A    between atoms: C_7  and  N_3 
REMARK    5  A    between atoms: S_6  and  C_8 
REMARK    6  A    between atoms: C_10  and  S_6 
ROOT
ATOM      1  C   UNL d   1       1.065  -0.045   0.313  0.00  0.00     0.227 C 
ATOM      2  N   UNL d   1       0.402   1.081   0.731  0.00  0.00    -0.351 N 
ATOM      3  O   UNL d   1       0.450  -1.030  -0.095  0.00  0.00    -0.273 OA
ATOM      4  H   UNL d   1       0.922   1.893   1.062  0.00  0.00     0.163 HD
ENDROOT
BRANCH   1   5
ATOM      5  C   UNL d   1       2.581   0.005   0.266  0.00  0.00     0.177 C 
BRANCH   5   6
ATOM      6  S   UNL d   1       3.370   1.093   1.488  0.00  0.00    -0.156 SA
BRANCH   6   7
ATOM      7  C   UNL d   1       2.881   0.315   3.080  0.00  0.00     0.039 C 
ATOM      8  C   UNL d   1       3.252  -1.161   3.185  0.00  0.00     0.021 C 
ATOM      9  C   UNL d   1       3.579   1.101   4.192  0.00  0.00     0.021 C 
ENDBRANCH   6   7
ENDBRANCH   5   6
ENDBRANCH   1   5
BRANCH   2  10
ATOM     10  C   UNL d   1      -1.048   1.132   0.686  0.00  0.00     0.232 C 
BRANCH  10  11
ATOM     11  C   UNL d   1      -1.627   2.388   1.314  0.00  0.00     0.158 C 
ATOM     12  O   UNL d   1      -0.958   3.286   1.807  0.00  0.00    -0.649 OA
BRANCH  11  13
ATOM     13  O   UNL d   1      -2.981   2.427   1.274  0.00  0.00    -0.775 OA
ATOM     14  H   UNL d   1      -3.392   1.644   0.851  0.00  0.00     0.167 HD
ENDBRANCH  11  13
ENDBRANCH  10  11
ENDBRANCH   2  10
TORSDOF 6
