REMARK  1 active torsions:
REMARK  status: ('A' for Active; 'I' for Inactive)
REMARK    1  A    between atoms: O_9  and  N_6 
ROOT
ATOM      1  C   UNL d   1      -1.868   0.880   0.001  0.00  0.00     0.134 A 
ATOM      2  C   UNL d   1      -2.476  -0.540   0.002  0.00  0.00     0.275 A 
ATOM      3  N   UNL d   1      -1.391  -1.395   0.004  0.00  0.00    -0.321 N 
ATOM      4  C   UNL d   1      -0.418   0.687   0.001  0.00  0.00     0.025 A 
ATOM      5  C   UNL d   1      -0.196  -0.687   0.004  0.00  0.00     0.047 A 
ATOM      6  N   UNL d   1      -2.458   2.033  -0.001  0.00  0.00    -0.263 N 
ATOM      7  HN  UNL d   1      -1.973   2.931  -0.002  1.00  0.00     0.194 HD
ATOM      8  O   UNL d   1      -3.646  -0.856   0.002  0.00  0.00    -0.266 OA
ATOM      9  C   UNL d   1       0.617   1.601   0.001  0.00  0.00     0.016 A 
ATOM     10  C   UNL d   1       1.080  -1.210   0.005  0.00  0.00     0.030 A 
ATOM     11  C   UNL d   1       1.918   1.088   0.002  0.00  0.00     0.001 A 
ATOM     12  C   UNL d   1       2.147  -0.303   0.005  0.00  0.00     0.002 A 
ATOM     13  H   UNL d   1      -1.491  -2.398   0.005  0.00  0.00     0.169 HD
ENDROOT
BRANCH   6  14
ATOM     14  O   UNL d   1      -3.846   1.884  -0.001  0.00  0.00    -0.289 OA
ATOM     15  H   UNL d   1      -4.168   2.804  -0.000  0.00  0.00     0.244 HD
ENDBRANCH   6  14
TORSDOF 1
