REMARK  4 active torsions:
REMARK  status: ('A' for Active; 'I' for Inactive)
REMARK    1  A    between atoms: C_3  and  C_1 
REMARK    2  A    between atoms: S_4  and  C_2 
REMARK    3  A    between atoms: O_10  and  C_3 
REMARK    4  A    between atoms: C_9  and  S_4 
ROOT
ATOM      1  C   UNL d   1       1.453   0.774  -0.176  0.00  0.00     0.063 A 
ATOM      2  C   UNL d   1       1.498  -0.654   0.028  0.00  0.00     0.029 A 
ATOM      3  S   UNL d   1      -0.975  -0.015   0.307  0.00  0.00    -0.111 SA
ATOM      4  C   UNL d   1       0.149   1.226  -0.020  0.00  0.00     0.068 A 
ATOM      5  C   UNL d   1       0.253  -1.197   0.267  0.00  0.00     0.069 A 
ENDROOT
BRANCH   2   6
ATOM      6  S   UNL d   1       2.925  -1.685  -0.091  0.00  0.00    -0.089 SA
BRANCH   6   7
ATOM      7  C   UNL d   1       3.442  -1.847   1.610  0.00  0.00     0.005 A 
ATOM      8  C   UNL d   1       3.472  -3.118   2.197  0.00  0.00     0.020 A 
ATOM      9  C   UNL d   1       3.970  -3.291   3.493  0.00  0.00     0.025 A 
ATOM     10  C   UNL d   1       4.442  -2.191   4.205  0.00  0.00     0.034 A 
ATOM     11  C   UNL d   1       4.408  -0.919   3.637  0.00  0.00     0.025 A 
ATOM     12 CL   UNL d   1       5.093  -2.407   5.782  0.00  0.00    -0.084 Cl
ATOM     13  C   UNL d   1       3.910  -0.748   2.341  0.00  0.00     0.020 A 
ENDBRANCH   6   7
ENDBRANCH   2   6
BRANCH   1  14
ATOM     14  C   UNL d   1       2.518   1.727  -0.506  0.00  0.00     0.294 C 
ATOM     15  O   UNL d   1       2.309   2.929  -0.625  0.00  0.00    -0.259 OA
BRANCH  14  16
ATOM     16  O   UNL d   1       3.739   1.152  -0.669  0.00  0.00    -0.322 OA
ATOM     17  C   UNL d   1       4.821   2.016  -1.026  0.00  0.00     0.213 C 
ENDBRANCH  14  16
ENDBRANCH   1  14
TORSDOF 4
