REMARK  2 active torsions:
REMARK  status: ('A' for Active; 'I' for Inactive)
REMARK    1  A    between atoms: C_2  and  S_1 
REMARK    2  A    between atoms: C_3  and  S_1 
ROOT
ATOM      1  S   UNL d   1       0.917   0.035   0.043  0.00  0.00     0.206 S 
ATOM      2  O   UNL d   1       0.274  -1.263  -0.078  0.00  0.00    -0.217 OA
ATOM      3  O   UNL d   1       2.367   0.118   0.093  0.00  0.00    -0.217 OA
ENDROOT
BRANCH   1   4
ATOM      4  C   UNL d   1       0.295   0.795   1.525  0.00  0.00     0.064 A 
ATOM      5  C   UNL d   1      -0.909   0.352   2.078  0.00  0.00     0.024 A 
ATOM      6  C   UNL d   1      -1.358   0.900   3.281  0.00  0.00     0.008 A 
ATOM      7  C   UNL d   1      -0.608   1.886   3.939  0.00  0.00    -0.062 A 
ATOM      8  C   UNL d   1       0.608   2.306   3.384  0.00  0.00     0.008 A 
ATOM      9  C   UNL d   1      -1.102   2.457   5.237  0.00  0.00     0.048 C 
ATOM     10  C   UNL d   1       1.065   1.759   2.182  0.00  0.00     0.024 A 
ENDBRANCH   1   4
BRANCH   1  11
ATOM     11  C   UNL d   1       0.384   1.019  -1.340  0.00  0.00     0.064 A 
ATOM     12  C   UNL d   1       1.187   2.072  -1.785  0.00  0.00     0.024 A 
ATOM     13  C   UNL d   1       0.821   2.782  -2.931  0.00  0.00     0.008 A 
ATOM     14  C   UNL d   1      -0.335   2.437  -3.645  0.00  0.00    -0.062 A 
ATOM     15  C   UNL d   1      -1.131   1.377  -3.188  0.00  0.00     0.008 A 
ATOM     16  C   UNL d   1      -0.693   3.188  -4.895  0.00  0.00     0.048 C 
ATOM     17  C   UNL d   1      -0.772   0.664  -2.041  0.00  0.00     0.024 A 
ENDBRANCH   1  11
TORSDOF 2
