REMARK  7 active torsions:
REMARK  status: ('A' for Active; 'I' for Inactive)
REMARK    1  A    between atoms: C_8  and  C_1 
REMARK    2  A    between atoms: C_3  and  C_2 
REMARK    3  A    between atoms: C_6  and  C_12 
REMARK    4  A    between atoms: N_15  and  C_7 
REMARK    5  A    between atoms: O_26  and  C_8 
REMARK    6  A    between atoms: N_13  and  N_15 
REMARK    7  A    between atoms: C_27  and  C_25 
ROOT
ATOM      1  C   UNL d   1      -2.561  -1.383  -0.139  0.00  0.00     0.086 A 
ATOM      2  C   UNL d   1      -3.579  -0.545  -0.546  0.00  0.00     0.136 A 
ATOM      3  N   UNL d   1      -3.420   0.816  -0.525  0.00  0.00    -0.327 N 
ATOM      4  HN  UNL d   1      -4.168   1.427  -0.851  1.00  0.00     0.168 HD
ATOM      5  C   UNL d   1      -2.269   1.337  -0.073  0.00  0.00     0.176 A 
ATOM      6  N   UNL d   1      -1.254   0.579   0.364  0.00  0.00    -0.340 N 
ATOM      7  HN  UNL d   1      -0.393   0.997   0.715  1.00  0.00     0.167 HD
ATOM      8  C   UNL d   1      -1.418  -0.760   0.321  0.00  0.00     0.110 A 
ENDROOT
BRANCH   5   9
ATOM      9  N   UNL d   1      -2.236   2.737   0.026  0.00  0.00    -0.175 NA
ATOM     10  H   UNL d   1      -2.988   3.097  -0.557  0.00  0.00     0.156 HD
BRANCH   9  11
ATOM     11  N   UNL d   1      -1.043   3.385  -0.022  0.00  0.00    -0.325 N 
ATOM     12  C   UNL d   1      -0.966   4.523   0.607  0.00  0.00     0.113 C 
ATOM     13  HN  UNL d   1      -0.245   2.998  -0.526  1.00  0.00     0.180 HD
BRANCH  12  14
ATOM     14  C   UNL d   1      -1.957   5.178   1.495  0.00  0.00    -0.020 A 
ATOM     15  C   UNL d   1      -2.811   4.446   2.325  0.00  0.00     0.013 A 
ATOM     16  C   UNL d   1      -3.704   5.105   3.174  0.00  0.00     0.017 A 
ATOM     17  C   UNL d   1      -3.739   6.505   3.224  0.00  0.00     0.048 A 
ATOM     18  C   UNL d   1      -2.860   7.234   2.406  0.00  0.00     0.017 A 
ATOM     19  C   UNL d   1      -1.971   6.575   1.549  0.00  0.00     0.013 A 
BRANCH  17  20
ATOM     20  C   UNL d   1      -4.684   7.225   4.157  0.00  0.00     0.417 C 
ATOM     21  F   UNL d   1      -5.505   6.391   4.854  0.00  0.00    -0.166 F 
ATOM     22  F   UNL d   1      -4.026   7.967   5.090  0.00  0.00    -0.166 F 
ATOM     23  F   UNL d   1      -5.504   8.091   3.500  0.00  0.00    -0.166 F 
ENDBRANCH  17  20
ENDBRANCH  12  14
ENDBRANCH   9  11
ENDBRANCH   5   9
BRANCH   2  24
ATOM     24  C   UNL d   1      -4.944  -1.037  -0.977  0.00  0.00     0.433 C 
ATOM     25  F   UNL d   1      -5.217  -2.344  -0.716  0.00  0.00    -0.165 F 
ATOM     26  F   UNL d   1      -5.952  -0.352  -0.353  0.00  0.00    -0.165 F 
ATOM     27  F   UNL d   1      -5.164  -0.866  -2.312  0.00  0.00    -0.165 F 
ENDBRANCH   2  24
BRANCH   1  28
ATOM     28  C   UNL d   1      -2.596  -2.846  -0.080  0.00  0.00     0.296 C 
ATOM     29  O   UNL d   1      -2.199  -3.477   0.883  0.00  0.00    -0.259 OA
BRANCH  28  30
ATOM     30  O   UNL d   1      -3.034  -3.342  -1.255  0.00  0.00    -0.322 OA
ATOM     31  C   UNL d   1      -3.151  -4.772  -1.276  0.00  0.00     0.213 C 
ENDBRANCH  28  30
ENDBRANCH   1  28
TORSDOF 7
