REMARK  9 active torsions:
REMARK  status: ('A' for Active; 'I' for Inactive)
REMARK       I    between atoms: N_3  and  C_1 
REMARK    1  A    between atoms: C_6  and  C_1 
REMARK    2  A    between atoms: C_5  and  C_2 
REMARK    3  A    between atoms: C_4  and  N_3 
REMARK    4  A    between atoms: C_16  and  N_3 
REMARK       I    between atoms: N_7  and  C_5 
REMARK    5  A    between atoms: C_13  and  N_7 
REMARK    6  A    between atoms: C_8  and  C_13 
REMARK    7  A    between atoms: O_19  and  C_8 
REMARK    8  A    between atoms: C_14  and  C_16 
REMARK    9  A    between atoms: C_25  and  O_19 
ROOT
ATOM      1  C   UNL d   1      -2.004  -0.602   0.680  0.00  0.00     0.059 A 
ATOM      2  C   UNL d   1      -1.215   0.436   1.227  0.00  0.00     0.053 A 
ATOM      3  C   UNL d   1      -3.405  -0.411   0.550  0.00  0.00     0.019 A 
ATOM      4  C   UNL d   1      -1.891   1.639   1.559  0.00  0.00     0.031 A 
ATOM      5  C   UNL d   1      -4.033   0.774   0.917  0.00  0.00     0.001 A 
ATOM      6  C   UNL d   1      -3.269   1.811   1.417  0.00  0.00     0.002 A 
ENDROOT
BRANCH   2   7
ATOM      7  N   UNL d   1       0.204   0.413   1.496  0.00  0.00    -0.309 N 
ATOM      8  C   UNL d   1       1.006  -0.630   2.003  0.00  0.00     0.258 C 
ATOM      9  O   UNL d   1       2.239  -0.563   1.918  0.00  0.00    -0.267 OA
BRANCH   8  10
ATOM     10  C   UNL d   1       0.487  -1.855   2.678  0.00  0.00     0.034 A 
ATOM     11  C   UNL d   1      -0.770  -1.974   3.269  0.00  0.00     0.041 A 
ATOM     12  C   UNL d   1      -1.204  -3.225   3.720  0.00  0.00     0.035 A 
ATOM     13 CL   UNL d   1      -2.809  -3.401   4.316  0.00  0.00    -0.084 Cl
ATOM     14  C   UNL d   1      -0.366  -4.340   3.670  0.00  0.00     0.024 A 
ATOM     15  C   UNL d   1       0.929  -4.206   3.186  0.00  0.00     0.003 A 
ATOM     16  C   UNL d   1       1.351  -2.971   2.696  0.00  0.00     0.017 A 
ENDBRANCH   8  10
BRANCH   7  17
ATOM     17  C   UNL d   1       0.956   1.625   1.101  0.00  0.00     0.159 C 
BRANCH  17  18
ATOM     18  C   UNL d   1       1.299   2.539   2.255  0.00  0.00    -0.017 C 
ATOM     19  C   UNL d   1       0.992   2.404   3.554  0.00  0.00     0.008 C 
ENDBRANCH  17  18
ENDBRANCH   7  17
ENDBRANCH   2   7
BRANCH   1  20
ATOM     20  C   UNL d   1      -1.568  -1.946   0.208  0.00  0.00     0.254 C 
ATOM     21  N   UNL d   1      -0.307  -2.117  -0.308  0.00  0.00    -0.347 N 
ATOM     22  H   UNL d   1       0.340  -1.347  -0.429  0.00  0.00     0.163 HD
ATOM     23  O   UNL d   1      -2.355  -2.889   0.285  0.00  0.00    -0.268 OA
BRANCH  21  24
ATOM     24  C   UNL d   1       0.145  -3.481  -0.559  0.00  0.00     0.233 C 
BRANCH  24  25
ATOM     25  C   UNL d   1       1.641  -3.662  -0.735  0.00  0.00     0.276 C 
ATOM     26  O   UNL d   1       2.217  -4.732  -0.572  0.00  0.00    -0.263 OA
BRANCH  25  27
ATOM     27  O   UNL d   1       2.217  -2.527  -1.220  0.00  0.00    -0.321 OA
BRANCH  27  28
ATOM     28  C   UNL d   1       3.598  -2.651  -1.592  0.00  0.00     0.174 C 
ATOM     29  C   UNL d   1       3.747  -3.469  -2.865  0.00  0.00     0.034 C 
ENDBRANCH  27  28
ENDBRANCH  25  27
ENDBRANCH  24  25
ENDBRANCH  21  24
ENDBRANCH   1  20
TORSDOF 9
