REMARK  6 active torsions:
REMARK  status: ('A' for Active; 'I' for Inactive)
REMARK    1  A    between atoms: N_9  and  C_1 
REMARK    2  A    between atoms: C_15  and  N_4 
REMARK    3  A    between atoms: C_17  and  C_7 
REMARK    4  A    between atoms: C_18  and  C_8 
REMARK    5  A    between atoms: C_24  and  C_17 
REMARK    6  A    between atoms: C_23  and  C_18 
ROOT
ATOM      1  C   UNL d   1       0.646  -5.141   3.060  0.00  0.00     0.185 C 
ATOM      2  C   UNL d   1       1.168  -3.741   2.894  0.00  0.00    -0.002 C 
ATOM      3  C   UNL d   1       0.138  -5.829   1.845  0.00  0.00    -0.002 C 
ATOM      4  N   UNL d   1      -0.478  -2.806  -0.232  0.00  0.00    -0.350 N 
ATOM      5  HN  UNL d   1      -0.287  -1.804  -0.213  1.00  0.00     0.166 HD
ATOM      6  C   UNL d   1      -0.012  -3.603   0.695  0.00  0.00     0.034 C 
ATOM      7  C   UNL d   1       0.812  -3.036   1.803  0.00  0.00     0.041 C 
ATOM      8  C   UNL d   1      -0.143  -5.087   0.766  0.00  0.00     0.041 C 
ATOM      9  O   UNL d   1       0.676  -5.689   4.151  0.00  0.00    -0.287 OA
ENDROOT
BRANCH   4  10
ATOM     10  C   UNL d   1      -1.236  -3.371  -1.234  0.00  0.00     0.127 C 
ATOM     11  C   UNL d   1      -2.424  -4.271  -1.038  0.00  0.00     0.295 C 
ATOM     12  N   UNL d   1      -2.701  -4.823  -2.279  0.00  0.00    -0.217 N 
ATOM     13  O   UNL d   1      -2.953  -4.500   0.044  0.00  0.00    -0.264 OA
ATOM     14  N   UNL d   1      -1.889  -4.215  -3.262  0.00  0.00    -0.289 N 
ATOM     15  C   UNL d   1      -1.138  -3.243  -2.576  0.00  0.00     0.057 C 
ATOM     16  C   UNL d   1      -2.506  -4.043  -4.577  0.00  0.00     0.178 C 
ATOM     17  C   UNL d   1      -0.341  -2.175  -3.254  0.00  0.00     0.072 C 
BRANCH  12  18
ATOM     18  C   UNL d   1      -3.553  -5.907  -2.520  0.00  0.00     0.060 A 
ATOM     19  C   UNL d   1      -4.834  -5.877  -1.955  0.00  0.00     0.031 A 
ATOM     20  C   UNL d   1      -5.725  -6.927  -2.164  0.00  0.00     0.002 A 
ATOM     21  C   UNL d   1      -5.319  -8.041  -2.895  0.00  0.00     0.000 A 
ATOM     22  C   UNL d   1      -4.031  -8.096  -3.431  0.00  0.00     0.002 A 
ATOM     23  C   UNL d   1      -3.154  -7.019  -3.263  0.00  0.00     0.031 A 
ENDBRANCH  12  18
ENDBRANCH   4  10
BRANCH   2  24
ATOM     24  C   UNL d   1       2.024  -3.234   4.058  0.00  0.00     0.018 C 
ATOM     25  C   UNL d   1       2.409  -1.749   3.982  0.00  0.00     0.015 C 
BRANCH  24  26
ATOM     26  C   UNL d   1       3.294  -4.093   4.303  0.00  0.00     0.004 C 
ATOM     27  C   UNL d   1       4.294  -4.121   3.154  0.00  0.00     0.006 C 
ENDBRANCH  24  26
ENDBRANCH   2  24
BRANCH   3  28
ATOM     28  C   UNL d   1      -0.078  -7.338   1.798  0.00  0.00     0.018 C 
ATOM     29  C   UNL d   1      -0.548  -8.001   3.101  0.00  0.00     0.015 C 
BRANCH  28  30
ATOM     30  C   UNL d   1       1.157  -8.089   1.256  0.00  0.00     0.004 C 
ATOM     31  C   UNL d   1       1.579  -7.670  -0.149  0.00  0.00     0.006 C 
ENDBRANCH  28  30
ENDBRANCH   3  28
TORSDOF 6
