REMARK  4 active torsions:
REMARK  status: ('A' for Active; 'I' for Inactive)
REMARK    1  A    between atoms: N_4  and  C_1 
REMARK    2  A    between atoms: S_3  and  C_2 
REMARK    3  A    between atoms: C_9  and  S_3 
REMARK    4  A    between atoms: C_5  and  C_7 
ROOT
ATOM      1  C   UNL d   1       1.407  -0.280   0.137  0.00  0.00     0.125 A 
ATOM      2  C   UNL d   1       0.551  -1.366  -0.033  0.00  0.00     0.096 A 
ATOM      3  C   UNL d   1       0.902   1.028   0.253  0.00  0.00     0.053 A 
ATOM      4  C   UNL d   1      -0.482   1.254   0.208  0.00  0.00     0.050 A 
ATOM      5  C   UNL d   1      -0.835  -1.143  -0.053  0.00  0.00     0.027 A 
ATOM      6  C   UNL d   1      -1.343   0.155   0.059  0.00  0.00     0.018 A 
ENDROOT
BRANCH   2   7
ATOM      7  S   UNL d   1       1.118  -3.049  -0.143  0.00  0.00     0.198 S 
ATOM      8  O   UNL d   1       2.422  -3.116   0.479  0.00  0.00    -0.218 OA
ATOM      9  O   UNL d   1       0.038  -3.872   0.375  0.00  0.00    -0.218 OA
BRANCH   7  10
ATOM     10  C   UNL d   1       1.256  -3.271  -1.862  0.00  0.00     0.104 C 
ATOM     11  C   UNL d   1       0.207  -3.699  -2.576  0.00  0.00     0.024 C 
ENDBRANCH   7  10
ENDBRANCH   2   7
BRANCH   1  12
ATOM     12  N   UNL d   1       2.851  -0.421   0.127  0.00  0.00    -0.114 N 
ATOM     13  O   UNL d   1       3.354  -0.826  -0.929  0.00  0.00    -0.532 OA
ATOM     14  O   UNL d   1       3.460  -0.024   1.128  0.00  0.00    -0.532 OA
ENDBRANCH   1  12
BRANCH   4  15
ATOM     15  C   UNL d   1      -1.057   2.649   0.317  0.00  0.00     0.417 C 
ATOM     16  F   UNL d   1      -0.107   3.616   0.423  0.00  0.00    -0.166 F 
ATOM     17  F   UNL d   1      -1.810   2.979  -0.767  0.00  0.00    -0.166 F 
ATOM     18  F   UNL d   1      -1.868   2.791   1.399  0.00  0.00    -0.166 F 
ENDBRANCH   4  15
TORSDOF 4
