REMARK  6 active torsions:
REMARK  status: ('A' for Active; 'I' for Inactive)
REMARK    1  A    between atoms: C_4  and  S_1 
REMARK    2  A    between atoms: O_8  and  S_1 
REMARK    3  A    between atoms: S_3  and  C_2 
REMARK    4  A    between atoms: C_13  and  S_3 
REMARK    5  A    between atoms: C_14  and  O_8 
REMARK    6  A    between atoms: O_20  and  C_15 
ROOT
ATOM      1  C   UNL d   1      -0.509   2.818  -2.488  0.00  0.00     0.072 A 
ATOM      2  C   UNL d   1       0.458   1.369  -0.927  0.00  0.00     0.128 A 
ATOM      3  C   UNL d   1      -0.344   1.466  -2.052  0.00  0.00     0.057 A 
ATOM      4  S   UNL d   1       0.976   2.913  -0.396  0.00  0.00    -0.086 SA
ATOM      5  C   UNL d   1       0.168   3.705  -1.679  0.00  0.00     0.075 A 
ENDROOT
BRANCH   2   6
ATOM      6  S   UNL d   1       1.025  -0.039   0.016  0.00  0.00     0.309 S 
ATOM      7  O   UNL d   1       2.292   0.337   0.614  0.00  0.00    -0.192 OA
ATOM      8  O   UNL d   1       0.907  -1.151  -0.904  0.00  0.00    -0.192 OA
BRANCH   6   9
ATOM      9  O   UNL d   1      -0.135  -0.136   1.159  0.00  0.00    -0.229 OA
BRANCH   9  10
ATOM     10  C   UNL d   1      -0.128  -1.122   2.116  0.00  0.00     0.089 A 
ATOM     11  C   UNL d   1       0.846  -2.114   2.243  0.00  0.00     0.041 A 
ATOM     12  C   UNL d   1       0.750  -3.080   3.253  0.00  0.00     0.039 A 
ATOM     13  C   UNL d   1      -0.322  -3.067   4.144  0.00  0.00     0.068 A 
ATOM     14  C   UNL d   1      -1.288  -2.067   4.025  0.00  0.00     0.039 A 
ATOM     15  C   UNL d   1      -1.194  -1.100   3.018  0.00  0.00     0.041 A 
BRANCH  13  16
ATOM     16  O   UNL d   1      -0.534  -3.965   5.154  0.00  0.00    -0.356 OA
ATOM     17  C   UNL d   1       0.420  -5.013   5.290  0.00  0.00     0.210 C 
ENDBRANCH  13  16
ENDBRANCH   9  10
ENDBRANCH   6   9
ENDBRANCH   2   6
BRANCH   1  18
ATOM     18  S   UNL d   1      -1.466   3.299  -3.856  0.00  0.00     0.207 S 
ATOM     19  O   UNL d   1      -2.511   2.298  -3.927  0.00  0.00    -0.217 OA
ATOM     20  O   UNL d   1      -1.752   4.702  -3.634  0.00  0.00    -0.217 OA
BRANCH  18  21
ATOM     21  C   UNL d   1      -0.411   3.136  -5.267  0.00  0.00     0.064 A 
ATOM     22  C   UNL d   1      -0.393   1.935  -5.983  0.00  0.00     0.024 A 
ATOM     23  C   UNL d   1       0.406   1.824  -7.121  0.00  0.00     0.002 A 
ATOM     24  C   UNL d   1       1.170   2.911  -7.548  0.00  0.00     0.000 A 
ATOM     25  C   UNL d   1       1.131   4.116  -6.846  0.00  0.00     0.002 A 
ATOM     26  C   UNL d   1       0.336   4.235  -5.704  0.00  0.00     0.024 A 
ENDBRANCH  18  21
ENDBRANCH   1  18
TORSDOF 6
