REMARK  6 active torsions:
REMARK  status: ('A' for Active; 'I' for Inactive)
REMARK    1  A    between atoms: C_3  and  S_1 
REMARK    2  A    between atoms: C_4  and  S_1 
REMARK    3  A    between atoms: C_2  and  C_5 
REMARK    4  A    between atoms: C_8  and  C_3 
REMARK    5  A    between atoms: O_18  and  C_8 
REMARK    6  A    between atoms: C_19  and  O_18 
ROOT
ATOM      1  C   UNL d   1       0.302   0.930  -1.434  0.00  0.00     0.128 A 
ATOM      2  C   UNL d   1      -0.760   2.616  -3.291  0.00  0.00     0.063 A 
ATOM      3  N   UNL d   1       0.664   2.239  -1.367  0.00  0.00    -0.356 N 
ATOM      4  HN  UNL d   1       1.297   2.590  -0.648  1.00  0.00     0.166 HD
ATOM      5  C   UNL d   1       0.132   3.046  -2.313  0.00  0.00     0.105 A 
ATOM      6  C   UNL d   1      -1.108   1.258  -3.311  0.00  0.00     0.020 A 
ATOM      7  C   UNL d   1      -0.562   0.389  -2.373  0.00  0.00     0.043 A 
ENDROOT
BRANCH   1   8
ATOM      8  S   UNL d   1       0.925  -0.061  -0.094  0.00  0.00     0.200 S 
ATOM      9  O   UNL d   1       0.276  -1.363  -0.146  0.00  0.00    -0.221 OA
ATOM     10  O   UNL d   1       2.377   0.008  -0.139  0.00  0.00    -0.221 OA
BRANCH   8  11
ATOM     11  C   UNL d   1       0.390   0.746   1.373  0.00  0.00     0.258 C 
BRANCH  11  12
ATOM     12  C   UNL d   1      -1.093   0.905   1.386  0.00  0.00     0.273 C 
ATOM     13  O   UNL d   1      -1.827   0.982   0.415  0.00  0.00    -0.264 OA
BRANCH  12  14
ATOM     14  O   UNL d   1      -1.510   1.079   2.676  0.00  0.00    -0.321 OA
BRANCH  14  15
ATOM     15  C   UNL d   1      -2.870   1.513   2.836  0.00  0.00     0.174 C 
ATOM     16  C   UNL d   1      -2.882   3.029   2.879  0.00  0.00     0.034 C 
ENDBRANCH  14  15
ENDBRANCH  12  14
ENDBRANCH  11  12
ENDBRANCH   8  11
ENDBRANCH   1   8
BRANCH   2  17
ATOM     17  C   UNL d   1      -1.349   3.584  -4.273  0.00  0.00     0.418 C 
ATOM     18  F   UNL d   1      -0.856   4.847  -4.154  0.00  0.00    -0.166 F 
ATOM     19  F   UNL d   1      -1.127   3.216  -5.564  0.00  0.00    -0.166 F 
ATOM     20  F   UNL d   1      -2.699   3.697  -4.143  0.00  0.00    -0.166 F 
ENDBRANCH   2  17
TORSDOF 6
