REMARK  4 active torsions:
REMARK  status: ('A' for Active; 'I' for Inactive)
REMARK    1  A    between atoms: C_2  and  S_1 
REMARK    2  A    between atoms: N_6  and  S_1 
REMARK    3  A    between atoms: S_3  and  C_4 
REMARK    4  A    between atoms: C_13  and  S_3 
ROOT
ATOM      1  C   UNL d   1       0.528   0.702   1.693  0.00  0.00     0.116 A 
ATOM      2  C   UNL d   1       0.049   2.463   3.359  0.00  0.00     0.106 A 
ATOM      3  S   UNL d   1       1.059   2.301   1.985  0.00  0.00    -0.065 SA
ATOM      4  C   UNL d   1      -0.324   0.262   2.688  0.00  0.00     0.034 A 
ATOM      5  C   UNL d   1      -0.602   1.277   3.648  0.00  0.00     0.033 A 
ENDROOT
BRANCH   1   6
ATOM      6  S   UNL d   1       1.119  -0.085   0.206  0.00  0.00     0.250 S 
ATOM      7  O   UNL d   1       0.289  -1.264   0.076  0.00  0.00    -0.205 OA
ATOM      8  O   UNL d   1       2.551  -0.197   0.372  0.00  0.00    -0.205 OA
BRANCH   6   9
ATOM      9  N   UNL d   1       0.806   0.924  -1.124  0.00  0.00    -0.202 NA
ATOM     10  C   UNL d   1      -0.607   1.365  -1.336  0.00  0.00     0.134 C 
ATOM     11  C   UNL d   1      -1.429   0.317  -2.091  0.00  0.00     0.183 C 
ATOM     12  O   UNL d   1      -0.817  -0.006  -3.346  0.00  0.00    -0.389 OA
ATOM     13  C   UNL d   1       0.498  -0.541  -3.141  0.00  0.00     0.183 C 
ATOM     14  C   UNL d   1       1.403   0.467  -2.421  0.00  0.00     0.134 C 
ENDBRANCH   6   9
ENDBRANCH   1   6
BRANCH   2  15
ATOM     15  S   UNL d   1      -0.015   4.063   4.147  0.00  0.00     0.213 S 
ATOM     16  O   UNL d   1       0.245   5.050   3.118  0.00  0.00    -0.217 OA
ATOM     17  O   UNL d   1      -1.268   4.051   4.878  0.00  0.00    -0.217 OA
BRANCH  15  18
ATOM     18  C   UNL d   1       1.310   4.091   5.320  0.00  0.00     0.064 A 
ATOM     19  C   UNL d   1       2.573   4.541   4.924  0.00  0.00     0.024 A 
ATOM     20  C   UNL d   1       3.608   4.583   5.857  0.00  0.00     0.002 A 
ATOM     21  C   UNL d   1       3.378   4.191   7.177  0.00  0.00     0.000 A 
ATOM     22  C   UNL d   1       2.108   3.768   7.574  0.00  0.00     0.002 A 
ATOM     23  C   UNL d   1       1.067   3.722   6.647  0.00  0.00     0.024 A 
ENDBRANCH  15  18
ENDBRANCH   2  15
TORSDOF 4
