REMARK  5 active torsions:
REMARK  status: ('A' for Active; 'I' for Inactive)
REMARK    1  A    between atoms: S_2  and  C_1 
REMARK    2  A    between atoms: N_8  and  S_2 
REMARK    3  A    between atoms: C_9  and  N_8 
REMARK    4  A    between atoms: O_13  and  C_10 
REMARK    5  A    between atoms: C_12  and  O_13 
ROOT
ATOM      1  C   UNL d   1       3.670  -0.354   2.751  0.00  0.00     0.074 A 
ATOM      2  C   UNL d   1       4.673  -0.342   3.729  0.00  0.00     0.170 A 
ATOM      3  N   UNL d   1       4.481   0.231   4.951  0.00  0.00    -0.345 N 
ATOM      4  HN  UNL d   1       5.250   0.316   5.615  1.00  0.00     0.167 HD
ATOM      5  C   UNL d   1       2.409   0.142   3.106  0.00  0.00     0.030 A 
ATOM      6  C   UNL d   1       3.251   0.680   5.261  0.00  0.00     0.090 A 
ATOM      7  C   UNL d   1       2.186   0.642   4.385  0.00  0.00     0.019 A 
ENDROOT
BRANCH   1   8
ATOM      8  N   UNL d   1       3.820  -0.926   1.440  0.00  0.00    -0.176 NA
ATOM      9  H   UNL d   1       3.283  -0.448   0.715  0.00  0.00     0.146 HD
BRANCH   8  10
ATOM     10  S   UNL d   1       3.463  -2.586   1.317  0.00  0.00     0.263 S 
ATOM     11  O   UNL d   1       4.177  -3.312   2.347  0.00  0.00    -0.204 OA
ATOM     12  O   UNL d   1       3.550  -2.940  -0.083  0.00  0.00    -0.204 OA
BRANCH  10  13
ATOM     13  C   UNL d   1       1.769  -2.834   1.709  0.00  0.00     0.161 A 
ATOM     14  N   UNL d   1       0.733  -2.069   1.188  0.00  0.00    -0.335 N 
ATOM     15  C   UNL d   1      -0.378  -2.588   1.684  0.00  0.00     0.079 A 
ATOM     16  HN  UNL d   1       0.812  -1.272   0.555  1.00  0.00     0.168 HD
ATOM     17  C   UNL d   1      -1.768  -2.162   1.368  0.00  0.00     0.089 C 
ATOM     18  N   UNL d   1      -0.087  -3.622   2.545  0.00  0.00    -0.348 N 
ATOM     19  C   UNL d   1       1.268  -3.780   2.580  0.00  0.00     0.135 A 
ATOM     20  C   UNL d   1      -1.041  -4.427   3.271  0.00  0.00     0.156 C 
ENDBRANCH  10  13
ENDBRANCH   8  10
ENDBRANCH   1   8
BRANCH   2  21
ATOM     21  O   UNL d   1       5.925  -0.906   3.452  0.00  0.00    -0.291 OA
BRANCH  21  22
ATOM     22  C   UNL d   1       6.712  -1.242   4.540  0.00  0.00     0.084 C 
ATOM     23  C   UNL d   1       8.078  -0.979   4.526  0.00  0.00    -0.017 C 
ATOM     24  C   UNL d   1       8.856  -1.183   5.678  0.00  0.00    -0.043 C 
ATOM     25  C   UNL d   1       8.905  -0.432   3.408  0.00  0.00     0.042 C 
ATOM     26  C   UNL d   1      10.282  -0.782   5.462  0.00  0.00     0.040 C 
ATOM     27  C   UNL d   1       8.296  -1.655   6.864  0.00  0.00    -0.055 C 
ATOM     28  C   UNL d   1      10.340  -0.466   3.964  0.00  0.00     0.009 C 
ATOM     29  C   UNL d   1       6.951  -2.029   6.840  0.00  0.00     0.010 C 
ATOM     30  C   UNL d   1       9.092  -1.756   8.130  0.00  0.00     0.049 C 
ATOM     31  C   UNL d   1       6.180  -1.857   5.682  0.00  0.00     0.038 C 
ENDBRANCH  21  22
ENDBRANCH   2  21
TORSDOF 5
