REMARK  3 active torsions:
REMARK  status: ('A' for Active; 'I' for Inactive)
REMARK    1  A    between atoms: C_6  and  C_1 
REMARK    2  A    between atoms: O_8  and  C_11 
REMARK    3  A    between atoms: C_14  and  O_8 
ROOT
ATOM      1  C   UNL d   1       2.174  -1.512   0.030  0.00  0.00    -0.008 A 
ATOM      2  C   UNL d   1       3.053  -1.395   1.117  0.00  0.00     0.016 A 
ATOM      3  C   UNL d   1       2.455  -2.472  -0.954  0.00  0.00     0.016 A 
ATOM      4  C   UNL d   1       4.492  -3.104   0.192  0.00  0.00     0.076 A 
ATOM      5  C   UNL d   1       3.605  -3.263  -0.872  0.00  0.00     0.038 A 
ATOM      6  C   UNL d   1       4.194  -2.197   1.209  0.00  0.00     0.038 A 
ENDROOT
BRANCH   1   7
ATOM      7  C   UNL d   1       0.994  -0.653  -0.057  0.00  0.00     0.059 A 
ATOM      8  N   UNL d   1       0.403  -0.280  -1.241  0.00  0.00    -0.300 N 
ATOM      9  N   UNL d   1      -0.664   0.525  -1.096  0.00  0.00    -0.311 N 
ATOM     10  H   UNL d   1       0.688  -0.527  -2.181  0.00  0.00     0.187 HD
ATOM     11  C   UNL d   1      -0.755   0.688   0.224  0.00  0.00     0.109 A 
ATOM     12  HN  UNL d   1      -1.262   0.917  -1.823  1.00  0.00     0.186 HD
ATOM     13  C   UNL d   1       0.249  -0.013   0.916  0.00  0.00     0.050 A 
ENDBRANCH   1   7
BRANCH   4  14
ATOM     14  O   UNL d   1       5.592  -3.929   0.198  0.00  0.00    -0.311 OA
BRANCH  14  15
ATOM     15  C   UNL d   1       6.797  -3.437   0.647  0.00  0.00     0.076 A 
ATOM     16  C   UNL d   1       7.627  -4.350   1.302  0.00  0.00     0.037 A 
ATOM     17  C   UNL d   1       8.874  -3.945   1.780  0.00  0.00     0.003 A 
ATOM     18  C   UNL d   1       9.296  -2.629   1.598  0.00  0.00     0.000 A 
ATOM     19  C   UNL d   1       8.483  -1.723   0.916  0.00  0.00     0.003 A 
ATOM     20  C   UNL d   1       7.242  -2.131   0.424  0.00  0.00     0.037 A 
ENDBRANCH  14  15
ENDBRANCH   4  14
TORSDOF 3
