REMARK  11 active torsions:
REMARK  status: ('A' for Active; 'I' for Inactive)
REMARK    1  A    between atoms: O_10  and  C_1 
REMARK    2  A    between atoms: O_11  and  C_2 
REMARK    3  A    between atoms: N_16  and  C_9 
REMARK    4  A    between atoms: C_23  and  O_10 
REMARK    5  A    between atoms: C_22  and  O_11 
REMARK    6  A    between atoms: C_12  and  C_15 
REMARK    7  A    between atoms: C_13  and  C_14 
REMARK    8  A    between atoms: C_35  and  N_16 
REMARK    9  A    between atoms: C_17  and  S_24 
REMARK   10  A    between atoms: S_24  and  C_39 
REMARK   11  A    between atoms: C_39  and  C_35 
ROOT
ATOM      1  C   UNL d   1       0.786  -0.928  -0.008  0.00  0.00     0.234 A 
ATOM      2  C   UNL d   1      -1.268  -0.099  -0.097  0.00  0.00     0.234 A 
ATOM      3  N   UNL d   1      -0.509  -1.188  -0.073  0.00  0.00    -0.287 N 
ATOM      4  HN  UNL d   1      -0.889  -2.135  -0.102  1.00  0.00     0.173 HD
ATOM      5  N   UNL d   1       1.331   0.284   0.046  0.00  0.00    -0.298 N 
ATOM      6  HN  UNL d   1       2.335   0.424   0.159  1.00  0.00     0.172 HD
ATOM      7  N   UNL d   1      -0.830   1.157  -0.114  0.00  0.00    -0.298 N 
ATOM      8  HN  UNL d   1      -1.462   1.956  -0.166  1.00  0.00     0.172 HD
ATOM      9  C   UNL d   1       0.486   1.294  -0.057  0.00  0.00     0.163 A 
ENDROOT
BRANCH   1  10
ATOM     10  O   UNL d   1       1.604  -2.049   0.061  0.00  0.00    -0.279 OA
BRANCH  10  11
ATOM     11  C   UNL d   1       2.882  -1.948  -0.435  0.00  0.00     0.079 A 
ATOM     12  C   UNL d   1       3.868  -2.680   0.221  0.00  0.00     0.038 A 
ATOM     13  C   UNL d   1       5.191  -2.642  -0.238  0.00  0.00     0.011 A 
ATOM     14  C   UNL d   1       5.557  -1.877  -1.363  0.00  0.00    -0.050 A 
ATOM     15  C   UNL d   1       4.537  -1.175  -2.025  0.00  0.00     0.011 A 
ATOM     16  C   UNL d   1       3.213  -1.227  -1.579  0.00  0.00     0.038 A 
BRANCH  14  17
ATOM     17  C   UNL d   1       7.020  -1.839  -1.837  0.00  0.00    -0.024 C 
ATOM     18  C   UNL d   1       7.252  -0.924  -3.062  0.00  0.00     0.019 C 
ATOM     19  C   UNL d   1       7.926  -1.315  -0.702  0.00  0.00     0.019 C 
ATOM     20  C   UNL d   1       7.466  -3.261  -2.235  0.00  0.00     0.019 C 
ENDBRANCH  14  17
ENDBRANCH  10  11
ENDBRANCH   1  10
BRANCH   2  21
ATOM     21  O   UNL d   1      -2.650  -0.235  -0.165  0.00  0.00    -0.279 OA
BRANCH  21  22
ATOM     22  C   UNL d   1      -3.220  -1.318   0.460  0.00  0.00     0.079 A 
ATOM     23  C   UNL d   1      -2.785  -1.823   1.683  0.00  0.00     0.038 A 
ATOM     24  C   UNL d   1      -3.429  -2.920   2.258  0.00  0.00     0.011 A 
ATOM     25  C   UNL d   1      -4.551  -3.518   1.654  0.00  0.00    -0.050 A 
ATOM     26  C   UNL d   1      -5.001  -2.966   0.443  0.00  0.00     0.011 A 
ATOM     27  C   UNL d   1      -4.345  -1.875  -0.145  0.00  0.00     0.038 A 
BRANCH  25  28
ATOM     28  C   UNL d   1      -5.217  -4.733   2.321  0.00  0.00    -0.024 C 
ATOM     29  C   UNL d   1      -6.503  -5.210   1.613  0.00  0.00     0.019 C 
ATOM     30  C   UNL d   1      -4.224  -5.915   2.324  0.00  0.00     0.019 C 
ATOM     31  C   UNL d   1      -5.604  -4.390   3.777  0.00  0.00     0.019 C 
ENDBRANCH  25  28
ENDBRANCH  21  22
ENDBRANCH   2  21
BRANCH   9  32
ATOM     32  N   UNL d   1       1.068   2.543  -0.164  0.00  0.00    -0.263 NA
ATOM     33  H   UNL d   1       2.037   2.469   0.139  0.00  0.00     0.130 HD
BRANCH  32  34
ATOM     34  C   UNL d   1       0.355   3.680   0.399  0.00  0.00     0.105 C 
BRANCH  34  35
ATOM     35  C   UNL d   1       0.615   3.844   1.904  0.00  0.00     0.089 C 
BRANCH  35  36
ATOM     36  S   UNL d   1       2.397   4.155   2.223  0.00  0.00    -0.159 SA
BRANCH  36  37
ATOM     37  C   UNL d   1       2.425   4.456   4.048  0.00  0.00    -0.003 C 
ATOM     38  C   UNL d   1       2.004   3.194   4.808  0.00  0.00     0.026 C 
ATOM     39  C   UNL d   1       3.881   4.798   4.406  0.00  0.00     0.026 C 
ATOM     40  C   UNL d   1       1.529   5.640   4.428  0.00  0.00     0.026 C 
ENDBRANCH  36  37
ENDBRANCH  35  36
ENDBRANCH  34  35
ENDBRANCH  32  34
ENDBRANCH   9  32
TORSDOF 11
