REMARK  4 active torsions:
REMARK  status: ('A' for Active; 'I' for Inactive)
REMARK    1  A    between atoms: N_6  and  S_1 
REMARK    2  A    between atoms: C_12  and  S_1 
REMARK    3  A    between atoms: C_4  and  N_8 
REMARK    4  A    between atoms: N_8  and  N_6 
ROOT
ATOM      1  N   UNL d   1       0.887  -2.468   0.848  0.00  0.00    -0.275 N 
ATOM      2  H   UNL d   1       1.702  -2.623   0.256  0.00  0.00     0.189 HD
ENDROOT
BRANCH   1   3
ATOM      3  C   UNL d   1       0.431  -3.536   1.621  0.00  0.00     0.141 A 
ATOM      4  C   UNL d   1       0.992  -4.818   1.531  0.00  0.00     0.077 A 
ATOM      5  S   UNL d   1       2.273  -5.385   0.532  0.00  0.00    -0.095 SA
ATOM      6  C   UNL d   1       0.491  -5.844   2.327  0.00  0.00     0.060 A 
ATOM      7  C   UNL d   1       2.144  -6.972   1.143  0.00  0.00     0.059 A 
ATOM      8  C   UNL d   1       1.157  -7.098   2.101  0.00  0.00    -0.027 A 
ATOM      9  C   UNL d   1       0.832  -8.378   2.797  0.00  0.00     0.051 C 
ATOM     10  N   UNL d   1      -0.522  -5.646   3.206  0.00  0.00    -0.351 N 
ATOM     11  C   UNL d   1      -0.995  -4.397   3.228  0.00  0.00     0.182 A 
ATOM     12  HN  UNL d   1      -0.891  -6.388   3.800  1.00  0.00     0.166 HD
ATOM     13  N   UNL d   1      -0.589  -3.351   2.494  0.00  0.00    -0.336 N 
ATOM     14  HN  UNL d   1      -1.036  -2.439   2.589  1.00  0.00     0.168 HD
ENDBRANCH   1   3
BRANCH   1  15
ATOM     15  N   UNL d   1       0.281  -1.139   0.828  0.00  0.00    -0.221 N 
ATOM     16  H   UNL d   1      -0.551  -0.952   1.389  0.00  0.00     0.200 HD
BRANCH  15  17
ATOM     17  S   UNL d   1       0.947   0.058  -0.162  0.00  0.00     0.276 S 
ATOM     18  O   UNL d   1       0.606  -0.279  -1.528  0.00  0.00    -0.199 OA
ATOM     19  O   UNL d   1       2.328   0.242   0.234  0.00  0.00    -0.199 OA
BRANCH  17  20
ATOM     20  C   UNL d   1       0.059   1.524   0.293  0.00  0.00     0.081 A 
ATOM     21  C   UNL d   1       0.181   2.024   1.592  0.00  0.00     0.026 A 
ATOM     22  C   UNL d   1      -0.443   3.228   1.928  0.00  0.00     0.008 A 
ATOM     23  C   UNL d   1      -1.178   3.942   0.970  0.00  0.00    -0.062 A 
ATOM     24  C   UNL d   1      -1.293   3.427  -0.328  0.00  0.00     0.008 A 
ATOM     25  C   UNL d   1      -1.805   5.258   1.334  0.00  0.00     0.048 C 
ATOM     26  C   UNL d   1      -0.678   2.220  -0.669  0.00  0.00     0.026 A 
ENDBRANCH  17  20
ENDBRANCH  15  17
ENDBRANCH   1  15
TORSDOF 4
