REMARK  4 active torsions:
REMARK  status: ('A' for Active; 'I' for Inactive)
REMARK    1  A    between atoms: C_2  and  S_1 
REMARK    2  A    between atoms: C_5  and  S_1 
REMARK    3  A    between atoms: N_9  and  C_3 
REMARK    4  A    between atoms: C_10  and  N_9 
ROOT
ATOM      1  C   UNL d   1       0.521   0.754   1.532  0.00  0.00     0.155 C 
ATOM      2  C   UNL d   1      -0.220   1.877   1.498  0.00  0.00     0.124 C 
ATOM      3  C   UNL d   1       1.000   0.111   0.362  0.00  0.00     0.113 C 
ATOM      4  N   UNL d   1       1.395  -0.352  -0.626  0.00  0.00    -0.191 NA
ENDROOT
BRANCH   1   5
ATOM      5  S   UNL d   1       0.883   0.032   3.075  0.00  0.00     0.194 S 
ATOM      6  O   UNL d   1       1.119  -1.387   2.881  0.00  0.00    -0.221 OA
ATOM      7  O   UNL d   1      -0.131   0.443   4.035  0.00  0.00    -0.221 OA
BRANCH   5   8
ATOM      8  C   UNL d   1       2.459   0.782   3.617  0.00  0.00     0.058 C 
ATOM      9  C   UNL d   1       2.317   2.300   3.801  0.00  0.00     0.031 C 
ATOM     10  C   UNL d   1       2.837   0.165   4.979  0.00  0.00     0.031 C 
ATOM     11  C   UNL d   1       3.577   0.480   2.613  0.00  0.00     0.031 C 
ENDBRANCH   5   8
ENDBRANCH   1   5
BRANCH   2  12
ATOM     12  N   UNL d   1      -0.664   2.571   0.397  0.00  0.00    -0.350 N 
ATOM     13  H   UNL d   1      -0.777   2.060  -0.477  0.00  0.00     0.166 HD
BRANCH  12  14
ATOM     14  C   UNL d   1      -1.406   3.753   0.343  0.00  0.00     0.104 A 
ATOM     15  N   UNL d   1      -2.152   3.912  -0.769  0.00  0.00    -0.352 N 
ATOM     16  C   UNL d   1      -2.898   5.035  -0.877  0.00  0.00     0.089 A 
ATOM     17  HN  UNL d   1      -2.153   3.207  -1.507  1.00  0.00     0.166 HD
ATOM     18  C   UNL d   1      -2.921   6.038   0.073  0.00  0.00     0.017 A 
ATOM     19  C   UNL d   1      -2.128   5.880   1.200  0.00  0.00     0.005 A 
ATOM     20  C   UNL d   1      -1.364   4.723   1.341  0.00  0.00     0.048 A 
ENDBRANCH  12  14
ENDBRANCH   2  12
TORSDOF 4
