REMARK  8 active torsions:
REMARK  status: ('A' for Active; 'I' for Inactive)
REMARK    1  A    between atoms: C_3  and  C_17 
REMARK    2  A    between atoms: C_18  and  C_4 
REMARK       I    between atoms: C_5  and  N_7 
REMARK    3  A    between atoms: C_20  and  C_5 
REMARK    4  A    between atoms: C_6  and  C_19 
REMARK       I    between atoms: N_8  and  C_6 
REMARK    5  A    between atoms: N_7  and  C_18 
REMARK    6  A    between atoms: C_17  and  N_8 
REMARK    7  A    between atoms: C_19  and  C_21 
REMARK    8  A    between atoms: C_21  and  C_20 
ROOT
ATOM      1  C   UNL d   1       2.096   7.155  -0.057  0.00  0.00     0.018 C 
ENDROOT
BRANCH   1   2
ATOM      2  C   UNL d   1       3.322   8.078  -0.040  0.00  0.00     0.103 C 
BRANCH   2   3
ATOM      3  C   UNL d   1       2.870   9.531  -0.055  0.00  0.00     0.217 C 
ATOM      4  N   UNL d   1       3.876  10.471  -0.002  0.00  0.00    -0.356 N 
ATOM      5  H   UNL d   1       4.846  10.204  -0.104  0.00  0.00     0.162 HD
ATOM      6  O   UNL d   1       1.684   9.856  -0.114  0.00  0.00    -0.274 OA
BRANCH   4   7
ATOM      7  C   UNL d   1       3.506  11.868  -0.075  0.00  0.00     0.168 C 
BRANCH   7   8
ATOM      8  C   UNL d   1       4.699  12.761   0.024  0.00  0.00     0.000 A 
ATOM      9  S   UNL d   1       5.461  13.345  -1.398  0.00  0.00    -0.105 SA
ATOM     10  C   UNL d   1       6.520  14.343  -0.500  0.00  0.00     0.050 A 
ATOM     11  C   UNL d   1       6.326  14.212   0.857  0.00  0.00     0.008 A 
ATOM     12  C   UNL d   1       5.280  13.292   1.160  0.00  0.00     0.017 A 
ENDBRANCH   7   8
ENDBRANCH   4   7
ENDBRANCH   2   3
ENDBRANCH   1   2
BRANCH   1  13
ATOM     13  C   UNL d   1       2.422   5.666  -0.040  0.00  0.00     0.103 C 
BRANCH  13  14
ATOM     14  C   UNL d   1       1.130   4.866  -0.059  0.00  0.00     0.217 C 
ATOM     15  N   UNL d   1       0.598   4.680  -1.313  0.00  0.00    -0.356 N 
ATOM     16  H   UNL d   1       1.076   5.046  -2.126  0.00  0.00     0.162 HD
ATOM     17  O   UNL d   1       0.589   4.469   0.968  0.00  0.00    -0.274 OA
BRANCH  15  18
ATOM     18  C   UNL d   1      -0.689   4.048  -1.493  0.00  0.00     0.168 C 
BRANCH  18  19
ATOM     19  C   UNL d   1      -0.950   3.889  -2.958  0.00  0.00     0.000 A 
ATOM     20  S   UNL d   1      -0.462   2.460  -3.772  0.00  0.00    -0.105 SA
ATOM     21  C   UNL d   1      -1.071   3.024  -5.267  0.00  0.00     0.050 A 
ATOM     22  C   UNL d   1      -1.635   4.275  -5.156  0.00  0.00     0.008 A 
ATOM     23  C   UNL d   1      -1.567   4.774  -3.822  0.00  0.00     0.017 A 
ENDBRANCH  18  19
ENDBRANCH  15  18
ENDBRANCH  13  14
ENDBRANCH   1  13
TORSDOF 8
