REMARK  5 active torsions:
REMARK  status: ('A' for Active; 'I' for Inactive)
REMARK    1  A    between atoms: C_8  and  C_1 
REMARK    2  A    between atoms: C_9  and  C_2 
REMARK    3  A    between atoms: N_7  and  C_3 
REMARK       I    between atoms: C_10  and  N_7 
REMARK    4  A    between atoms: C_12  and  C_10 
REMARK    5  A    between atoms: C_11  and  C_13 
ROOT
ATOM      1  C   UNL d   1       1.574   0.762   0.194  0.00  0.00     0.147 A 
ATOM      2  C   UNL d   1       1.512  -0.665   0.059  0.00  0.00     0.053 A 
ATOM      3  C   UNL d   1       0.171  -0.984   0.244  0.00  0.00     0.138 A 
ATOM      4  N   UNL d   1       0.351   1.266   0.444  0.00  0.00    -0.292 N 
ATOM      5  HN  UNL d   1       0.102   2.247   0.571  1.00  0.00     0.187 HD
ATOM      6  N   UNL d   1      -0.475   0.205   0.490  0.00  0.00    -0.280 N 
ATOM      7  C   UNL d   1      -1.891   0.491   0.502  0.00  0.00     0.179 C 
ENDROOT
BRANCH   3   8
ATOM      8  N   UNL d   1      -0.345  -2.270   0.083  0.00  0.00    -0.307 N 
ATOM      9  C   UNL d   1      -1.263  -2.867   1.010  0.00  0.00     0.258 C 
ATOM     10  O   UNL d   1      -1.643  -2.232   1.984  0.00  0.00    -0.267 OA
ATOM     11  H   UNL d   1       0.095  -2.834  -0.634  0.00  0.00     0.170 HD
BRANCH   9  12
ATOM     12  C   UNL d   1      -1.702  -4.253   0.739  0.00  0.00     0.047 A 
ATOM     13  C   UNL d   1      -2.867  -4.701   1.350  0.00  0.00     0.104 A 
ATOM     14  N   UNL d   1      -3.433  -5.905   1.097  0.00  0.00    -0.374 N 
ATOM     15  C   UNL d   1      -2.802  -6.715   0.220  0.00  0.00     0.087 A 
ATOM     16  HN  UNL d   1      -4.301  -6.189   1.551  1.00  0.00     0.164 HD
ATOM     17  C   UNL d   1      -1.605  -6.383  -0.391  0.00  0.00     0.018 A 
ATOM     18  C   UNL d   1      -1.039  -5.135  -0.121  0.00  0.00     0.020 A 
ENDBRANCH   9  12
ENDBRANCH   3   8
BRANCH   2  19
ATOM     19  C   UNL d   1       2.563  -1.652  -0.189  0.00  0.00    -0.019 A 
ATOM     20  C   UNL d   1       2.592  -2.872   0.512  0.00  0.00     0.028 A 
ATOM     21  C   UNL d   1       3.565  -3.851   0.239  0.00  0.00     0.048 A 
ATOM     22  C   UNL d   1       4.572  -3.561  -0.688  0.00  0.00     0.016 A 
ATOM     23  C   UNL d   1       4.576  -2.341  -1.362  0.00  0.00     0.002 A 
ATOM     24  C   UNL d   1       3.561  -1.409  -1.138  0.00  0.00     0.012 A 
BRANCH  21  25
ATOM     25  C   UNL d   1       3.518  -5.210   0.897  0.00  0.00     0.417 C 
ATOM     26  F   UNL d   1       2.452  -5.354   1.735  0.00  0.00    -0.166 F 
ATOM     27  F   UNL d   1       3.389  -6.208  -0.022  0.00  0.00    -0.166 F 
ATOM     28  F   UNL d   1       4.625  -5.497   1.626  0.00  0.00    -0.166 F 
ENDBRANCH  21  25
ENDBRANCH   2  19
BRANCH   1  29
ATOM     29  C   UNL d   1       2.760   1.694   0.069  0.00  0.00     0.434 C 
ATOM     30  F   UNL d   1       3.954   1.047   0.089  0.00  0.00    -0.165 F 
ATOM     31  F   UNL d   1       2.722   2.384  -1.103  0.00  0.00    -0.165 F 
ATOM     32  F   UNL d   1       2.811   2.611   1.069  0.00  0.00    -0.165 F 
ENDBRANCH   1  29
TORSDOF 5
