REMARK  7 active torsions:
REMARK  status: ('A' for Active; 'I' for Inactive)
REMARK    1  A    between atoms: C_8  and  N_1 
REMARK    2  A    between atoms: C_12  and  C_2 
REMARK    3  A    between atoms: S_11  and  C_5 
REMARK    4  A    between atoms: C_28  and  S_11 
REMARK    5  A    between atoms: C_13  and  C_28 
REMARK       I    between atoms: N_20  and  C_13 
REMARK    6  A    between atoms: C_17  and  C_18 
REMARK    7  A    between atoms: C_29  and  N_20 
ROOT
ATOM      1  N   UNL d   1      -0.256  -1.417   0.168  0.00  0.00    -0.275 N 
ATOM      2  C   UNL d   1       0.940  -0.719  -0.063  0.00  0.00     0.139 A 
ATOM      3  N   UNL d   1       0.667   0.576  -0.119  0.00  0.00    -0.282 N 
ATOM      4  HN  UNL d   1       1.343   1.315  -0.311  1.00  0.00     0.188 HD
ATOM      5  C   UNL d   1      -1.189  -0.411   0.348  0.00  0.00     0.168 A 
ATOM      6  N   UNL d   1      -0.660   0.765   0.122  0.00  0.00    -0.278 N 
ATOM      7  HN  UNL d   1      -1.152   1.658   0.125  1.00  0.00     0.189 HD
ENDROOT
BRANCH   2   8
ATOM      8  C   UNL d   1       2.295  -1.265  -0.205  0.00  0.00     0.010 A 
ATOM      9  C   UNL d   1       2.583  -2.416  -0.939  0.00  0.00     0.016 A 
ATOM     10  C   UNL d   1       3.853  -3.002  -0.879  0.00  0.00     0.009 A 
ATOM     11  C   UNL d   1       4.905  -2.407  -0.159  0.00  0.00    -0.051 A 
ATOM     12  C   UNL d   1       4.635  -1.186   0.474  0.00  0.00     0.009 A 
ATOM     13  C   UNL d   1       3.350  -0.627   0.457  0.00  0.00     0.016 A 
BRANCH  11  14
ATOM     14  C   UNL d   1       6.278  -3.098  -0.086  0.00  0.00    -0.024 C 
ATOM     15  C   UNL d   1       7.359  -2.252   0.624  0.00  0.00     0.019 C 
ATOM     16  C   UNL d   1       6.146  -4.424   0.694  0.00  0.00     0.019 C 
ATOM     17  C   UNL d   1       6.795  -3.400  -1.509  0.00  0.00     0.019 C 
ENDBRANCH  11  14
ENDBRANCH   2   8
BRANCH   1  18
ATOM     18  C   UNL d   1      -0.477  -2.822   0.210  0.00  0.00     0.046 A 
ATOM     19  C   UNL d   1       0.464  -3.677   0.800  0.00  0.00     0.069 A 
ATOM     20  C   UNL d   1       0.285  -5.033   0.645  0.00  0.00     0.107 A 
ATOM     21  O   UNL d   1       1.151  -5.995   1.061  0.00  0.00    -0.323 OA
ATOM     22  C   UNL d   1      -0.807  -5.556  -0.005  0.00  0.00     0.105 A 
ATOM     23  C   UNL d   1       0.489  -7.184   0.582  0.00  0.00     0.352 A 
ATOM     24  O   UNL d   1      -0.768  -6.912  -0.075  0.00  0.00    -0.323 OA
ATOM     25  C   UNL d   1      -1.791  -4.747  -0.529  0.00  0.00     0.042 A 
ATOM     26  C   UNL d   1      -1.623  -3.361  -0.425  0.00  0.00     0.033 A 
ENDBRANCH   1  18
BRANCH   5  27
ATOM     27  S   UNL d   1      -2.738  -0.577   1.119  0.00  0.00    -0.083 SA
BRANCH  27  28
ATOM     28  C   UNL d   1      -2.254  -1.106   2.787  0.00  0.00     0.185 C 
BRANCH  28  29
ATOM     29  C   UNL d   1      -1.526  -0.086   3.654  0.00  0.00     0.227 C 
ATOM     30  N   UNL d   1      -1.106   1.083   3.075  0.00  0.00    -0.357 N 
ATOM     31  H   UNL d   1      -1.379   1.291   2.118  0.00  0.00     0.162 HD
ATOM     32  O   UNL d   1      -1.294  -0.349   4.835  0.00  0.00    -0.273 OA
BRANCH  30  33
ATOM     33  C   UNL d   1      -0.401   2.123   3.808  0.00  0.00     0.076 C 
ATOM     34  C   UNL d   1       0.509   2.905   2.864  0.00  0.00     0.032 C 
ATOM     35  C   UNL d   1      -1.396   3.054   4.495  0.00  0.00     0.032 C 
ENDBRANCH  30  33
ENDBRANCH  28  29
ENDBRANCH  27  28
ENDBRANCH   5  27
TORSDOF 7
