REMARK  7 active torsions:
REMARK  status: ('A' for Active; 'I' for Inactive)
REMARK    1  A    between atoms: C_7  and  C_1 
REMARK    2  A    between atoms: C_3  and  C_2 
REMARK    3  A    between atoms: S_11  and  C_6 
REMARK    4  A    between atoms: O_12  and  C_7 
REMARK    5  A    between atoms: C_17  and  S_11 
REMARK    6  A    between atoms: C_18  and  O_12 
REMARK    7  A    between atoms: C_25  and  C_18 
ROOT
ATOM      1  C   UNL d   1      -0.017  -1.395   0.015  0.00  0.00     0.086 A 
ATOM      2  C   UNL d   1       1.218  -0.771   0.023  0.00  0.00     0.136 A 
ATOM      3  N   UNL d   1       1.315   0.600   0.037  0.00  0.00    -0.332 N 
ATOM      4  HN  UNL d   1       2.227   1.056   0.072  1.00  0.00     0.168 HD
ATOM      5  C   UNL d   1       0.187   1.329   0.004  0.00  0.00     0.149 A 
ATOM      6  N   UNL d   1      -1.041   0.799  -0.026  0.00  0.00    -0.345 N 
ATOM      7  HN  UNL d   1      -1.878   1.382  -0.048  1.00  0.00     0.167 HD
ATOM      8  C   UNL d   1      -1.113  -0.551  -0.027  0.00  0.00     0.110 A 
ENDROOT
BRANCH   1   9
ATOM      9  C   UNL d   1      -0.290  -2.834  -0.069  0.00  0.00     0.297 C 
ATOM     10  O   UNL d   1      -1.126  -3.276  -0.846  0.00  0.00    -0.259 OA
BRANCH   9  11
ATOM     11  O   UNL d   1       0.431  -3.535   0.830  0.00  0.00    -0.313 OA
BRANCH  11  12
ATOM     12  C   UNL d   1       0.291  -4.967   0.727  0.00  0.00     0.217 C 
BRANCH  12  13
ATOM     13  C   UNL d   1      -0.650  -5.489   1.782  0.00  0.00    -0.034 A 
ATOM     14  C   UNL d   1      -1.774  -6.252   1.432  0.00  0.00     0.009 A 
ATOM     15  C   UNL d   1      -2.630  -6.746   2.419  0.00  0.00     0.001 A 
ATOM     16  C   UNL d   1      -2.370  -6.485   3.763  0.00  0.00     0.000 A 
ATOM     17  C   UNL d   1      -1.252  -5.734   4.123  0.00  0.00     0.001 A 
ATOM     18  C   UNL d   1      -0.394  -5.243   3.138  0.00  0.00     0.009 A 
ENDBRANCH  12  13
ENDBRANCH  11  12
ENDBRANCH   9  11
ENDBRANCH   1   9
BRANCH   2  19
ATOM     19  C   UNL d   1       2.539  -1.509  -0.053  0.00  0.00     0.433 C 
ATOM     20  F   UNL d   1       2.466  -2.848  -0.280  0.00  0.00    -0.165 F 
ATOM     21  F   UNL d   1       3.322  -1.037  -1.069  0.00  0.00    -0.165 F 
ATOM     22  F   UNL d   1       3.283  -1.364   1.081  0.00  0.00    -0.165 F 
ENDBRANCH   2  19
BRANCH   5  23
ATOM     23  S   UNL d   1       0.341   3.094   0.064  0.00  0.00    -0.054 SA
BRANCH  23  24
ATOM     24  C   UNL d   1       0.388   3.520  -1.667  0.00  0.00     0.008 A 
ATOM     25  C   UNL d   1      -0.567   4.408  -2.181  0.00  0.00     0.021 A 
ATOM     26  C   UNL d   1      -0.532   4.791  -3.526  0.00  0.00     0.025 A 
ATOM     27  C   UNL d   1       0.467   4.296  -4.360  0.00  0.00     0.034 A 
ATOM     28  C   UNL d   1       1.434   3.428  -3.859  0.00  0.00     0.025 A 
ATOM     29 CL   UNL d   1       0.509   4.762  -6.015  0.00  0.00    -0.084 Cl
ATOM     30  C   UNL d   1       1.399   3.047  -2.513  0.00  0.00     0.021 A 
ENDBRANCH  23  24
ENDBRANCH   5  23
TORSDOF 7
