REMARK  7 active torsions:
REMARK  status: ('A' for Active; 'I' for Inactive)
REMARK    1  A    between atoms: C_5  and  C_1 
REMARK       I    between atoms: C_2  and  N_3 
REMARK    2  A    between atoms: C_6  and  C_2 
REMARK    3  A    between atoms: N_3  and  C_4 
REMARK       I    between atoms: N_11  and  C_5 
REMARK    4  A    between atoms: N_7  and  C_19 
REMARK    5  A    between atoms: C_24  and  N_11 
REMARK    6  A    between atoms: C_19  and  C_20 
REMARK    7  A    between atoms: C_20  and  C_24 
ROOT
ATOM      1  C   UNL d   1       1.161  -0.672   0.689  0.00  0.00     0.058 A 
ATOM      2  C   UNL d   1       1.154  -1.322  -0.558  0.00  0.00     0.050 A 
ATOM      3  C   UNL d   1       0.052   0.062   1.125  0.00  0.00     0.019 A 
ATOM      4  C   UNL d   1      -0.030  -1.353  -1.296  0.00  0.00     0.030 A 
ATOM      5  C   UNL d   1      -1.107   0.070   0.350  0.00  0.00     0.001 A 
ATOM      6  C   UNL d   1      -1.159  -0.664  -0.838  0.00  0.00     0.002 A 
ENDROOT
BRANCH   1   7
ATOM      7  C   UNL d   1       2.270  -0.927   1.651  0.00  0.00     0.253 C 
ATOM      8  O   UNL d   1       2.830  -0.007   2.224  0.00  0.00    -0.268 OA
ATOM      9  N   UNL d   1       2.568  -2.274   1.787  0.00  0.00    -0.357 N 
ATOM     10  H   UNL d   1       2.060  -2.931   1.206  0.00  0.00     0.162 HD
BRANCH   9  11
ATOM     11  C   UNL d   1       3.758  -2.783   2.434  0.00  0.00     0.124 C 
BRANCH  11  12
ATOM     12  C   UNL d   1       3.476  -3.969   3.358  0.00  0.00     0.050 C 
BRANCH  12  13
ATOM     13  C   UNL d   1       2.809  -5.203   2.721  0.00  0.00     0.274 C 
BRANCH  13  14
ATOM     14  N   UNL d   1       3.477  -5.775   1.540  0.00  0.00     0.092 N 
ATOM     15  C   UNL d   1       4.803  -6.371   1.829  0.00  0.00     0.298 C 
ATOM     16  C   UNL d   1       4.767  -7.736   2.543  0.00  0.00     0.198 C 
ATOM     17  O   UNL d   1       3.941  -8.678   1.850  0.00  0.00    -0.388 OA
ATOM     18  C   UNL d   1       2.614  -8.164   1.695  0.00  0.00     0.198 C 
ATOM     19  C   UNL d   1       2.633  -6.834   0.922  0.00  0.00     0.298 C 
ENDBRANCH  13  14
ENDBRANCH  12  13
ENDBRANCH  11  12
ENDBRANCH   9  11
ENDBRANCH   1   7
BRANCH   2  20
ATOM     20  N   UNL d   1       2.361  -1.874  -1.048  0.00  0.00    -0.322 N 
ATOM     21  C   UNL d   1       2.471  -3.012  -1.814  0.00  0.00     0.256 C 
ATOM     22  O   UNL d   1       1.555  -3.769  -2.117  0.00  0.00    -0.267 OA
ATOM     23  H   UNL d   1       3.214  -1.550  -0.602  0.00  0.00     0.169 HD
BRANCH  21  24
ATOM     24  C   UNL d   1       3.866  -3.365  -2.181  0.00  0.00     0.032 A 
ATOM     25  C   UNL d   1       4.739  -2.408  -2.713  0.00  0.00     0.018 A 
ATOM     26  C   UNL d   1       6.030  -2.785  -3.094  0.00  0.00     0.025 A 
ATOM     27  C   UNL d   1       6.447  -4.107  -2.929  0.00  0.00     0.034 A 
ATOM     28  C   UNL d   1       5.588  -5.056  -2.378  0.00  0.00     0.025 A 
ATOM     29 CL   UNL d   1       8.027  -4.573  -3.425  0.00  0.00    -0.084 Cl
ATOM     30  C   UNL d   1       4.293  -4.686  -2.011  0.00  0.00     0.018 A 
ENDBRANCH  21  24
ENDBRANCH   2  20
TORSDOF 7
