REMARK  3 active torsions:
REMARK  status: ('A' for Active; 'I' for Inactive)
REMARK    1  A    between atoms: N_8  and  C_1 
REMARK    2  A    between atoms: C_7  and  C_9 
REMARK       I    between atoms: C_9  and  N_8 
REMARK    3  A    between atoms: N_14  and  C_10 
ROOT
ATOM      1  C   UNL d   1      -2.444   4.207   0.494  0.00  0.00     0.127 C 
ATOM      2  C   UNL d   1      -1.734   5.307   0.180  0.00  0.00     0.113 C 
ATOM      3  C   UNL d   1      -3.426   4.285   1.529  0.00  0.00     0.106 C 
ATOM      4  N   UNL d   1      -4.186   4.402   2.395  0.00  0.00    -0.191 NA
ENDROOT
BRANCH   1   5
ATOM      5  C   UNL d   1      -2.275   2.872  -0.147  0.00  0.00     0.268 C 
ATOM      6  N   UNL d   1      -0.959   2.510  -0.355  0.00  0.00    -0.319 N 
ATOM      7  H   UNL d   1      -0.248   3.104   0.056  0.00  0.00     0.169 HD
ATOM      8  O   UNL d   1      -3.256   2.156  -0.321  0.00  0.00    -0.266 OA
BRANCH   6   9
ATOM      9  C   UNL d   1      -0.545   1.278  -0.835  0.00  0.00     0.083 C 
ATOM     10  C   UNL d   1       0.691   0.734  -0.531  0.00  0.00     0.053 C 
ATOM     11  N   UNL d   1       0.615  -0.565  -0.965  0.00  0.00    -0.299 N 
ATOM     12  C   UNL d   1       1.868   1.264   0.202  0.00  0.00     0.072 C 
ATOM     13  C   UNL d   1       1.426  -1.686  -0.548  0.00  0.00     0.177 C 
ATOM     14  N   UNL d   1      -0.422  -0.793  -1.781  0.00  0.00    -0.301 N 
ATOM     15  C   UNL d   1      -1.152   0.329  -1.708  0.00  0.00     0.051 C 
ATOM     16  HN  UNL d   1      -0.613  -1.630  -2.332  1.00  0.00     0.187 HD
ATOM     17  C   UNL d   1      -2.342   0.430  -2.592  0.00  0.00     0.072 C 
ENDBRANCH   6   9
ENDBRANCH   1   5
BRANCH   2  18
ATOM     18  N   UNL d   1      -0.768   5.599  -0.781  0.00  0.00    -0.397 N 
ATOM     19  C   UNL d   1      -0.703   4.960  -2.102  0.00  0.00     0.148 C 
ATOM     20  C   UNL d   1       0.065   6.805  -0.673  0.00  0.00     0.148 C 
ENDBRANCH   2  18
TORSDOF 3
