REMARK  1 active torsions:
REMARK  status: ('A' for Active; 'I' for Inactive)
REMARK    1  A    between atoms: C_2  and  C_3 
ROOT
ATOM      1  S   UNL d   1      -1.008  -1.201   0.064  0.00  0.00    -0.151 SA
ATOM      2  C   UNL d   1       0.812  -1.107   0.078  0.00  0.00     0.094 C 
ATOM      3  C   UNL d   1       1.240   0.357   0.053  0.00  0.00     0.099 C 
ATOM      4  C   UNL d   1       0.020   1.220  -0.114  0.00  0.00     0.137 C 
ATOM      5  C   UNL d   1      -1.281   0.569   0.252  0.00  0.00     0.152 C 
ATOM      6  O   UNL d   1       0.102   2.409  -0.418  0.00  0.00    -0.297 OA
ENDROOT
BRANCH   2   7
ATOM      7  C   UNL d   1       1.399  -1.904  -1.058  0.00  0.00    -0.003 A 
ATOM      8  S   UNL d   1       2.446  -3.222  -0.709  0.00  0.00    -0.105 SA
ATOM      9  C   UNL d   1       2.662  -3.581  -2.365  0.00  0.00     0.050 A 
ATOM     10  C   UNL d   1       1.968  -2.714  -3.175  0.00  0.00     0.008 A 
ATOM     11  C   UNL d   1       1.243  -1.743  -2.424  0.00  0.00     0.016 A 
ENDBRANCH   2   7
TORSDOF 1
