REMARK  3 active torsions:
REMARK  status: ('A' for Active; 'I' for Inactive)
REMARK       I    between atoms: N_2  and  C_1 
REMARK       I    between atoms: N_3  and  C_1 
REMARK    1  A    between atoms: C_4  and  N_3 
REMARK    2  A    between atoms: C_17  and  N_5 
REMARK    3  A    between atoms: C_16  and  C_17 
ROOT
ATOM      1  C   UNL d   1       0.874   0.034   0.227  0.00  0.00     0.323 C 
ATOM      2  N   UNL d   1       0.475  -1.293   0.035  0.00  0.00    -0.331 N 
ATOM      3  N   UNL d   1       0.416   0.879  -0.758  0.00  0.00    -0.308 N 
ATOM      4  N   UNL d   1      -0.345  -4.136  -0.074  0.00  0.00     0.095 N 
ATOM      5  O   UNL d   1       1.632   0.370   1.132  0.00  0.00    -0.247 OA
ATOM      6  C   UNL d   1       1.072  -2.283   0.933  0.00  0.00     0.158 C 
ATOM      7  C   UNL d   1      -0.826  -1.669  -0.540  0.00  0.00     0.158 C 
ATOM      8  C   UNL d   1       1.008  -3.704   0.349  0.00  0.00     0.292 C 
ATOM      9  C   UNL d   1      -0.865  -3.135  -1.033  0.00  0.00     0.292 C 
ATOM     10  H   UNL d   1       0.240   0.398  -1.623  0.00  0.00     0.170 HD
ENDROOT
BRANCH   3  11
ATOM     11  C   UNL d   1       0.801   2.236  -0.885  0.00  0.00     0.047 A 
ATOM     12  C   UNL d   1       1.165   2.732  -2.169  0.00  0.00     0.001 A 
ATOM     13  C   UNL d   1       1.408   4.119  -2.312  0.00  0.00    -0.024 A 
ATOM     14  C   UNL d   1       1.356   1.911  -3.311  0.00  0.00     0.014 A 
ATOM     15  C   UNL d   1       1.766   4.639  -3.569  0.00  0.00     0.012 A 
ATOM     16  C   UNL d   1       1.314   4.962  -1.194  0.00  0.00     0.012 A 
ATOM     17  C   UNL d   1       1.928   3.804  -4.675  0.00  0.00     0.001 A 
ATOM     18  C   UNL d   1       1.737   2.434  -4.542  0.00  0.00     0.001 A 
ATOM     19  C   UNL d   1       1.010   4.446   0.063  0.00  0.00     0.003 A 
ATOM     20  C   UNL d   1       0.759   3.088   0.224  0.00  0.00     0.030 A 
ENDBRANCH   3  11
BRANCH   4  21
ATOM     21  C   UNL d   1      -1.277  -4.298   1.054  0.00  0.00     0.311 C 
BRANCH  21  22
ATOM     22  C   UNL d   1      -0.855  -5.321   2.088  0.00  0.00    -0.027 A 
ATOM     23  C   UNL d   1      -0.644  -4.920   3.419  0.00  0.00     0.048 A 
ATOM     24  C   UNL d   1      -0.340  -5.888   4.351  0.00  0.00     0.105 A 
ATOM     25  O   UNL d   1      -0.139  -5.673   5.678  0.00  0.00    -0.323 OA
ATOM     26  C   UNL d   1      -0.230  -7.215   4.009  0.00  0.00     0.105 A 
ATOM     27  C   UNL d   1       0.067  -7.024   6.141  0.00  0.00     0.352 A 
ATOM     28  O   UNL d   1       0.050  -8.003   5.081  0.00  0.00    -0.323 OA
ATOM     29  C   UNL d   1      -0.402  -7.645   2.711  0.00  0.00     0.040 A 
ATOM     30  C   UNL d   1      -0.719  -6.685   1.743  0.00  0.00     0.012 A 
ENDBRANCH  21  22
ENDBRANCH   4  21
TORSDOF 3
