REMARK  8 active torsions:
REMARK  status: ('A' for Active; 'I' for Inactive)
REMARK    1  A    between atoms: C_2  and  C_1 
REMARK       I    between atoms: N_9  and  C_2 
REMARK    2  A    between atoms: C_3  and  C_10 
REMARK    3  A    between atoms: C_4  and  C_11 
REMARK    4  A    between atoms: O_7  and  C_5 
REMARK    5  A    between atoms: C_10  and  O_7 
REMARK    6  A    between atoms: N_21  and  N_9 
REMARK    7  A    between atoms: C_11  and  O_20 
REMARK    8  A    between atoms: O_20  and  C_19 
ROOT
ATOM      1  C   UNL d   1       1.507  -0.330   0.004  0.00  0.00     0.069 A 
ATOM      2  C   UNL d   1       0.670  -1.454  -0.011  0.00  0.00     0.085 A 
ATOM      3  C   UNL d   1       0.958   0.955   0.117  0.00  0.00     0.056 A 
ATOM      4  C   UNL d   1      -0.716  -1.261   0.089  0.00  0.00     0.040 A 
ATOM      5  C   UNL d   1      -0.420   1.136   0.256  0.00  0.00     0.070 A 
ATOM      6  C   UNL d   1      -1.259   0.026   0.211  0.00  0.00     0.039 A 
ENDROOT
BRANCH   1   7
ATOM      7  C   UNL d   1       2.974  -0.395  -0.081  0.00  0.00     0.268 C 
ATOM      8  O   UNL d   1       3.580   0.273  -0.917  0.00  0.00    -0.266 OA
ATOM      9  N   UNL d   1       3.602  -1.233   0.830  0.00  0.00    -0.290 N 
ATOM     10  H   UNL d   1       3.068  -1.705   1.561  0.00  0.00     0.183 HD
BRANCH   9  11
ATOM     11  N   UNL d   1       5.010  -1.305   0.841  0.00  0.00    -0.247 NA
ATOM     12  H   UNL d   1       5.353  -0.395   0.498  0.00  0.00     0.143 HD
ATOM     13  H   UNL d   1       5.296  -1.952   0.103  0.00  0.00     0.143 HD
ENDBRANCH   9  11
ENDBRANCH   1   7
BRANCH   2  14
ATOM     14  O   UNL d   1       1.083  -2.758  -0.050  0.00  0.00    -0.341 OA
BRANCH  14  15
ATOM     15  C   UNL d   1       1.937  -3.088  -1.161  0.00  0.00     0.293 C 
BRANCH  15  16
ATOM     16  C   UNL d   1       1.582  -4.444  -1.760  0.00  0.00     0.408 C 
ATOM     17  F   UNL d   1       0.248  -4.656  -1.788  0.00  0.00    -0.169 F 
ATOM     18  F   UNL d   1       2.031  -4.529  -3.035  0.00  0.00    -0.169 F 
ATOM     19  F   UNL d   1       2.150  -5.454  -1.064  0.00  0.00    -0.169 F 
ENDBRANCH  15  16
ENDBRANCH  14  15
ENDBRANCH   2  14
BRANCH   5  20
ATOM     20  O   UNL d   1      -0.795   2.435   0.436  0.00  0.00    -0.342 OA
BRANCH  20  21
ATOM     21  C   UNL d   1      -2.122   2.696   0.909  0.00  0.00     0.293 C 
BRANCH  21  22
ATOM     22  C   UNL d   1      -2.202   4.071   1.571  0.00  0.00     0.408 C 
ATOM     23  F   UNL d   1      -1.146   4.861   1.280  0.00  0.00    -0.169 F 
ATOM     24  F   UNL d   1      -3.319   4.728   1.174  0.00  0.00    -0.169 F 
ATOM     25  F   UNL d   1      -2.265   3.954   2.918  0.00  0.00    -0.169 F 
ENDBRANCH  21  22
ENDBRANCH  20  21
ENDBRANCH   5  20
TORSDOF 8
