REMARK  6 active torsions:
REMARK  status: ('A' for Active; 'I' for Inactive)
REMARK    1  A    between atoms: N_6  and  S_1 
REMARK    2  A    between atoms: C_12  and  S_1 
REMARK    3  A    between atoms: C_5  and  C_17 
REMARK    4  A    between atoms: C_21  and  N_6 
REMARK    5  A    between atoms: C_10  and  O_16 
REMARK    6  A    between atoms: O_16  and  C_24 
ROOT
ATOM      1  C   UNL d   1      -0.184  -5.557   5.584  0.00  0.00     0.100 A 
ATOM      2  C   UNL d   1      -0.599  -4.676   4.572  0.00  0.00     0.098 A 
ATOM      3  C   UNL d   1       0.564  -5.066   6.706  0.00  0.00     0.104 C 
ATOM      4  N   UNL d   1       1.159  -4.670   7.619  0.00  0.00    -0.191 NA
ATOM      5  C   UNL d   1      -0.523  -6.915   5.483  0.00  0.00     0.057 A 
ATOM      6 CL   UNL d   1      -0.044  -8.076   6.671  0.00  0.00    -0.083 Cl
ATOM      7  C   UNL d   1      -1.407  -5.138   3.523  0.00  0.00     0.039 A 
ATOM      8  C   UNL d   1      -1.726  -6.490   3.426  0.00  0.00     0.005 A 
ATOM      9  C   UNL d   1      -1.276  -7.379   4.398  0.00  0.00     0.025 A 
ENDROOT
BRANCH   2  10
ATOM     10  O   UNL d   1      -0.249  -3.345   4.688  0.00  0.00    -0.309 OA
BRANCH  10  11
ATOM     11  C   UNL d   1       0.065  -2.627   3.554  0.00  0.00     0.076 A 
ATOM     12  C   UNL d   1      -0.302  -1.278   3.562  0.00  0.00     0.039 A 
ATOM     13  C   UNL d   1      -0.019  -0.465   2.463  0.00  0.00     0.028 A 
ATOM     14  C   UNL d   1       0.650  -1.006   1.361  0.00  0.00     0.080 A 
ATOM     15  C   UNL d   1       1.051  -2.345   1.358  0.00  0.00     0.028 A 
ATOM     16  C   UNL d   1       0.769  -3.152   2.464  0.00  0.00     0.039 A 
BRANCH  14  17
ATOM     17  S   UNL d   1       1.038   0.029  -0.029  0.00  0.00     0.263 S 
ATOM     18  O   UNL d   1       0.336   1.287   0.110  0.00  0.00    -0.200 OA
ATOM     19  O   UNL d   1       2.477  -0.009  -0.190  0.00  0.00    -0.200 OA
BRANCH  17  20
ATOM     20  N   UNL d   1       0.400  -0.810  -1.351  0.00  0.00    -0.281 N 
ATOM     21  H   UNL d   1       0.986  -0.673  -2.175  0.00  0.00     0.179 HD
BRANCH  20  22
ATOM     22  C   UNL d   1      -1.006  -0.787  -1.546  0.00  0.00     0.042 A 
ATOM     23  C   UNL d   1      -1.625   0.289  -2.183  0.00  0.00     0.031 A 
ATOM     24  C   UNL d   1      -3.014   0.292  -2.355  0.00  0.00     0.016 A 
ATOM     25  C   UNL d   1      -3.790  -0.781  -1.892  0.00  0.00    -0.009 A 
ATOM     26  C   UNL d   1      -3.149  -1.845  -1.243  0.00  0.00     0.016 A 
ATOM     27  C   UNL d   1      -1.764  -1.851  -1.072  0.00  0.00     0.031 A 
BRANCH  25  28
ATOM     28  C   UNL d   1      -5.239  -0.829  -2.054  0.00  0.00     0.049 A 
ATOM     29  N   UNL d   1      -6.021  -1.574  -1.183  0.00  0.00    -0.353 N 
ATOM     30  C   UNL d   1      -7.286  -1.504  -1.533  0.00  0.00     0.047 A 
ATOM     31  HN  UNL d   1      -5.665  -2.100  -0.384  1.00  0.00     0.166 HD
ATOM     32  C   UNL d   1      -8.392  -2.193  -0.816  0.00  0.00     0.076 C 
ATOM     33  S   UNL d   1      -7.613  -0.561  -2.930  0.00  0.00    -0.087 SA
ATOM     34  C   UNL d   1      -5.939  -0.214  -3.074  0.00  0.00     0.081 A 
ENDBRANCH  25  28
ENDBRANCH  20  22
ENDBRANCH  17  20
ENDBRANCH  14  17
ENDBRANCH  10  11
ENDBRANCH   2  10
TORSDOF 6
