REMARK  3 active torsions:
REMARK  status: ('A' for Active; 'I' for Inactive)
REMARK    1  A    between atoms: C_7  and  C_1 
REMARK    2  A    between atoms: C_8  and  C_4 
REMARK    3  A    between atoms: O_10  and  C_7 
ROOT
ATOM      1  C   UNL d   1       0.035  -1.337  -0.043  0.00  0.00     0.098 A 
ATOM      2  N   UNL d   1      -1.288   0.510   0.084  0.00  0.00    -0.259 N 
ATOM      3  HN  UNL d   1      -2.100   1.126   0.135  1.00  0.00     0.195 HD
ATOM      4  C   UNL d   1      -1.305  -0.833   0.018  0.00  0.00     0.084 A 
ATOM      5  O   UNL d   1       0.028   0.894   0.070  0.00  0.00    -0.241 OA
ATOM      6  C   UNL d   1       0.825  -0.201  -0.006  0.00  0.00     0.091 A 
ATOM      7  C   UNL d   1       2.273   0.077  -0.074  0.00  0.00     0.080 C 
ENDROOT
BRANCH   4   8
ATOM      8  C   UNL d   1      -2.586  -1.545   0.055  0.00  0.00    -0.006 A 
ATOM      9  C   UNL d   1      -3.723  -0.979  -0.544  0.00  0.00     0.014 A 
ATOM     10  C   UNL d   1      -4.962  -1.624  -0.486  0.00  0.00     0.001 A 
ATOM     11  C   UNL d   1      -5.080  -2.844   0.175  0.00  0.00     0.000 A 
ATOM     12  C   UNL d   1      -3.963  -3.416   0.779  0.00  0.00     0.001 A 
ATOM     13  C   UNL d   1      -2.725  -2.769   0.725  0.00  0.00     0.014 A 
ENDBRANCH   4   8
BRANCH   1  14
ATOM     14  C   UNL d   1       0.489  -2.703  -0.179  0.00  0.00     0.181 C 
ATOM     15  O   UNL d   1      -0.111  -3.555  -0.816  0.00  0.00    -0.646 OA
BRANCH  14  16
ATOM     16  O   UNL d   1       1.641  -2.996   0.475  0.00  0.00    -0.773 OA
ATOM     17  H   UNL d   1       1.941  -2.290   1.074  0.00  0.00     0.167 HD
ENDBRANCH  14  16
ENDBRANCH   1  14
TORSDOF 3
