REMARK  3 active torsions:
REMARK  status: ('A' for Active; 'I' for Inactive)
REMARK    1  A    between atoms: S_3  and  C_2 
REMARK    2  A    between atoms: C_9  and  C_4 
REMARK    3  A    between atoms: C_7  and  C_11 
ROOT
ATOM      1  C   UNL d   1      -0.775  -0.004   0.059  0.00  0.00     0.084 A 
ATOM      2  C   UNL d   1       0.087   1.079   0.034  0.00  0.00     0.120 A 
ATOM      3  C   UNL d   1      -0.082  -1.272   0.005  0.00  0.00     0.003 A 
ATOM      4  S   UNL d   1       1.722   0.578   0.022  0.00  0.00    -0.088 SA
ATOM      5  C   UNL d   1       1.288  -1.071  -0.010  0.00  0.00     0.065 A 
ATOM      6  C   UNL d   1      -2.201   0.151   0.121  0.00  0.00     0.102 C 
ATOM      7  N   UNL d   1      -3.359   0.214   0.171  0.00  0.00    -0.191 NA
ENDROOT
BRANCH   2   8
ATOM      8  S   UNL d   1      -0.172   2.839  -0.024  0.00  0.00     0.179 S 
ATOM      9  O   UNL d   1       0.553   3.299  -1.190  0.00  0.00    -0.222 OA
ATOM     10  O   UNL d   1      -1.602   3.018   0.102  0.00  0.00    -0.222 OA
ATOM     11  C   UNL d   1       0.598   3.474   1.440  0.00  0.00     0.167 C 
ENDBRANCH   2   8
BRANCH   3  12
ATOM     12  C   UNL d   1      -0.640  -2.633  -0.062  0.00  0.00    -0.023 A 
ATOM     13  C   UNL d   1       0.001  -3.709   0.576  0.00  0.00     0.028 A 
ATOM     14  C   UNL d   1      -0.502  -5.020   0.483  0.00  0.00     0.048 A 
ATOM     15  C   UNL d   1      -1.683  -5.246  -0.236  0.00  0.00     0.016 A 
ATOM     16  C   UNL d   1      -2.334  -4.188  -0.866  0.00  0.00     0.002 A 
ATOM     17  C   UNL d   1      -1.808  -2.896  -0.791  0.00  0.00     0.012 A 
BRANCH  14  18
ATOM     18  C   UNL d   1       0.216  -6.178   1.132  0.00  0.00     0.417 C 
ATOM     19  F   UNL d   1       1.353  -5.813   1.787  0.00  0.00    -0.166 F 
ATOM     20  F   UNL d   1      -0.554  -6.823   2.051  0.00  0.00    -0.166 F 
ATOM     21  F   UNL d   1       0.596  -7.125   0.229  0.00  0.00    -0.166 F 
ENDBRANCH  14  18
ENDBRANCH   3  12
TORSDOF 3
