REMARK  4 active torsions:
REMARK  status: ('A' for Active; 'I' for Inactive)
REMARK    1  A    between atoms: S_4  and  C_1 
REMARK    2  A    between atoms: C_7  and  C_2 
REMARK    3  A    between atoms: O_8  and  C_7 
REMARK    4  A    between atoms: N_9  and  O_8 
ROOT
ATOM      1  C   UNL d   1      -0.057  -1.261  -0.029  0.00  0.00     0.088 A 
ATOM      2  C   UNL d   1       0.235   1.070  -0.050  0.00  0.00     0.105 A 
ATOM      3  C   UNL d   1      -0.689   0.028  -0.025  0.00  0.00     0.079 A 
ATOM      4  S   UNL d   1       1.847   0.455  -0.034  0.00  0.00    -0.093 SA
ATOM      5  C   UNL d   1       1.318  -1.162  -0.023  0.00  0.00     0.075 A 
ATOM      6 CL   UNL d   1      -2.398   0.220  -0.004  0.00  0.00    -0.081 Cl
ENDROOT
BRANCH   2   7
ATOM      7  C   UNL d   1       0.079   2.523  -0.118  0.00  0.00     0.323 C 
ATOM      8  O   UNL d   1       0.989   3.339  -0.215  0.00  0.00    -0.257 OA
BRANCH   7   9
ATOM      9  O   UNL d   1      -1.254   2.865  -0.075  0.00  0.00    -0.195 OA
BRANCH   9  10
ATOM     10  N   UNL d   1      -1.544   3.800  -1.088  0.00  0.00    -0.266 N 
ATOM     11  C   UNL d   1      -2.763   4.245  -1.008  0.00  0.00     0.003 C 
ATOM     12  C   UNL d   1      -3.743   3.948   0.102  0.00  0.00     0.065 C 
ATOM     13  C   UNL d   1      -3.271   5.127  -2.125  0.00  0.00     0.065 C 
ATOM     14  HN  UNL d   1      -0.877   4.093  -1.801  1.00  0.00     0.194 HD
ENDBRANCH   9  10
ENDBRANCH   7   9
ENDBRANCH   2   7
BRANCH   1  15
ATOM     15  S   UNL d   1      -0.863  -2.800   0.044  0.00  0.00     0.174 S 
ATOM     16  O   UNL d   1       0.207  -3.774  -0.037  0.00  0.00    -0.223 OA
ATOM     17  O   UNL d   1      -1.715  -2.701   1.210  0.00  0.00    -0.223 OA
ATOM     18  C   UNL d   1      -1.857  -2.954  -1.414  0.00  0.00     0.167 C 
ENDBRANCH   1  15
TORSDOF 4
