REMARK  4 active torsions:
REMARK  status: ('A' for Active; 'I' for Inactive)
REMARK    1  A    between atoms: N_3  and  C_1 
REMARK    2  A    between atoms: O_7  and  C_2 
REMARK    3  A    between atoms: C_4  and  C_8 
REMARK    4  A    between atoms: C_13  and  O_7 
ROOT
ATOM      1  C   UNL d   1       2.802   4.420  -1.094  0.00  0.00     0.050 A 
ATOM      2  C   UNL d   1       1.715   3.531  -1.025  0.00  0.00     0.053 A 
ATOM      3  C   UNL d   1       0.833   3.574   0.058  0.00  0.00     0.077 A 
ATOM      4  C   UNL d   1       2.979   5.358  -0.064  0.00  0.00     0.016 A 
ATOM      5  C   UNL d   1       2.117   5.380   1.031  0.00  0.00     0.004 A 
ATOM      6  C   UNL d   1       1.060   4.473   1.104  0.00  0.00     0.037 A 
ENDROOT
BRANCH   3   7
ATOM      7  O   UNL d   1      -0.197   2.658   0.058  0.00  0.00    -0.301 OA
BRANCH   7   8
ATOM      8  C   UNL d   1      -1.384   2.912   0.636  0.00  0.00     0.149 A 
ATOM      9  C   UNL d   1      -2.176   2.047   1.381  0.00  0.00     0.144 A 
ATOM     10  C   UNL d   1      -3.367   2.687   1.875  0.00  0.00     0.046 A 
ATOM     11  C   UNL d   1      -3.478   3.988   1.449  0.00  0.00     0.055 A 
ATOM     12  S   UNL d   1      -2.207   4.419   0.402  0.00  0.00    -0.074 SA
BRANCH   9  13
ATOM     13  N   UNL d   1      -1.838   0.671   1.664  0.00  0.00    -0.112 N 
ATOM     14  O   UNL d   1      -0.768   0.229   1.231  0.00  0.00    -0.532 OA
ATOM     15  O   UNL d   1      -2.660   0.030   2.332  0.00  0.00    -0.532 OA
ENDBRANCH   9  13
ENDBRANCH   7   8
ENDBRANCH   3   7
BRANCH   1  16
ATOM     16  C   UNL d   1       3.789   4.374  -2.233  0.00  0.00     0.417 C 
ATOM     17  F   UNL d   1       3.514   3.417  -3.162  0.00  0.00    -0.166 F 
ATOM     18  F   UNL d   1       3.853   5.551  -2.916  0.00  0.00    -0.166 F 
ATOM     19  F   UNL d   1       5.059   4.125  -1.806  0.00  0.00    -0.166 F 
ENDBRANCH   1  16
TORSDOF 4
