REMARK  12 active torsions:
REMARK  status: ('A' for Active; 'I' for Inactive)
REMARK    1  A    between atoms: C_23  and  N_1 
REMARK    2  A    between atoms: S_14  and  C_2 
REMARK    3  A    between atoms: O_20  and  C_3 
REMARK    4  A    between atoms: C_10  and  C_19 
REMARK    5  A    between atoms: C_24  and  C_11 
REMARK    6  A    between atoms: C_13  and  C_18 
REMARK    7  A    between atoms: C_19  and  S_14 
REMARK    8  A    between atoms: C_31  and  C_23 
REMARK    9  A    between atoms: O_25  and  C_24 
REMARK   10  A    between atoms: C_26  and  O_25 
REMARK   11  A    between atoms: C_33  and  C_31 
REMARK   12  A    between atoms: C_32  and  C_33 
ROOT
ATOM      1  N   UNL d   1       5.293  -3.019   0.087  0.00  0.00    -0.354 N 
ATOM      2  HN  UNL d   1       5.434  -2.009   0.067  1.00  0.00     0.166 HD
ATOM      3  C   UNL d   1       4.053  -3.647   0.111  0.00  0.00     0.026 A 
ATOM      4  C   UNL d   1       6.262  -3.920   0.095  0.00  0.00     0.075 A 
ATOM      5  S   UNL d   1       5.748  -5.558   0.206  0.00  0.00    -0.084 SA
ATOM      6  C   UNL d   1       4.126  -5.031   0.168  0.00  0.00     0.077 A 
ENDROOT
BRANCH   3   7
ATOM      7  C   UNL d   1       2.743  -2.912   0.067  0.00  0.00     0.140 C 
BRANCH   7   8
ATOM      8  S   UNL d   1       2.751  -1.091   0.019  0.00  0.00    -0.086 SA
BRANCH   8   9
ATOM      9  C   UNL d   1       1.029  -0.848   0.069  0.00  0.00     0.164 A 
ATOM     10  N   UNL d   1       0.370   0.354   0.022  0.00  0.00    -0.291 N 
ATOM     11  C   UNL d   1      -0.965   0.020   0.072  0.00  0.00     0.240 A 
ATOM     12  N   UNL d   1      -1.101  -1.279   0.152  0.00  0.00    -0.263 N 
ATOM     13  N   UNL d   1       0.153  -1.825   0.151  0.00  0.00    -0.277 N 
ATOM     14  HN  UNL d   1      -1.982  -1.791   0.206  1.00  0.00     0.190 HD
ATOM     15  HN  UNL d   1       0.372  -2.820   0.204  1.00  0.00     0.189 HD
BRANCH  10  16
ATOM     16  C   UNL d   1       0.897   1.687  -0.168  0.00  0.00     0.135 C 
BRANCH  16  17
ATOM     17  C   UNL d   1       0.779   2.595   1.060  0.00  0.00     0.020 C 
BRANCH  17  18
ATOM     18  C   UNL d   1       1.804   2.321   2.164  0.00  0.00     0.001 C 
BRANCH  18  19
ATOM     19  C   UNL d   1       1.592   3.316   3.312  0.00  0.00    -0.004 C 
ATOM     20  C   UNL d   1       2.567   3.127   4.460  0.00  0.00     0.005 C 
ENDBRANCH  18  19
ENDBRANCH  17  18
ENDBRANCH  16  17
ENDBRANCH  10  16
BRANCH  11  21
ATOM     21  O   UNL d   1      -1.999   0.844   0.026  0.00  0.00    -0.331 OA
ATOM     22  H   UNL d   1      -1.694   1.763  -0.015  0.00  0.00     0.221 HD
ENDBRANCH  11  21
ENDBRANCH   8   9
ENDBRANCH   7   8
ENDBRANCH   3   7
BRANCH   4  23
ATOM     23  C   UNL d   1       7.729  -3.619  -0.015  0.00  0.00     0.240 C 
BRANCH  23  24
ATOM     24  O   UNL d   1       8.090  -3.909  -1.363  0.00  0.00    -0.345 OA
BRANCH  24  25
ATOM     25  C   UNL d   1       9.329  -3.541  -1.794  0.00  0.00     0.069 A 
ATOM     26  C   UNL d   1       9.696  -4.089  -3.024  0.00  0.00     0.037 A 
ATOM     27  C   UNL d   1      10.906  -3.745  -3.630  0.00  0.00     0.012 A 
ATOM     28  C   UNL d   1      11.774  -2.829  -3.019  0.00  0.00    -0.035 A 
ATOM     29  C   UNL d   1      11.408  -2.307  -1.765  0.00  0.00     0.012 A 
ATOM     30  C   UNL d   1      10.198  -2.661  -1.156  0.00  0.00     0.037 A 
BRANCH  28  31
ATOM     31  C   UNL d   1      13.025  -2.382  -3.748  0.00  0.00     0.141 C 
ATOM     32  S   UNL d   1      14.546  -2.631  -2.772  0.00  0.00    -0.148 SA
ATOM     33  C   UNL d   1      15.267  -0.998  -3.078  0.00  0.00     0.085 C 
ATOM     34  C   UNL d   1      14.137   0.010  -3.125  0.00  0.00     0.085 C 
ATOM     35  S   UNL d   1      12.900  -0.636  -4.274  0.00  0.00    -0.148 SA
ENDBRANCH  28  31
ENDBRANCH  24  25
ENDBRANCH  23  24
ENDBRANCH   4  23
TORSDOF 12
