REMARK  7 active torsions:
REMARK  status: ('A' for Active; 'I' for Inactive)
REMARK    1  A    between atoms: C_8  and  C_1 
REMARK    2  A    between atoms: C_7  and  C_2 
REMARK    3  A    between atoms: O_18  and  C_8 
REMARK    4  A    between atoms: O_12  and  N_9 
REMARK    5  A    between atoms: C_11  and  O_12 
REMARK    6  A    between atoms: C_13  and  C_11 
REMARK    7  A    between atoms: C_24  and  O_18 
ROOT
ATOM      1  C   UNL d   1      -1.424   2.239  -0.054  0.00  0.00     0.064 C 
ATOM      2  N   UNL d   1      -0.902   3.431  -0.051  0.00  0.00    -0.259 N 
ATOM      3  HN  UNL d   1      -1.447   4.292  -0.088  1.00  0.00     0.194 HD
ATOM      4  C   UNL d   1      -0.583   0.981  -0.004  0.00  0.00     0.073 C 
ENDROOT
BRANCH   1   5
ATOM      5  C   UNL d   1      -2.863   2.106  -0.107  0.00  0.00     0.125 A 
ATOM      6  C   UNL d   1      -3.901   3.012  -0.139  0.00  0.00     0.079 A 
ATOM      7  C   UNL d   1      -5.085   2.221  -0.148  0.00  0.00     0.132 A 
ATOM      8  N   UNL d   1      -4.768   0.916  -0.149  0.00  0.00    -0.255 N 
ATOM      9  O   UNL d   1      -3.396   0.851  -0.120  0.00  0.00    -0.235 OA
ATOM     10  HN  UNL d   1      -5.417   0.129  -0.166  1.00  0.00     0.195 HD
BRANCH   7  11
ATOM     11  C   UNL d   1      -6.472   2.682  -0.092  0.00  0.00     0.311 C 
ATOM     12  O   UNL d   1      -6.781   3.866  -0.021  0.00  0.00    -0.258 OA
BRANCH  11  13
ATOM     13  O   UNL d   1      -7.367   1.649  -0.030  0.00  0.00    -0.317 OA
BRANCH  13  14
ATOM     14  C   UNL d   1      -8.658   1.963   0.505  0.00  0.00     0.175 C 
ATOM     15  C   UNL d   1      -8.583   1.840   2.017  0.00  0.00     0.034 C 
ENDBRANCH  13  14
ENDBRANCH  11  13
ENDBRANCH   7  11
ENDBRANCH   1   5
BRANCH   2  16
ATOM     16  O   UNL d   1       0.512   3.393   0.010  0.00  0.00    -0.195 OA
BRANCH  16  17
ATOM     17  C   UNL d   1       1.017   4.663  -0.028  0.00  0.00     0.315 C 
ATOM     18  O   UNL d   1       0.378   5.704  -0.128  0.00  0.00    -0.257 OA
BRANCH  17  19
ATOM     19  C   UNL d   1       2.506   4.665   0.084  0.00  0.00     0.041 A 
ATOM     20  C   UNL d   1       3.154   5.912   0.123  0.00  0.00     0.019 A 
ATOM     21  C   UNL d   1       4.545   5.996   0.239  0.00  0.00     0.025 A 
ATOM     22  C   UNL d   1       5.302   4.831   0.316  0.00  0.00     0.034 A 
ATOM     23  C   UNL d   1       4.678   3.583   0.271  0.00  0.00     0.025 A 
ATOM     24 CL   UNL d   1       7.012   4.933   0.469  0.00  0.00    -0.084 Cl
ATOM     25  C   UNL d   1       3.282   3.497   0.154  0.00  0.00     0.019 A 
ENDBRANCH  17  19
ENDBRANCH  16  17
ENDBRANCH   2  16
TORSDOF 7
