REMARK  3 active torsions:
REMARK  status: ('A' for Active; 'I' for Inactive)
REMARK    1  A    between atoms: C_7  and  C_1 
REMARK    2  A    between atoms: C_10  and  C_3 
REMARK    3  A    between atoms: S_18  and  C_11 
ROOT
ATOM      1  C   UNL d   1      -0.153  -1.158   0.018  0.00  0.00     0.056 A 
ATOM      2  S   UNL d   1       1.411  -0.443  -0.033  0.00  0.00    -0.067 SA
ATOM      3  C   UNL d   1       0.717   1.126  -0.070  0.00  0.00     0.092 A 
ATOM      4  N   UNL d   1      -0.600   1.142  -0.080  0.00  0.00    -0.352 N 
ATOM      5  HN  UNL d   1      -1.169   1.987  -0.110  1.00  0.00     0.166 HD
ATOM      6  C   UNL d   1      -1.108  -0.151  -0.044  0.00  0.00     0.025 A 
ATOM      7  C   UNL d   1      -2.588  -0.312  -0.039  0.00  0.00     0.070 C 
ENDROOT
BRANCH   1   8
ATOM      8  C   UNL d   1      -0.316  -2.614   0.096  0.00  0.00     0.054 A 
ATOM      9  N   UNL d   1      -1.410  -3.089  -0.533  0.00  0.00    -0.336 N 
ATOM     10  C   UNL d   1      -1.608  -4.414  -0.473  0.00  0.00     0.141 A 
ATOM     11  HN  UNL d   1      -2.054  -2.473  -1.029  1.00  0.00     0.168 HD
ATOM     12  N   UNL d   1      -0.818  -5.288   0.166  0.00  0.00    -0.347 N 
ATOM     13  C   UNL d   1       0.257  -4.773   0.783  0.00  0.00     0.092 A 
ATOM     14  HN  UNL d   1      -1.021  -6.287   0.182  1.00  0.00     0.167 HD
ATOM     15  C   UNL d   1       0.561  -3.433   0.781  0.00  0.00     0.048 A 
BRANCH  10  16
ATOM     16  S   UNL d   1      -3.033  -5.045  -1.305  0.00  0.00    -0.107 SA
ATOM     17  H   UNL d   1      -3.370  -3.856  -1.815  0.00  0.00     0.110 HD
ENDBRANCH  10  16
ENDBRANCH   1   8
BRANCH   3  18
ATOM     18  C   UNL d   1       1.484   2.353  -0.068  0.00  0.00     0.038 A 
ATOM     19  S   UNL d   1       3.200   2.410  -0.128  0.00  0.00    -0.099 SA
ATOM     20  C   UNL d   1       3.226   4.117  -0.065  0.00  0.00     0.050 A 
ATOM     21  C   UNL d   1       1.960   4.649  -0.005  0.00  0.00     0.008 A 
ATOM     22  C   UNL d   1       0.958   3.634  -0.011  0.00  0.00     0.022 A 
ENDBRANCH   3  18
TORSDOF 3
