REMARK  7 active torsions:
REMARK  status: ('A' for Active; 'I' for Inactive)
REMARK    1  A    between atoms: C_2  and  N_1 
REMARK       I    between atoms: C_4  and  N_1 
REMARK    2  A    between atoms: C_14  and  C_4 
REMARK    3  A    between atoms: S_12  and  C_14 
REMARK    4  A    between atoms: C_16  and  S_12 
REMARK    5  A    between atoms: C_13  and  O_15 
REMARK    6  A    between atoms: O_15  and  C_17 
REMARK    7  A    between atoms: C_17  and  C_16 
ROOT
ATOM      1  N   UNL d   1       2.872  -0.515  -1.163  0.00  0.00    -0.325 N 
ATOM      2  C   UNL d   1       2.446   0.096   0.001  0.00  0.00     0.231 C 
ATOM      3  O   UNL d   1       1.374   0.688   0.123  0.00  0.00    -0.272 OA
ATOM      4  H   UNL d   1       3.614  -1.206  -1.079  0.00  0.00     0.169 HD
ENDROOT
BRANCH   2   5
ATOM      5  C   UNL d   1       3.328  -0.121   1.219  0.00  0.00     0.177 C 
BRANCH   5   6
ATOM      6  S   UNL d   1       5.106  -0.211   0.823  0.00  0.00    -0.158 SA
BRANCH   6   7
ATOM      7  C   UNL d   1       5.790  -0.175   2.521  0.00  0.00     0.101 C 
BRANCH   7   8
ATOM      8  C   UNL d   1       5.342  -1.383   3.339  0.00  0.00     0.186 C 
BRANCH   8   9
ATOM      9  O   UNL d   1       5.970  -1.357   4.622  0.00  0.00    -0.350 OA
BRANCH   9  10
ATOM     10  C   UNL d   1       5.623  -2.381   5.466  0.00  0.00     0.068 A 
ATOM     11  C   UNL d   1       4.740  -3.424   5.167  0.00  0.00     0.037 A 
ATOM     12  C   UNL d   1       4.469  -4.413   6.117  0.00  0.00     0.003 A 
ATOM     13  C   UNL d   1       5.080  -4.368   7.366  0.00  0.00     0.000 A 
ATOM     14  C   UNL d   1       5.958  -3.331   7.672  0.00  0.00     0.003 A 
ATOM     15  C   UNL d   1       6.227  -2.341   6.724  0.00  0.00     0.037 A 
ENDBRANCH   9  10
ENDBRANCH   8   9
ENDBRANCH   7   8
ENDBRANCH   6   7
ENDBRANCH   5   6
ENDBRANCH   2   5
BRANCH   1  16
ATOM     16  C   UNL d   1       2.283  -0.366  -2.436  0.00  0.00     0.056 A 
ATOM     17  C   UNL d   1       2.481  -1.355  -3.419  0.00  0.00     0.062 A 
ATOM     18  C   UNL d   1       1.918  -1.220  -4.688  0.00  0.00     0.050 A 
ATOM     19 CL   UNL d   1       3.373  -2.793  -3.062  0.00  0.00    -0.082 Cl
ATOM     20  C   UNL d   1       1.183  -0.078  -4.997  0.00  0.00     0.035 A 
ATOM     21  C   UNL d   1       0.995   0.919  -4.044  0.00  0.00     0.026 A 
ATOM     22 CL   UNL d   1       0.502   0.103  -6.566  0.00  0.00    -0.084 Cl
ATOM     23  C   UNL d   1       1.540   0.773  -2.767  0.00  0.00     0.033 A 
ENDBRANCH   1  16
TORSDOF 7
