REMARK  2 active torsions:
REMARK  status: ('A' for Active; 'I' for Inactive)
REMARK    1  A    between atoms: C_10  and  C_5 
REMARK    2  A    between atoms: O_13  and  C_11 
ROOT
ATOM      1  C   UNL d   1       0.051  -0.545  -0.227  0.00  0.00     0.046 A 
ATOM      2  C   UNL d   1      -1.382  -0.871  -0.317  0.00  0.00     0.165 C 
ATOM      3  O   UNL d   1      -0.459   1.835  -0.124  0.00  0.00    -0.340 OA
ATOM      4  C   UNL d   1       0.430   0.795  -0.177  0.00  0.00     0.083 A 
ATOM      5  C   UNL d   1      -1.757   1.475   0.396  0.00  0.00     0.169 C 
ATOM      6  C   UNL d   1      -2.329   0.291  -0.383  0.00  0.00     0.121 C 
ATOM      7  C   UNL d   1       1.013  -1.561  -0.205  0.00  0.00     0.054 A 
ATOM      8  O   UNL d   1      -1.760  -2.036  -0.420  0.00  0.00    -0.292 OA
ATOM      9  C   UNL d   1       1.781   1.129  -0.136  0.00  0.00     0.040 A 
ATOM     10  C   UNL d   1       2.365  -1.229  -0.126  0.00  0.00     0.069 A 
ATOM     11  C   UNL d   1       2.742   0.117  -0.096  0.00  0.00     0.039 A 
ENDROOT
BRANCH   5  12
ATOM     12  C   UNL d   1      -1.796   1.356   1.921  0.00  0.00    -0.029 A 
ATOM     13  C   UNL d   1      -0.677   1.639   2.724  0.00  0.00     0.010 A 
ATOM     14  C   UNL d   1      -0.740   1.551   4.116  0.00  0.00     0.001 A 
ATOM     15  C   UNL d   1      -1.934   1.203   4.738  0.00  0.00     0.000 A 
ATOM     16  C   UNL d   1      -3.062   0.942   3.967  0.00  0.00     0.001 A 
ATOM     17  C   UNL d   1      -2.995   1.019   2.573  0.00  0.00     0.010 A 
ENDBRANCH   5  12
BRANCH  10  18
ATOM     18  O   UNL d   1       3.405  -2.116  -0.072  0.00  0.00    -0.356 OA
ATOM     19  C   UNL d   1       3.065  -3.498  -0.063  0.00  0.00     0.210 C 
ENDBRANCH  10  18
TORSDOF 2
