REMARK  4 active torsions:
REMARK  status: ('A' for Active; 'I' for Inactive)
REMARK    1  A    between atoms: N_4  and  C_2 
REMARK    2  A    between atoms: N_12  and  C_5 
REMARK    3  A    between atoms: C_14  and  N_12 
REMARK    4  A    between atoms: O_18  and  C_17 
ROOT
ATOM      1  C   UNL d   1       0.105  -0.823  -0.032  0.00  0.00     0.120 A 
ATOM      2  C   UNL d   1      -1.024  -1.605  -0.342  0.00  0.00     0.134 A 
ATOM      3  C   UNL d   1       0.026   0.640  -0.062  0.00  0.00     0.114 A 
ATOM      4  C   UNL d   1      -1.163   1.348  -0.382  0.00  0.00     0.064 A 
ATOM      5  N   UNL d   1       1.356  -1.143   0.326  0.00  0.00    -0.237 N 
ATOM      6  HN  UNL d   1       1.733  -2.084   0.442  1.00  0.00     0.197 HD
ATOM      7  C   UNL d   1      -2.193  -0.909  -0.714  0.00  0.00     0.041 A 
ATOM      8  N   UNL d   1       1.224   1.137   0.275  0.00  0.00    -0.237 N 
ATOM      9  HN  UNL d   1       1.483   2.121   0.346  1.00  0.00     0.197 HD
ATOM     10  O   UNL d   1       2.035   0.044   0.506  0.00  0.00    -0.156 OA
ATOM     11  C   UNL d   1      -2.245   0.507  -0.742  0.00  0.00     0.034 A 
ENDROOT
BRANCH   4  12
ATOM     12  N   UNL d   1      -1.263   2.750  -0.374  0.00  0.00    -0.352 N 
ATOM     13  H   UNL d   1      -0.385   3.201  -0.111  0.00  0.00     0.166 HD
BRANCH  12  14
ATOM     14  C   UNL d   1      -2.360   3.546   0.043  0.00  0.00     0.066 A 
ATOM     15  C   UNL d   1      -2.493   4.887  -0.370  0.00  0.00     0.094 A 
ATOM     16  C   UNL d   1      -3.556   5.667   0.104  0.00  0.00     0.039 A 
ATOM     17  C   UNL d   1      -4.503   5.131   0.974  0.00  0.00     0.003 A 
ATOM     18  C   UNL d   1      -4.380   3.814   1.400  0.00  0.00     0.002 A 
ATOM     19  C   UNL d   1      -3.315   3.036   0.944  0.00  0.00     0.032 A 
BRANCH  15  20
ATOM     20  O   UNL d   1      -1.618   5.568  -1.177  0.00  0.00    -0.354 OA
ATOM     21  C   UNL d   1      -1.166   4.871  -2.333  0.00  0.00     0.210 C 
ENDBRANCH  15  20
ENDBRANCH  12  14
ENDBRANCH   4  12
BRANCH   2  22
ATOM     22  N   UNL d   1      -0.997  -3.052  -0.270  0.00  0.00    -0.113 N 
ATOM     23  O   UNL d   1       0.051  -3.619   0.058  0.00  0.00    -0.532 OA
ATOM     24  O   UNL d   1      -2.054  -3.643  -0.539  0.00  0.00    -0.532 OA
ENDBRANCH   2  22
TORSDOF 4
