REMARK  3 active torsions:
REMARK  status: ('A' for Active; 'I' for Inactive)
REMARK    1  A    between atoms: C_6  and  C_1 
REMARK    2  A    between atoms: C_5  and  C_2 
REMARK       I    between atoms: N_9  and  C_5 
REMARK    3  A    between atoms: C_11  and  N_9 
ROOT
ATOM      1  C   UNL d   1      -1.431  -0.690  -0.634  0.00  0.00     0.088 A 
ATOM      2  C   UNL d   1      -0.142  -1.273  -0.390  0.00  0.00     0.092 A 
ATOM      3  N   UNL d   1      -1.368   0.643  -0.480  0.00  0.00    -0.259 N 
ATOM      4  HN  UNL d   1      -2.149   1.298  -0.529  1.00  0.00     0.195 HD
ATOM      5  O   UNL d   1      -0.053   0.954  -0.245  0.00  0.00    -0.241 OA
ATOM      6  C   UNL d   1       0.686  -0.181  -0.209  0.00  0.00     0.090 A 
ATOM      7  C   UNL d   1       2.137   0.030  -0.026  0.00  0.00     0.080 C 
ENDROOT
BRANCH   2   8
ATOM      8  C   UNL d   1       0.240  -2.671  -0.380  0.00  0.00     0.257 C 
ATOM      9  N   UNL d   1       1.227  -2.983   0.531  0.00  0.00    -0.344 N 
ATOM     10  H   UNL d   1       1.422  -2.295   1.253  0.00  0.00     0.163 HD
ATOM     11  O   UNL d   1      -0.298  -3.514  -1.088  0.00  0.00    -0.267 OA
BRANCH   9  12
ATOM     12  C   UNL d   1       1.555  -4.356   0.883  0.00  0.00     0.166 C 
ATOM     13  C   UNL d   1       2.601  -4.353   1.992  0.00  0.00     0.208 C 
ATOM     14  S   UNL d   1       3.671  -5.742   1.865  0.00  0.00    -0.090 SA
ATOM     15  O   UNL d   1       2.702  -3.498   2.862  0.00  0.00    -0.283 OA
ATOM     16  C   UNL d   1       2.831  -6.383   0.391  0.00  0.00     0.085 C 
ATOM     17  C   UNL d   1       2.198  -5.157  -0.245  0.00  0.00     0.044 C 
ENDBRANCH   9  12
ENDBRANCH   2   8
BRANCH   1  18
ATOM     18  C   UNL d   1      -2.709  -1.331  -0.948  0.00  0.00     0.054 A 
ATOM     19  C   UNL d   1      -3.558  -0.874  -1.974  0.00  0.00     0.049 A 
ATOM     20 CL   UNL d   1      -3.155   0.443  -3.027  0.00  0.00    -0.083 Cl
ATOM     21  C   UNL d   1      -4.790  -1.500  -2.217  0.00  0.00     0.025 A 
ATOM     22  C   UNL d   1      -5.187  -2.601  -1.461  0.00  0.00     0.005 A 
ATOM     23  C   UNL d   1      -4.356  -3.068  -0.447  0.00  0.00     0.043 A 
ATOM     24  C   UNL d   1      -3.141  -2.429  -0.192  0.00  0.00     0.130 A 
ATOM     25  F   UNL d   1      -2.401  -2.888   0.830  0.00  0.00    -0.205 F 
ENDBRANCH   1  18
TORSDOF 3
