REMARK  1 active torsions:
REMARK  status: ('A' for Active; 'I' for Inactive)
REMARK    1  A    between atoms: C_11  and  C_4 
ROOT
ATOM      1  C   UNL d   1      -0.145  -0.244   0.018  0.00  0.00     0.100 A 
ATOM      2  S   UNL d   1      -1.655  -0.998   0.028  0.00  0.00    -0.082 SA
ATOM      3  C   UNL d   1      -0.244   1.117  -0.009  0.00  0.00     0.057 A 
ATOM      4  C   UNL d   1      -2.488   0.521  -0.031  0.00  0.00     0.018 A 
ATOM      5  C   UNL d   1      -1.580   1.574  -0.039  0.00  0.00     0.051 A 
ATOM      6  C   UNL d   1       1.116  -0.919   0.041  0.00  0.00     0.265 A 
ATOM      7  N   UNL d   1       0.876   1.964  -0.008  0.00  0.00    -0.351 N 
ATOM      8  HN  UNL d   1       0.807   2.982  -0.027  1.00  0.00     0.166 HD
ATOM      9  N   UNL d   1       2.173  -0.035   0.043  0.00  0.00    -0.319 N 
ATOM     10  C   UNL d   1       2.005   1.329   0.020  0.00  0.00     0.183 A 
ATOM     11  O   UNL d   1       1.306  -2.132   0.053  0.00  0.00    -0.267 OA
ATOM     12  H   UNL d   1       3.094  -0.448   0.057  0.00  0.00     0.169 HD
ENDROOT
BRANCH   4  13
ATOM     13  C   UNL d   1      -3.963   0.571  -0.032  0.00  0.00    -0.019 A 
ATOM     14  C   UNL d   1      -4.630   1.668   0.544  0.00  0.00     0.016 A 
ATOM     15  C   UNL d   1      -6.027   1.734   0.559  0.00  0.00     0.043 A 
ATOM     16  C   UNL d   1      -6.768   0.703  -0.001  0.00  0.00     0.116 A 
ATOM     17  C   UNL d   1      -6.140  -0.388  -0.583  0.00  0.00     0.043 A 
ATOM     18  F   UNL d   1      -8.106   0.763   0.020  0.00  0.00    -0.206 F 
ATOM     19  C   UNL d   1      -4.743  -0.451  -0.603  0.00  0.00     0.016 A 
ENDBRANCH   4  13
TORSDOF 1
