REMARK  5 active torsions:
REMARK  status: ('A' for Active; 'I' for Inactive)
REMARK    1  A    between atoms: C_2  and  C_1 
REMARK    2  A    between atoms: C_5  and  C_1 
REMARK    3  A    between atoms: C_3  and  C_2 
REMARK    4  A    between atoms: N_6  and  C_4 
REMARK    5  A    between atoms: C_7  and  N_6 
ROOT
ATOM      1  C   UNL d   1       1.041   0.003   0.041  0.00  0.00     0.080 C 
ATOM      2  C   UNL d   1       0.352   0.645   1.006  0.00  0.00     0.107 C 
ENDROOT
BRANCH   2   3
ATOM      3  N   UNL d   1      -0.998   0.580   1.268  0.00  0.00    -0.365 N 
ATOM      4  H   UNL d   1      -1.534   0.029   0.585  0.00  0.00     0.165 HD
BRANCH   3   5
ATOM      5  C   UNL d   1      -1.749   1.187   2.289  0.00  0.00     0.035 A 
ATOM      6  C   UNL d   1      -1.195   2.018   3.271  0.00  0.00     0.053 A 
ATOM      7  C   UNL d   1      -1.999   2.582   4.267  0.00  0.00     0.037 A 
ATOM      8 CL   UNL d   1      -1.284   3.606   5.453  0.00  0.00    -0.084 Cl
ATOM      9  C   UNL d   1      -3.363   2.325   4.314  0.00  0.00     0.048 A 
ATOM     10  C   UNL d   1      -3.921   1.494   3.351  0.00  0.00     0.037 A 
ATOM     11  C   UNL d   1      -3.128   0.929   2.349  0.00  0.00     0.053 A 
ATOM     12 CL   UNL d   1      -5.609   1.154   3.395  0.00  0.00    -0.084 Cl
ENDBRANCH   3   5
ENDBRANCH   2   3
BRANCH   1  13
ATOM     13  C   UNL d   1       2.512   0.216  -0.082  0.00  0.00     0.270 C 
ATOM     14  O   UNL d   1       2.997   0.296  -1.217  0.00  0.00    -0.282 OA
BRANCH  13  15
ATOM     15  C   UNL d   1       3.373   0.284   1.178  0.00  0.00     0.456 C 
ATOM     16  F   UNL d   1       2.684   0.130   2.342  0.00  0.00    -0.163 F 
ATOM     17  F   UNL d   1       4.329  -0.685   1.187  0.00  0.00    -0.163 F 
ATOM     18  F   UNL d   1       4.027   1.473   1.282  0.00  0.00    -0.163 F 
ENDBRANCH  13  15
ENDBRANCH   1  13
BRANCH   1  19
ATOM     19  C   UNL d   1       0.300  -0.867  -0.933  0.00  0.00     0.161 C 
ATOM     20  O   UNL d   1      -0.934  -0.850  -0.984  0.00  0.00    -0.293 OA
ATOM     21  C   UNL d   1       1.079  -1.784  -1.842  0.00  0.00     0.097 C 
ENDBRANCH   1  19
TORSDOF 5
