REMARK  6 active torsions:
REMARK  status: ('A' for Active; 'I' for Inactive)
REMARK    1  A    between atoms: N_3  and  S_1 
REMARK    2  A    between atoms: C_7  and  S_1 
REMARK    3  A    between atoms: S_2  and  N_4 
REMARK    4  A    between atoms: C_8  and  S_2 
REMARK    5  A    between atoms: C_5  and  N_3 
REMARK    6  A    between atoms: N_4  and  C_6 
ROOT
ATOM      1  C   UNL d   1       0.734  -0.114  -2.482  0.00  0.00     0.072 A 
ATOM      2  C   UNL d   1      -0.245  -0.517  -3.412  0.00  0.00     0.070 A 
ATOM      3  C   UNL d   1       2.001   0.264  -2.928  0.00  0.00     0.074 A 
ATOM      4  C   UNL d   1       0.025  -0.439  -4.781  0.00  0.00     0.035 A 
ATOM      5  C   UNL d   1       2.271   0.270  -4.293  0.00  0.00     0.118 A 
ATOM      6  C   UNL d   1       1.288  -0.047  -5.223  0.00  0.00     0.044 A 
ATOM      7  F   UNL d   1       3.499   0.592  -4.717  0.00  0.00    -0.206 F 
ENDROOT
BRANCH   1   8
ATOM      8  N   UNL d   1       0.449  -0.041  -1.089  0.00  0.00    -0.278 N 
ATOM      9  H   UNL d   1       0.453   0.868  -0.626  0.00  0.00     0.179 HD
BRANCH   8  10
ATOM     10  S   UNL d   1       0.648  -1.365  -0.083  0.00  0.00     0.263 S 
ATOM     11  O   UNL d   1      -0.009  -2.495  -0.708  0.00  0.00    -0.200 OA
ATOM     12  O   UNL d   1       0.292  -0.926   1.243  0.00  0.00    -0.200 OA
BRANCH  10  13
ATOM     13  C   UNL d   1       2.405  -1.631  -0.110  0.00  0.00     0.079 A 
ATOM     14  C   UNL d   1       3.223  -0.936   0.791  0.00  0.00     0.026 A 
ATOM     15  C   UNL d   1       4.606  -1.142   0.762  0.00  0.00     0.008 A 
ATOM     16  C   UNL d   1       5.174  -2.042  -0.150  0.00  0.00    -0.062 A 
ATOM     17  C   UNL d   1       4.340  -2.742  -1.033  0.00  0.00     0.008 A 
ATOM     18  C   UNL d   1       6.664  -2.227  -0.199  0.00  0.00     0.048 C 
ATOM     19  C   UNL d   1       2.957  -2.548  -1.006  0.00  0.00     0.026 A 
ENDBRANCH  10  13
ENDBRANCH   8  10
ENDBRANCH   1   8
BRANCH   2  20
ATOM     20  N   UNL d   1      -1.483  -1.096  -3.017  0.00  0.00    -0.278 N 
ATOM     21  H   UNL d   1      -1.457  -1.932  -2.427  0.00  0.00     0.179 HD
BRANCH  20  22
ATOM     22  S   UNL d   1      -2.907  -0.217  -2.996  0.00  0.00     0.263 S 
ATOM     23  O   UNL d   1      -2.974   0.601  -4.188  0.00  0.00    -0.200 OA
ATOM     24  O   UNL d   1      -3.966  -1.145  -2.660  0.00  0.00    -0.200 OA
BRANCH  22  25
ATOM     25  C   UNL d   1      -2.692   0.860  -1.601  0.00  0.00     0.079 A 
ATOM     26  C   UNL d   1      -2.320   2.191  -1.790  0.00  0.00     0.026 A 
ATOM     27  C   UNL d   1      -2.083   2.998  -0.676  0.00  0.00     0.008 A 
ATOM     28  C   UNL d   1      -2.222   2.481   0.620  0.00  0.00    -0.062 A 
ATOM     29  C   UNL d   1      -2.667   1.164   0.791  0.00  0.00     0.008 A 
ATOM     30  C   UNL d   1      -1.910   3.340   1.811  0.00  0.00     0.048 C 
ATOM     31  C   UNL d   1      -2.907   0.352  -0.317  0.00  0.00     0.026 A 
ENDBRANCH  22  25
ENDBRANCH  20  22
ENDBRANCH   2  20
TORSDOF 6
