REMARK  5 active torsions:
REMARK  status: ('A' for Active; 'I' for Inactive)
REMARK    1  A    between atoms: C_2  and  C_1 
REMARK    2  A    between atoms: C_9  and  C_14 
REMARK    3  A    between atoms: C_10  and  C_15 
REMARK    4  A    between atoms: C_22  and  C_12 
REMARK    5  A    between atoms: C_19  and  N_17 
ROOT
ATOM      1  C   UNL d   1      -1.460   2.275  -0.019  0.00  0.00     0.077 A 
ATOM      2  N   UNL d   1      -2.452   2.505   0.913  0.00  0.00    -0.334 N 
ATOM      3  HN  UNL d   1      -2.800   1.812   1.575  1.00  0.00     0.168 HD
ATOM      4  C   UNL d   1      -2.884   3.743   0.827  0.00  0.00     0.149 A 
ATOM      5  S   UNL d   1      -2.130   4.684  -0.407  0.00  0.00    -0.063 SA
ATOM      6  C   UNL d   1      -1.176   3.332  -0.854  0.00  0.00     0.085 A 
ATOM      7  N   UNL d   1      -3.823   4.302   1.631  0.00  0.00    -0.337 N 
ATOM      8  H   UNL d   1      -4.050   5.274   1.454  0.00  0.00     0.168 HD
ENDROOT
BRANCH   7   9
ATOM      9  C   UNL d   1      -4.901   3.595   2.199  0.00  0.00     0.035 A 
ATOM     10  C   UNL d   1      -5.417   4.017   3.430  0.00  0.00     0.045 A 
ATOM     11  C   UNL d   1      -6.512   3.368   4.025  0.00  0.00     0.050 A 
ATOM     12  C   UNL d   1      -7.111   2.291   3.353  0.00  0.00     0.032 A 
ATOM     13  C   UNL d   1      -6.626   1.862   2.109  0.00  0.00     0.050 A 
ATOM     14  C   UNL d   1      -5.513   2.514   1.553  0.00  0.00     0.045 A 
BRANCH  11  15
ATOM     15  C   UNL d   1      -7.018   3.834   5.369  0.00  0.00     0.417 C 
ATOM     16  F   UNL d   1      -8.146   3.189   5.777  0.00  0.00    -0.166 F 
ATOM     17  F   UNL d   1      -6.104   3.655   6.361  0.00  0.00    -0.166 F 
ATOM     18  F   UNL d   1      -7.324   5.161   5.375  0.00  0.00    -0.166 F 
ENDBRANCH  11  15
BRANCH  13  19
ATOM     19  C   UNL d   1      -7.284   0.737   1.348  0.00  0.00     0.417 C 
ATOM     20  F   UNL d   1      -8.360   0.205   1.992  0.00  0.00    -0.166 F 
ATOM     21  F   UNL d   1      -7.742   1.137   0.130  0.00  0.00    -0.166 F 
ATOM     22  F   UNL d   1      -6.439  -0.302   1.109  0.00  0.00    -0.166 F 
ENDBRANCH  13  19
ENDBRANCH   7   9
BRANCH   1  23
ATOM     23  C   UNL d   1      -0.762   0.967  -0.093  0.00  0.00     0.128 A 
ATOM     24  C   UNL d   1      -0.990  -0.114   0.724  0.00  0.00     0.074 A 
ATOM     25  C   UNL d   1      -0.101  -1.121   0.266  0.00  0.00     0.068 A 
ATOM     26  N   UNL d   1       0.628  -0.658  -0.763  0.00  0.00    -0.260 N 
ATOM     27  O   UNL d   1       0.217   0.642  -0.978  0.00  0.00    -0.235 OA
ATOM     28  HN  UNL d   1       1.343  -1.167  -1.283  1.00  0.00     0.195 HD
BRANCH  25  29
ATOM     29  C   UNL d   1       0.049  -2.488   0.768  0.00  0.00    -0.007 A 
ATOM     30  C   UNL d   1       0.546  -3.499  -0.068  0.00  0.00     0.014 A 
ATOM     31  C   UNL d   1       0.663  -4.813   0.392  0.00  0.00     0.001 A 
ATOM     32  C   UNL d   1       0.292  -5.130   1.696  0.00  0.00     0.000 A 
ATOM     33  C   UNL d   1      -0.192  -4.135   2.542  0.00  0.00     0.001 A 
ATOM     34  C   UNL d   1      -0.314  -2.820   2.082  0.00  0.00     0.014 A 
ENDBRANCH  25  29
ENDBRANCH   1  23
TORSDOF 5
