REMARK  5 active torsions:
REMARK  status: ('A' for Active; 'I' for Inactive)
REMARK    1  A    between atoms: C_2  and  C_1 
REMARK       I    between atoms: N_8  and  C_2 
REMARK    2  A    between atoms: O_12  and  C_3 
REMARK    3  A    between atoms: C_14  and  N_8 
REMARK    4  A    between atoms: C_18  and  C_14 
REMARK    5  A    between atoms: C_15  and  C_18 
ROOT
ATOM      1  C   UNL d   1      -2.768  -2.526  -0.008  0.00  0.00     0.254 C 
ATOM      2  O   UNL d   1      -2.122  -3.566  -0.056  0.00  0.00    -0.268 OA
ATOM      3  N   UNL d   1      -4.152  -2.491  -0.008  0.00  0.00    -0.356 N 
ATOM      4  H   UNL d   1      -4.589  -1.657   0.379  0.00  0.00     0.162 HD
ENDROOT
BRANCH   1   5
ATOM      5  C   UNL d   1      -2.066  -1.218   0.067  0.00  0.00     0.066 A 
ATOM      6  C   UNL d   1      -2.575  -0.044  -0.504  0.00  0.00     0.081 A 
ATOM      7  C   UNL d   1      -1.865   1.153  -0.411  0.00  0.00     0.039 A 
ATOM      8  C   UNL d   1      -0.624   1.181   0.226  0.00  0.00     0.022 A 
ATOM      9  C   UNL d   1      -0.103   0.010   0.775  0.00  0.00     0.012 A 
ATOM     10  C   UNL d   1      -0.816  -1.186   0.703  0.00  0.00     0.039 A 
ATOM     11 BR   UNL d   1       1.591   0.044   1.615  0.00  0.00    -0.051 Br
BRANCH   6  12
ATOM     12  O   UNL d   1      -3.746   0.002  -1.209  0.00  0.00    -0.360 OA
ATOM     13  H   UNL d   1      -3.944  -0.899  -1.530  0.00  0.00     0.217 HD
ENDBRANCH   6  12
ENDBRANCH   1   5
BRANCH   3  14
ATOM     14  C   UNL d   1      -4.892  -3.746   0.048  0.00  0.00     0.127 C 
BRANCH  14  15
ATOM     15  C   UNL d   1      -6.404  -3.542  -0.037  0.00  0.00     0.058 C 
BRANCH  15  16
ATOM     16  C   UNL d   1      -7.167  -4.842  -0.024  0.00  0.00    -0.054 A 
ATOM     17  C   UNL d   1      -7.546  -5.442   1.181  0.00  0.00     0.024 A 
ATOM     18  C   UNL d   1      -8.251  -6.637   1.139  0.00  0.00     0.088 A 
ATOM     19  N   UNL d   1      -8.594  -7.268  -0.003  0.00  0.00    -0.375 N 
ATOM     20  C   UNL d   1      -8.210  -6.680  -1.156  0.00  0.00     0.088 A 
ATOM     21  HN  UNL d   1      -9.116  -8.144   0.005  1.00  0.00     0.164 HD
ATOM     22  C   UNL d   1      -7.504  -5.488  -1.218  0.00  0.00     0.024 A 
ENDBRANCH  15  16
ENDBRANCH  14  15
ENDBRANCH   3  14
TORSDOF 5
