REMARK  6 active torsions:
REMARK  status: ('A' for Active; 'I' for Inactive)
REMARK    1  A    between atoms: N_4  and  S_1 
REMARK    2  A    between atoms: C_7  and  S_1 
REMARK    3  A    between atoms: C_2  and  C_3 
REMARK       I    between atoms: C_3  and  N_8 
REMARK    4  A    between atoms: N_8  and  N_4 
REMARK    5  A    between atoms: C_5  and  C_9 
REMARK    6  A    between atoms: C_6  and  C_10 
ROOT
ATOM      1  S   UNL d   1       1.046   0.172   0.104  0.00  0.00     0.276 S 
ATOM      2  O   UNL d   1       1.454   1.477   0.583  0.00  0.00    -0.199 OA
ATOM      3  O   UNL d   1       1.955  -0.644  -0.668  0.00  0.00    -0.199 OA
ENDROOT
BRANCH   1   4
ATOM      4  N   UNL d   1      -0.347   0.408  -0.830  0.00  0.00    -0.220 N 
ATOM      5  H   UNL d   1      -1.228   0.630  -0.354  0.00  0.00     0.200 HD
BRANCH   4   6
ATOM      6  N   UNL d   1      -0.116   1.101  -2.102  0.00  0.00    -0.256 N 
ATOM      7  C   UNL d   1      -1.080   1.952  -2.630  0.00  0.00     0.278 C 
ATOM      8  O   UNL d   1      -2.193   2.013  -2.110  0.00  0.00    -0.265 OA
ATOM      9  H   UNL d   1       0.840   1.122  -2.455  0.00  0.00     0.191 HD
BRANCH   7  10
ATOM     10  C   UNL d   1      -0.639   2.740  -3.784  0.00  0.00     0.090 A 
ATOM     11  C   UNL d   1      -1.328   3.619  -4.601  0.00  0.00     0.029 A 
ATOM     12  C   UNL d   1      -0.530   4.198  -5.630  0.00  0.00     0.027 A 
ATOM     13  I   UNL d   1      -3.320   4.112  -4.441  0.00  0.00    -0.043 I 
ATOM     14  C   UNL d   1       0.771   3.763  -5.573  0.00  0.00     0.052 A 
ATOM     15  S   UNL d   1       1.016   2.661  -4.295  0.00  0.00    -0.095 SA
ENDBRANCH   7  10
ENDBRANCH   4   6
ENDBRANCH   1   4
BRANCH   1  16
ATOM     16  C   UNL d   1       0.499  -0.771   1.505  0.00  0.00     0.082 A 
ATOM     17  C   UNL d   1       0.551  -2.170   1.458  0.00  0.00     0.041 A 
ATOM     18  C   UNL d   1       0.329  -2.922   2.623  0.00  0.00     0.050 A 
ATOM     19  C   UNL d   1       0.058  -2.247   3.828  0.00  0.00     0.032 A 
ATOM     20  C   UNL d   1       0.024  -0.842   3.887  0.00  0.00     0.050 A 
ATOM     21  C   UNL d   1       0.233  -0.110   2.709  0.00  0.00     0.041 A 
BRANCH  18  22
ATOM     22  C   UNL d   1       0.432  -4.433   2.617  0.00  0.00     0.417 C 
ATOM     23  F   UNL d   1       0.777  -4.950   1.407  0.00  0.00    -0.166 F 
ATOM     24  F   UNL d   1       1.364  -4.887   3.500  0.00  0.00    -0.166 F 
ATOM     25  F   UNL d   1      -0.739  -5.032   2.965  0.00  0.00    -0.166 F 
ENDBRANCH  18  22
BRANCH  20  26
ATOM     26  C   UNL d   1      -0.161  -0.144   5.217  0.00  0.00     0.417 C 
ATOM     27  F   UNL d   1      -0.097   1.213   5.129  0.00  0.00    -0.166 F 
ATOM     28  F   UNL d   1      -1.359  -0.430   5.793  0.00  0.00    -0.166 F 
ATOM     29  F   UNL d   1       0.789  -0.506   6.122  0.00  0.00    -0.166 F 
ENDBRANCH  20  26
ENDBRANCH   1  16
TORSDOF 6
