REMARK  3 active torsions:
REMARK  status: ('A' for Active; 'I' for Inactive)
REMARK       I    between atoms: N_2  and  C_1 
REMARK    1  A    between atoms: C_3  and  C_1 
REMARK       I    between atoms: C_4  and  N_2 
REMARK    2  A    between atoms: O_6  and  C_4 
REMARK    3  A    between atoms: C_5  and  O_6 
ROOT
ATOM      1  C   UNL d   1       0.608   0.512  -0.521  0.00  0.00     0.263 C 
ATOM      2  N   UNL d   1       0.403  -0.848  -0.647  0.00  0.00    -0.268 N 
ATOM      3  C   UNL d   1       0.922  -1.557  -1.704  0.00  0.00     0.373 C 
ATOM      4  O   UNL d   1       1.424   1.158  -1.168  0.00  0.00    -0.267 OA
ATOM      5  O   UNL d   1       0.271  -2.418  -2.284  0.00  0.00    -0.238 OA
ATOM      6  H   UNL d   1      -0.507  -1.197  -0.381  0.00  0.00     0.174 HD
ENDROOT
BRANCH   1   7
ATOM      7  C   UNL d   1      -0.220   1.235   0.480  0.00  0.00     0.075 A 
ATOM      8  C   UNL d   1       0.393   2.177   1.330  0.00  0.00     0.051 A 
ATOM      9 CL   UNL d   1       2.107   2.404   1.427  0.00  0.00    -0.083 Cl
ATOM     10  C   UNL d   1      -0.377   2.958   2.201  0.00  0.00     0.025 A 
ATOM     11  C   UNL d   1      -1.758   2.799   2.255  0.00  0.00     0.003 A 
ATOM     12  C   UNL d   1      -2.373   1.854   1.439  0.00  0.00     0.025 A 
ATOM     13  C   UNL d   1      -1.615   1.080   0.549  0.00  0.00     0.051 A 
ATOM     14 CL   UNL d   1      -2.497  -0.024  -0.448  0.00  0.00    -0.083 Cl
ENDBRANCH   1   7
BRANCH   3  15
ATOM     15  O   UNL d   1       2.223  -1.192  -2.006  0.00  0.00    -0.255 OA
BRANCH  15  16
ATOM     16  C   UNL d   1       2.607  -1.330  -3.343  0.00  0.00     0.157 A 
ATOM     17  C   UNL d   1       1.871  -0.752  -4.376  0.00  0.00     0.153 A 
ATOM     18  F   UNL d   1       0.706  -0.139  -4.125  0.00  0.00    -0.203 F 
ATOM     19  C   UNL d   1       2.356  -0.766  -5.682  0.00  0.00     0.045 A 
ATOM     20  C   UNL d   1       3.595  -1.347  -5.956  0.00  0.00     0.006 A 
ATOM     21  C   UNL d   1       4.340  -1.918  -4.921  0.00  0.00     0.045 A 
ATOM     22  C   UNL d   1       3.843  -1.902  -3.619  0.00  0.00     0.153 A 
ATOM     23  F   UNL d   1       4.585  -2.425  -2.631  0.00  0.00    -0.203 F 
ENDBRANCH  15  16
ENDBRANCH   3  15
TORSDOF 3
