REMARK  6 active torsions:
REMARK  status: ('A' for Active; 'I' for Inactive)
REMARK    1  A    between atoms: C_4  and  S_1 
REMARK    2  A    between atoms: N_5  and  S_1 
REMARK       I    between atoms: C_2  and  N_3 
REMARK    3  A    between atoms: O_8  and  C_2 
REMARK    4  A    between atoms: C_20  and  N_5 
REMARK    5  A    between atoms: C_18  and  O_8 
REMARK    6  A    between atoms: C_23  and  C_20 
ROOT
ATOM      1  N   UNL d   1       1.769  -2.567  -2.961  0.00  0.00    -0.315 N 
ATOM      2  H   UNL d   1       1.960  -3.396  -3.517  0.00  0.00     0.172 HD
ENDROOT
BRANCH   1   3
ATOM      3  S   UNL d   1       2.718  -1.264  -3.448  0.00  0.00     0.258 S 
ATOM      4  O   UNL d   1       3.185  -1.581  -4.774  0.00  0.00    -0.201 OA
ATOM      5  O   UNL d   1       1.997  -0.044  -3.160  0.00  0.00    -0.201 OA
BRANCH   3   6
ATOM      6  C   UNL d   1       4.108  -1.359  -2.347  0.00  0.00     0.082 A 
ATOM      7  C   UNL d   1       5.101  -2.316  -2.576  0.00  0.00     0.065 A 
ATOM      8  C   UNL d   1       6.136  -2.450  -1.654  0.00  0.00     0.103 A 
ATOM      9  O   UNL d   1       7.038  -3.458  -1.882  0.00  0.00    -0.346 OA
ATOM     10  C   UNL d   1       6.214  -1.595  -0.547  0.00  0.00     0.102 A 
ATOM     11  C   UNL d   1       7.746  -3.789  -0.682  0.00  0.00     0.202 C 
ATOM     12  C   UNL d   1       8.271  -2.533  -0.006  0.00  0.00     0.202 C 
ATOM     13  O   UNL d   1       7.197  -1.680   0.404  0.00  0.00    -0.346 OA
ATOM     14  C   UNL d   1       5.244  -0.612  -0.352  0.00  0.00     0.041 A 
ATOM     15  C   UNL d   1       4.187  -0.488  -1.254  0.00  0.00     0.028 A 
ENDBRANCH   3   6
ENDBRANCH   1   3
BRANCH   1  16
ATOM     16  C   UNL d   1       1.338  -2.706  -1.566  0.00  0.00     0.137 C 
BRANCH  16  17
ATOM     17  C   UNL d   1       0.141  -3.679  -1.442  0.00  0.00     0.007 C 
ATOM     18  C   UNL d   1      -0.367  -3.721   0.014  0.00  0.00     0.026 C 
ATOM     19  C   UNL d   1       0.435  -4.697   0.866  0.00  0.00     0.128 C 
ATOM     20  N   UNL d   1       0.275  -6.029   0.318  0.00  0.00    -0.328 N 
ATOM     21  C   UNL d   1      -0.511  -6.949   1.003  0.00  0.00     0.363 C 
ATOM     22  C   UNL d   1       0.826  -6.206  -1.018  0.00  0.00     0.128 C 
ATOM     23  O   UNL d   1      -1.030  -6.702   2.086  0.00  0.00    -0.238 OA
ATOM     24  C   UNL d   1       0.367  -5.112  -2.003  0.00  0.00     0.026 C 
BRANCH  21  25
ATOM     25  O   UNL d   1      -0.662  -8.140   0.355  0.00  0.00    -0.294 OA
BRANCH  25  26
ATOM     26  C   UNL d   1      -1.584  -9.146   0.877  0.00  0.00     0.061 C 
ATOM     27  C   UNL d   1      -3.012  -8.587   0.994  0.00  0.00     0.046 C 
ATOM     28  C   UNL d   1      -1.575 -10.279  -0.167  0.00  0.00     0.046 C 
ATOM     29  C   UNL d   1      -1.115  -9.724   2.220  0.00  0.00     0.046 C 
ENDBRANCH  25  26
ENDBRANCH  21  25
ENDBRANCH  16  17
ENDBRANCH   1  16
TORSDOF 6
