REMARK  4 active torsions:
REMARK  status: ('A' for Active; 'I' for Inactive)
REMARK    1  A    between atoms: C_3  and  C_1 
REMARK    2  A    between atoms: C_2  and  C_6 
REMARK    3  A    between atoms: C_6  and  S_9 
REMARK    4  A    between atoms: S_9  and  C_7 
ROOT
ATOM      1  C   UNL d   1      -0.260  -0.388   1.466  0.00  0.00     0.063 A 
ATOM      2  N   UNL d   1      -0.797  -0.309   3.822  0.00  0.00    -0.360 N 
ATOM      3  HN  UNL d   1      -1.164  -0.770   4.655  1.00  0.00     0.166 HD
ATOM      4  C   UNL d   1      -0.348   0.964   3.870  0.00  0.00     0.069 A 
ATOM      5  C   UNL d   1      -0.744  -0.954   2.634  0.00  0.00     0.105 A 
ATOM      6  C   UNL d   1       0.209   0.927   1.538  0.00  0.00     0.020 A 
ATOM      7  C   UNL d   1       0.166   1.612   2.753  0.00  0.00     0.038 A 
ENDROOT
BRANCH   4   8
ATOM      8  S   UNL d   1      -0.435   1.835   5.423  0.00  0.00    -0.108 SA
BRANCH   8   9
ATOM      9  C   UNL d   1      -1.166   0.533   6.470  0.00  0.00     0.123 C 
BRANCH   9  10
ATOM     10  C   UNL d   1      -1.353   0.992   7.899  0.00  0.00    -0.005 A 
ATOM     11  C   UNL d   1      -2.564   1.565   8.334  0.00  0.00     0.042 A 
ATOM     12 CL   UNL d   1      -3.909   1.804   7.270  0.00  0.00    -0.084 Cl
ATOM     13  C   UNL d   1      -2.740   1.968   9.665  0.00  0.00     0.024 A 
ATOM     14  C   UNL d   1      -1.708   1.819  10.586  0.00  0.00     0.003 A 
ATOM     15  C   UNL d   1      -0.497   1.273  10.176  0.00  0.00     0.024 A 
ATOM     16  C   UNL d   1      -0.318   0.867   8.847  0.00  0.00     0.042 A 
ATOM     17 CL   UNL d   1       1.229   0.201   8.443  0.00  0.00    -0.084 Cl
ENDBRANCH   9  10
ENDBRANCH   8   9
ENDBRANCH   4   8
BRANCH   1  18
ATOM     18  C   UNL d   1      -0.255  -1.162   0.184  0.00  0.00     0.418 C 
ATOM     19  F   UNL d   1      -0.767  -2.419   0.305  0.00  0.00    -0.166 F 
ATOM     20  F   UNL d   1       0.996  -1.318  -0.327  0.00  0.00    -0.166 F 
ATOM     21  F   UNL d   1      -0.985  -0.556  -0.792  0.00  0.00    -0.166 F 
ENDBRANCH   1  18
TORSDOF 4
