REMARK  6 active torsions:
REMARK  status: ('A' for Active; 'I' for Inactive)
REMARK    1  A    between atoms: S_2  and  C_1 
REMARK    2  A    between atoms: C_10  and  S_2 
REMARK    3  A    between atoms: S_11  and  C_3 
REMARK    4  A    between atoms: C_7  and  C_5 
REMARK    5  A    between atoms: O_13  and  C_7 
REMARK    6  A    between atoms: C_17  and  O_13 
ROOT
ATOM      1  C   UNL d   1       1.618   0.838  -0.022  0.00  0.00     0.084 A 
ATOM      2  C   UNL d   1       0.401   1.381  -0.407  0.00  0.00     0.063 A 
ATOM      3  C   UNL d   1       1.505  -0.568   0.255  0.00  0.00     0.050 A 
ATOM      4  C   UNL d   1       0.226  -1.062   0.106  0.00  0.00     0.082 A 
ATOM      5  S   UNL d   1      -0.844   0.178  -0.356  0.00  0.00    -0.076 SA
ENDROOT
BRANCH   1   6
ATOM      6  S   UNL d   1       3.173   1.605   0.121  0.00  0.00     0.180 S 
ATOM      7  O   UNL d   1       2.923   2.947   0.598  0.00  0.00    -0.222 OA
ATOM      8  O   UNL d   1       3.938   0.673   0.926  0.00  0.00    -0.222 OA
BRANCH   6   9
ATOM      9  C   UNL d   1       3.886   1.636  -1.523  0.00  0.00     0.105 C 
ATOM     10  C   UNL d   1       3.138   2.546  -2.484  0.00  0.00     0.026 C 
ATOM     11  C   UNL d   1       5.349   2.069  -1.425  0.00  0.00     0.026 C 
ENDBRANCH   6   9
ENDBRANCH   1   6
BRANCH   2  12
ATOM     12  S   UNL d   1      -0.059   2.964  -1.031  0.00  0.00    -0.126 SA
ATOM     13  C   UNL d   1       0.347   4.121   0.287  0.00  0.00     0.096 C 
ENDBRANCH   2  12
BRANCH   4  14
ATOM     14  C   UNL d   1      -0.252  -2.419   0.299  0.00  0.00     0.300 C 
ATOM     15  O   UNL d   1      -1.418  -2.792   0.294  0.00  0.00    -0.259 OA
BRANCH  14  16
ATOM     16  O   UNL d   1       0.821  -3.240   0.506  0.00  0.00    -0.317 OA
BRANCH  16  17
ATOM     17  C   UNL d   1       0.533  -4.596   0.868  0.00  0.00     0.174 C 
ATOM     18  C   UNL d   1       0.461  -4.694   2.381  0.00  0.00     0.034 C 
ENDBRANCH  16  17
ENDBRANCH  14  16
ENDBRANCH   4  14
TORSDOF 6
