REMARK  6 active torsions:
REMARK  status: ('A' for Active; 'I' for Inactive)
REMARK    1  A    between atoms: C_2  and  C_1 
REMARK    2  A    between atoms: C_6  and  C_2 
REMARK    3  A    between atoms: N_10  and  N_3 
REMARK    4  A    between atoms: C_5  and  O_11 
REMARK    5  A    between atoms: C_19  and  N_10 
REMARK    6  A    between atoms: O_11  and  C_20 
ROOT
ATOM      1  C   UNL d   1       1.085  -0.025   0.080  0.00  0.00     0.180 C 
ATOM      2  N   UNL d   1       0.347   0.891   0.647  0.00  0.00    -0.287 N 
ATOM      3  HN  UNL d   1       0.779   1.752   0.981  1.00  0.00     0.188 HD
ATOM      4  C   UNL d   1       0.429  -1.176  -0.506  0.00  0.00     0.123 C 
ATOM      5  N   UNL d   1      -0.161  -2.067  -0.956  0.00  0.00    -0.190 NA
ENDROOT
BRANCH   1   6
ATOM      6  C   UNL d   1       2.582   0.121   0.011  0.00  0.00     0.227 C 
ATOM      7  O   UNL d   1       3.120  -0.337  -0.994  0.00  0.00    -0.284 OA
BRANCH   6   8
ATOM      8  C   UNL d   1       3.273   0.753   1.129  0.00  0.00     0.058 A 
ATOM      9  S   UNL d   1       4.988   0.901   1.043  0.00  0.00    -0.098 SA
ATOM     10  C   UNL d   1       5.074   1.713   2.542  0.00  0.00     0.050 A 
ATOM     11  C   UNL d   1       3.835   1.857   3.120  0.00  0.00     0.009 A 
ATOM     12  C   UNL d   1       2.802   1.287   2.317  0.00  0.00     0.023 A 
ENDBRANCH   6   8
ENDBRANCH   1   6
BRANCH   2  13
ATOM     13  N   UNL d   1      -0.989   0.707   0.795  0.00  0.00    -0.300 N 
ATOM     14  H   UNL d   1      -1.514  -0.090   0.434  0.00  0.00     0.187 HD
BRANCH  13  15
ATOM     15  C   UNL d   1      -1.745   1.663   1.493  0.00  0.00     0.048 A 
ATOM     16  C   UNL d   1      -1.371   3.008   1.565  0.00  0.00     0.034 A 
ATOM     17  C   UNL d   1      -2.151   3.942   2.264  0.00  0.00     0.039 A 
ATOM     18  C   UNL d   1      -3.309   3.533   2.920  0.00  0.00     0.078 A 
ATOM     19  C   UNL d   1      -3.631   2.175   2.938  0.00  0.00     0.039 A 
ATOM     20  C   UNL d   1      -2.862   1.250   2.226  0.00  0.00     0.034 A 
BRANCH  18  21
ATOM     21  O   UNL d   1      -4.158   4.327   3.625  0.00  0.00    -0.255 OA
BRANCH  21  22
ATOM     22  C   UNL d   1      -4.366   5.673   3.221  0.00  0.00     0.530 C 
ATOM     23  F   UNL d   1      -3.775   6.006   2.055  0.00  0.00    -0.144 F 
ATOM     24  F   UNL d   1      -5.696   5.878   3.081  0.00  0.00    -0.144 F 
ATOM     25  F   UNL d   1      -3.915   6.501   4.188  0.00  0.00    -0.144 F 
ENDBRANCH  21  22
ENDBRANCH  18  21
ENDBRANCH  13  15
ENDBRANCH   2  13
TORSDOF 6
