REMARK  1 active torsions:
REMARK  status: ('A' for Active; 'I' for Inactive)
REMARK    1  A    between atoms: S_13  and  C_5 
ROOT
ATOM      1  C   UNL d   1      -0.000   1.103  -0.070  0.00  0.00     0.141 A 
ATOM      2  N   UNL d   1       0.836   0.013   0.007  0.00  0.00    -0.315 N 
ATOM      3  N   UNL d   1      -1.248   0.675  -0.066  0.00  0.00    -0.282 N 
ATOM      4  HN  UNL d   1      -2.081   1.265  -0.084  1.00  0.00     0.188 HD
ATOM      5  C   UNL d   1       0.012  -1.083   0.003  0.00  0.00     0.162 A 
ATOM      6  C   UNL d   1       0.376   2.489  -0.136  0.00  0.00     0.051 A 
ATOM      7  N   UNL d   1      -1.239  -0.700  -0.032  0.00  0.00    -0.278 N 
ATOM      8  HN  UNL d   1      -2.056  -1.310  -0.034  1.00  0.00     0.189 HD
ATOM      9  S   UNL d   1      -0.573   3.691   0.651  0.00  0.00    -0.079 SA
ATOM     10  C   UNL d   1       0.474   4.926   0.161  0.00  0.00     0.052 A 
ATOM     11  C   UNL d   1       1.446   3.066  -0.798  0.00  0.00     0.025 A 
ATOM     12  C   UNL d   1       1.521   4.479  -0.603  0.00  0.00     0.028 A 
ATOM     13  C   UNL d   1       2.270  -0.007   0.134  0.00  0.00     0.160 C 
ATOM     14 BR   UNL d   1       0.221   6.726   0.612  0.00  0.00    -0.043 Br
ENDROOT
BRANCH   5  15
ATOM     15  S   UNL d   1       0.598  -2.711   0.035  0.00  0.00    -0.097 SA
ATOM     16  C   UNL d   1      -0.953  -3.634   0.024  0.00  0.00     0.099 C 
ENDBRANCH   5  15
TORSDOF 1
