REMARK  6 active torsions:
REMARK  status: ('A' for Active; 'I' for Inactive)
REMARK    1  A    between atoms: N_2  and  S_1 
REMARK    2  A    between atoms: C_10  and  S_1 
REMARK    3  A    between atoms: O_6  and  C_4 
REMARK    4  A    between atoms: C_9  and  O_6 
REMARK    5  A    between atoms: C_8  and  C_15 
REMARK    6  A    between atoms: C_18  and  C_9 
ROOT
ATOM      1  N   UNL d   1       0.642   0.415  -1.623  0.00  0.00    -0.271 N 
ATOM      2  C   UNL d   1      -0.620   0.138  -2.289  0.00  0.00     0.059 A 
ATOM      3  C   UNL d   1      -1.301   2.602  -2.625  0.00  0.00     0.108 C 
ATOM      4  C   UNL d   1      -1.538   1.135  -2.735  0.00  0.00     0.027 A 
ATOM      5  C   UNL d   1      -0.057   3.118  -2.719  0.00  0.00     0.059 C 
ATOM      6  C   UNL d   1       1.628   1.398  -2.134  0.00  0.00     0.147 C 
ATOM      7  C   UNL d   1       0.230   4.416  -2.207  0.00  0.00     0.098 C 
ATOM      8  C   UNL d   1      -0.929  -1.218  -2.479  0.00  0.00     0.055 A 
ATOM      9  N   UNL d   1       0.508   5.418  -1.693  0.00  0.00    -0.192 NA
ATOM     10  C   UNL d   1      -2.756   0.711  -3.304  0.00  0.00     0.018 A 
ATOM     11  C   UNL d   1       1.095   2.294  -3.234  0.00  0.00     0.074 C 
ATOM     12  C   UNL d   1      -2.138  -1.604  -3.047  0.00  0.00     0.036 A 
ATOM     13  C   UNL d   1      -3.057  -0.646  -3.451  0.00  0.00     0.025 A 
ATOM     14 CL   UNL d   1      -2.494  -3.274  -3.248  0.00  0.00    -0.084 Cl
ENDROOT
BRANCH   3  15
ATOM     15  O   UNL d   1      -2.442   3.384  -2.287  0.00  0.00    -0.273 OA
BRANCH  15  16
ATOM     16  C   UNL d   1      -2.844   4.319  -3.225  0.00  0.00     0.298 C 
ATOM     17  O   UNL d   1      -2.358   4.486  -4.331  0.00  0.00    -0.259 OA
BRANCH  16  18
ATOM     18  C   UNL d   1      -4.011   5.117  -2.708  0.00  0.00     0.040 A 
ATOM     19  C   UNL d   1      -4.571   6.141  -3.503  0.00  0.00     0.033 A 
ATOM     20  C   UNL d   1      -5.646   6.925  -3.021  0.00  0.00     0.048 A 
ATOM     21  C   UNL d   1      -6.159   6.655  -1.744  0.00  0.00     0.016 A 
ATOM     22  C   UNL d   1      -5.622   5.635  -0.963  0.00  0.00     0.002 A 
ATOM     23  C   UNL d   1      -4.554   4.873  -1.439  0.00  0.00     0.017 A 
BRANCH  20  24
ATOM     24  C   UNL d   1      -6.251   8.063  -3.817  0.00  0.00     0.417 C 
ATOM     25  F   UNL d   1      -5.707   8.224  -5.054  0.00  0.00    -0.166 F 
ATOM     26  F   UNL d   1      -7.589   7.906  -4.013  0.00  0.00    -0.166 F 
ATOM     27  F   UNL d   1      -6.109   9.264  -3.186  0.00  0.00    -0.166 F 
ENDBRANCH  20  24
ENDBRANCH  16  18
ENDBRANCH  15  16
ENDBRANCH   3  15
BRANCH   1  28
ATOM     28  S   UNL d   1       0.861  -0.087   0.003  0.00  0.00     0.265 S 
ATOM     29  O   UNL d   1       2.243   0.165   0.376  0.00  0.00    -0.200 OA
ATOM     30  O   UNL d   1       0.272  -1.391   0.205  0.00  0.00    -0.200 OA
BRANCH  28  31
ATOM     31  C   UNL d   1      -0.145   1.088   0.878  0.00  0.00     0.080 A 
ATOM     32  C   UNL d   1      -1.454   0.739   1.226  0.00  0.00     0.027 A 
ATOM     33  C   UNL d   1      -2.270   1.684   1.846  0.00  0.00     0.025 A 
ATOM     34  C   UNL d   1      -1.772   2.958   2.119  0.00  0.00     0.034 A 
ATOM     35  C   UNL d   1      -0.448   3.284   1.822  0.00  0.00     0.025 A 
ATOM     36 CL   UNL d   1      -2.809   4.143   2.811  0.00  0.00    -0.084 Cl
ATOM     37  C   UNL d   1       0.378   2.341   1.211  0.00  0.00     0.027 A 
ENDBRANCH  28  31
ENDBRANCH   1  28
TORSDOF 6
