REMARK  4 active torsions:
REMARK  status: ('A' for Active; 'I' for Inactive)
REMARK    1  A    between atoms: S_3  and  C_1 
REMARK    2  A    between atoms: C_2  and  S_3 
REMARK       I    between atoms: N_13  and  C_2 
REMARK    3  A    between atoms: C_7  and  C_9 
REMARK    4  A    between atoms: C_11  and  N_13 
ROOT
ATOM      1  C   UNL d   1      -3.646   1.672  -0.083  0.00  0.00     0.288 C 
ATOM      2  N   UNL d   1      -4.750   2.354   0.368  0.00  0.00    -0.328 N 
ATOM      3  O   UNL d   1      -2.922   2.222  -0.906  0.00  0.00    -0.260 OA
ATOM      4  H   UNL d   1      -4.713   3.324   0.073  0.00  0.00     0.169 HD
ENDROOT
BRANCH   1   5
ATOM      5  S   UNL d   1      -3.318   0.089   0.604  0.00  0.00    -0.029 SA
BRANCH   5   6
ATOM      6  C   UNL d   1      -1.611  -0.295   0.174  0.00  0.00     0.016 C 
ATOM      7  C   UNL d   1      -0.670   0.728  -0.048  0.00  0.00     0.028 C 
ATOM      8  C   UNL d   1       0.651   0.476  -0.460  0.00  0.00    -0.039 C 
ATOM      9  C   UNL d   1       1.506   1.645  -0.860  0.00  0.00     0.050 C 
ATOM     10  C   UNL d   1       1.098  -0.842  -0.468  0.00  0.00     0.040 C 
ATOM     11  C   UNL d   1       0.205  -1.879  -0.193  0.00  0.00     0.032 C 
ATOM     12 CL   UNL d   1       2.741  -1.249  -0.807  0.00  0.00    -0.084 Cl
ATOM     13  C   UNL d   1      -1.159  -1.631   0.081  0.00  0.00    -0.043 C 
ATOM     14  C   UNL d   1      -2.028  -2.843   0.279  0.00  0.00     0.049 C 
ENDBRANCH   5   6
ENDBRANCH   1   5
BRANCH   2  15
ATOM     15  C   UNL d   1      -5.955   1.890   0.832  0.00  0.00     0.094 C 
ATOM     16  C   UNL d   1      -6.951   2.758   1.058  0.00  0.00     0.054 C 
BRANCH  16  17
ATOM     17  C   UNL d   1      -8.301   2.377   1.290  0.00  0.00     0.076 A 
ATOM     18  O   UNL d   1      -9.255   3.312   1.630  0.00  0.00    -0.323 OA
ATOM     19  C   UNL d   1     -10.461   2.701   1.683  0.00  0.00     0.142 A 
ATOM     20  C   UNL d   1     -10.333   1.369   1.389  0.00  0.00     0.027 A 
ATOM     21  C   UNL d   1      -8.952   1.155   1.157  0.00  0.00     0.039 A 
ENDBRANCH  16  17
ENDBRANCH   2  15
TORSDOF 4
