REMARK  3 active torsions:
REMARK  status: ('A' for Active; 'I' for Inactive)
REMARK    1  A    between atoms: C_13  and  C_1 
REMARK    2  A    between atoms: N_5  and  O_12 
REMARK    3  A    between atoms: O_12  and  C_13 
ROOT
ATOM      1  O   UNL d   1      -1.491   2.658  -0.156  0.00  0.00    -0.276 OA
ENDROOT
BRANCH   1   2
ATOM      2  N   UNL d   1      -1.538   4.053  -0.051  0.00  0.00    -0.273 N 
ATOM      3  C   UNL d   1      -2.768   4.484  -0.104  0.00  0.00     0.028 C 
ATOM      4  C   UNL d   1      -2.989   5.982  -0.098  0.00  0.00     0.130 C 
ATOM      5  C   UNL d   1      -3.992   3.601  -0.262  0.00  0.00     0.130 C 
ATOM      6  S   UNL d   1      -3.968   6.524   1.326  0.00  0.00    -0.148 SA
ATOM      7  C   UNL d   1      -5.470   5.518   1.113  0.00  0.00     0.105 C 
ATOM      8  S   UNL d   1      -5.085   3.744   1.176  0.00  0.00    -0.148 SA
ATOM      9  C   UNL d   1      -6.277   5.898  -0.124  0.00  0.00     0.033 C 
ATOM     10  HN  UNL d   1      -0.720   4.653   0.052  1.00  0.00     0.193 HD
ENDBRANCH   1   2
BRANCH   1  11
ATOM     11  C   UNL d   1      -0.145   2.185  -0.053  0.00  0.00     0.243 C 
BRANCH  11  12
ATOM     12  C   UNL d   1       0.190   1.346  -1.265  0.00  0.00     0.011 A 
ATOM     13  C   UNL d   1       1.255   1.671  -2.124  0.00  0.00     0.044 A 
ATOM     14 CL   UNL d   1       2.264   3.055  -1.875  0.00  0.00    -0.084 Cl
ATOM     15  C   UNL d   1       1.562   0.872  -3.235  0.00  0.00     0.024 A 
ATOM     16  C   UNL d   1       0.810  -0.263  -3.518  0.00  0.00     0.003 A 
ATOM     17  C   UNL d   1      -0.250  -0.603  -2.685  0.00  0.00     0.024 A 
ATOM     18  C   UNL d   1      -0.554   0.185  -1.569  0.00  0.00     0.044 A 
ATOM     19 CL   UNL d   1      -1.868  -0.357  -0.579  0.00  0.00    -0.084 Cl
ENDBRANCH  11  12
ENDBRANCH   1  11
TORSDOF 3
