REMARK  2 active torsions:
REMARK  status: ('A' for Active; 'I' for Inactive)
REMARK    1  A    between atoms: C_3  and  C_5 
REMARK    2  A    between atoms: S_12  and  C_4 
ROOT
ATOM      1  N   UNL d   1       1.231   0.575   0.033  0.00  0.00    -0.336 N 
ATOM      2  HN  UNL d   1       2.152   1.012   0.053  1.00  0.00     0.168 HD
ATOM      3  C   UNL d   1       0.106   1.306   0.019  0.00  0.00     0.144 A 
ATOM      4  C   UNL d   1       1.086  -0.765   0.019  0.00  0.00     0.046 A 
ATOM      5  N   UNL d   1      -1.136   0.794  -0.017  0.00  0.00    -0.347 N 
ATOM      6  HN  UNL d   1      -1.962   1.392  -0.025  1.00  0.00     0.167 HD
ATOM      7  C   UNL d   1      -0.144  -1.383  -0.024  0.00  0.00     0.047 A 
ATOM      8  C   UNL d   1      -1.232  -0.545  -0.042  0.00  0.00     0.092 A 
ENDROOT
BRANCH   4   9
ATOM      9  C   UNL d   1       2.317  -1.552   0.062  0.00  0.00    -0.002 A 
ATOM     10  C   UNL d   1       3.510  -1.062  -0.441  0.00  0.00     0.063 A 
ATOM     11  S   UNL d   1       4.800  -2.178  -0.295  0.00  0.00    -0.113 SA
ATOM     12  C   UNL d   1       3.791  -3.325   0.469  0.00  0.00     0.050 A 
ATOM     13  C   UNL d   1       2.498  -2.869   0.602  0.00  0.00     0.021 A 
ENDBRANCH   4   9
BRANCH   3  14
ATOM     14  S   UNL d   1       0.321   3.068   0.054  0.00  0.00    -0.098 SA
ATOM     15  C   UNL d   1      -1.403   3.610   0.010  0.00  0.00     0.099 C 
ENDBRANCH   3  14
TORSDOF 2
