REMARK  5 active torsions:
REMARK  status: ('A' for Active; 'I' for Inactive)
REMARK    1  A    between atoms: C_2  and  C_1 
REMARK    2  A    between atoms: C_6  and  C_2 
REMARK    3  A    between atoms: C_3  and  C_8 
REMARK    4  A    between atoms: S_11  and  C_4 
REMARK    5  A    between atoms: S_12  and  C_4 
ROOT
ATOM      1  C   UNL d   1       0.945  -0.089   0.008  0.00  0.00     0.118 C 
ATOM      2  C   UNL d   1       2.282  -0.122   0.274  0.00  0.00     0.061 C 
ATOM      3  C   UNL d   1       0.140  -1.231   0.313  0.00  0.00     0.105 C 
ATOM      4  N   UNL d   1      -0.532  -2.143   0.555  0.00  0.00    -0.191 NA
ENDROOT
BRANCH   1   5
ATOM      5  C   UNL d   1       0.258   1.115  -0.601  0.00  0.00     0.204 C 
ATOM      6  O   UNL d   1       0.865   1.945  -1.278  0.00  0.00    -0.286 OA
BRANCH   5   7
ATOM      7  C   UNL d   1      -1.205   1.370  -0.447  0.00  0.00     0.016 A 
ATOM      8  C   UNL d   1      -2.197   0.410  -0.684  0.00  0.00     0.031 A 
ATOM      9  C   UNL d   1      -3.562   0.733  -0.555  0.00  0.00     0.048 A 
ATOM     10  C   UNL d   1      -3.926   2.056  -0.264  0.00  0.00     0.016 A 
ATOM     11  C   UNL d   1      -2.948   3.033  -0.089  0.00  0.00     0.002 A 
ATOM     12  C   UNL d   1      -1.597   2.690  -0.174  0.00  0.00     0.015 A 
BRANCH   9  13
ATOM     13  C   UNL d   1      -4.633  -0.317  -0.743  0.00  0.00     0.417 C 
ATOM     14  F   UNL d   1      -4.139  -1.575  -0.898  0.00  0.00    -0.166 F 
ATOM     15  F   UNL d   1      -5.491  -0.378   0.312  0.00  0.00    -0.166 F 
ATOM     16  F   UNL d   1      -5.404  -0.079  -1.840  0.00  0.00    -0.166 F 
ENDBRANCH   9  13
ENDBRANCH   5   7
ENDBRANCH   1   5
BRANCH   2  17
ATOM     17  S   UNL d   1       3.021  -1.596   0.936  0.00  0.00    -0.126 SA
ATOM     18  C   UNL d   1       4.575  -1.732   0.022  0.00  0.00     0.096 C 
ENDBRANCH   2  17
BRANCH   2  19
ATOM     19  S   UNL d   1       3.302   1.312   0.288  0.00  0.00    -0.126 SA
ATOM     20  C   UNL d   1       3.863   1.386  -1.429  0.00  0.00     0.096 C 
ENDBRANCH   2  19
TORSDOF 5
