REMARK  3 active torsions:
REMARK  status: ('A' for Active; 'I' for Inactive)
REMARK    1  A    between atoms: C_7  and  C_1 
REMARK       I    between atoms: N_10  and  C_7 
REMARK    2  A    between atoms: C_19  and  N_10 
REMARK    3  A    between atoms: C_18  and  C_19 
ROOT
ATOM      1  C   UNL d   1      -0.213  -2.459  -0.005  0.00  0.00     0.262 C 
ATOM      2  N   UNL d   1       0.745  -3.458  -0.014  0.00  0.00    -0.352 N 
ATOM      3  O   UNL d   1       0.131  -1.279  -0.005  0.00  0.00    -0.267 OA
ATOM      4  H   UNL d   1       0.475  -4.432  -0.037  0.00  0.00     0.163 HD
ENDROOT
BRANCH   2   5
ATOM      5  C   UNL d   1       2.144  -3.108  -0.026  0.00  0.00     0.161 C 
BRANCH   5   6
ATOM      6  C   UNL d   1       3.041  -4.314   0.042  0.00  0.00    -0.038 A 
ATOM      7  C   UNL d   1       3.420  -4.840   1.289  0.00  0.00     0.048 A 
ATOM      8  C   UNL d   1       4.272  -5.924   1.308  0.00  0.00     0.105 A 
ATOM      9  O   UNL d   1       4.745  -6.542   2.424  0.00  0.00    -0.323 OA
ATOM     10  C   UNL d   1       4.744  -6.497   0.151  0.00  0.00     0.105 A 
ATOM     11  C   UNL d   1       5.539  -7.594   1.835  0.00  0.00     0.352 A 
ATOM     12  O   UNL d   1       5.573  -7.547   0.393  0.00  0.00    -0.323 OA
ATOM     13  C   UNL d   1       4.386  -6.020  -1.090  0.00  0.00     0.040 A 
ATOM     14  C   UNL d   1       3.520  -4.921  -1.143  0.00  0.00     0.012 A 
ENDBRANCH   5   6
ENDBRANCH   2   5
BRANCH   1  15
ATOM     15  C   UNL d   1      -1.601  -2.868   0.003  0.00  0.00     0.114 A 
ATOM     16  C   UNL d   1      -2.762  -2.099   0.015  0.00  0.00     0.046 A 
ATOM     17  N   UNL d   1      -3.944  -2.837   0.024  0.00  0.00    -0.298 N 
ATOM     18  C   UNL d   1      -2.904  -0.618   0.026  0.00  0.00     0.071 C 
ATOM     19  N   UNL d   1      -3.719  -4.137   0.017  0.00  0.00    -0.269 N 
ATOM     20  HN  UNL d   1      -4.875  -2.420   0.034  1.00  0.00     0.187 HD
ATOM     21  S   UNL d   1      -2.095  -4.510   0.002  0.00  0.00     0.009 SA
ATOM     22  HN  UNL d   1      -4.459  -4.839   0.020  1.00  0.00     0.195 HD
ENDBRANCH   1  15
TORSDOF 3
