REMARK  4 active torsions:
REMARK  status: ('A' for Active; 'I' for Inactive)
REMARK    1  A    between atoms: C_9  and  C_1 
REMARK    2  A    between atoms: C_10  and  C_1 
REMARK    3  A    between atoms: N_11  and  C_6 
REMARK    4  A    between atoms: C_12  and  C_7 
ROOT
ATOM      1  C   UNL d   1       1.413  -0.220   0.062  0.00  0.00     0.308 C 
ATOM      2  N   UNL d   1       0.827   1.115  -0.213  0.00  0.00    -0.314 N 
ATOM      3  HN  UNL d   1       1.439   1.911  -0.392  1.00  0.00     0.166 HD
ATOM      4  N   UNL d   1       0.410  -1.301  -0.100  0.00  0.00    -0.328 N 
ATOM      5  HN  UNL d   1       0.697  -2.274  -0.208  1.00  0.00     0.164 HD
ATOM      6  C   UNL d   1      -0.441   1.271  -0.225  0.00  0.00     0.226 C 
ATOM      7  C   UNL d   1      -0.824  -0.972  -0.100  0.00  0.00     0.160 C 
ATOM      8  O   UNL d   1      -1.315   0.267  -0.074  0.00  0.00    -0.262 OA
ENDROOT
BRANCH   1   9
ATOM      9  C   UNL d   1       2.578  -0.455  -0.962  0.00  0.00     0.441 C 
ATOM     10  F   UNL d   1       2.756   0.622  -1.779  0.00  0.00    -0.166 F 
ATOM     11  F   UNL d   1       3.789  -0.729  -0.442  0.00  0.00    -0.166 F 
ATOM     12  F   UNL d   1       2.291  -1.490  -1.804  0.00  0.00    -0.166 F 
ENDBRANCH   1   9
BRANCH   1  13
ATOM     13  C   UNL d   1       1.984  -0.244   1.520  0.00  0.00     0.441 C 
ATOM     14  F   UNL d   1       1.820   0.956   2.144  0.00  0.00    -0.166 F 
ATOM     15  F   UNL d   1       1.304  -1.137   2.295  0.00  0.00    -0.166 F 
ATOM     16  F   UNL d   1       3.285  -0.559   1.652  0.00  0.00    -0.166 F 
ENDBRANCH   1  13
BRANCH   6  17
ATOM     17  N   UNL d   1      -1.053   2.482  -0.426  0.00  0.00    -0.343 N 
ATOM     18  C   UNL d   1      -2.502   2.704  -0.348  0.00  0.00     0.152 C 
ATOM     19  C   UNL d   1      -2.978   3.480  -1.584  0.00  0.00     0.187 C 
ATOM     20  O   UNL d   1      -2.254   4.710  -1.738  0.00  0.00    -0.388 OA
ATOM     21  C   UNL d   1      -0.849   4.444  -1.888  0.00  0.00     0.187 C 
ATOM     22  C   UNL d   1      -0.285   3.712  -0.661  0.00  0.00     0.152 C 
ENDBRANCH   6  17
BRANCH   7  23
ATOM     23  C   UNL d   1      -1.925  -1.947  -0.281  0.00  0.00     0.021 A 
ATOM     24  C   UNL d   1      -3.170  -1.887   0.378  0.00  0.00    -0.048 A 
ATOM     25  C   UNL d   1      -3.550  -0.878   1.427  0.00  0.00     0.049 C 
ATOM     26  C   UNL d   1      -4.140  -2.856   0.054  0.00  0.00     0.007 A 
ATOM     27  C   UNL d   1      -3.892  -3.842  -0.902  0.00  0.00     0.001 A 
ATOM     28  C   UNL d   1      -2.659  -3.896  -1.540  0.00  0.00     0.001 A 
ATOM     29  C   UNL d   1      -1.677  -2.961  -1.224  0.00  0.00     0.016 A 
ENDBRANCH   7  23
TORSDOF 4
