REMARK  7 active torsions:
REMARK  status: ('A' for Active; 'I' for Inactive)
REMARK    1  A    between atoms: C_11  and  C_1 
REMARK    2  A    between atoms: C_3  and  C_2 
REMARK    3  A    between atoms: C_6  and  C_9 
REMARK    4  A    between atoms: C_7  and  C_10 
REMARK    5  A    between atoms: S_17  and  C_8 
REMARK    6  A    between atoms: O_30  and  C_11 
REMARK    7  A    between atoms: C_16  and  S_17 
ROOT
ATOM      1  C   UNL d   1      -0.255  -1.454  -0.246  0.00  0.00     0.086 A 
ATOM      2  C   UNL d   1      -0.197  -0.645  -1.365  0.00  0.00     0.136 A 
ATOM      3  N   UNL d   1      -0.042   0.715  -1.242  0.00  0.00    -0.332 N 
ATOM      4  HN  UNL d   1       0.023   1.310  -2.067  1.00  0.00     0.168 HD
ATOM      5  C   UNL d   1       0.022   1.240  -0.007  0.00  0.00     0.149 A 
ATOM      6  N   UNL d   1      -0.056   0.529   1.121  0.00  0.00    -0.345 N 
ATOM      7  HN  UNL d   1      -0.011   0.969   2.040  1.00  0.00     0.167 HD
ATOM      8  C   UNL d   1      -0.198  -0.810   0.974  0.00  0.00     0.110 A 
ENDROOT
BRANCH   5   9
ATOM      9  S   UNL d   1       0.278   2.989   0.123  0.00  0.00    -0.054 SA
BRANCH   9  10
ATOM     10  C   UNL d   1      -1.393   3.609   0.096  0.00  0.00     0.010 A 
ATOM     11  C   UNL d   1      -1.818   4.445   1.135  0.00  0.00     0.035 A 
ATOM     12  C   UNL d   1      -3.101   5.016   1.128  0.00  0.00     0.050 A 
ATOM     13  C   UNL d   1      -3.964   4.733   0.059  0.00  0.00     0.032 A 
ATOM     14  C   UNL d   1      -3.555   3.903  -0.998  0.00  0.00     0.050 A 
ATOM     15  C   UNL d   1      -2.262   3.352  -0.970  0.00  0.00     0.035 A 
BRANCH  12  16
ATOM     16  C   UNL d   1      -3.518   5.936   2.252  0.00  0.00     0.417 C 
ATOM     17  F   UNL d   1      -4.779   6.428   2.110  0.00  0.00    -0.166 F 
ATOM     18  F   UNL d   1      -3.491   5.320   3.466  0.00  0.00    -0.166 F 
ATOM     19  F   UNL d   1      -2.704   7.021   2.362  0.00  0.00    -0.166 F 
ENDBRANCH  12  16
BRANCH  14  20
ATOM     20  C   UNL d   1      -4.470   3.616  -2.165  0.00  0.00     0.417 C 
ATOM     21  F   UNL d   1      -5.691   4.209  -2.055  0.00  0.00    -0.166 F 
ATOM     22  F   UNL d   1      -3.953   4.044  -3.349  0.00  0.00    -0.166 F 
ATOM     23  F   UNL d   1      -4.714   2.285  -2.318  0.00  0.00    -0.166 F 
ENDBRANCH  14  20
ENDBRANCH   9  10
ENDBRANCH   5   9
BRANCH   2  24
ATOM     24  C   UNL d   1      -0.341  -1.160  -2.783  0.00  0.00     0.433 C 
ATOM     25  F   UNL d   1      -0.804  -2.433  -2.909  0.00  0.00    -0.165 F 
ATOM     26  F   UNL d   1      -1.228  -0.408  -3.506  0.00  0.00    -0.165 F 
ATOM     27  F   UNL d   1       0.832  -1.113  -3.477  0.00  0.00    -0.165 F 
ENDBRANCH   2  24
BRANCH   1  28
ATOM     28  C   UNL d   1      -0.426  -2.911  -0.218  0.00  0.00     0.296 C 
ATOM     29  O   UNL d   1      -1.185  -3.458   0.561  0.00  0.00    -0.259 OA
BRANCH  28  30
ATOM     30  O   UNL d   1       0.423  -3.506  -1.085  0.00  0.00    -0.322 OA
ATOM     31  C   UNL d   1       0.263  -4.931  -1.165  0.00  0.00     0.213 C 
ENDBRANCH  28  30
ENDBRANCH   1  28
TORSDOF 7
