REMARK  1 active torsions:
REMARK  status: ('A' for Active; 'I' for Inactive)
REMARK    1  A    between atoms: C_3  and  C_1 
ROOT
ATOM      1  C   UNL d   1      -1.282  -1.520   0.113  0.00  0.00     0.110 C 
ATOM      2  C   UNL d   1      -0.011  -0.695  -0.060  0.00  0.00     0.024 C 
ATOM      3  C   UNL d   1      -2.555  -0.676  -0.052  0.00  0.00     0.058 C 
ATOM      4  C   UNL d   1      -0.041   0.654  -0.091  0.00  0.00     0.020 C 
ATOM      5  N   UNL d   1      -1.255   1.315  -0.052  0.00  0.00    -0.362 N 
ATOM      6  C   UNL d   1      -2.485   0.678  -0.085  0.00  0.00     0.023 C 
ATOM      7  C   UNL d   1      -3.806  -1.365  -0.116  0.00  0.00     0.098 C 
ATOM      8  C   UNL d   1       1.282  -1.421  -0.200  0.00  0.00     0.158 C 
ATOM      9  N   UNL d   1      -4.823  -1.915  -0.182  0.00  0.00    -0.192 NA
ATOM     10  O   UNL d   1       1.309  -2.650  -0.233  0.00  0.00    -0.293 OA
ATOM     11  C   UNL d   1       1.209   1.500  -0.132  0.00  0.00     0.058 C 
ATOM     12  C   UNL d   1      -3.714   1.551  -0.126  0.00  0.00     0.069 C 
ATOM     13  C   UNL d   1       2.538  -0.608  -0.414  0.00  0.00     0.084 C 
ATOM     14  C   UNL d   1       2.448   0.725   0.308  0.00  0.00     0.014 C 
ATOM     15  H   UNL d   1      -1.244   2.331  -0.097  0.00  0.00     0.165 HD
ENDROOT
BRANCH   1  16
ATOM     16  C   UNL d   1      -1.296  -2.283   1.435  0.00  0.00    -0.003 A 
ATOM     17  S   UNL d   1      -1.240  -1.431   2.922  0.00  0.00    -0.092 SA
ATOM     18  C   UNL d   1      -1.284  -2.871   3.850  0.00  0.00     0.022 A 
ATOM     19  C   UNL d   1      -1.243  -2.821   5.292  0.00  0.00     0.021 A 
ATOM     20  C   UNL d   1      -1.347  -3.981   3.027  0.00  0.00     0.021 A 
ATOM     21  S   UNL d   1      -0.606  -4.118   6.221  0.00  0.00    -0.101 SA
ATOM     22  C   UNL d   1      -1.657  -1.786   6.115  0.00  0.00     0.021 A 
ATOM     23  C   UNL d   1      -0.869  -3.292   7.692  0.00  0.00     0.050 A 
ATOM     24  C   UNL d   1      -1.440  -2.057   7.496  0.00  0.00     0.008 A 
ATOM     25  C   UNL d   1      -1.353  -3.646   1.641  0.00  0.00     0.017 A 
ENDBRANCH   1  16
TORSDOF 1
