REMARK  2 active torsions:
REMARK  status: ('A' for Active; 'I' for Inactive)
REMARK    1  A    between atoms: C_2  and  C_1 
REMARK       I    between atoms: N_4  and  C_2 
REMARK    2  A    between atoms: C_7  and  C_3 
ROOT
ATOM      1  C   UNL d   1       1.036  -0.156  -0.115  0.00  0.00     0.113 C 
ATOM      2  C   UNL d   1       0.274   0.952  -0.216  0.00  0.00     0.047 C 
ATOM      3  C   UNL d   1       0.554  -1.462  -0.400  0.00  0.00     0.105 C 
ATOM      4  N   UNL d   1       0.147  -2.534  -0.576  0.00  0.00    -0.191 NA
ENDROOT
BRANCH   1   5
ATOM      5  C   UNL d   1       2.486   0.071   0.185  0.00  0.00     0.264 C 
ATOM      6  N   UNL d   1       3.202  -0.829   0.956  0.00  0.00    -0.343 N 
ATOM      7  C   UNL d   1       2.710  -2.003   1.697  0.00  0.00     0.152 C 
ATOM      8  C   UNL d   1       4.646  -0.610   1.137  0.00  0.00     0.152 C 
ATOM      9  C   UNL d   1       3.173  -1.971   3.160  0.00  0.00     0.187 C 
ATOM     10  O   UNL d   1       4.590  -1.791   3.268  0.00  0.00    -0.388 OA
ATOM     11  C   UNL d   1       4.998  -0.573   2.625  0.00  0.00     0.187 C 
ATOM     12  O   UNL d   1       3.019   1.095  -0.256  0.00  0.00    -0.267 OA
ENDBRANCH   1   5
BRANCH   2  13
ATOM     13  C   UNL d   1      -1.121   0.932  -0.519  0.00  0.00     0.006 A 
ATOM     14  S   UNL d   1      -1.750   2.042  -1.677  0.00  0.00    -0.102 SA
ATOM     15  C   UNL d   1      -3.332   1.411  -1.537  0.00  0.00     0.050 A 
ATOM     16  C   UNL d   1      -3.406   0.410  -0.599  0.00  0.00     0.008 A 
ATOM     17  C   UNL d   1      -2.139   0.148  -0.001  0.00  0.00     0.019 A 
ENDBRANCH   2  13
TORSDOF 2
