REMARK  9 active torsions:
REMARK  status: ('A' for Active; 'I' for Inactive)
REMARK    1  A    between atoms: N_2  and  C_1 
REMARK    2  A    between atoms: C_3  and  C_1 
REMARK    3  A    between atoms: C_4  and  C_1 
REMARK    4  A    between atoms: N_5  and  C_1 
REMARK       I    between atoms: C_6  and  N_2 
REMARK    5  A    between atoms: O_14  and  C_4 
REMARK    6  A    between atoms: C_12  and  N_5 
REMARK    7  A    between atoms: O_13  and  C_6 
REMARK    8  A    between atoms: C_21  and  O_13 
REMARK    9  A    between atoms: C_22  and  O_14 
ROOT
ATOM      1  C   UNL d   1       0.878   0.171  -0.009  0.00  0.00     0.282 C 
ENDROOT
BRANCH   1   2
ATOM      2  N   UNL d   1       0.342   1.464  -0.379  0.00  0.00    -0.298 N 
ATOM      3  C   UNL d   1      -0.984   1.682  -0.491  0.00  0.00     0.362 C 
ATOM      4  O   UNL d   1      -1.834   0.803  -0.432  0.00  0.00    -0.238 OA
ATOM      5  H   UNL d   1       0.958   2.259  -0.344  0.00  0.00     0.167 HD
BRANCH   3   6
ATOM      6  O   UNL d   1      -1.199   2.992  -0.718  0.00  0.00    -0.304 OA
BRANCH   6   7
ATOM      7  C   UNL d   1      -2.524   3.325  -1.151  0.00  0.00     0.176 C 
ATOM      8  C   UNL d   1      -2.550   3.239  -2.664  0.00  0.00     0.034 C 
ENDBRANCH   6   7
ENDBRANCH   3   6
ENDBRANCH   1   2
BRANCH   1   9
ATOM      9  C   UNL d   1       0.319  -1.113  -0.727  0.00  0.00     0.436 C 
ATOM     10  F   UNL d   1      -0.325  -0.825  -1.886  0.00  0.00    -0.166 F 
ATOM     11  F   UNL d   1       1.333  -1.958  -1.070  0.00  0.00    -0.166 F 
ATOM     12  F   UNL d   1      -0.529  -1.843   0.033  0.00  0.00    -0.166 F 
ENDBRANCH   1   9
BRANCH   1  13
ATOM     13  C   UNL d   1       0.550  -0.026   1.499  0.00  0.00     0.312 C 
ATOM     14  O   UNL d   1      -0.172   0.715   2.170  0.00  0.00    -0.260 OA
BRANCH  13  15
ATOM     15  O   UNL d   1       1.222  -1.095   2.020  0.00  0.00    -0.319 OA
BRANCH  15  16
ATOM     16  C   UNL d   1       0.928  -1.359   3.402  0.00  0.00     0.174 C 
ATOM     17  C   UNL d   1       1.774  -0.467   4.292  0.00  0.00     0.034 C 
ENDBRANCH  15  16
ENDBRANCH  13  15
ENDBRANCH   1  13
BRANCH   1  18
ATOM     18  N   UNL d   1       2.358   0.386  -0.143  0.00  0.00    -0.250 NA
ATOM     19  H   UNL d   1       2.873  -0.260   0.459  0.00  0.00     0.131 HD
BRANCH  18  20
ATOM     20  C   UNL d   1       3.004   0.525  -1.376  0.00  0.00     0.011 A 
ATOM     21  C   UNL d   1       2.348   0.729  -2.597  0.00  0.00     0.026 A 
ATOM     22  C   UNL d   1       3.061   0.927  -3.784  0.00  0.00     0.044 A 
ATOM     23  C   UNL d   1       4.445   0.965  -3.754  0.00  0.00     0.116 A 
ATOM     24  C   UNL d   1       5.128   0.811  -2.557  0.00  0.00     0.044 A 
ATOM     25  F   UNL d   1       5.127   1.167  -4.888  0.00  0.00    -0.206 F 
ATOM     26  C   UNL d   1       4.408   0.599  -1.377  0.00  0.00     0.026 A 
ENDBRANCH  18  20
ENDBRANCH   1  18
TORSDOF 9
