REMARK  4 active torsions:
REMARK  status: ('A' for Active; 'I' for Inactive)
REMARK    1  A    between atoms: C_8  and  C_1 
REMARK    2  A    between atoms: N_12  and  C_2 
REMARK    3  A    between atoms: S_3  and  N_6 
REMARK    4  A    between atoms: C_14  and  S_3 
REMARK       I    between atoms: N_6  and  C_9 
REMARK       I    between atoms: C_9  and  N_12 
ROOT
ATOM      1  C   UNL d   1      -1.187  -0.623   0.722  0.00  0.00     0.097 A 
ATOM      2  C   UNL d   1      -0.067  -0.848  -0.169  0.00  0.00     0.097 A 
ATOM      3  N   UNL d   1      -1.510   0.683   0.708  0.00  0.00    -0.258 N 
ATOM      4  HN  UNL d   1      -2.245   1.129   1.257  1.00  0.00     0.195 HD
ATOM      5  C   UNL d   1       0.136   0.388  -0.754  0.00  0.00     0.101 A 
ATOM      6  O   UNL d   1      -0.675   1.302  -0.177  0.00  0.00    -0.240 OA
ATOM      7  C   UNL d   1       0.866   0.875  -1.940  0.00  0.00     0.081 C 
ENDROOT
BRANCH   2   8
ATOM      8  N   UNL d   1       0.386  -2.021  -0.751  0.00  0.00    -0.304 N 
ATOM      9  C   UNL d   1       1.381  -2.881  -0.353  0.00  0.00     0.332 C 
ATOM     10  N   UNL d   1       2.483  -2.515   0.429  0.00  0.00    -0.265 N 
ATOM     11  O   UNL d   1       1.250  -4.013  -0.809  0.00  0.00    -0.246 OA
ATOM     12  HN  UNL d   1       2.703  -1.537   0.621  1.00  0.00     0.180 HD
ATOM     13  H   UNL d   1      -0.364  -2.634  -1.050  0.00  0.00     0.171 HD
BRANCH  10  14
ATOM     14  S   UNL d   1       3.353  -3.676   0.991  0.00  0.00     0.056 S 
ATOM     15  O   UNL d   1       2.804  -4.789   1.751  0.00  0.00    -0.245 OA
ATOM     16  C   UNL d   1       4.665  -3.046   2.004  0.00  0.00     0.142 C 
BRANCH  14  17
ATOM     17  C   UNL d   1       4.239  -4.392  -0.403  0.00  0.00     0.038 A 
ATOM     18  C   UNL d   1       5.104  -3.599  -1.164  0.00  0.00     0.022 A 
ATOM     19  C   UNL d   1       5.745  -4.152  -2.276  0.00  0.00     0.001 A 
ATOM     20  C   UNL d   1       5.519  -5.485  -2.624  0.00  0.00     0.000 A 
ATOM     21  C   UNL d   1       4.663  -6.275  -1.855  0.00  0.00     0.001 A 
ATOM     22  C   UNL d   1       4.024  -5.732  -0.739  0.00  0.00     0.022 A 
ENDBRANCH  14  17
ENDBRANCH  10  14
ENDBRANCH   2   8
BRANCH   1  23
ATOM     23  C   UNL d   1      -2.037  -1.530   1.521  0.00  0.00     0.038 A 
ATOM     24  C   UNL d   1      -2.466  -1.153   2.821  0.00  0.00     0.048 A 
ATOM     25 CL   UNL d   1      -1.909   0.269   3.651  0.00  0.00    -0.083 Cl
ATOM     26  C   UNL d   1      -3.385  -1.929   3.547  0.00  0.00     0.025 A 
ATOM     27  C   UNL d   1      -3.860  -3.126   3.031  0.00  0.00     0.003 A 
ATOM     28  C   UNL d   1      -3.436  -3.534   1.774  0.00  0.00     0.025 A 
ATOM     29  C   UNL d   1      -2.565  -2.735   1.011  0.00  0.00     0.048 A 
ATOM     30 CL   UNL d   1      -2.316  -3.299  -0.608  0.00  0.00    -0.083 Cl
ENDBRANCH   1  23
TORSDOF 4
