REMARK  6 active torsions:
REMARK  status: ('A' for Active; 'I' for Inactive)
REMARK    1  A    between atoms: C_2  and  C_1 
REMARK    2  A    between atoms: C_5  and  C_1 
REMARK    3  A    between atoms: C_4  and  C_2 
REMARK    4  A    between atoms: S_11  and  C_3 
REMARK    5  A    between atoms: S_12  and  C_3 
REMARK    6  A    between atoms: N_6  and  C_5 
ROOT
ATOM      1  C   UNL d   1       1.051   0.080  -0.032  0.00  0.00     0.100 C 
ATOM      2  C   UNL d   1       0.448  -0.455  -1.132  0.00  0.00     0.059 C 
ENDROOT
BRANCH   1   3
ATOM      3  C   UNL d   1       0.338   0.865   1.044  0.00  0.00     0.205 C 
ATOM      4  O   UNL d   1      -0.779   1.330   0.885  0.00  0.00    -0.286 OA
BRANCH   3   5
ATOM      5  C   UNL d   1       1.004   1.050   2.369  0.00  0.00     0.037 A 
ATOM      6  C   UNL d   1       0.825   2.217   3.132  0.00  0.00     0.048 A 
ATOM      7 CL   UNL d   1      -0.158   3.554   2.645  0.00  0.00    -0.083 Cl
ATOM      8  C   UNL d   1       1.488   2.359   4.357  0.00  0.00     0.025 A 
ATOM      9  C   UNL d   1       2.333   1.356   4.827  0.00  0.00     0.002 A 
ATOM     10  C   UNL d   1       2.482   0.180   4.099  0.00  0.00     0.001 A 
ATOM     11  C   UNL d   1       1.800   0.014   2.895  0.00  0.00     0.017 A 
ENDBRANCH   3   5
ENDBRANCH   1   3
BRANCH   1  12
ATOM     12  C   UNL d   1       2.571   0.080  -0.032  0.00  0.00    -0.031 C 
BRANCH  12  13
ATOM     13  N   UNL d   1       3.832   0.080  -0.032  0.00  0.00    -0.365 N 
ATOM     14  HN2 UNL d   1       2.812   0.080  -0.032  1.00  0.00     0.165 HD
ATOM     15  HN1 UNL d   1       4.852   0.080  -0.032  1.00  0.00     0.165 HD
ENDBRANCH  12  13
ENDBRANCH   1  12
BRANCH   2  16
ATOM     16  S   UNL d   1       1.389  -1.455  -2.269  0.00  0.00    -0.126 SA
ATOM     17  C   UNL d   1       0.170  -2.610  -2.950  0.00  0.00     0.096 C 
ENDBRANCH   2  16
BRANCH   2  18
ATOM     18  S   UNL d   1      -1.208  -0.114  -1.605  0.00  0.00    -0.126 SA
ATOM     19  C   UNL d   1      -0.880   1.270  -2.743  0.00  0.00     0.096 C 
ENDBRANCH   2  18
TORSDOF 6
