REMARK  4 active torsions:
REMARK  status: ('A' for Active; 'I' for Inactive)
REMARK    1  A    between atoms: C_5  and  C_1 
REMARK    2  A    between atoms: N_12  and  C_4 
REMARK    3  A    between atoms: C_22  and  N_12 
REMARK    4  A    between atoms: C_20  and  C_22 
ROOT
ATOM      1  N   UNL d   1       1.053   2.583  -0.130  0.00  0.00    -0.329 N 
ATOM      2  HN  UNL d   1       1.643   2.480  -0.955  1.00  0.00     0.168 HD
ATOM      3  C   UNL d   1       0.945   3.759   0.497  0.00  0.00     0.157 A 
ATOM      4  C   UNL d   1       0.351   1.530   0.365  0.00  0.00     0.120 A 
ATOM      5  N   UNL d   1       0.164   3.962   1.565  0.00  0.00    -0.343 N 
ATOM      6  HN  UNL d   1       0.091   4.881   2.002  1.00  0.00     0.167 HD
ATOM      7  C   UNL d   1      -0.463   1.656   1.475  0.00  0.00     0.051 A 
ATOM      8  C   UNL d   1      -0.521   2.906   2.036  0.00  0.00     0.093 A 
ENDROOT
BRANCH   3   9
ATOM      9  N   UNL d   1       1.724   4.778  -0.012  0.00  0.00    -0.260 NA
ATOM     10  H   UNL d   1       1.990   4.525  -0.956  0.00  0.00     0.130 HD
BRANCH   9  11
ATOM     11  C   UNL d   1       1.203   6.116   0.156  0.00  0.00     0.134 C 
BRANCH  11  12
ATOM     12  C   UNL d   1       2.177   7.104  -0.453  0.00  0.00    -0.042 A 
ATOM     13  C   UNL d   1       3.499   7.168   0.024  0.00  0.00     0.048 A 
ATOM     14  C   UNL d   1       4.360   8.076  -0.554  0.00  0.00     0.105 A 
ATOM     15  O   UNL d   1       5.665   8.258  -0.219  0.00  0.00    -0.323 OA
ATOM     16  C   UNL d   1       3.955   8.913  -1.565  0.00  0.00     0.105 A 
ATOM     17  C   UNL d   1       6.040   9.294  -1.149  0.00  0.00     0.352 A 
ATOM     18  O   UNL d   1       4.955   9.728  -1.995  0.00  0.00    -0.323 OA
ATOM     19  C   UNL d   1       2.668   8.888  -2.056  0.00  0.00     0.040 A 
ATOM     20  C   UNL d   1       1.771   7.973  -1.493  0.00  0.00     0.011 A 
ENDBRANCH  11  12
ENDBRANCH   9  11
ENDBRANCH   3   9
BRANCH   4  21
ATOM     21  C   UNL d   1       0.471   0.174  -0.307  0.00  0.00     0.432 C 
ATOM     22  F   UNL d   1       1.262   0.161  -1.417  0.00  0.00    -0.165 F 
ATOM     23  F   UNL d   1      -0.740  -0.312  -0.709  0.00  0.00    -0.165 F 
ATOM     24  F   UNL d   1       0.983  -0.777   0.528  0.00  0.00    -0.165 F 
ENDBRANCH   4  21
TORSDOF 4
