REMARK  6 active torsions:
REMARK  status: ('A' for Active; 'I' for Inactive)
REMARK    1  A    between atoms: C_2  and  S_1 
REMARK    2  A    between atoms: C_5  and  S_1 
REMARK    3  A    between atoms: C_4  and  C_3 
REMARK    4  A    between atoms: C_19  and  C_9 
REMARK    5  A    between atoms: C_16  and  O_18 
REMARK    6  A    between atoms: O_18  and  C_19 
ROOT
ATOM      1  C   UNL d   1       0.414  -0.385  -1.606  0.00  0.00     0.148 C 
ATOM      2  C   UNL d   1      -0.505  -1.336  -1.850  0.00  0.00     0.072 C 
ATOM      3  C   UNL d   1       0.838   0.439  -2.684  0.00  0.00     0.112 C 
ATOM      4  N   UNL d   1       1.113   1.085  -3.607  0.00  0.00    -0.191 NA
ENDROOT
BRANCH   1   5
ATOM      5  S   UNL d   1       0.988   0.108  -0.056  0.00  0.00     0.232 S 
ATOM      6  O   UNL d   1      -0.085   0.837   0.609  0.00  0.00    -0.215 OA
ATOM      7  O   UNL d   1       2.281   0.761  -0.200  0.00  0.00    -0.215 OA
BRANCH   5   8
ATOM      8  C   UNL d   1       1.310  -1.346   0.935  0.00  0.00     0.134 A 
ATOM      9  N   UNL d   1       2.166  -2.247   0.379  0.00  0.00    -0.356 N 
ATOM     10  C   UNL d   1       2.471  -3.313   1.156  0.00  0.00     0.089 A 
ATOM     11  HN  UNL d   1       2.550  -2.127  -0.558  1.00  0.00     0.166 HD
ATOM     12  C   UNL d   1       1.951  -3.523   2.427  0.00  0.00     0.017 A 
ATOM     13  C   UNL d   1       1.070  -2.582   2.952  0.00  0.00     0.004 A 
ATOM     14  C   UNL d   1       0.744  -1.460   2.199  0.00  0.00     0.042 A 
ENDBRANCH   5   8
ENDBRANCH   1   5
BRANCH   2  15
ATOM     15  C   UNL d   1      -1.119  -2.187  -0.903  0.00  0.00     0.077 A 
ATOM     16  O   UNL d   1      -2.342  -1.922  -0.337  0.00  0.00    -0.313 OA
ATOM     17  C   UNL d   1      -2.685  -2.977   0.456  0.00  0.00     0.078 A 
ATOM     18  C   UNL d   1      -1.687  -3.922   0.437  0.00  0.00     0.038 A 
ATOM     19  C   UNL d   1      -0.716  -3.442  -0.469  0.00  0.00     0.040 A 
BRANCH  17  20
ATOM     20  C   UNL d   1      -4.012  -2.934   1.119  0.00  0.00     0.243 C 
BRANCH  20  21
ATOM     21  O   UNL d   1      -4.113  -1.731   1.888  0.00  0.00    -0.315 OA
BRANCH  21  22
ATOM     22  C   UNL d   1      -3.589  -1.796   3.138  0.00  0.00     0.255 C 
ATOM     23  O   UNL d   1      -3.036  -2.769   3.632  0.00  0.00    -0.266 OA
ATOM     24  C   UNL d   1      -3.792  -0.498   3.859  0.00  0.00     0.126 C 
ENDBRANCH  21  22
ENDBRANCH  20  21
ENDBRANCH  17  20
ENDBRANCH   2  15
TORSDOF 6
