REMARK  3 active torsions:
REMARK  status: ('A' for Active; 'I' for Inactive)
REMARK    1  A    between atoms: C_7  and  C_1 
REMARK    2  A    between atoms: O_9  and  C_7 
REMARK    3  A    between atoms: C_14  and  O_9 
ROOT
ATOM      1  C   UNL d   1       0.029  -1.629   0.026  0.00  0.00     0.157 A 
ATOM      2  O   UNL d   1       0.019   1.294   0.069  0.00  0.00    -0.310 OA
ATOM      3  C   UNL d   1      -1.235  -0.796  -0.049  0.00  0.00    -0.006 A 
ATOM      4  C   UNL d   1       1.287  -0.794   0.024  0.00  0.00    -0.006 A 
ATOM      5  C   UNL d   1      -1.161   0.596   0.002  0.00  0.00     0.083 A 
ATOM      6  C   UNL d   1       1.203   0.601   0.046  0.00  0.00     0.083 A 
ATOM      7  C   UNL d   1      -2.498  -1.410  -0.113  0.00  0.00     0.011 A 
ATOM      8  C   UNL d   1       2.554  -1.399  -0.016  0.00  0.00     0.011 A 
ATOM      9  C   UNL d   1       2.363   1.379   0.043  0.00  0.00     0.038 A 
ATOM     10  C   UNL d   1      -2.327   1.364   0.008  0.00  0.00     0.038 A 
ATOM     11  C   UNL d   1      -3.662  -0.642  -0.091  0.00  0.00     0.001 A 
ATOM     12  C   UNL d   1       3.712  -0.618  -0.018  0.00  0.00     0.001 A 
ATOM     13  C   UNL d   1       3.616   0.771   0.013  0.00  0.00     0.003 A 
ATOM     14  C   UNL d   1      -3.577   0.747  -0.030  0.00  0.00     0.003 A 
ENDROOT
BRANCH   1  15
ATOM     15  C   UNL d   1      -0.038  -2.570   1.226  0.00  0.00     0.272 C 
ATOM     16  O   UNL d   1      -0.083  -3.791   1.129  0.00  0.00    -0.264 OA
BRANCH  15  17
ATOM     17  O   UNL d   1      -0.159  -1.876   2.396  0.00  0.00    -0.321 OA
BRANCH  17  18
ATOM     18  C   UNL d   1      -0.688  -2.613   3.505  0.00  0.00     0.174 C 
ATOM     19  C   UNL d   1      -2.205  -2.549   3.447  0.00  0.00     0.034 C 
ENDBRANCH  17  18
ENDBRANCH  15  17
ENDBRANCH   1  15
TORSDOF 3
