REMARK  5 active torsions:
REMARK  status: ('A' for Active; 'I' for Inactive)
REMARK    1  A    between atoms: C_5  and  C_1 
REMARK    2  A    between atoms: C_6  and  C_1 
REMARK    3  A    between atoms: O_8  and  N_2 
REMARK    4  A    between atoms: C_4  and  C_7 
REMARK    5  A    between atoms: C_7  and  O_8 
ROOT
ATOM      1  C   UNL d   1       1.001  -0.033   0.043  0.00  0.00     0.089 C 
ATOM      2  N   UNL d   1       0.263  -1.103   0.097  0.00  0.00    -0.255 N 
ATOM      3  HN  UNL d   1      -0.753  -1.062   0.187  1.00  0.00     0.195 HD
ENDROOT
BRANCH   2   4
ATOM      4  O   UNL d   1       0.962  -2.316   0.022  0.00  0.00    -0.194 OA
BRANCH   4   5
ATOM      5  C   UNL d   1       0.084  -3.336   0.237  0.00  0.00     0.321 C 
ATOM      6  O   UNL d   1      -0.747  -3.414   1.129  0.00  0.00    -0.257 OA
BRANCH   5   7
ATOM      7  C   UNL d   1       0.271  -4.366  -0.793  0.00  0.00     0.118 A 
ATOM      8  C   UNL d   1       0.458  -4.016  -2.131  0.00  0.00     0.135 A 
ATOM      9  F   UNL d   1       0.540  -2.734  -2.511  0.00  0.00    -0.205 F 
ATOM     10  C   UNL d   1       0.528  -4.994  -3.126  0.00  0.00     0.043 A 
ATOM     11  C   UNL d   1       0.402  -6.338  -2.786  0.00  0.00     0.006 A 
ATOM     12  C   UNL d   1       0.215  -6.700  -1.450  0.00  0.00     0.043 A 
ATOM     13  C   UNL d   1       0.147  -5.712  -0.464  0.00  0.00     0.135 A 
ATOM     14  F   UNL d   1      -0.028  -6.101   0.807  0.00  0.00    -0.205 F 
ENDBRANCH   5   7
ENDBRANCH   4   5
ENDBRANCH   2   4
BRANCH   1  15
ATOM     15  C   UNL d   1       0.301   1.256  -0.001  0.00  0.00     0.034 A 
ATOM     16  S   UNL d   1      -1.190   1.450   0.833  0.00  0.00    -0.100 SA
ATOM     17  C   UNL d   1      -1.361   3.065   0.307  0.00  0.00     0.050 A 
ATOM     18  C   UNL d   1      -0.315   3.462  -0.492  0.00  0.00     0.008 A 
ATOM     19  C   UNL d   1       0.637   2.418  -0.679  0.00  0.00     0.022 A 
ENDBRANCH   1  15
BRANCH   1  20
ATOM     20  C   UNL d   1       2.465   0.065   0.020  0.00  0.00     0.034 A 
ATOM     21  S   UNL d   1       3.452  -1.065  -0.817  0.00  0.00    -0.100 SA
ATOM     22  C   UNL d   1       4.896  -0.282  -0.354  0.00  0.00     0.050 A 
ATOM     23  C   UNL d   1       4.652   0.855   0.377  0.00  0.00     0.008 A 
ATOM     24  C   UNL d   1       3.259   1.046   0.604  0.00  0.00     0.022 A 
ENDBRANCH   1  20
TORSDOF 5
