REMARK  3 active torsions:
REMARK  status: ('A' for Active; 'I' for Inactive)
REMARK    1  A    between atoms: C_2  and  C_1 
REMARK    2  A    between atoms: C_5  and  C_2 
REMARK    3  A    between atoms: N_6  and  C_3 
ROOT
ATOM      1  C   UNL d   1       0.293   0.979   1.023  0.00  0.00     0.183 C 
ATOM      2  O   UNL d   1       0.831   1.356   2.057  0.00  0.00    -0.288 OA
ENDROOT
BRANCH   1   3
ATOM      3  C   UNL d   1       0.944   0.036   0.075  0.00  0.00     0.072 C 
ATOM      4  C   UNL d   1       2.276  -0.076   0.016  0.00  0.00     0.088 C 
BRANCH   4   5
ATOM      5  N   UNL d   1       3.052  -0.860  -0.829  0.00  0.00    -0.398 N 
ATOM      6  C   UNL d   1       2.521  -1.748  -1.862  0.00  0.00     0.148 C 
ATOM      7  C   UNL d   1       4.515  -0.800  -0.795  0.00  0.00     0.148 C 
ENDBRANCH   4   5
ENDBRANCH   1   3
BRANCH   1   8
ATOM      8  C   UNL d   1      -1.082   1.422   0.669  0.00  0.00     0.014 A 
ATOM      9  C   UNL d   1      -1.987   1.715   1.695  0.00  0.00     0.015 A 
ATOM     10  C   UNL d   1      -3.285   2.125   1.385  0.00  0.00     0.001 A 
ATOM     11  C   UNL d   1      -3.678   2.257   0.052  0.00  0.00     0.000 A 
ATOM     12  C   UNL d   1      -2.774   1.988  -0.974  0.00  0.00     0.001 A 
ATOM     13  C   UNL d   1      -1.476   1.577  -0.668  0.00  0.00     0.015 A 
ENDBRANCH   1   8
TORSDOF 3
