REMARK  5 active torsions:
REMARK  status: ('A' for Active; 'I' for Inactive)
REMARK    1  A    between atoms: C_10  and  C_1 
REMARK    2  A    between atoms: N_8  and  C_2 
REMARK    3  A    between atoms: C_15  and  C_4 
REMARK    4  A    between atoms: C_5  and  C_7 
REMARK       I    between atoms: C_7  and  N_8 
REMARK    5  A    between atoms: C_11  and  C_9 
REMARK       I    between atoms: N_19  and  C_10 
ROOT
ATOM      1  C   UNL d   1      -2.168   2.289  -0.061  0.00  0.00     0.113 C 
ATOM      2  C   UNL d   1      -3.507   2.092  -0.037  0.00  0.00     0.041 C 
ATOM      3  C   UNL d   1      -1.585   3.475  -0.585  0.00  0.00     0.105 C 
ATOM      4  N   UNL d   1      -1.113   4.445  -1.009  0.00  0.00    -0.191 NA
ENDROOT
BRANCH   1   5
ATOM      5  C   UNL d   1      -1.276   1.166   0.380  0.00  0.00     0.266 C 
ATOM      6  N   UNL d   1      -0.020   1.546   0.814  0.00  0.00    -0.321 N 
ATOM      7  H   UNL d   1       0.155   2.511   1.098  0.00  0.00     0.169 HD
ATOM      8  O   UNL d   1      -1.692   0.009   0.376  0.00  0.00    -0.267 OA
BRANCH   6   9
ATOM      9  C   UNL d   1       1.044   0.664   1.036  0.00  0.00     0.058 A 
ATOM     10  C   UNL d   1       2.115   0.990   1.853  0.00  0.00     0.099 A 
ATOM     11  S   UNL d   1       3.288  -0.252   1.884  0.00  0.00    -0.086 SA
ATOM     12  C   UNL d   1       2.430  -1.230   0.763  0.00  0.00    -0.007 A 
ATOM     13  C   UNL d   1       1.214  -0.637   0.455  0.00  0.00     0.046 A 
BRANCH  10  14
ATOM     14  C   UNL d   1       2.285   2.192   2.650  0.00  0.00     0.258 C 
ATOM     15  O   UNL d   1       1.553   3.176   2.557  0.00  0.00    -0.267 OA
ATOM     16  N   UNL d   1       3.299   2.187   3.570  0.00  0.00    -0.365 N 
ATOM     17  H   UNL d   1       3.866   1.363   3.721  0.00  0.00     0.159 HD
ATOM     18  H   UNL d   1       3.401   2.979   4.187  0.00  0.00     0.159 HD
ENDBRANCH  10  14
BRANCH  12  19
ATOM     19  C   UNL d   1       3.048  -2.542   0.258  0.00  0.00    -0.018 C 
ATOM     20  C   UNL d   1       3.202  -3.547   1.417  0.00  0.00     0.020 C 
ATOM     21  C   UNL d   1       2.169  -3.197  -0.827  0.00  0.00     0.020 C 
ATOM     22  C   UNL d   1       4.436  -2.279  -0.369  0.00  0.00     0.020 C 
ENDBRANCH  12  19
ENDBRANCH   6   9
ENDBRANCH   1   5
BRANCH   2  23
ATOM     23  C   UNL d   1      -4.485   3.077  -0.545  0.00  0.00    -0.011 A 
ATOM     24  C   UNL d   1      -4.903   3.104  -1.893  0.00  0.00     0.066 A 
ATOM     25  C   UNL d   1      -5.746   4.135  -2.342  0.00  0.00     0.056 A 
ATOM     26 CL   UNL d   1      -4.366   1.863  -2.984  0.00  0.00    -0.082 Cl
ATOM     27 CL   UNL d   1      -6.266   4.264  -3.986  0.00  0.00    -0.083 Cl
ATOM     28  C   UNL d   1      -6.184   5.120  -1.453  0.00  0.00     0.026 A 
ATOM     29  C   UNL d   1      -5.804   5.074  -0.112  0.00  0.00     0.003 A 
ATOM     30  C   UNL d   1      -4.960   4.058   0.340  0.00  0.00     0.013 A 
ENDBRANCH   2  23
TORSDOF 5
