REMARK  3 active torsions:
REMARK  status: ('A' for Active; 'I' for Inactive)
REMARK    1  A    between atoms: C_6  and  C_2 
REMARK    2  A    between atoms: N_14  and  C_3 
REMARK    3  A    between atoms: C_7  and  C_4 
ROOT
ATOM      1  C   UNL d   1      -0.310  -1.272   0.192  0.00  0.00     0.095 A 
ATOM      2  C   UNL d   1       1.032  -0.781   0.034  0.00  0.00     0.050 A 
ATOM      3  C   UNL d   1       0.884   0.596  -0.019  0.00  0.00     0.154 A 
ATOM      4  C   UNL d   1      -1.175  -0.193   0.090  0.00  0.00     0.116 A 
ATOM      5  O   UNL d   1      -0.418   0.947   0.011  0.00  0.00    -0.290 OA
ATOM      6  C   UNL d   1      -0.740  -2.613   0.445  0.00  0.00     0.103 C 
ATOM      7  N   UNL d   1      -1.113  -3.691   0.649  0.00  0.00    -0.191 NA
ENDROOT
BRANCH   2   8
ATOM      8  C   UNL d   1       2.333  -1.468   0.002  0.00  0.00     0.002 A 
ATOM      9  C   UNL d   1       2.577  -2.651  -0.727  0.00  0.00     0.046 A 
ATOM     10  C   UNL d   1       3.838  -3.265  -0.707  0.00  0.00     0.048 A 
ATOM     11 CL   UNL d   1       1.412  -3.379  -1.780  0.00  0.00    -0.083 Cl
ATOM     12  C   UNL d   1       4.892  -2.671  -0.023  0.00  0.00     0.035 A 
ATOM     13  C   UNL d   1       4.693  -1.483   0.668  0.00  0.00     0.025 A 
ATOM     14 CL   UNL d   1       6.453  -3.391  -0.056  0.00  0.00    -0.084 Cl
ATOM     15  C   UNL d   1       3.419  -0.906   0.705  0.00  0.00     0.016 A 
ENDBRANCH   2   8
BRANCH   4  16
ATOM     16  C   UNL d   1      -2.616  -0.144   0.063  0.00  0.00     0.040 A 
ATOM     17  S   UNL d   1      -3.466   1.190   0.726  0.00  0.00    -0.099 SA
ATOM     18  C   UNL d   1      -4.984   0.526   0.301  0.00  0.00     0.050 A 
ATOM     19  C   UNL d   1      -4.853  -0.679  -0.350  0.00  0.00     0.008 A 
ATOM     20  C   UNL d   1      -3.487  -1.065  -0.490  0.00  0.00     0.022 A 
ENDBRANCH   4  16
BRANCH   3  21
ATOM     21  N   UNL d   1       1.730   1.633  -0.092  0.00  0.00    -0.379 N 
ATOM     22  H   UNL d   1       2.669   1.522  -0.459  0.00  0.00     0.158 HD
ATOM     23  H   UNL d   1       1.332   2.555  -0.249  0.00  0.00     0.158 HD
ENDBRANCH   3  21
TORSDOF 3
