REMARK  4 active torsions:
REMARK  status: ('A' for Active; 'I' for Inactive)
REMARK    1  A    between atoms: C_8  and  C_1 
REMARK    2  A    between atoms: N_6  and  C_2 
REMARK    3  A    between atoms: C_9  and  C_4 
REMARK       I    between atoms: C_7  and  N_6 
REMARK    4  A    between atoms: C_10  and  C_7 
REMARK       I    between atoms: N_13  and  C_8 
ROOT
ATOM      1  C   UNL d   1      -0.078   1.341  -0.117  0.00  0.00     0.094 A 
ATOM      2  C   UNL d   1       1.258   0.935  -0.138  0.00  0.00     0.058 A 
ATOM      3  S   UNL d   1      -1.121  -0.048  -0.008  0.00  0.00    -0.087 SA
ATOM      4  C   UNL d   1       0.146  -1.182  -0.092  0.00  0.00    -0.007 A 
ATOM      5  C   UNL d   1       1.347  -0.513  -0.178  0.00  0.00     0.046 A 
ENDROOT
BRANCH   2   6
ATOM      6  N   UNL d   1       2.483   1.610  -0.144  0.00  0.00    -0.323 N 
ATOM      7  C   UNL d   1       2.813   2.864   0.329  0.00  0.00     0.255 C 
ATOM      8  O   UNL d   1       2.002   3.686   0.755  0.00  0.00    -0.270 OA
ATOM      9  H   UNL d   1       3.287   1.002  -0.297  0.00  0.00     0.169 HD
BRANCH   7  10
ATOM     10  C   UNL d   1       4.311   3.209   0.276  0.00  0.00     0.270 C 
ATOM     11 CL   UNL d   1       5.322   1.748   0.411  0.00  0.00    -0.098 Cl
ATOM     12 CL   UNL d   1       4.648   4.051  -1.245  0.00  0.00    -0.098 Cl
ENDBRANCH   7  10
ENDBRANCH   2   6
BRANCH   1  13
ATOM     13  C   UNL d   1      -0.834   2.594  -0.211  0.00  0.00     0.237 C 
ATOM     14  O   UNL d   1      -2.053   2.692  -0.050  0.00  0.00    -0.274 OA
ATOM     15  N   UNL d   1      -0.193   3.747  -0.549  0.00  0.00    -0.268 NA
ATOM     16  H   UNL d   1       0.751   3.859  -0.199  0.00  0.00     0.127 HD
ATOM     17  H   UNL d   1      -0.775   4.563  -0.420  0.00  0.00     0.127 HD
ENDBRANCH   1  13
BRANCH   4  18
ATOM     18  C   UNL d   1      -0.140  -2.690  -0.059  0.00  0.00    -0.018 C 
ATOM     19  C   UNL d   1      -0.979  -3.109  -1.283  0.00  0.00     0.020 C 
ATOM     20  C   UNL d   1       1.170  -3.507  -0.089  0.00  0.00     0.020 C 
ATOM     21  C   UNL d   1      -0.895  -3.073   1.231  0.00  0.00     0.020 C 
ENDBRANCH   4  18
TORSDOF 4
