REMARK  3 active torsions:
REMARK  status: ('A' for Active; 'I' for Inactive)
REMARK    1  A    between atoms: C_2  and  C_1 
REMARK    2  A    between atoms: O_8  and  C_2 
REMARK    3  A    between atoms: O_9  and  C_3 
ROOT
ATOM      1  C   UNL d   1       1.529   0.836  -0.008  0.00  0.00     0.077 A 
ATOM      2  C   UNL d   1       1.523  -0.614   0.005  0.00  0.00     0.092 A 
ATOM      3  S   UNL d   1      -0.962   0.079  -0.017  0.00  0.00    -0.110 SA
ATOM      4  C   UNL d   1       0.219   1.306  -0.045  0.00  0.00     0.070 A 
ATOM      5  C   UNL d   1       0.238  -1.122   0.006  0.00  0.00     0.087 A 
ENDROOT
BRANCH   1   6
ATOM      6  C   UNL d   1       2.651   1.777  -0.032  0.00  0.00     0.179 C 
ATOM      7  O   UNL d   1       3.706   1.591  -0.615  0.00  0.00    -0.646 OA
BRANCH   6   8
ATOM      8  O   UNL d   1       2.436   2.941   0.645  0.00  0.00    -0.773 OA
ATOM      9  H   UNL d   1       1.608   2.948   1.159  0.00  0.00     0.167 HD
ENDBRANCH   6   8
ENDBRANCH   1   6
BRANCH   2  10
ATOM     10  O   UNL d   1       2.500  -1.557   0.052  0.00  0.00    -0.354 OA
ATOM     11  C   UNL d   1       3.846  -1.130   0.008  0.00  0.00     0.210 C 
ENDBRANCH   2  10
TORSDOF 3
