REMARK  8 active torsions:
REMARK  status: ('A' for Active; 'I' for Inactive)
REMARK    1  A    between atoms: N_7  and  C_1 
REMARK    2  A    between atoms: S_4  and  C_2 
REMARK    3  A    between atoms: C_8  and  C_3 
REMARK    4  A    between atoms: C_21  and  S_4 
REMARK    5  A    between atoms: N_11  and  N_7 
REMARK    6  A    between atoms: O_22  and  C_8 
REMARK       I    between atoms: C_9  and  N_11 
REMARK    7  A    between atoms: C_10  and  C_9 
REMARK    8  A    between atoms: C_26  and  C_21 
ROOT
ATOM      1  C   UNL d   1       1.438   0.859   0.027  0.00  0.00     0.093 A 
ATOM      2  C   UNL d   1       1.487  -0.586   0.020  0.00  0.00     0.095 A 
ATOM      3  C   UNL d   1       0.119   1.316  -0.071  0.00  0.00     0.109 A 
ATOM      4  S   UNL d   1      -0.986  -0.010  -0.212  0.00  0.00    -0.092 SA
ATOM      5  C   UNL d   1       0.242  -1.164  -0.094  0.00  0.00     0.076 A 
ENDROOT
BRANCH   1   6
ATOM      6  N   UNL d   1       2.555   1.635   0.179  0.00  0.00    -0.295 N 
ATOM      7  H   UNL d   1       3.473   1.196   0.386  0.00  0.00     0.187 HD
BRANCH   6   8
ATOM      8  N   UNL d   1       2.706   2.913  -0.391  0.00  0.00    -0.265 N 
ATOM      9  C   UNL d   1       3.957   3.508  -0.328  0.00  0.00     0.270 C 
ATOM     10  O   UNL d   1       4.962   2.966   0.120  0.00  0.00    -0.266 OA
ATOM     11  H   UNL d   1       1.879   3.515  -0.362  0.00  0.00     0.190 HD
BRANCH   9  12
ATOM     12  C   UNL d   1       4.031   4.896  -0.867  0.00  0.00     0.036 A 
ATOM     13  C   UNL d   1       4.920   5.816  -0.294  0.00  0.00     0.041 A 
ATOM     14  C   UNL d   1       5.024   7.099  -0.832  0.00  0.00     0.036 A 
ATOM     15 CL   UNL d   1       6.102   8.241  -0.128  0.00  0.00    -0.084 Cl
ATOM     16  C   UNL d   1       4.267   7.471  -1.942  0.00  0.00     0.047 A 
ATOM     17  C   UNL d   1       3.400   6.545  -2.516  0.00  0.00     0.036 A 
ATOM     18  C   UNL d   1       3.275   5.261  -1.986  0.00  0.00     0.041 A 
ATOM     19 CL   UNL d   1       2.489   6.980  -3.910  0.00  0.00    -0.084 Cl
ENDBRANCH   9  12
ENDBRANCH   6   8
ENDBRANCH   1   6
BRANCH   2  20
ATOM     20  S   UNL d   1       2.903  -1.591   0.139  0.00  0.00     0.178 S 
ATOM     21  O   UNL d   1       3.934  -0.719   0.669  0.00  0.00    -0.223 OA
ATOM     22  O   UNL d   1       2.445  -2.764   0.849  0.00  0.00    -0.223 OA
BRANCH  20  23
ATOM     23  C   UNL d   1       3.293  -2.030  -1.548  0.00  0.00     0.145 C 
BRANCH  23  24
ATOM     24  C   UNL d   1       4.434  -3.044  -1.593  0.00  0.00     0.011 C 
ATOM     25  C   UNL d   1       4.821  -3.411  -3.017  0.00  0.00     0.006 C 
ENDBRANCH  23  24
ENDBRANCH  20  23
ENDBRANCH   2  20
BRANCH   3  26
ATOM     26  C   UNL d   1      -0.431   2.672  -0.053  0.00  0.00     0.302 C 
ATOM     27  O   UNL d   1       0.216   3.715  -0.106  0.00  0.00    -0.259 OA
BRANCH  26  28
ATOM     28  O   UNL d   1      -1.796   2.643   0.016  0.00  0.00    -0.322 OA
ATOM     29  C   UNL d   1      -2.468   3.903   0.020  0.00  0.00     0.213 C 
ENDBRANCH  26  28
ENDBRANCH   3  26
TORSDOF 8
