REMARK  7 active torsions:
REMARK  status: ('A' for Active; 'I' for Inactive)
REMARK    1  A    between atoms: C_7  and  C_1 
REMARK    2  A    between atoms: C_8  and  C_6 
REMARK    3  A    between atoms: C_16  and  C_10 
REMARK    4  A    between atoms: S_21  and  C_13 
REMARK    5  A    between atoms: C_17  and  C_26 
REMARK       I    between atoms: N_20  and  C_17 
REMARK    6  A    between atoms: C_27  and  N_20 
REMARK    7  A    between atoms: C_26  and  S_21 
ROOT
ATOM      1  N   UNL d   1       5.389   4.669   1.934  0.00  0.00    -0.336 N 
ATOM      2  HN  UNL d   1       5.107   3.949   2.599  1.00  0.00     0.168 HD
ATOM      3  C   UNL d   1       6.088   5.747   2.312  0.00  0.00     0.145 A 
ATOM      4  C   UNL d   1       5.080   4.590   0.623  0.00  0.00     0.052 A 
ATOM      5  N   UNL d   1       6.503   6.731   1.503  0.00  0.00    -0.347 N 
ATOM      6  HN  UNL d   1       7.036   7.528   1.852  1.00  0.00     0.167 HD
ATOM      7  C   UNL d   1       5.454   5.554  -0.291  0.00  0.00     0.048 A 
ATOM      8  C   UNL d   1       6.178   6.608   0.206  0.00  0.00     0.092 A 
ENDROOT
BRANCH   4   9
ATOM      9  C   UNL d   1       4.324   3.393   0.250  0.00  0.00     0.032 A 
ATOM     10  S   UNL d   1       3.095   3.476  -0.945  0.00  0.00    -0.086 SA
ATOM     11  C   UNL d   1       2.763   1.808  -0.843  0.00  0.00     0.034 A 
ATOM     12  C   UNL d   1       3.547   1.190   0.109  0.00  0.00     0.023 A 
ATOM     13  C   UNL d   1       4.433   2.107   0.751  0.00  0.00     0.023 A 
BRANCH  11  14
ATOM     14  C   UNL d   1       1.740   1.108  -1.683  0.00  0.00     0.067 A 
ATOM     15  C   UNL d   1       0.975   1.677  -2.720  0.00  0.00     0.068 A 
ATOM     16  C   UNL d   1       0.174   0.657  -3.204  0.00  0.00     0.136 A 
ATOM     17  N   UNL d   1       0.458  -0.426  -2.418  0.00  0.00    -0.292 N 
ATOM     18  N   UNL d   1       1.440  -0.185  -1.522  0.00  0.00    -0.297 N 
ATOM     19  C   UNL d   1      -0.157  -1.732  -2.359  0.00  0.00     0.178 C 
ATOM     20  HN  UNL d   1       1.861  -0.844  -0.867  1.00  0.00     0.187 HD
BRANCH  16  21
ATOM     21  C   UNL d   1      -0.801   0.706  -4.312  0.00  0.00     0.434 C 
ATOM     22  F   UNL d   1      -1.364  -0.485  -4.617  0.00  0.00    -0.165 F 
ATOM     23  F   UNL d   1      -1.819   1.558  -4.031  0.00  0.00    -0.165 F 
ATOM     24  F   UNL d   1      -0.219   1.158  -5.452  0.00  0.00    -0.165 F 
ENDBRANCH  16  21
ENDBRANCH  11  14
ENDBRANCH   4   9
BRANCH   3  25
ATOM     25  S   UNL d   1       6.287   5.962   4.061  0.00  0.00    -0.085 SA
BRANCH  25  26
ATOM     26  C   UNL d   1       5.709   7.677   4.186  0.00  0.00     0.185 C 
BRANCH  26  27
ATOM     27  C   UNL d   1       4.249   7.923   3.817  0.00  0.00     0.231 C 
ATOM     28  N   UNL d   1       3.468   6.816   3.548  0.00  0.00    -0.327 N 
ATOM     29  H   UNL d   1       3.882   5.911   3.745  0.00  0.00     0.169 HD
ATOM     30  O   UNL d   1       3.844   9.088   3.794  0.00  0.00    -0.272 OA
BRANCH  28  31
ATOM     31  C   UNL d   1       2.171   6.798   2.992  0.00  0.00     0.034 A 
ATOM     32  C   UNL d   1       1.505   7.946   2.546  0.00  0.00     0.031 A 
ATOM     33  C   UNL d   1       0.235   7.853   1.966  0.00  0.00     0.026 A 
ATOM     34  C   UNL d   1      -0.376   6.612   1.827  0.00  0.00     0.034 A 
ATOM     35  C   UNL d   1       0.270   5.461   2.270  0.00  0.00     0.026 A 
ATOM     36 CL   UNL d   1      -1.931   6.502   1.101  0.00  0.00    -0.084 Cl
ATOM     37  C   UNL d   1       1.542   5.554   2.846  0.00  0.00     0.031 A 
ENDBRANCH  28  31
ENDBRANCH  26  27
ENDBRANCH  25  26
ENDBRANCH   3  25
TORSDOF 7
