REMARK  3 active torsions:
REMARK  status: ('A' for Active; 'I' for Inactive)
REMARK    1  A    between atoms: C_5  and  C_1 
REMARK    2  A    between atoms: C_11  and  C_4 
REMARK    3  A    between atoms: S_15  and  C_10 
ROOT
ATOM      1  C   UNL d   1      -0.053  -1.338  -0.008  0.00  0.00     0.051 A 
ATOM      2  N   UNL d   1      -1.343   0.538   0.099  0.00  0.00    -0.259 N 
ATOM      3  HN  UNL d   1      -2.143   1.171   0.117  1.00  0.00     0.195 HD
ATOM      4  C   UNL d   1      -1.381  -0.805   0.081  0.00  0.00     0.080 A 
ATOM      5  O   UNL d   1      -0.013   0.891   0.088  0.00  0.00    -0.241 OA
ATOM      6  C   UNL d   1       0.759  -0.225   0.035  0.00  0.00     0.087 A 
ATOM      7  C   UNL d   1       2.218   0.003   0.018  0.00  0.00     0.080 C 
ENDROOT
BRANCH   1   8
ATOM      8  C   UNL d   1       0.432  -2.704  -0.121  0.00  0.00     0.050 A 
ATOM      9  N   UNL d   1       1.540  -3.002   0.588  0.00  0.00    -0.336 N 
ATOM     10  C   UNL d   1       1.958  -4.275   0.528  0.00  0.00     0.141 A 
ATOM     11  HN  UNL d   1       2.032  -2.299   1.139  1.00  0.00     0.168 HD
ATOM     12  N   UNL d   1       1.360  -5.256  -0.164  0.00  0.00    -0.347 N 
ATOM     13  C   UNL d   1       0.267  -4.910  -0.863  0.00  0.00     0.092 A 
ATOM     14  HN  UNL d   1       1.716  -6.212  -0.160  1.00  0.00     0.167 HD
ATOM     15  C   UNL d   1      -0.236  -3.633  -0.892  0.00  0.00     0.047 A 
BRANCH  10  16
ATOM     16  S   UNL d   1       3.410  -4.687   1.446  0.00  0.00    -0.107 SA
ATOM     17  H   UNL d   1       3.526  -3.468   1.985  0.00  0.00     0.110 HD
ENDBRANCH  10  16
ENDBRANCH   1   8
BRANCH   4  18
ATOM     18  C   UNL d   1      -2.664  -1.507   0.149  0.00  0.00    -0.006 A 
ATOM     19  C   UNL d   1      -3.777  -1.019  -0.552  0.00  0.00     0.015 A 
ATOM     20  C   UNL d   1      -5.000  -1.697  -0.507  0.00  0.00     0.024 A 
ATOM     21  C   UNL d   1      -5.116  -2.867   0.239  0.00  0.00     0.034 A 
ATOM     22  C   UNL d   1      -4.024  -3.359   0.950  0.00  0.00     0.024 A 
ATOM     23 CL   UNL d   1      -6.615  -3.708   0.289  0.00  0.00    -0.084 Cl
ATOM     24  C   UNL d   1      -2.808  -2.672   0.918  0.00  0.00     0.015 A 
ENDBRANCH   4  18
TORSDOF 3
