REMARK  7 active torsions:
REMARK  status: ('A' for Active; 'I' for Inactive)
REMARK    1  A    between atoms: N_2  and  C_1 
REMARK    2  A    between atoms: C_3  and  C_1 
REMARK    3  A    between atoms: C_4  and  C_1 
REMARK    4  A    between atoms: N_7  and  C_1 
REMARK       I    between atoms: C_5  and  N_2 
REMARK    5  A    between atoms: C_10  and  C_5 
REMARK    6  A    between atoms: C_6  and  C_8 
REMARK    7  A    between atoms: C_20  and  N_7 
ROOT
ATOM      1  C   UNL d   1       0.876  -0.154   0.009  0.00  0.00     0.306 C 
ENDROOT
BRANCH   1   2
ATOM      2  N   UNL d   1       0.394  -1.404   0.604  0.00  0.00    -0.315 N 
ATOM      3  C   UNL d   1      -0.942  -1.687   0.646  0.00  0.00     0.254 C 
ATOM      4  O   UNL d   1      -1.761  -0.916   0.183  0.00  0.00    -0.268 OA
ATOM      5  H   UNL d   1       1.091  -2.103   0.782  0.00  0.00     0.165 HD
BRANCH   3   6
ATOM      6  C   UNL d   1      -1.345  -2.963   1.294  0.00  0.00     0.032 A 
ATOM      7  C   UNL d   1      -0.592  -3.540   2.326  0.00  0.00     0.017 A 
ATOM      8  C   UNL d   1      -1.037  -4.716   2.937  0.00  0.00     0.001 A 
ATOM      9  C   UNL d   1      -2.228  -5.311   2.519  0.00  0.00     0.000 A 
ATOM     10  C   UNL d   1      -2.976  -4.739   1.489  0.00  0.00     0.001 A 
ATOM     11  C   UNL d   1      -2.538  -3.564   0.881  0.00  0.00     0.017 A 
ENDBRANCH   3   6
ENDBRANCH   1   2
BRANCH   1  12
ATOM     12  C   UNL d   1       0.358   1.178   0.681  0.00  0.00     0.441 C 
ATOM     13  F   UNL d   1      -0.135   0.941   1.929  0.00  0.00    -0.166 F 
ATOM     14  F   UNL d   1       1.375   2.070   0.849  0.00  0.00    -0.166 F 
ATOM     15  F   UNL d   1      -0.610   1.842   0.023  0.00  0.00    -0.166 F 
ENDBRANCH   1  12
BRANCH   1  16
ATOM     16  C   UNL d   1       0.573  -0.030  -1.535  0.00  0.00     0.441 C 
ATOM     17  F   UNL d   1       0.194  -1.226  -2.062  0.00  0.00    -0.166 F 
ATOM     18  F   UNL d   1      -0.343   0.874  -1.915  0.00  0.00    -0.166 F 
ATOM     19  F   UNL d   1       1.725   0.301  -2.197  0.00  0.00    -0.166 F 
ENDBRANCH   1  16
BRANCH   1  20
ATOM     20  N   UNL d   1       2.379  -0.371   0.189  0.00  0.00    -0.349 N 
ATOM     21  H   UNL d   1       2.897   0.101  -0.558  0.00  0.00     0.162 HD
BRANCH  20  22
ATOM     22  C   UNL d   1       3.064  -0.296   1.405  0.00  0.00     0.030 A 
ATOM     23  C   UNL d   1       2.459  -0.392   2.655  0.00  0.00     0.030 A 
ATOM     24  C   UNL d   1       3.213  -0.404   3.832  0.00  0.00     0.018 A 
ATOM     25  C   UNL d   1       4.607  -0.367   3.792  0.00  0.00     0.048 A 
ATOM     26  C   UNL d   1       5.229  -0.313   2.547  0.00  0.00     0.018 A 
ATOM     27  C   UNL d   1       4.472  -0.291   1.366  0.00  0.00     0.030 A 
BRANCH  25  28
ATOM     28  C   UNL d   1       5.420  -0.405   5.059  0.00  0.00     0.417 C 
ATOM     29  F   UNL d   1       4.659  -0.428   6.192  0.00  0.00    -0.166 F 
ATOM     30  F   UNL d   1       6.218  -1.510   5.132  0.00  0.00    -0.166 F 
ATOM     31  F   UNL d   1       6.246   0.665   5.190  0.00  0.00    -0.166 F 
ENDBRANCH  25  28
ENDBRANCH  20  22
ENDBRANCH   1  20
TORSDOF 7
