REMARK  6 active torsions:
REMARK  status: ('A' for Active; 'I' for Inactive)
REMARK    1  A    between atoms: C_4  and  C_1 
REMARK       I    between atoms: N_9  and  C_4 
REMARK    2  A    between atoms: C_17  and  C_6 
REMARK       I    between atoms: C_8  and  N_10 
REMARK    3  A    between atoms: C_11  and  C_8 
REMARK    4  A    between atoms: N_10  and  N_9 
REMARK    5  A    between atoms: O_13  and  C_17 
REMARK    6  A    between atoms: C_15  and  O_13 
ROOT
ATOM      1  C   UNL d   1       1.298   0.826   0.148  0.00  0.00     0.109 A 
ATOM      2  N   UNL d   1       1.511  -0.558   0.160  0.00  0.00    -0.347 N 
ATOM      3  HN  UNL d   1       2.426  -1.008   0.168  1.00  0.00     0.166 HD
ATOM      4  C   UNL d   1      -0.034   1.196   0.114  0.00  0.00     0.086 A 
ATOM      5  C   UNL d   1       0.353  -1.197   0.159  0.00  0.00     0.075 A 
ATOM      6  S   UNL d   1      -1.042  -0.184   0.127  0.00  0.00    -0.084 SA
ENDROOT
BRANCH   1   7
ATOM      7  C   UNL d   1       2.398   1.798   0.157  0.00  0.00     0.287 C 
ATOM      8  N   UNL d   1       3.655   1.232   0.153  0.00  0.00    -0.262 N 
ATOM      9  H   UNL d   1       3.792   0.222   0.106  0.00  0.00     0.190 HD
ATOM     10  O   UNL d   1       2.221   3.015   0.163  0.00  0.00    -0.264 OA
BRANCH   8  11
ATOM     11  N   UNL d   1       4.782   2.066   0.119  0.00  0.00    -0.263 N 
ATOM     12  C   UNL d   1       6.033   1.483   0.113  0.00  0.00     0.270 C 
ATOM     13  O   UNL d   1       6.207   0.267   0.123  0.00  0.00    -0.266 OA
ATOM     14  H   UNL d   1       4.622   3.052   0.309  0.00  0.00     0.190 HD
BRANCH  12  15
ATOM     15  C   UNL d   1       7.198   2.409   0.106  0.00  0.00     0.033 A 
ATOM     16  C   UNL d   1       8.387   1.992   0.722  0.00  0.00     0.019 A 
ATOM     17  C   UNL d   1       9.523   2.805   0.688  0.00  0.00     0.025 A 
ATOM     18  C   UNL d   1       9.476   4.030   0.024  0.00  0.00     0.034 A 
ATOM     19  C   UNL d   1       8.300   4.453  -0.595  0.00  0.00     0.025 A 
ATOM     20 CL   UNL d   1      10.883   5.017  -0.050  0.00  0.00    -0.084 Cl
ATOM     21  C   UNL d   1       7.157   3.644  -0.554  0.00  0.00     0.019 A 
ENDBRANCH  12  15
ENDBRANCH   8  11
ENDBRANCH   1   7
BRANCH   5  22
ATOM     22  C   UNL d   1       0.188  -2.690   0.044  0.00  0.00     0.240 C 
BRANCH  22  23
ATOM     23  O   UNL d   1      -0.580  -3.165   1.156  0.00  0.00    -0.343 OA
BRANCH  23  24
ATOM     24  C   UNL d   1      -0.899  -4.502   1.129  0.00  0.00     0.090 A 
ATOM     25  C   UNL d   1      -0.989  -5.189   2.348  0.00  0.00     0.067 A 
ATOM     26 CL   UNL d   1      -0.666  -4.405   3.853  0.00  0.00    -0.081 Cl
ATOM     27  C   UNL d   1      -1.338  -6.547   2.380  0.00  0.00     0.026 A 
ATOM     28  C   UNL d   1      -1.615  -7.226   1.194  0.00  0.00     0.002 A 
ATOM     29  C   UNL d   1      -1.556  -6.546  -0.018  0.00  0.00     0.003 A 
ATOM     30  C   UNL d   1      -1.208  -5.192  -0.051  0.00  0.00     0.038 A 
ENDBRANCH  23  24
ENDBRANCH  22  23
ENDBRANCH   5  22
TORSDOF 6
