REMARK  1 active torsions:
REMARK  status: ('A' for Active; 'I' for Inactive)
REMARK    1  A    between atoms: C_6  and  C_1 
ROOT
ATOM      1  C   UNL d   1      -0.064   1.142   0.031  0.00  0.00     0.078 A 
ATOM      2  C   UNL d   1       1.035   0.304   0.102  0.00  0.00     0.179 A 
ATOM      3  N   UNL d   1      -0.748  -1.050   0.099  0.00  0.00    -0.263 N 
ATOM      4  HN  UNL d   1      -1.329  -1.887   0.114  1.00  0.00     0.194 HD
ATOM      5  O   UNL d   1       0.627  -0.990   0.141  0.00  0.00    -0.219 OA
ATOM      6  C   UNL d   1      -1.161   0.221   0.033  0.00  0.00     0.046 A 
ATOM      7  N   UNL d   1       2.364   0.511   0.151  0.00  0.00    -0.377 N 
ATOM      8  C   UNL d   1      -2.617   0.495  -0.054  0.00  0.00     0.071 C 
ATOM      9  H   UNL d   1       2.729   1.407  -0.168  0.00  0.00     0.158 HD
ATOM     10  H   UNL d   1       2.972  -0.273  -0.061  0.00  0.00     0.158 HD
ENDROOT
BRANCH   1  11
ATOM     11  C   UNL d   1      -0.089   2.586  -0.024  0.00  0.00     0.111 C 
ATOM     12  S   UNL d   1       1.090   3.446  -0.821  0.00  0.00    -0.060 SA
ATOM     13  N   UNL d   1      -1.121   3.240   0.586  0.00  0.00    -0.389 N 
ATOM     14  H   UNL d   1      -1.777   2.780   1.201  0.00  0.00     0.157 HD
ATOM     15  H   UNL d   1      -1.105   4.253   0.599  0.00  0.00     0.157 HD
ENDBRANCH   1  11
TORSDOF 1
