REMARK  3 active torsions:
REMARK  status: ('A' for Active; 'I' for Inactive)
REMARK    1  A    between atoms: S_3  and  C_1 
REMARK    2  A    between atoms: C_7  and  S_3 
REMARK    3  A    between atoms: C_8  and  C_4 
ROOT
ATOM      1  C   UNL d   1       0.111   1.277   0.004  0.00  0.00     0.077 A 
ATOM      2  S   UNL d   1      -1.075   0.067   0.124  0.00  0.00    -0.078 SA
ATOM      3  C   UNL d   1       0.095  -1.192   0.093  0.00  0.00     0.033 A 
ATOM      4  C   UNL d   1       1.384   0.762  -0.054  0.00  0.00     0.030 A 
ATOM      5  C   UNL d   1       1.375  -0.662   0.037  0.00  0.00     0.023 A 
ENDROOT
BRANCH   1   6
ATOM      6  S   UNL d   1      -0.278   2.975  -0.124  0.00  0.00     0.092 S 
ATOM      7  O   UNL d   1       0.985   3.662  -0.564  0.00  0.00    -0.247 OA
BRANCH   6   8
ATOM      8  C   UNL d   1      -0.439   3.428   1.634  0.00  0.00     0.037 A 
ATOM      9  C   UNL d   1       0.388   4.429   2.169  0.00  0.00     0.023 A 
ATOM     10  C   UNL d   1       0.277   4.808   3.509  0.00  0.00     0.025 A 
ATOM     11  C   UNL d   1      -0.665   4.189   4.324  0.00  0.00     0.034 A 
ATOM     12  C   UNL d   1      -1.506   3.205   3.805  0.00  0.00     0.025 A 
ATOM     13 CL   UNL d   1      -0.800   4.646   5.976  0.00  0.00    -0.084 Cl
ATOM     14  C   UNL d   1      -1.401   2.834   2.460  0.00  0.00     0.023 A 
ENDBRANCH   6   8
ENDBRANCH   1   6
BRANCH   3  15
ATOM     15  C   UNL d   1      -0.306  -2.604   0.158  0.00  0.00     0.049 A 
ATOM     16  N   UNL d   1       0.605  -3.414   0.753  0.00  0.00    -0.365 N 
ATOM     17  C   UNL d   1       0.297  -4.726   0.854  0.00  0.00     0.088 A 
ATOM     18  HN  UNL d   1       1.487  -3.048   1.110  1.00  0.00     0.165 HD
ATOM     19  C   UNL d   1      -0.878  -5.283   0.378  0.00  0.00     0.017 A 
ATOM     20  C   UNL d   1      -1.792  -4.445  -0.247  0.00  0.00     0.004 A 
ATOM     21  C   UNL d   1      -1.505  -3.087  -0.362  0.00  0.00     0.031 A 
ENDBRANCH   3  15
TORSDOF 3
