REMARK  4 active torsions:
REMARK  status: ('A' for Active; 'I' for Inactive)
REMARK    1  A    between atoms: S_11  and  C_1 
REMARK    2  A    between atoms: C_8  and  C_4 
REMARK    3  A    between atoms: C_9  and  C_12 
REMARK    4  A    between atoms: C_13  and  S_11 
ROOT
ATOM      1  C   UNL d   1      -0.630   1.310   0.065  0.00  0.00     0.084 A 
ATOM      2  N   UNL d   1      -1.356   0.172   0.075  0.00  0.00    -0.332 N 
ATOM      3  HN  UNL d   1      -2.376   0.198   0.087  1.00  0.00     0.168 HD
ATOM      4  C   UNL d   1      -0.690  -1.001   0.070  0.00  0.00     0.191 A 
ATOM      5  N   UNL d   1       0.659  -1.079   0.065  0.00  0.00    -0.342 N 
ATOM      6  HN  UNL d   1       1.132  -1.983   0.068  1.00  0.00     0.167 HD
ATOM      7  C   UNL d   1       0.760   1.326   0.056  0.00  0.00    -0.006 A 
ATOM      8  C   UNL d   1       1.364   0.071   0.056  0.00  0.00     0.015 A 
ATOM      9  C   UNL d   1       1.595   2.571   0.025  0.00  0.00     0.053 C 
ATOM     10  C   UNL d   1       2.858  -0.090   0.019  0.00  0.00     0.069 C 
ENDROOT
BRANCH   1  11
ATOM     11  S   UNL d   1      -1.619   2.794  -0.057  0.00  0.00    -0.072 SA
BRANCH  11  12
ATOM     12  C   UNL d   1      -1.901   3.194   1.657  0.00  0.00     0.007 A 
ATOM     13  C   UNL d   1      -1.392   4.393   2.174  0.00  0.00     0.035 A 
ATOM     14  C   UNL d   1      -1.663   4.782   3.497  0.00  0.00     0.049 A 
ATOM     15  C   UNL d   1      -2.460   3.950   4.297  0.00  0.00     0.016 A 
ATOM     16  C   UNL d   1      -2.971   2.757   3.787  0.00  0.00     0.002 A 
ATOM     17  C   UNL d   1      -2.694   2.382   2.471  0.00  0.00     0.019 A 
BRANCH  14  18
ATOM     18  C   UNL d   1      -1.135   6.081   4.053  0.00  0.00     0.417 C 
ATOM     19  F   UNL d   1      -0.326   6.755   3.187  0.00  0.00    -0.166 F 
ATOM     20  F   UNL d   1      -2.130   6.948   4.386  0.00  0.00    -0.166 F 
ATOM     21  F   UNL d   1      -0.398   5.903   5.185  0.00  0.00    -0.166 F 
ENDBRANCH  14  18
ENDBRANCH  11  12
ENDBRANCH   1  11
BRANCH   4  22
ATOM     22  C   UNL d   1      -1.488  -2.311   0.043  0.00  0.00     0.449 C 
ATOM     23  F   UNL d   1      -2.845  -2.136   0.061  0.00  0.00    -0.163 F 
ATOM     24  F   UNL d   1      -1.238  -3.068  -1.067  0.00  0.00    -0.163 F 
ATOM     25  F   UNL d   1      -1.219  -3.124   1.110  0.00  0.00    -0.163 F 
ENDBRANCH   4  22
TORSDOF 4
