REMARK  5 active torsions:
REMARK  status: ('A' for Active; 'I' for Inactive)
REMARK    1  A    between atoms: N_5  and  C_1 
REMARK    2  A    between atoms: C_3  and  C_2 
REMARK       I    between atoms: N_6  and  C_3 
REMARK    3  A    between atoms: O_19  and  C_4 
REMARK       I    between atoms: C_8  and  N_6 
REMARK       I    between atoms: N_12  and  C_8 
REMARK    4  A    between atoms: O_21  and  C_9 
REMARK    5  A    between atoms: C_10  and  N_12 
ROOT
ATOM      1  C   UNL d   1       3.791  -3.041  -0.288  0.00  0.00     0.265 C 
ATOM      2  N   UNL d   1       4.635  -3.158   0.803  0.00  0.00    -0.275 N 
ATOM      3  C   UNL d   1       5.983  -3.407   0.744  0.00  0.00     0.327 C 
ATOM      4  N   UNL d   1       6.402  -4.357  -0.144  0.00  0.00    -0.303 N 
ATOM      5  O   UNL d   1       3.844  -3.796  -1.252  0.00  0.00    -0.267 OA
ATOM      6  O   UNL d   1       6.692  -2.724   1.478  0.00  0.00    -0.247 OA
ATOM      7  H   UNL d   1       4.520  -2.430   1.490  0.00  0.00     0.173 HD
ATOM      8  H   UNL d   1       5.763  -4.560  -0.912  0.00  0.00     0.171 HD
ENDROOT
BRANCH   1   9
ATOM      9  C   UNL d   1       2.722  -1.979  -0.178  0.00  0.00     0.102 C 
ATOM     10  C   UNL d   1       3.015  -0.691   0.321  0.00  0.00     0.119 C 
ATOM     11  C   UNL d   1       2.095   0.354   0.115  0.00  0.00     0.138 C 
ATOM     12  C   UNL d   1       0.831   0.111  -0.430  0.00  0.00     0.061 C 
ATOM     13  C   UNL d   1       0.485  -1.194  -0.773  0.00  0.00     0.048 C 
ATOM     14  C   UNL d   1       1.420  -2.240  -0.643  0.00  0.00     0.104 C 
ATOM     15 BR   UNL d   1      -1.283  -1.504  -1.394  0.00  0.00    -0.048 Br
BRANCH  10  16
ATOM     16  O   UNL d   1       4.190  -0.510   1.006  0.00  0.00    -0.352 OA
ATOM     17  C   UNL d   1       3.985  -0.154   2.385  0.00  0.00     0.210 C 
ENDBRANCH  10  16
BRANCH  11  18
ATOM     18  N   UNL d   1       2.435   1.738   0.427  0.00  0.00    -0.113 N 
ATOM     19  O   UNL d   1       3.581   2.126   0.168  0.00  0.00    -0.532 OA
ATOM     20  O   UNL d   1       1.542   2.436   0.924  0.00  0.00    -0.532 OA
ENDBRANCH  11  18
BRANCH  14  21
ATOM     21  O   UNL d   1       1.002  -3.511  -0.951  0.00  0.00    -0.353 OA
ATOM     22  C   UNL d   1       0.809  -4.287   0.235  0.00  0.00     0.210 C 
ENDBRANCH  14  21
ENDBRANCH   1   9
BRANCH   4  23
ATOM     23  C   UNL d   1       7.743  -4.815  -0.279  0.00  0.00     0.114 A 
ATOM     24  C   UNL d   1       8.723  -4.736   0.721  0.00  0.00     0.146 A 
ATOM     25  F   UNL d   1       8.431  -4.339   1.968  0.00  0.00    -0.204 F 
ATOM     26  C   UNL d   1      10.038  -5.153   0.492  0.00  0.00     0.045 A 
ATOM     27  C   UNL d   1      10.399  -5.695  -0.738  0.00  0.00     0.006 A 
ATOM     28  C   UNL d   1       9.428  -5.840  -1.726  0.00  0.00     0.045 A 
ATOM     29  C   UNL d   1       8.120  -5.408  -1.488  0.00  0.00     0.146 A 
ATOM     30  F   UNL d   1       7.211  -5.558  -2.466  0.00  0.00    -0.204 F 
ENDBRANCH   4  23
TORSDOF 5
