REMARK  12 active torsions:
REMARK  status: ('A' for Active; 'I' for Inactive)
REMARK    1  A    between atoms: C_1  and  O_5 
REMARK    2  A    between atoms: C_1  and  C_3 
REMARK    3  A    between atoms: C_1  and  C_2 
REMARK    4  A    between atoms: C_2  and  O_8 
REMARK    5  A    between atoms: C_2  and  C_4 
REMARK    6  A    between atoms: S_6  and  C_3 
REMARK    7  A    between atoms: S_7  and  C_3 
REMARK    8  A    between atoms: C_4  and  C_11 
REMARK    9  A    between atoms: C_4  and  O_9 
REMARK   10  A    between atoms: C_12  and  S_6 
REMARK   11  A    between atoms: C_13  and  S_7 
REMARK   12  A    between atoms: O_10  and  C_11 
ROOT
ATOM      1  C   UNL d   1       0.694   0.051   0.047  0.00  0.00     0.173 C 
ENDROOT
BRANCH   1   2
ATOM      2  O   UNL d   1       0.410  -1.271   0.552  0.00  0.00    -0.391 OA
ATOM      3  H   UNL d   1       1.014  -1.472   1.284  0.00  0.00     0.210 HD
ENDBRANCH   1   2
BRANCH   1   4
ATOM      4  C   UNL d   1       0.461   1.079   1.210  0.00  0.00     0.139 C 
BRANCH   4   5
ATOM      5  S   UNL d   1      -1.282   1.119   1.834  0.00  0.00    -0.151 SA
BRANCH   5   6
ATOM      6  C   UNL d   1      -2.146   2.079   0.541  0.00  0.00     0.070 C 
ATOM      7  C   UNL d   1      -3.612   2.245   0.927  0.00  0.00     0.016 C 
ENDBRANCH   5   6
ENDBRANCH   4   5
BRANCH   4   8
ATOM      8  S   UNL d   1       1.115   2.773   0.927  0.00  0.00    -0.151 SA
BRANCH   8   9
ATOM      9  C   UNL d   1       1.130   3.458   2.622  0.00  0.00     0.070 C 
ATOM     10  C   UNL d   1       1.970   2.657   3.601  0.00  0.00     0.016 C 
ENDBRANCH   8   9
ENDBRANCH   4   8
ENDBRANCH   1   4
BRANCH   1  11
ATOM     11  C   UNL d   1       2.142   0.065  -0.547  0.00  0.00     0.179 C 
BRANCH  11  12
ATOM     12  O   UNL d   1       2.409   1.260  -1.299  0.00  0.00    -0.390 OA
ATOM     13  H   UNL d   1       2.009   2.017  -0.829  0.00  0.00     0.210 HD
ENDBRANCH  11  12
BRANCH  11  14
ATOM     14  C   UNL d   1       2.434  -1.133  -1.487  0.00  0.00     0.173 C 
BRANCH  14  15
ATOM     15  C   UNL d   1       3.861  -1.046  -2.075  0.00  0.00     0.198 C 
BRANCH  15  16
ATOM     16  O   UNL d   1       4.122  -2.166  -2.922  0.00  0.00    -0.398 OA
ATOM     17  H   UNL d   1       4.996  -2.026  -3.323  0.00  0.00     0.209 HD
ENDBRANCH  15  16
ENDBRANCH  14  15
BRANCH  14  18
ATOM     18  O   UNL d   1       1.462  -1.152  -2.546  0.00  0.00    -0.391 OA
ATOM     19  H   UNL d   1       1.899  -0.808  -3.343  0.00  0.00     0.210 HD
ENDBRANCH  14  18
ENDBRANCH  11  14
ENDBRANCH   1  11
TORSDOF 12
