REMARK  4 active torsions:
REMARK  status: ('A' for Active; 'I' for Inactive)
REMARK    1  A    between atoms: O_9  and  C_3 
REMARK    2  A    between atoms: C_10  and  C_4 
REMARK    3  A    between atoms: O_11  and  C_5 
REMARK    4  A    between atoms: C_12  and  O_9 
ROOT
ATOM      1  N   UNL d   1      -0.654   1.150  -0.253  0.00  0.00    -0.320 N 
ATOM      2  HN  UNL d   1      -1.106   2.046  -0.435  1.00  0.00     0.169 HD
ATOM      3  C   UNL d   1       1.363  -0.179  -0.051  0.00  0.00     0.148 A 
ATOM      4  C   UNL d   1      -1.354   0.038   0.021  0.00  0.00     0.117 A 
ATOM      5  C   UNL d   1       0.675   1.005  -0.271  0.00  0.00     0.178 A 
ATOM      6  N   UNL d   1      -0.792  -1.153   0.303  0.00  0.00    -0.343 N 
ATOM      7  HN  UNL d   1      -1.373  -1.965   0.516  1.00  0.00     0.167 HD
ATOM      8  C   UNL d   1       0.560  -1.253   0.297  0.00  0.00     0.045 A 
ATOM      9  C   UNL d   1       1.057  -2.611   0.690  0.00  0.00     0.071 C 
ENDROOT
BRANCH   3  10
ATOM     10  O   UNL d   1       2.730  -0.099  -0.112  0.00  0.00    -0.304 OA
BRANCH  10  11
ATOM     11  C   UNL d   1       3.464  -1.171  -0.554  0.00  0.00     0.076 A 
ATOM     12  C   UNL d   1       3.102  -1.972  -1.637  0.00  0.00     0.038 A 
ATOM     13  C   UNL d   1       3.832  -3.133  -1.907  0.00  0.00     0.009 A 
ATOM     14  C   UNL d   1       4.960  -3.459  -1.144  0.00  0.00    -0.062 A 
ATOM     15  C   UNL d   1       5.380  -2.582  -0.137  0.00  0.00     0.009 A 
ATOM     16  C   UNL d   1       5.650  -4.777  -1.337  0.00  0.00     0.048 C 
ATOM     17  C   UNL d   1       4.639  -1.436   0.149  0.00  0.00     0.038 A 
ENDBRANCH  10  11
ENDBRANCH   3  10
BRANCH   5  18
ATOM     18  O   UNL d   1       1.363   2.168  -0.517  0.00  0.00    -0.344 OA
ATOM     19  H   UNL d   1       2.306   1.949  -0.436  0.00  0.00     0.219 HD
ENDBRANCH   5  18
BRANCH   4  20
ATOM     20  C   UNL d   1      -2.829   0.116   0.022  0.00  0.00     0.008 A 
ATOM     21  C   UNL d   1      -3.506   1.337  -0.166  0.00  0.00     0.015 A 
ATOM     22  C   UNL d   1      -4.904   1.403  -0.168  0.00  0.00     0.001 A 
ATOM     23  C   UNL d   1      -5.659   0.248   0.016  0.00  0.00     0.000 A 
ATOM     24  C   UNL d   1      -5.019  -0.972   0.204  0.00  0.00     0.001 A 
ATOM     25  C   UNL d   1      -3.622  -1.035   0.208  0.00  0.00     0.015 A 
ENDBRANCH   4  20
TORSDOF 4
