REMARK  3 active torsions:
REMARK  status: ('A' for Active; 'I' for Inactive)
REMARK    1  A    between atoms: N_3  and  C_1 
REMARK       I    between atoms: C_2  and  N_3 
REMARK       I    between atoms: N_9  and  C_2 
REMARK    2  A    between atoms: C_15  and  C_6 
REMARK    3  A    between atoms: C_16  and  N_9 
ROOT
ATOM      1  C   UNL d   1       0.906  -2.855   0.853  0.00  0.00     0.325 C 
ATOM      2  N   UNL d   1       0.410  -1.824   0.118  0.00  0.00    -0.306 N 
ATOM      3  N   UNL d   1       1.881  -2.613   1.766  0.00  0.00    -0.307 N 
ATOM      4  O   UNL d   1       0.382  -3.951   0.663  0.00  0.00    -0.247 OA
ATOM      5  H   UNL d   1      -0.424  -2.161  -0.351  0.00  0.00     0.171 HD
ATOM      6  H   UNL d   1       2.279  -1.689   1.750  0.00  0.00     0.170 HD
ENDROOT
BRANCH   2   7
ATOM      7  C   UNL d   1       0.601  -0.424   0.007  0.00  0.00     0.071 C 
ATOM      8  C   UNL d   1       1.745   0.329   0.306  0.00  0.00     0.039 C 
ATOM      9  C   UNL d   1       1.704   1.738   0.302  0.00  0.00     0.029 C 
ATOM     10 BR   UNL d   1       3.498  -0.389   0.485  0.00  0.00    -0.049 Br
ATOM     11  C   UNL d   1       0.558   2.439  -0.086  0.00  0.00    -0.052 C 
ATOM     12  C   UNL d   1      -0.540   1.695  -0.522  0.00  0.00     0.029 C 
ATOM     13  C   UNL d   1      -0.513   0.297  -0.486  0.00  0.00     0.039 C 
ATOM     14 BR   UNL d   1      -2.083  -0.596  -1.115  0.00  0.00    -0.049 Br
BRANCH  11  15
ATOM     15  C   UNL d   1       0.456   3.951  -0.019  0.00  0.00     0.010 C 
ATOM     16  C   UNL d   1       0.102   4.381   1.408  0.00  0.00     0.015 C 
ATOM     17  C   UNL d   1       1.709   4.683  -0.508  0.00  0.00     0.015 C 
ENDBRANCH  11  15
ENDBRANCH   2   7
BRANCH   3  18
ATOM     18  C   UNL d   1       2.571  -3.579   2.535  0.00  0.00     0.051 A 
ATOM     19  C   UNL d   1       2.185  -4.908   2.688  0.00  0.00     0.117 A 
ATOM     20  N   UNL d   1       2.898  -5.836   3.382  0.00  0.00    -0.373 N 
ATOM     21  C   UNL d   1       4.052  -5.424   3.943  0.00  0.00     0.088 A 
ATOM     22  HN  UNL d   1       2.574  -6.799   3.474  1.00  0.00     0.164 HD
ATOM     23  C   UNL d   1       4.514  -4.122   3.870  0.00  0.00     0.019 A 
ATOM     24  C   UNL d   1       3.753  -3.188   3.169  0.00  0.00     0.032 A 
ENDBRANCH   3  18
TORSDOF 3
