REMARK  4 active torsions:
REMARK  status: ('A' for Active; 'I' for Inactive)
REMARK    1  A    between atoms: C_6  and  C_1 
REMARK    2  A    between atoms: C_5  and  C_2 
REMARK    3  A    between atoms: O_9  and  C_5 
REMARK    4  A    between atoms: C_13  and  O_9 
ROOT
ATOM      1  C   UNL d   1      -1.506  -0.393   0.174  0.00  0.00     0.087 A 
ATOM      2  C   UNL d   1      -0.185  -0.934   0.251  0.00  0.00     0.100 A 
ATOM      3  N   UNL d   1      -1.463   0.853  -0.327  0.00  0.00    -0.259 N 
ATOM      4  HN  UNL d   1      -2.263   1.447  -0.547  1.00  0.00     0.195 HD
ATOM      5  O   UNL d   1      -0.141   1.174  -0.487  0.00  0.00    -0.241 OA
ATOM      6  C   UNL d   1       0.630   0.115  -0.132  0.00  0.00     0.091 A 
ATOM      7  C   UNL d   1       2.086   0.361  -0.195  0.00  0.00     0.080 C 
ENDROOT
BRANCH   2   8
ATOM      8  C   UNL d   1       0.273  -2.246   0.660  0.00  0.00     0.303 C 
ATOM      9  O   UNL d   1      -0.285  -2.932   1.506  0.00  0.00    -0.259 OA
BRANCH   8  10
ATOM     10  O   UNL d   1       1.417  -2.604  -0.058  0.00  0.00    -0.275 OA
BRANCH  10  11
ATOM     11  C   UNL d   1       2.367  -3.624   0.187  0.00  0.00     0.079 A 
ATOM     12  C   UNL d   1       2.383  -4.415   1.328  0.00  0.00     0.037 A 
ATOM     13  C   UNL d   1       3.453  -5.293   1.524  0.00  0.00     0.003 A 
ATOM     14  C   UNL d   1       4.489  -5.370   0.587  0.00  0.00     0.000 A 
ATOM     15  C   UNL d   1       4.454  -4.581  -0.561  0.00  0.00     0.003 A 
ATOM     16  C   UNL d   1       3.389  -3.707  -0.763  0.00  0.00     0.037 A 
ENDBRANCH  10  11
ENDBRANCH   8  10
ENDBRANCH   2   8
BRANCH   1  17
ATOM     17  C   UNL d   1      -2.809  -0.979   0.497  0.00  0.00     0.037 A 
ATOM     18  C   UNL d   1      -3.686  -0.323   1.389  0.00  0.00     0.048 A 
ATOM     19 CL   UNL d   1      -3.240   1.098   2.280  0.00  0.00    -0.083 Cl
ATOM     20  C   UNL d   1      -4.982  -0.806   1.616  0.00  0.00     0.025 A 
ATOM     21  C   UNL d   1      -5.420  -1.966   0.986  0.00  0.00     0.003 A 
ATOM     22  C   UNL d   1      -4.561  -2.642   0.124  0.00  0.00     0.025 A 
ATOM     23  C   UNL d   1      -3.272  -2.150  -0.132  0.00  0.00     0.048 A 
ATOM     24 CL   UNL d   1      -2.338  -3.021  -1.304  0.00  0.00    -0.083 Cl
ENDBRANCH   1  17
TORSDOF 4
