REMARK  4 active torsions:
REMARK  status: ('A' for Active; 'I' for Inactive)
REMARK    1  A    between atoms: C_4  and  C_1 
REMARK    2  A    between atoms: C_5  and  C_3 
REMARK    3  A    between atoms: O_10  and  C_4 
REMARK    4  A    between atoms: O_11  and  C_5 
ROOT
ATOM      1  C   UNL d   1      -0.780  -1.012  -0.255  0.00  0.00     0.049 C 
ATOM      2  C   UNL d   1       0.771  -1.122  -0.005  0.00  0.00    -0.018 C 
ATOM      3  C   UNL d   1       1.291   0.358  -0.004  0.00  0.00     0.094 C 
ATOM      4  C   UNL d   1      -1.142   0.399   0.234  0.00  0.00     0.022 C 
ATOM      5  C   UNL d   1       0.056   1.273  -0.092  0.00  0.00     0.017 C 
ATOM      6  C   UNL d   1       1.121  -1.707   1.389  0.00  0.00     0.017 C 
ATOM      7  C   UNL d   1       1.456  -2.056  -1.027  0.00  0.00     0.017 C 
ATOM      8  C   UNL d   1      -1.604  -2.029   0.577  0.00  0.00     0.027 C 
ENDROOT
BRANCH   1   9
ATOM      9  C   UNL d   1      -1.227  -1.220  -1.726  0.00  0.00     0.149 C 
ATOM     10  O   UNL d   1      -1.997  -2.105  -2.076  0.00  0.00    -0.649 OA
BRANCH   9  11
ATOM     11  O   UNL d   1      -0.723  -0.376  -2.647  0.00  0.00    -0.776 OA
ATOM     12  H   UNL d   1      -0.019   0.254  -2.401  0.00  0.00     0.167 HD
ENDBRANCH   9  11
ENDBRANCH   1   9
BRANCH   3  13
ATOM     13  C   UNL d   1       2.280   0.654  -1.114  0.00  0.00     0.263 C 
ATOM     14  O   UNL d   1       1.938   1.033  -2.225  0.00  0.00    -0.265 OA
BRANCH  13  15
ATOM     15  O   UNL d   1       3.542   0.343  -0.719  0.00  0.00    -0.326 OA
ATOM     16  C   UNL d   1       4.532   0.465  -1.740  0.00  0.00     0.213 C 
ENDBRANCH  13  15
ENDBRANCH   3  13
TORSDOF 4
