REMARK  7 active torsions:
REMARK  status: ('A' for Active; 'I' for Inactive)
REMARK    1  A    between atoms: N_4  and  C_2 
REMARK    2  A    between atoms: S_22  and  C_11 
REMARK    3  A    between atoms: C_13  and  O_25 
REMARK       I    between atoms: N_14  and  C_13 
REMARK    4  A    between atoms: C_15  and  N_14 
REMARK    5  A    between atoms: C_28  and  S_22 
REMARK    6  A    between atoms: O_25  and  C_29 
REMARK    7  A    between atoms: C_29  and  C_28 
ROOT
ATOM      1  S   UNL d   1      -3.320   3.211  -1.614  0.00  0.00    -0.125 SA
ENDROOT
BRANCH   1   2
ATOM      2  C   UNL d   1      -3.275   1.453  -1.468  0.00  0.00     0.031 A 
ATOM      3  C   UNL d   1      -2.101   0.749  -1.095  0.00  0.00     0.104 A 
ATOM      4  C   UNL d   1      -2.059  -0.719  -1.036  0.00  0.00     0.119 A 
ATOM      5  N   UNL d   1      -0.889   1.210  -0.755  0.00  0.00    -0.238 N 
ATOM      6  C   UNL d   1      -3.200  -1.481  -1.359  0.00  0.00     0.133 A 
ATOM      7  N   UNL d   1      -0.823  -1.067  -0.653  0.00  0.00    -0.237 N 
ATOM      8  C   UNL d   1      -4.357  -0.767  -1.744  0.00  0.00     0.040 A 
ATOM      9  C   UNL d   1      -4.385   0.648  -1.798  0.00  0.00     0.023 A 
ATOM     10  O   UNL d   1      -0.115   0.102  -0.487  0.00  0.00    -0.156 OA
ATOM     11  HN  UNL d   1      -0.474  -2.015  -0.512  1.00  0.00     0.197 HD
ATOM     12  HN  UNL d   1      -0.599   2.187  -0.704  1.00  0.00     0.197 HD
BRANCH   6  13
ATOM     13  N   UNL d   1      -3.187  -2.931  -1.312  0.00  0.00    -0.113 N 
ATOM     14  O   UNL d   1      -2.155  -3.513  -0.963  0.00  0.00    -0.532 OA
ATOM     15  O   UNL d   1      -4.238  -3.507  -1.628  0.00  0.00    -0.532 OA
ENDBRANCH   6  13
ENDBRANCH   1   2
BRANCH   1  16
ATOM     16  C   UNL d   1      -3.067   3.698   0.135  0.00  0.00     0.106 C 
BRANCH  16  17
ATOM     17  C   UNL d   1      -3.024   5.220   0.265  0.00  0.00     0.191 C 
BRANCH  17  18
ATOM     18  O   UNL d   1      -4.274   5.845  -0.076  0.00  0.00    -0.303 OA
BRANCH  18  19
ATOM     19  C   UNL d   1      -5.187   5.886   0.930  0.00  0.00     0.365 C 
ATOM     20  N   UNL d   1      -6.245   6.660   0.540  0.00  0.00    -0.301 N 
ATOM     21  H   UNL d   1      -6.337   6.741  -0.463  0.00  0.00     0.171 HD
ATOM     22  O   UNL d   1      -5.069   5.267   1.978  0.00  0.00    -0.238 OA
BRANCH  20  23
ATOM     23  C   UNL d   1      -7.316   7.057   1.368  0.00  0.00     0.058 A 
ATOM     24  C   UNL d   1      -7.194   7.404   2.728  0.00  0.00     0.062 A 
ATOM     25  C   UNL d   1      -8.330   7.704   3.488  0.00  0.00     0.050 A 
ATOM     26 CL   UNL d   1      -5.671   7.704   3.502  0.00  0.00    -0.082 Cl
ATOM     27  C   UNL d   1      -9.584   7.705   2.886  0.00  0.00     0.035 A 
ATOM     28  C   UNL d   1      -9.711   7.449   1.524  0.00  0.00     0.026 A 
ATOM     29 CL   UNL d   1     -10.979   8.062   3.826  0.00  0.00    -0.084 Cl
ATOM     30  C   UNL d   1      -8.579   7.137   0.764  0.00  0.00     0.033 A 
ENDBRANCH  20  23
ENDBRANCH  18  19
ENDBRANCH  17  18
ENDBRANCH  16  17
ENDBRANCH   1  16
TORSDOF 7
