REMARK  3 active torsions:
REMARK  status: ('A' for Active; 'I' for Inactive)
REMARK    1  A    between atoms: N_10  and  C_1 
REMARK    2  A    between atoms: C_5  and  N_12 
REMARK    3  A    between atoms: C_20  and  C_6 
ROOT
ATOM      1  C   UNL d   1      -7.321  -4.972  -0.749  0.00  0.00     0.053 A 
ATOM      2  C   UNL d   1      -6.464  -4.136   0.054  0.00  0.00     0.118 A 
ATOM      3  C   UNL d   1      -7.263  -5.636  -2.065  0.00  0.00    -0.003 A 
ATOM      4  C   UNL d   1      -8.541  -5.301  -0.149  0.00  0.00     0.089 A 
ATOM      5  C   UNL d   1      -8.449  -6.274  -2.384  0.00  0.00     0.065 A 
ATOM      6  S   UNL d   1      -9.601  -6.188  -1.144  0.00  0.00    -0.082 SA
ATOM      7  N   UNL d   1      -6.885  -3.868   1.325  0.00  0.00    -0.338 N 
ATOM      8  HN  UNL d   1      -6.285  -3.328   1.949  1.00  0.00     0.168 HD
ATOM      9  N   UNL d   1      -8.963  -4.997   1.081  0.00  0.00    -0.346 N 
ATOM     10  HN  UNL d   1      -9.873  -5.270   1.451  1.00  0.00     0.167 HD
ATOM     11  C   UNL d   1      -8.070  -4.301   1.765  0.00  0.00     0.182 A 
ENDROOT
BRANCH   2  12
ATOM     12  N   UNL d   1      -5.260  -3.534  -0.276  0.00  0.00    -0.365 N 
ATOM     13  C   UNL d   1      -4.207  -3.513   0.773  0.00  0.00     0.144 C 
ATOM     14  C   UNL d   1      -3.842  -2.093   1.251  0.00  0.00     0.145 C 
ATOM     15  N   UNL d   1      -3.410  -1.231   0.142  0.00  0.00    -0.360 N 
ATOM     16  C   UNL d   1      -4.470  -0.785  -0.747  0.00  0.00     0.126 C 
ATOM     17  C   UNL d   1      -4.633  -1.713  -1.929  0.00  0.00     0.040 C 
ATOM     18  C   UNL d   1      -4.840  -3.190  -1.624  0.00  0.00     0.126 C 
BRANCH  15  19
ATOM     19  C   UNL d   1      -2.113  -0.816   0.044  0.00  0.00     0.147 A 
ATOM     20  N   UNL d   1      -1.193  -1.083   0.948  0.00  0.00    -0.336 N 
ATOM     21  C   UNL d   1       0.003  -0.447   0.657  0.00  0.00     0.051 A 
ATOM     22  HN  UNL d   1      -1.343  -1.683   1.759  1.00  0.00     0.168 HD
ATOM     23  C   UNL d   1       1.164  -0.455   1.457  0.00  0.00     0.031 A 
ATOM     24  C   UNL d   1       0.022   0.268  -0.537  0.00  0.00     0.035 A 
ATOM     25  C   UNL d   1       2.296   0.260   1.051  0.00  0.00     0.002 A 
ATOM     26  C   UNL d   1       2.291   0.967  -0.147  0.00  0.00     0.002 A 
ATOM     27  C   UNL d   1       1.158   0.976  -0.966  0.00  0.00     0.021 A 
ATOM     28  S   UNL d   1      -1.508   0.117  -1.291  0.00  0.00    -0.052 SA
ENDBRANCH  15  19
ENDBRANCH   2  12
BRANCH   3  29
ATOM     29  C   UNL d   1      -6.179  -5.699  -3.049  0.00  0.00    -0.024 A 
ATOM     30  C   UNL d   1      -4.888  -6.079  -2.666  0.00  0.00     0.012 A 
ATOM     31  C   UNL d   1      -3.820  -5.924  -3.555  0.00  0.00     0.001 A 
ATOM     32  C   UNL d   1      -4.043  -5.441  -4.845  0.00  0.00     0.000 A 
ATOM     33  C   UNL d   1      -5.339  -5.149  -5.264  0.00  0.00     0.001 A 
ATOM     34  C   UNL d   1      -6.403  -5.278  -4.372  0.00  0.00     0.012 A 
ENDBRANCH   3  29
TORSDOF 3
