REMARK  4 active torsions:
REMARK  status: ('A' for Active; 'I' for Inactive)
REMARK    1  A    between atoms: C_2  and  S_1 
REMARK    2  A    between atoms: N_4  and  S_1 
REMARK    3  A    between atoms: N_3  and  C_9 
REMARK    4  A    between atoms: C_17  and  N_4 
ROOT
ATOM      1  N   UNL d   1       0.631   1.520   0.281  0.00  0.00    -0.281 N 
ATOM      2  H   UNL d   1       0.486   0.530   0.469  0.00  0.00     0.179 HD
ENDROOT
BRANCH   1   3
ATOM      3  S   UNL d   1       0.428   2.031  -1.294  0.00  0.00     0.263 S 
ATOM      4  O   UNL d   1       0.222   0.838  -2.087  0.00  0.00    -0.200 OA
ATOM      5  O   UNL d   1      -0.513   3.130  -1.330  0.00  0.00    -0.200 OA
BRANCH   3   6
ATOM      6  C   UNL d   1       2.039   2.664  -1.702  0.00  0.00     0.081 A 
ATOM      7  C   UNL d   1       2.297   4.029  -1.545  0.00  0.00     0.050 A 
ATOM      8  C   UNL d   1       3.560   4.532  -1.861  0.00  0.00     0.057 A 
ATOM      9 CL   UNL d   1       3.829   6.223  -1.627  0.00  0.00    -0.083 Cl
ATOM     10  C   UNL d   1       4.557   3.674  -2.345  0.00  0.00     0.055 A 
ATOM     11  C   UNL d   1       4.281   2.313  -2.523  0.00  0.00     0.027 A 
ATOM     12 CL   UNL d   1       6.145   4.229  -2.737  0.00  0.00    -0.083 Cl
ATOM     13  C   UNL d   1       3.019   1.804  -2.207  0.00  0.00     0.027 A 
ENDBRANCH   3   6
ENDBRANCH   1   3
BRANCH   1  14
ATOM     14  C   UNL d   1       0.837   2.424   1.346  0.00  0.00     0.042 A 
ATOM     15  C   UNL d   1      -0.236   3.068   1.952  0.00  0.00     0.032 A 
ATOM     16  C   UNL d   1      -0.029   3.853   3.096  0.00  0.00     0.032 A 
ATOM     17  C   UNL d   1       1.258   3.998   3.641  0.00  0.00     0.038 A 
ATOM     18  C   UNL d   1       2.333   3.362   2.999  0.00  0.00     0.032 A 
ATOM     19  C   UNL d   1       2.119   2.570   1.867  0.00  0.00     0.032 A 
BRANCH  17  20
ATOM     20  N   UNL d   1       1.469   4.755   4.839  0.00  0.00    -0.333 N 
ATOM     21  C   UNL d   1       2.681   4.994   5.465  0.00  0.00     0.096 A 
ATOM     22  C   UNL d   1       2.475   5.756   6.595  0.00  0.00     0.019 A 
ATOM     23  C   UNL d   1       1.092   5.995   6.687  0.00  0.00     0.019 A 
ATOM     24  C   UNL d   1       0.499   5.373   5.610  0.00  0.00     0.096 A 
ENDBRANCH  17  20
ENDBRANCH   1  14
TORSDOF 4
