REMARK  5 active torsions:
REMARK  status: ('A' for Active; 'I' for Inactive)
REMARK    1  A    between atoms: C_13  and  C_2 
REMARK    2  A    between atoms: C_6  and  C_13 
REMARK    3  A    between atoms: S_16  and  C_7 
REMARK    4  A    between atoms: C_21  and  S_16 
REMARK    5  A    between atoms: C_18  and  C_21 
ROOT
ATOM      1  N   UNL d   1       0.783  -0.056   0.001  0.00  0.00    -0.319 N 
ATOM      2  C   UNL d   1      -0.006   1.046  -0.263  0.00  0.00     0.105 A 
ATOM      3  C   UNL d   1      -0.046  -1.142  -0.129  0.00  0.00     0.162 A 
ATOM      4  N   UNL d   1      -1.237   0.633  -0.496  0.00  0.00    -0.286 N 
ATOM      5  HN  UNL d   1      -2.037   1.231  -0.705  1.00  0.00     0.188 HD
ATOM      6  N   UNL d   1      -1.260  -0.736  -0.412  0.00  0.00    -0.278 N 
ATOM      7  HN  UNL d   1      -2.077  -1.332  -0.546  1.00  0.00     0.189 HD
ATOM      8  C   UNL d   1       2.180  -0.067   0.350  0.00  0.00     0.159 C 
ENDROOT
BRANCH   2   9
ATOM      9  C   UNL d   1       0.404   2.477  -0.196  0.00  0.00     0.137 C 
BRANCH   9  10
ATOM     10  C   UNL d   1       1.342   2.869  -1.327  0.00  0.00     0.044 A 
ATOM     11  N   UNL d   1       2.612   2.875  -1.047  0.00  0.00    -0.299 N 
ATOM     12  N   UNL d   1       3.509   3.306  -1.986  0.00  0.00    -0.261 N 
ATOM     13  HN  UNL d   1       2.937   2.560  -0.133  1.00  0.00     0.187 HD
ATOM     14  C   UNL d   1       4.897   3.380  -1.575  0.00  0.00     0.181 C 
ATOM     15  C   UNL d   1       3.164   3.785  -3.245  0.00  0.00     0.272 A 
ATOM     16  C   UNL d   1       1.731   3.747  -3.588  0.00  0.00     0.046 A 
ATOM     17  O   UNL d   1       3.975   4.227  -4.056  0.00  0.00    -0.266 OA
ATOM     18  C   UNL d   1       0.810   3.285  -2.650  0.00  0.00     0.004 A 
ATOM     19  C   UNL d   1       1.312   4.184  -4.853  0.00  0.00     0.018 A 
ATOM     20  C   UNL d   1      -0.549   3.257  -2.986  0.00  0.00     0.014 A 
ATOM     21  C   UNL d   1      -0.970   3.698  -4.247  0.00  0.00     0.001 A 
ATOM     22  C   UNL d   1      -0.041   4.161  -5.181  0.00  0.00     0.001 A 
ENDBRANCH   9  10
ENDBRANCH   2   9
BRANCH   3  23
ATOM     23  S   UNL d   1       0.461  -2.794   0.029  0.00  0.00    -0.088 SA
BRANCH  23  24
ATOM     24  C   UNL d   1      -1.130  -3.653  -0.215  0.00  0.00     0.122 C 
BRANCH  24  25
ATOM     25  C   UNL d   1      -1.000  -5.165  -0.161  0.00  0.00    -0.027 A 
ATOM     26  C   UNL d   1      -1.061  -5.891   1.041  0.00  0.00     0.042 A 
ATOM     27  C   UNL d   1      -0.963  -7.287   1.041  0.00  0.00     0.048 A 
ATOM     28 CL   UNL d   1      -1.276  -5.115   2.569  0.00  0.00    -0.084 Cl
ATOM     29  C   UNL d   1      -0.803  -7.969  -0.159  0.00  0.00     0.035 A 
ATOM     30  C   UNL d   1      -0.735  -7.272  -1.363  0.00  0.00     0.024 A 
ATOM     31 CL   UNL d   1      -0.691  -9.688  -0.161  0.00  0.00    -0.084 Cl
ATOM     32  C   UNL d   1      -0.829  -5.879  -1.363  0.00  0.00     0.011 A 
ENDBRANCH  24  25
ENDBRANCH  23  24
ENDBRANCH   3  23
TORSDOF 5
