REMARK  8 active torsions:
REMARK  status: ('A' for Active; 'I' for Inactive)
REMARK    1  A    between atoms: S_9  and  C_3 
REMARK    2  A    between atoms: C_4  and  C_10 
REMARK    3  A    between atoms: C_13  and  C_6 
REMARK    4  A    between atoms: C_20  and  S_9 
REMARK    5  A    between atoms: C_11  and  C_20 
REMARK       I    between atoms: N_12  and  C_11 
REMARK    6  A    between atoms: C_23  and  N_12 
REMARK    7  A    between atoms: O_26  and  C_13 
REMARK    8  A    between atoms: O_27  and  C_13 
ROOT
ATOM      1  N   UNL d   1       0.262  -1.016  -0.995  0.00  0.00    -0.349 N 
ATOM      2  HN  UNL d   1       1.030  -1.593  -1.339  1.00  0.00     0.166 HD
ATOM      3  C   UNL d   1      -0.053  -1.024   0.319  0.00  0.00     0.091 A 
ATOM      4  C   UNL d   1      -1.074  -0.223   0.821  0.00  0.00     0.078 A 
ATOM      5  C   UNL d   1      -0.446  -0.234  -1.862  0.00  0.00     0.065 A 
ATOM      6  C   UNL d   1      -1.432  -0.225   2.203  0.00  0.00     0.102 C 
ATOM      7  N   UNL d   1      -1.755  -0.209   3.321  0.00  0.00    -0.191 NA
ATOM      8  C   UNL d   1      -1.786   0.597  -0.062  0.00  0.00     0.027 A 
ATOM      9  C   UNL d   1      -1.473   0.592  -1.419  0.00  0.00     0.032 A 
ENDROOT
BRANCH   3  10
ATOM     10  S   UNL d   1       0.828  -2.229   1.325  0.00  0.00    -0.101 SA
BRANCH  10  11
ATOM     11  C   UNL d   1       2.303  -2.479   0.290  0.00  0.00     0.184 C 
BRANCH  11  12
ATOM     12  C   UNL d   1       3.258  -3.575   0.746  0.00  0.00     0.231 C 
ATOM     13  N   UNL d   1       2.840  -4.416   1.760  0.00  0.00    -0.327 N 
ATOM     14  H   UNL d   1       1.876  -4.316   2.060  0.00  0.00     0.169 HD
ATOM     15  O   UNL d   1       4.337  -3.677   0.155  0.00  0.00    -0.272 OA
BRANCH  13  16
ATOM     16  C   UNL d   1       3.617  -5.415   2.400  0.00  0.00     0.034 A 
ATOM     17  C   UNL d   1       4.994  -5.552   2.210  0.00  0.00     0.030 A 
ATOM     18  C   UNL d   1       5.731  -6.521   2.901  0.00  0.00     0.018 A 
ATOM     19  C   UNL d   1       5.105  -7.384   3.805  0.00  0.00     0.048 A 
ATOM     20  C   UNL d   1       3.718  -7.266   3.985  0.00  0.00     0.018 A 
ATOM     21  C   UNL d   1       2.984  -6.285   3.296  0.00  0.00     0.030 A 
BRANCH  19  22
ATOM     22  C   UNL d   1       5.904  -8.403   4.580  0.00  0.00     0.417 C 
ATOM     23  F   UNL d   1       7.240  -8.370   4.310  0.00  0.00    -0.166 F 
ATOM     24  F   UNL d   1       5.796  -8.232   5.928  0.00  0.00    -0.166 F 
ATOM     25  F   UNL d   1       5.507  -9.682   4.334  0.00  0.00    -0.166 F 
ENDBRANCH  19  22
ENDBRANCH  13  16
ENDBRANCH  11  12
ENDBRANCH  10  11
ENDBRANCH   3  10
BRANCH   5  26
ATOM     26  C   UNL d   1      -0.139  -0.328  -3.363  0.00  0.00     0.309 C 
BRANCH  26  27
ATOM     27  O   UNL d   1       0.702   0.780  -3.708  0.00  0.00    -0.360 OA
ATOM     28  C   UNL d   1       0.923   0.868  -5.110  0.00  0.00     0.205 C 
ENDBRANCH  26  27
BRANCH  26  29
ATOM     29  O   UNL d   1       0.493  -1.563  -3.720  0.00  0.00    -0.360 OA
ATOM     30  C   UNL d   1      -0.348  -2.695  -3.546  0.00  0.00     0.205 C 
ENDBRANCH  26  29
ENDBRANCH   5  26
TORSDOF 8
