REMARK  9 active torsions:
REMARK  status: ('A' for Active; 'I' for Inactive)
REMARK    1  A    between atoms: N_8  and  C_1 
REMARK    2  A    between atoms: S_4  and  C_2 
REMARK    3  A    between atoms: C_7  and  C_3 
REMARK    4  A    between atoms: C_19  and  S_4 
REMARK    5  A    between atoms: O_20  and  C_7 
REMARK    6  A    between atoms: N_9  and  N_8 
REMARK    7  A    between atoms: N_14  and  C_13 
REMARK    8  A    between atoms: C_21  and  C_18 
REMARK    9  A    between atoms: C_27  and  C_19 
ROOT
ATOM      1  C   UNL d   1       1.518   0.851   0.084  0.00  0.00     0.093 A 
ATOM      2  C   UNL d   1       1.533  -0.598   0.059  0.00  0.00     0.095 A 
ATOM      3  C   UNL d   1       0.208   1.338   0.039  0.00  0.00     0.109 A 
ATOM      4  S   UNL d   1      -0.946   0.059   0.020  0.00  0.00    -0.092 SA
ATOM      5  C   UNL d   1       0.259  -1.126   0.009  0.00  0.00     0.076 A 
ENDROOT
BRANCH   1   6
ATOM      6  N   UNL d   1       2.599   1.688   0.113  0.00  0.00    -0.298 N 
ATOM      7  H   UNL d   1       2.430   2.699   0.095  0.00  0.00     0.187 HD
BRANCH   6   8
ATOM      8  N   UNL d   1       3.885   1.261   0.169  0.00  0.00    -0.311 N 
ATOM      9  C   UNL d   1       4.801   2.106  -0.192  0.00  0.00     0.118 C 
ATOM     10  HN  UNL d   1       4.122   0.319   0.480  1.00  0.00     0.186 HD
BRANCH   9  11
ATOM     11  C   UNL d   1       6.245   1.764  -0.163  0.00  0.00    -0.019 A 
ATOM     12  C   UNL d   1       6.685   0.450  -0.036  0.00  0.00     0.015 A 
ATOM     13  C   UNL d   1       8.058   0.161  -0.005  0.00  0.00     0.030 A 
ATOM     14  C   UNL d   1       9.041   1.159  -0.114  0.00  0.00     0.029 A 
ATOM     15  C   UNL d   1       8.564   2.475  -0.240  0.00  0.00     0.030 A 
ATOM     16  C   UNL d   1       7.190   2.781  -0.267  0.00  0.00     0.015 A 
BRANCH  14  17
ATOM     17  N   UNL d   1      10.390   0.848  -0.070  0.00  0.00    -0.390 N 
ATOM     18  C   UNL d   1      11.412   1.823   0.292  0.00  0.00     0.149 C 
ATOM     19  C   UNL d   1      10.900  -0.401  -0.633  0.00  0.00     0.149 C 
ENDBRANCH  14  17
ENDBRANCH   9  11
ENDBRANCH   6   8
ENDBRANCH   1   6
BRANCH   2  20
ATOM     20  S   UNL d   1       2.905  -1.669   0.032  0.00  0.00     0.178 S 
ATOM     21  O   UNL d   1       2.314  -3.001   0.072  0.00  0.00    -0.223 OA
ATOM     22  O   UNL d   1       3.697  -1.279  -1.112  0.00  0.00    -0.223 OA
BRANCH  20  23
ATOM     23  C   UNL d   1       3.812  -1.466   1.546  0.00  0.00     0.145 C 
BRANCH  23  24
ATOM     24  C   UNL d   1       2.999  -1.727   2.803  0.00  0.00     0.011 C 
ATOM     25  C   UNL d   1       3.865  -1.528   4.038  0.00  0.00     0.006 C 
ENDBRANCH  23  24
ENDBRANCH  20  23
ENDBRANCH   2  20
BRANCH   3  26
ATOM     26  C   UNL d   1      -0.354   2.683  -0.007  0.00  0.00     0.302 C 
ATOM     27  O   UNL d   1      -1.549   2.959  -0.053  0.00  0.00    -0.259 OA
BRANCH  26  28
ATOM     28  O   UNL d   1       0.630   3.637  -0.013  0.00  0.00    -0.322 OA
ATOM     29  C   UNL d   1       0.106   4.966  -0.129  0.00  0.00     0.213 C 
ENDBRANCH  26  28
ENDBRANCH   3  26
TORSDOF 9
