REMARK  8 active torsions:
REMARK  status: ('A' for Active; 'I' for Inactive)
REMARK    1  A    between atoms: C_2  and  N_1 
REMARK    2  A    between atoms: N_10  and  C_7 
REMARK    3  A    between atoms: C_13  and  N_10 
REMARK    4  A    between atoms: O_12  and  C_14 
REMARK    5  A    between atoms: C_15  and  C_13 
REMARK    6  A    between atoms: C_14  and  C_16 
REMARK    7  A    between atoms: C_17  and  C_15 
REMARK    8  A    between atoms: C_16  and  C_17 
ROOT
ATOM      1  C   UNL d   1       0.568  -1.331  -0.150  0.00  0.00     0.118 A 
ATOM      2  N   UNL d   1       0.205  -3.713  -0.120  0.00  0.00    -0.354 N 
ATOM      3  HN  UNL d   1       0.562  -4.656   0.037  1.00  0.00     0.166 HD
ATOM      4  C   UNL d   1      -1.079  -3.513  -0.480  0.00  0.00     0.079 A 
ATOM      5  C   UNL d   1       1.012  -2.631   0.029  0.00  0.00     0.125 A 
ATOM      6  C   UNL d   1      -0.747  -1.121  -0.543  0.00  0.00     0.041 A 
ATOM      7  C   UNL d   1      -1.575  -2.228  -0.718  0.00  0.00     0.044 A 
ENDROOT
BRANCH   4   8
ATOM      8  N   UNL d   1      -1.981  -4.577  -0.566  0.00  0.00    -0.279 NA
ATOM      9  H   UNL d   1      -2.439  -4.576  -1.471  0.00  0.00     0.129 HD
BRANCH   8  10
ATOM     10  C   UNL d   1      -1.485  -5.883  -0.142  0.00  0.00     0.094 C 
BRANCH  10  11
ATOM     11  C   UNL d   1      -2.449  -6.984  -0.600  0.00  0.00     0.015 C 
BRANCH  11  12
ATOM     12  C   UNL d   1      -2.326  -7.258  -2.103  0.00  0.00     0.003 C 
BRANCH  12  13
ATOM     13  C   UNL d   1      -3.279  -8.358  -2.560  0.00  0.00     0.026 C 
BRANCH  13  14
ATOM     14  C   UNL d   1      -3.158  -8.602  -4.059  0.00  0.00     0.164 C 
BRANCH  14  15
ATOM     15  O   UNL d   1      -4.067  -9.626  -4.437  0.00  0.00    -0.401 OA
ATOM     16  H   UNL d   1      -3.957  -9.763  -5.394  0.00  0.00     0.209 HD
ENDBRANCH  14  15
ENDBRANCH  13  14
ENDBRANCH  12  13
ENDBRANCH  11  12
ENDBRANCH  10  11
ENDBRANCH   8  10
ENDBRANCH   4   8
BRANCH   1  17
ATOM     17  N   UNL d   1       1.465  -0.213   0.103  0.00  0.00    -0.114 N 
ATOM     18  O   UNL d   1       2.630  -0.470   0.426  0.00  0.00    -0.532 OA
ATOM     19  O   UNL d   1       1.004   0.934  -0.013  0.00  0.00    -0.532 OA
ENDBRANCH   1  17
TORSDOF 8
