REMARK  2 active torsions:
REMARK  status: ('A' for Active; 'I' for Inactive)
REMARK    1  A    between atoms: S_13  and  C_2 
REMARK    2  A    between atoms: N_15  and  C_8 
ROOT
ATOM      1  C   UNL d   1       0.441   0.636   0.073  0.00  0.00     0.047 A 
ATOM      2  C   UNL d   1       1.790   0.952   0.036  0.00  0.00     0.057 A 
ATOM      3  C   UNL d   1       0.252  -0.806  -0.024  0.00  0.00    -0.014 A 
ATOM      4  S   UNL d   1       2.778  -0.454   0.029  0.00  0.00    -0.071 SA
ATOM      5  C   UNL d   1      -0.690   1.578   0.202  0.00  0.00     0.192 C 
ATOM      6  C   UNL d   1       1.440  -1.506   0.017  0.00  0.00     0.093 A 
ATOM      7  C   UNL d   1      -2.014   0.860   0.241  0.00  0.00     0.008 C 
ATOM      8  C   UNL d   1      -2.971   1.321   1.064  0.00  0.00     0.095 C 
ATOM      9  C   UNL d   1       1.561  -2.933   0.048  0.00  0.00     0.107 C 
ATOM     10  N   UNL d   1       1.609  -4.090   0.080  0.00  0.00    -0.191 NA
ATOM     11  C   UNL d   1      -1.127  -1.403  -0.112  0.00  0.00     0.046 C 
ATOM     12  C   UNL d   1      -2.097  -0.351  -0.643  0.00  0.00     0.049 C 
ATOM     13  O   UNL d   1      -0.599   2.794   0.300  0.00  0.00    -0.287 OA
ENDROOT
BRANCH   2  14
ATOM     14  S   UNL d   1       2.572   2.531   0.057  0.00  0.00    -0.126 SA
ATOM     15  C   UNL d   1       2.099   3.173  -1.566  0.00  0.00     0.096 C 
ENDBRANCH   2  14
BRANCH   8  16
ATOM     16  N   UNL d   1      -4.205   0.782   1.415  0.00  0.00    -0.398 N 
ATOM     17  C   UNL d   1      -4.492  -0.651   1.477  0.00  0.00     0.148 C 
ATOM     18  C   UNL d   1      -5.267   1.615   1.985  0.00  0.00     0.148 C 
ENDBRANCH   8  16
TORSDOF 2
