REMARK  5 active torsions:
REMARK  status: ('A' for Active; 'I' for Inactive)
REMARK    1  A    between atoms: S_13  and  C_3 
REMARK    2  A    between atoms: C_7  and  C_4 
REMARK    3  A    between atoms: O_15  and  C_7 
REMARK    4  A    between atoms: O_16  and  N_11 
REMARK    5  A    between atoms: C_19  and  S_13 
ROOT
ATOM      1  C   UNL d   1       0.124  -0.799  -0.006  0.00  0.00     0.020 A 
ATOM      2  C   UNL d   1       0.459   0.624  -0.036  0.00  0.00    -0.020 A 
ATOM      3  C   UNL d   1       1.255  -1.595  -0.029  0.00  0.00     0.054 A 
ATOM      4  C   UNL d   1       1.834   0.834  -0.065  0.00  0.00     0.088 A 
ATOM      5  S   UNL d   1       2.679  -0.652  -0.027  0.00  0.00    -0.076 SA
ATOM      6  C   UNL d   1      -1.281  -1.205   0.062  0.00  0.00     0.045 C 
ATOM      7  C   UNL d   1      -0.620   1.705  -0.038  0.00  0.00     0.050 C 
ATOM      8  C   UNL d   1      -2.035   1.164   0.330  0.00  0.00    -0.038 C 
ATOM      9  C   UNL d   1      -2.274  -0.162  -0.425  0.00  0.00     0.069 C 
ATOM     10  N   UNL d   1      -1.601  -2.348   0.590  0.00  0.00    -0.273 N 
ATOM     11  HN  UNL d   1      -0.923  -3.038   0.914  1.00  0.00     0.194 HD
ATOM     12  C   UNL d   1      -3.134   2.158  -0.093  0.00  0.00     0.015 C 
ATOM     13  C   UNL d   1      -2.159   0.965   1.857  0.00  0.00     0.015 C 
ENDROOT
BRANCH   4  14
ATOM     14  C   UNL d   1       2.567   2.094  -0.124  0.00  0.00     0.300 C 
ATOM     15  O   UNL d   1       2.049   3.207  -0.186  0.00  0.00    -0.259 OA
BRANCH  14  16
ATOM     16  O   UNL d   1       3.917   1.887  -0.112  0.00  0.00    -0.322 OA
ATOM     17  C   UNL d   1       4.715   3.070  -0.183  0.00  0.00     0.213 C 
ENDBRANCH  14  16
ENDBRANCH   4  14
BRANCH   3  18
ATOM     18  S   UNL d   1       1.452  -3.344  -0.017  0.00  0.00    -0.122 SA
BRANCH  18  19
ATOM     19  C   UNL d   1       0.639  -3.888  -1.544  0.00  0.00     0.075 C 
ATOM     20  C   UNL d   1       1.222  -3.314  -2.825  0.00  0.00     0.016 C 
ENDBRANCH  18  19
ENDBRANCH   3  18
BRANCH  10  21
ATOM     21  O   UNL d   1      -2.990  -2.516   0.659  0.00  0.00    -0.290 OA
ATOM     22  H   UNL d   1      -3.079  -3.378   1.105  0.00  0.00     0.244 HD
ENDBRANCH  10  21
TORSDOF 5
