REMARK  9 active torsions:
REMARK  status: ('A' for Active; 'I' for Inactive)
REMARK    1  A    between atoms: C_8  and  C_1 
REMARK    2  A    between atoms: C_12  and  C_4 
REMARK    3  A    between atoms: S_11  and  C_6 
REMARK    4  A    between atoms: O_19  and  C_8 
REMARK    5  A    between atoms: C_17  and  S_11 
REMARK    6  A    between atoms: O_21  and  C_12 
REMARK    7  A    between atoms: O_22  and  C_12 
REMARK    8  A    between atoms: C_13  and  C_17 
REMARK       I    between atoms: N_14  and  C_13 
REMARK    9  A    between atoms: C_18  and  N_14 
ROOT
ATOM      1  C   UNL d   1      -1.489   1.442   0.132  0.00  0.00     0.068 A 
ATOM      2  N   UNL d   1      -1.295  -0.950   0.428  0.00  0.00    -0.348 N 
ATOM      3  HN  UNL d   1      -1.737  -1.866   0.502  1.00  0.00     0.166 HD
ATOM      4  C   UNL d   1      -2.070   0.172   0.226  0.00  0.00     0.082 A 
ATOM      5  C   UNL d   1       0.693   0.382   0.386  0.00  0.00     0.079 A 
ATOM      6  C   UNL d   1       0.050  -0.840   0.529  0.00  0.00     0.091 A 
ATOM      7  C   UNL d   1      -0.088   1.526   0.185  0.00  0.00     0.045 A 
ATOM      8  C   UNL d   1       2.113   0.521   0.475  0.00  0.00     0.102 C 
ATOM      9  N   UNL d   1       3.263   0.674   0.545  0.00  0.00    -0.191 NA
ENDROOT
BRANCH   6  10
ATOM     10  S   UNL d   1       0.937  -2.321   1.006  0.00  0.00    -0.101 SA
BRANCH  10  11
ATOM     11  C   UNL d   1      -0.153  -3.608   0.315  0.00  0.00     0.184 C 
BRANCH  11  12
ATOM     12  C   UNL d   1       0.328  -5.029   0.608  0.00  0.00     0.231 C 
ATOM     13  N   UNL d   1       1.113  -5.178   1.739  0.00  0.00    -0.327 N 
ATOM     14  H   UNL d   1       1.308  -4.324   2.251  0.00  0.00     0.169 HD
ATOM     15  O   UNL d   1      -0.054  -5.951  -0.114  0.00  0.00    -0.272 OA
BRANCH  13  16
ATOM     16  C   UNL d   1       1.694  -6.363   2.241  0.00  0.00     0.034 A 
ATOM     17  C   UNL d   1       1.606  -7.604   1.602  0.00  0.00     0.031 A 
ATOM     18  C   UNL d   1       2.213  -8.738   2.154  0.00  0.00     0.026 A 
ATOM     19  C   UNL d   1       2.910  -8.638   3.353  0.00  0.00     0.034 A 
ATOM     20  C   UNL d   1       3.008  -7.411   4.003  0.00  0.00     0.026 A 
ATOM     21 CL   UNL d   1       3.651 -10.034   4.034  0.00  0.00    -0.084 Cl
ATOM     22  C   UNL d   1       2.405  -6.276   3.445  0.00  0.00     0.031 A 
ENDBRANCH  13  16
ENDBRANCH  11  12
ENDBRANCH  10  11
ENDBRANCH   6  10
BRANCH   1  23
ATOM     23  C   UNL d   1      -2.292   2.695   0.117  0.00  0.00     0.295 C 
ATOM     24  O   UNL d   1      -3.428   2.787   0.548  0.00  0.00    -0.259 OA
BRANCH  23  25
ATOM     25  O   UNL d   1      -1.539   3.731  -0.331  0.00  0.00    -0.322 OA
ATOM     26  C   UNL d   1      -2.139   5.017  -0.144  0.00  0.00     0.213 C 
ENDBRANCH  23  25
ENDBRANCH   1  23
BRANCH   4  27
ATOM     27  C   UNL d   1      -3.573  -0.066   0.029  0.00  0.00     0.310 C 
BRANCH  27  28
ATOM     28  O   UNL d   1      -3.769  -0.233  -1.383  0.00  0.00    -0.360 OA
ATOM     29  C   UNL d   1      -5.147  -0.326  -1.722  0.00  0.00     0.205 C 
ENDBRANCH  27  28
BRANCH  27  30
ATOM     30  O   UNL d   1      -4.038  -1.227   0.735  0.00  0.00    -0.360 OA
ATOM     31  C   UNL d   1      -4.028  -1.046   2.145  0.00  0.00     0.205 C 
ENDBRANCH  27  30
ENDBRANCH   4  27
TORSDOF 9
