REMARK  8 active torsions:
REMARK  status: ('A' for Active; 'I' for Inactive)
REMARK    1  A    between atoms: C_9  and  N_1 
REMARK    2  A    between atoms: S_8  and  C_2 
REMARK    3  A    between atoms: C_7  and  O_13 
REMARK    4  A    between atoms: C_20  and  S_8 
REMARK    5  A    between atoms: C_10  and  C_20 
REMARK       I    between atoms: N_11  and  C_10 
REMARK    6  A    between atoms: C_24  and  N_11 
REMARK    7  A    between atoms: N_14  and  C_12 
REMARK    8  A    between atoms: O_13  and  C_25 
ROOT
ATOM      1  S   UNL d   1       2.415  -1.605  -1.010  0.00  0.00    -0.082 SA
ENDROOT
BRANCH   1   2
ATOM      2  C   UNL d   1       1.006  -0.809  -0.385  0.00  0.00     0.177 A 
ATOM      3  N   UNL d   1      -0.232  -1.398  -0.165  0.00  0.00    -0.219 N 
ATOM      4  N   UNL d   1      -1.121  -0.389   0.040  0.00  0.00     0.001 NA
ATOM      5  N   UNL d   1      -0.416   0.734   0.046  0.00  0.00    -0.006 NA
ATOM      6  N   UNL d   1       0.903   0.493  -0.225  0.00  0.00    -0.264 N 
ATOM      7  HN  UNL d   1       1.653   1.182  -0.291  1.00  0.00     0.186 HD
BRANCH   3   8
ATOM      8  C   UNL d   1      -0.644  -2.754  -0.132  0.00  0.00     0.057 A 
ATOM      9  C   UNL d   1       0.250  -3.781   0.165  0.00  0.00     0.033 A 
ATOM     10  C   UNL d   1      -0.173  -5.114   0.128  0.00  0.00     0.031 A 
ATOM     11  C   UNL d   1      -1.483  -5.481  -0.223  0.00  0.00     0.029 A 
ATOM     12  C   UNL d   1      -2.382  -4.428  -0.440  0.00  0.00     0.031 A 
ATOM     13  C   UNL d   1      -1.980  -3.080  -0.384  0.00  0.00     0.033 A 
BRANCH  11  14
ATOM     14  N   UNL d   1      -1.839  -6.829  -0.274  0.00  0.00    -0.390 N 
ATOM     15  C   UNL d   1      -0.921  -7.745  -0.961  0.00  0.00     0.149 C 
ATOM     16  C   UNL d   1      -3.246  -7.210  -0.384  0.00  0.00     0.149 C 
ENDBRANCH  11  14
ENDBRANCH   3   8
ENDBRANCH   1   2
BRANCH   1  17
ATOM     17  C   UNL d   1       3.016  -0.363  -2.183  0.00  0.00     0.185 C 
BRANCH  17  18
ATOM     18  C   UNL d   1       1.977   0.040  -3.225  0.00  0.00     0.231 C 
ATOM     19  N   UNL d   1       2.320   1.246  -3.840  0.00  0.00    -0.327 N 
ATOM     20  H   UNL d   1       3.219   1.642  -3.604  0.00  0.00     0.169 HD
ATOM     21  O   UNL d   1       1.016  -0.661  -3.517  0.00  0.00    -0.272 OA
BRANCH  19  22
ATOM     22  C   UNL d   1       1.616   1.891  -4.873  0.00  0.00     0.034 A 
ATOM     23  C   UNL d   1       0.308   1.575  -5.241  0.00  0.00     0.032 A 
ATOM     24  C   UNL d   1      -0.300   2.210  -6.330  0.00  0.00     0.039 A 
ATOM     25  C   UNL d   1       0.410   3.140  -7.083  0.00  0.00     0.078 A 
ATOM     26  C   UNL d   1       1.686   3.521  -6.669  0.00  0.00     0.039 A 
ATOM     27  C   UNL d   1       2.284   2.906  -5.566  0.00  0.00     0.032 A 
BRANCH  25  28
ATOM     28  O   UNL d   1      -0.067   3.775  -8.188  0.00  0.00    -0.255 OA
BRANCH  28  29
ATOM     29  C   UNL d   1      -0.803   2.997  -9.126  0.00  0.00     0.530 C 
ATOM     30  F   UNL d   1      -0.833   1.677  -8.853  0.00  0.00    -0.144 F 
ATOM     31  F   UNL d   1      -2.071   3.458  -9.187  0.00  0.00    -0.144 F 
ATOM     32  F   UNL d   1      -0.240   3.153 -10.347  0.00  0.00    -0.144 F 
ENDBRANCH  28  29
ENDBRANCH  25  28
ENDBRANCH  19  22
ENDBRANCH  17  18
ENDBRANCH   1  17
TORSDOF 8
