REMARK  4 active torsions:
REMARK  status: ('A' for Active; 'I' for Inactive)
REMARK       I    between atoms: N_2  and  C_1 
REMARK    1  A    between atoms: C_3  and  C_1 
REMARK    2  A    between atoms: C_10  and  N_2 
REMARK    3  A    between atoms: O_8  and  C_6 
REMARK    4  A    between atoms: C_12  and  O_8 
ROOT
ATOM      1  N   UNL d   1       1.337  -0.351   4.835  0.00  0.00    -0.344 N 
ATOM      2  HN  UNL d   1       1.026  -0.865   5.660  1.00  0.00     0.167 HD
ATOM      3  C   UNL d   1       2.389   0.489   4.886  0.00  0.00     0.148 A 
ATOM      4  C   UNL d   1       1.102   0.159   2.472  0.00  0.00     0.050 A 
ATOM      5  C   UNL d   1       0.711  -0.484   3.646  0.00  0.00     0.119 A 
ATOM      6  C   UNL d   1       2.907   1.122   3.767  0.00  0.00     0.059 A 
ATOM      7  C   UNL d   1       2.256   0.947   2.542  0.00  0.00     0.035 A 
ENDROOT
BRANCH   3   8
ATOM      8  O   UNL d   1       2.989   0.747   6.112  0.00  0.00    -0.294 OA
BRANCH   8   9
ATOM      9  C   UNL d   1       2.183   0.672   7.233  0.00  0.00     0.078 A 
ATOM     10  C   UNL d   1       2.742   0.102   8.380  0.00  0.00     0.040 A 
ATOM     11  C   UNL d   1       1.986   0.012   9.552  0.00  0.00     0.045 A 
ATOM     12  C   UNL d   1       0.684   0.500   9.570  0.00  0.00     0.116 A 
ATOM     13  C   UNL d   1       0.125   1.092   8.444  0.00  0.00     0.045 A 
ATOM     14  F   UNL d   1      -0.042   0.405  10.692  0.00  0.00    -0.206 F 
ATOM     15  C   UNL d   1       0.883   1.194   7.277  0.00  0.00     0.040 A 
ENDBRANCH   8   9
ENDBRANCH   3   8
BRANCH   4  16
ATOM     16  N   UNL d   1       0.403   0.056   1.244  0.00  0.00    -0.322 N 
ATOM     17  C   UNL d   1      -0.872  -0.460   1.111  0.00  0.00     0.251 C 
ATOM     18  O   UNL d   1      -1.590  -0.810   2.044  0.00  0.00    -0.268 OA
ATOM     19  H   UNL d   1       0.826   0.497   0.437  0.00  0.00     0.169 HD
BRANCH  17  20
ATOM     20  C   UNL d   1      -1.394  -0.547  -0.289  0.00  0.00    -0.003 C 
ATOM     21  C   UNL d   1      -2.731  -0.509  -0.432  0.00  0.00     0.024 C 
ATOM     22  C   UNL d   1      -0.498  -0.787  -1.461  0.00  0.00     0.053 C 
ENDBRANCH  17  20
ENDBRANCH   4  16
TORSDOF 4
