REMARK  5 active torsions:
REMARK  status: ('A' for Active; 'I' for Inactive)
REMARK       I    between atoms: N_3  and  C_1 
REMARK    1  A    between atoms: C_6  and  C_1 
REMARK    2  A    between atoms: C_5  and  N_2 
REMARK    3  A    between atoms: C_9  and  N_3 
REMARK    4  A    between atoms: C_12  and  C_5 
REMARK    5  A    between atoms: C_13  and  C_6 
ROOT
ATOM      1  N   UNL d   1      -0.891   3.348  -3.260  0.00  0.00     0.092 N 
ATOM      2  C   UNL d   1       1.041   2.606  -1.903  0.00  0.00     0.055 C 
ATOM      3  C   UNL d   1      -0.081   1.000  -3.493  0.00  0.00     0.055 C 
ATOM      4  C   UNL d   1       0.801   1.135  -2.245  0.00  0.00     0.087 C 
ATOM      5  C   UNL d   1      -1.283   1.949  -3.518  0.00  0.00     0.275 C 
ATOM      6  C   UNL d   1      -0.235   3.443  -1.947  0.00  0.00     0.275 C 
ENDROOT
BRANCH   4   7
ATOM      7  N   UNL d   1       0.321   0.373  -1.092  0.00  0.00    -0.356 N 
ATOM      8  C   UNL d   1       0.554  -0.986  -0.972  0.00  0.00     0.222 C 
ATOM      9  O   UNL d   1       1.116  -1.648  -1.850  0.00  0.00    -0.273 OA
ATOM     10  H   UNL d   1      -0.221   0.832  -0.370  0.00  0.00     0.162 HD
BRANCH   8  11
ATOM     11  C   UNL d   1       0.146  -1.619   0.352  0.00  0.00     0.141 C 
BRANCH  11  12
ATOM     12  C   UNL d   1      -1.339  -1.589   0.612  0.00  0.00    -0.050 A 
ATOM     13  C   UNL d   1      -2.227  -2.201  -0.284  0.00  0.00     0.007 A 
ATOM     14  C   UNL d   1      -3.605  -2.096  -0.096  0.00  0.00     0.001 A 
ATOM     15  C   UNL d   1      -4.107  -1.400   1.002  0.00  0.00     0.000 A 
ATOM     16  C   UNL d   1      -3.233  -0.850   1.937  0.00  0.00     0.001 A 
ATOM     17  C   UNL d   1      -1.854  -0.952   1.749  0.00  0.00     0.007 A 
ENDBRANCH  11  12
ENDBRANCH   8  11
ENDBRANCH   4   7
BRANCH   1  18
ATOM     18  C   UNL d   1      -2.050   4.269  -3.291  0.00  0.00     0.311 C 
BRANCH  18  19
ATOM     19  C   UNL d   1      -2.786   4.322  -4.614  0.00  0.00    -0.030 A 
ATOM     20  C   UNL d   1      -4.139   3.956  -4.683  0.00  0.00     0.009 A 
ATOM     21  C   UNL d   1      -4.821   3.980  -5.901  0.00  0.00     0.001 A 
ATOM     22  C   UNL d   1      -4.162   4.380  -7.061  0.00  0.00     0.000 A 
ATOM     23  C   UNL d   1      -2.825   4.769  -7.002  0.00  0.00     0.001 A 
ATOM     24  C   UNL d   1      -2.140   4.743  -5.785  0.00  0.00     0.009 A 
ENDBRANCH  18  19
ENDBRANCH   1  18
TORSDOF 5
