REMARK  2 active torsions:
REMARK  status: ('A' for Active; 'I' for Inactive)
REMARK    1  A    between atoms: C_4  and  C_1 
REMARK       I    between atoms: N_7  and  C_4 
REMARK    2  A    between atoms: C_8  and  N_7 
ROOT
ATOM      1  C   UNL d   1       1.430  -2.776   0.056  0.00  0.00     0.258 C 
ATOM      2  N   UNL d   1       0.759  -3.983   0.112  0.00  0.00    -0.323 N 
ATOM      3  O   UNL d   1       0.889  -1.692  -0.134  0.00  0.00    -0.267 OA
ATOM      4  H   UNL d   1       1.292  -4.787   0.420  0.00  0.00     0.169 HD
ENDROOT
BRANCH   2   5
ATOM      5  C   UNL d   1      -0.588  -4.232  -0.233  0.00  0.00     0.038 A 
ATOM      6  C   UNL d   1      -1.427  -3.287  -0.830  0.00  0.00     0.053 A 
ATOM      7  C   UNL d   1      -2.732  -3.634  -1.191  0.00  0.00     0.037 A 
ATOM      8 CL   UNL d   1      -3.742  -2.467  -1.955  0.00  0.00    -0.084 Cl
ATOM      9  C   UNL d   1      -3.221  -4.914  -0.958  0.00  0.00     0.048 A 
ATOM     10  C   UNL d   1      -2.390  -5.853  -0.358  0.00  0.00     0.037 A 
ATOM     11  C   UNL d   1      -1.081  -5.522   0.000  0.00  0.00     0.053 A 
ATOM     12 CL   UNL d   1      -2.976  -7.443  -0.060  0.00  0.00    -0.084 Cl
ENDBRANCH   2   5
BRANCH   1  13
ATOM     13  C   UNL d   1       2.887  -2.829   0.250  0.00  0.00     0.063 A 
ATOM     14  C   UNL d   1       3.710  -3.933   0.377  0.00  0.00     0.091 A 
ATOM     15  S   UNL d   1       5.363  -3.556   0.528  0.00  0.00    -0.065 SA
ATOM     16 CL   UNL d   1       3.299  -5.609   0.384  0.00  0.00    -0.075 Cl
ATOM     17  C   UNL d   1       5.034  -1.905   0.429  0.00  0.00     0.077 A 
ATOM     18  C   UNL d   1       3.699  -1.629   0.294  0.00  0.00     0.050 A 
ATOM     19 CL   UNL d   1       6.316  -0.767   0.491  0.00  0.00    -0.076 Cl
ENDBRANCH   1  13
TORSDOF 2
