REMARK  4 active torsions:
REMARK  status: ('A' for Active; 'I' for Inactive)
REMARK    1  A    between atoms: C_13  and  N_1 
REMARK    2  A    between atoms: C_14  and  N_2 
REMARK    3  A    between atoms: C_9  and  C_13 
REMARK    4  A    between atoms: C_10  and  C_14 
ROOT
ATOM      1  N   UNL d   1       0.783   1.208  -0.257  0.00  0.00     0.122 N 
ATOM      2  N   UNL d   1       0.751  -1.212  -0.098  0.00  0.00     0.122 N 
ATOM      3  C   UNL d   1       1.428   0.021   0.317  0.00  0.00     0.543 C 
ATOM      4  C   UNL d   1      -1.417  -0.005  -0.208  0.00  0.00     0.149 C 
ATOM      5  N   UNL d   1      -3.912   0.020   0.641  0.00  0.00    -0.197 NA
ATOM      6  C   UNL d   1      -2.809   0.021   0.283  0.00  0.00     0.067 C 
ATOM      7  C   UNL d   1      -0.657  -1.212   0.353  0.00  0.00     0.296 C 
ATOM      8  C   UNL d   1      -0.638   1.265   0.159  0.00  0.00     0.296 C 
ENDROOT
BRANCH   1   9
ATOM      9  C   UNL d   1       0.911   1.286  -1.726  0.00  0.00     0.320 C 
BRANCH   9  10
ATOM     10  C   UNL d   1       2.328   1.388  -2.219  0.00  0.00     0.011 A 
ATOM     11  S   UNL d   1       2.926   0.219  -3.325  0.00  0.00    -0.105 SA
ATOM     12  C   UNL d   1       4.446   0.999  -3.424  0.00  0.00     0.050 A 
ATOM     13  C   UNL d   1       4.497   2.124  -2.634  0.00  0.00     0.008 A 
ATOM     14  C   UNL d   1       3.277   2.350  -1.937  0.00  0.00     0.017 A 
ENDBRANCH   9  10
ENDBRANCH   1   9
BRANCH   2  15
ATOM     15  C   UNL d   1       1.493  -2.378   0.431  0.00  0.00     0.320 C 
BRANCH  15  16
ATOM     16  C   UNL d   1       0.911  -3.682  -0.045  0.00  0.00     0.011 A 
ATOM     17  S   UNL d   1       0.291  -4.813   1.085  0.00  0.00    -0.105 SA
ATOM     18  C   UNL d   1      -0.237  -5.861  -0.159  0.00  0.00     0.050 A 
ATOM     19  C   UNL d   1       0.084  -5.382  -1.409  0.00  0.00     0.008 A 
ATOM     20  C   UNL d   1       0.761  -4.131  -1.344  0.00  0.00     0.017 A 
ENDBRANCH  15  16
ENDBRANCH   2  15
TORSDOF 4
