REMARK  5 active torsions:
REMARK  status: ('A' for Active; 'I' for Inactive)
REMARK    1  A    between atoms: S_4  and  C_1 
REMARK    2  A    between atoms: C_7  and  C_2 
REMARK    3  A    between atoms: C_10  and  S_4 
REMARK    4  A    between atoms: S_12  and  C_5 
REMARK    5  A    between atoms: O_14  and  C_7 
ROOT
ATOM      1  C   UNL d   1      -0.036  -1.212   0.112  0.00  0.00     0.106 C 
ATOM      2  C   UNL d   1       0.347   1.094   0.100  0.00  0.00     0.104 C 
ATOM      3  C   UNL d   1      -0.536   0.090   0.460  0.00  0.00     0.080 C 
ATOM      4  C   UNL d   1       1.324  -1.155  -0.186  0.00  0.00     0.065 C 
ATOM      5  S   UNL d   1       1.867   0.461  -0.330  0.00  0.00    -0.074 SA
ATOM      6 CL   UNL d   1      -2.023   0.428   1.252  0.00  0.00    -0.081 Cl
ENDROOT
BRANCH   1   7
ATOM      7  S   UNL d   1      -0.897  -2.725   0.127  0.00  0.00     0.182 S 
ATOM      8  O   UNL d   1      -0.642  -3.275  -1.189  0.00  0.00    -0.222 OA
ATOM      9  O   UNL d   1      -0.402  -3.357   1.334  0.00  0.00    -0.222 OA
BRANCH   7  10
ATOM     10  C   UNL d   1      -2.663  -2.541   0.286  0.00  0.00     0.105 C 
ATOM     11  C   UNL d   1      -3.298  -1.788  -0.881  0.00  0.00     0.026 C 
ATOM     12  C   UNL d   1      -3.313  -3.928   0.387  0.00  0.00     0.026 C 
ENDBRANCH   7  10
ENDBRANCH   1   7
BRANCH   4  13
ATOM     13  S   UNL d   1       2.445  -2.495  -0.474  0.00  0.00    -0.126 SA
ATOM     14  C   UNL d   1       3.887  -2.017   0.510  0.00  0.00     0.096 C 
ENDBRANCH   4  13
BRANCH   2  15
ATOM     15  C   UNL d   1       0.173   2.531   0.053  0.00  0.00     0.301 C 
ATOM     16  O   UNL d   1       1.042   3.374   0.243  0.00  0.00    -0.259 OA
BRANCH  15  17
ATOM     17  O   UNL d   1      -1.103   2.822  -0.332  0.00  0.00    -0.322 OA
ATOM     18  C   UNL d   1      -1.361   4.212  -0.530  0.00  0.00     0.213 C 
ENDBRANCH  15  17
ENDBRANCH   2  15
TORSDOF 5
