REMARK  4 active torsions:
REMARK  status: ('A' for Active; 'I' for Inactive)
REMARK    1  A    between atoms: C_4  and  N_1 
REMARK    2  A    between atoms: C_2  and  C_4 
REMARK       I    between atoms: N_5  and  C_2 
REMARK    3  A    between atoms: C_8  and  N_6 
REMARK    4  A    between atoms: O_20  and  C_16 
ROOT
ATOM      1  C   UNL d   1      -2.573   3.400   0.430  0.00  0.00     0.242 C 
ATOM      2  N   UNL d   1      -1.748   4.419   0.903  0.00  0.00    -0.347 N 
ATOM      3  N   UNL d   1      -0.174   6.622   1.853  0.00  0.00    -0.376 N 
ATOM      4  O   UNL d   1      -3.766   3.349   0.744  0.00  0.00    -0.271 OA
ATOM      5  C   UNL d   1      -0.416   4.733   0.360  0.00  0.00     0.145 C 
ATOM      6  C   UNL d   1      -2.393   5.539   1.604  0.00  0.00     0.145 C 
ATOM      7  C   UNL d   1      -1.452   6.336   2.534  0.00  0.00     0.143 C 
ATOM      8  C   UNL d   1       0.498   5.403   1.395  0.00  0.00     0.143 C 
ENDROOT
BRANCH   1   9
ATOM      9  C   UNL d   1      -2.002   2.322  -0.543  0.00  0.00     0.172 C 
ATOM     10  C   UNL d   1      -2.102   2.903  -1.950  0.00  0.00     0.042 C 
BRANCH   9  11
ATOM     11  N   UNL d   1      -0.686   1.779  -0.062  0.00  0.00    -0.367 N 
ATOM     12  C   UNL d   1       0.319   1.270  -0.881  0.00  0.00     0.037 A 
ATOM     13  C   UNL d   1       1.039   0.109  -0.528  0.00  0.00    -0.031 A 
ATOM     14  C   UNL d   1       0.748   1.923  -2.047  0.00  0.00     0.030 A 
ATOM     15  C   UNL d   1       2.051  -0.408  -1.366  0.00  0.00     0.016 A 
ATOM     16  C   UNL d   1       0.811  -0.579   0.793  0.00  0.00     0.042 C 
ATOM     17  C   UNL d   1       2.386   0.220  -2.565  0.00  0.00    -0.061 A 
ATOM     18  C   UNL d   1       1.746   1.411  -2.884  0.00  0.00     0.009 A 
ATOM     19  C   UNL d   1       3.447  -0.348  -3.456  0.00  0.00     0.048 C 
ATOM     20  C   UNL d   1      -0.539  -0.223   1.379  0.00  0.00     0.025 C 
ATOM     21  C   UNL d   1      -0.713   1.281   1.329  0.00  0.00     0.124 C 
ENDBRANCH   9  11
ENDBRANCH   1   9
BRANCH   3  22
ATOM     22  C   UNL d   1       0.532   7.797   2.065  0.00  0.00     0.064 A 
ATOM     23  C   UNL d   1       1.487   8.327   1.161  0.00  0.00     0.094 A 
ATOM     24  C   UNL d   1       2.088   9.577   1.380  0.00  0.00     0.039 A 
ATOM     25  C   UNL d   1       1.773  10.329   2.507  0.00  0.00     0.003 A 
ATOM     26  C   UNL d   1       0.886   9.813   3.439  0.00  0.00     0.002 A 
ATOM     27  C   UNL d   1       0.280   8.572   3.216  0.00  0.00     0.032 A 
BRANCH  23  28
ATOM     28  O   UNL d   1       1.997   7.652   0.076  0.00  0.00    -0.354 OA
ATOM     29  C   UNL d   1       1.087   7.493  -1.005  0.00  0.00     0.210 C 
ENDBRANCH  23  28
ENDBRANCH   3  22
TORSDOF 4
