REMARK  2 active torsions:
REMARK  status: ('A' for Active; 'I' for Inactive)
REMARK    1  A    between atoms: S_12  and  C_4 
REMARK    2  A    between atoms: C_11  and  C_6 
ROOT
ATOM      1  N   UNL d   1      -1.730  -1.300   0.001  0.00  0.00    -0.335 N 
ATOM      2  HN  UNL d   1      -2.320  -2.131   0.027  1.00  0.00     0.168 HD
ATOM      3  C   UNL d   1       0.480  -0.354   0.011  0.00  0.00     0.145 A 
ATOM      4  C   UNL d   1      -0.352  -1.419   0.017  0.00  0.00     0.097 A 
ATOM      5  N   UNL d   1      -1.502   1.016  -0.044  0.00  0.00    -0.307 N 
ATOM      6  C   UNL d   1      -2.260  -0.121  -0.047  0.00  0.00     0.119 A 
ATOM      7  C   UNL d   1      -0.142   0.984   0.003  0.00  0.00     0.270 A 
ATOM      8  C   UNL d   1       1.899  -0.417   0.014  0.00  0.00     0.108 C 
ATOM      9  N   UNL d   1       3.059  -0.464   0.011  0.00  0.00    -0.191 NA
ATOM     10  O   UNL d   1       0.504   2.027   0.037  0.00  0.00    -0.266 OA
ATOM     11  H   UNL d   1      -1.913   1.938  -0.012  0.00  0.00     0.170 HD
ENDROOT
BRANCH   4  12
ATOM     12  S   UNL d   1       0.356  -3.045   0.034  0.00  0.00    -0.115 SA
ATOM     13  C   UNL d   1      -1.115  -4.092   0.020  0.00  0.00     0.097 C 
ENDBRANCH   4  12
BRANCH   6  14
ATOM     14  C   UNL d   1      -3.735   0.056  -0.100  0.00  0.00     0.008 A 
ATOM     15  C   UNL d   1      -4.316   1.153  -0.751  0.00  0.00     0.015 A 
ATOM     16  C   UNL d   1      -5.706   1.274  -0.811  0.00  0.00     0.001 A 
ATOM     17  C   UNL d   1      -6.518   0.302  -0.230  0.00  0.00     0.000 A 
ATOM     18  C   UNL d   1      -5.945  -0.794   0.415  0.00  0.00     0.001 A 
ATOM     19  C   UNL d   1      -4.556  -0.920   0.477  0.00  0.00     0.015 A 
ENDBRANCH   6  14
TORSDOF 2
