REMARK  4 active torsions:
REMARK  status: ('A' for Active; 'I' for Inactive)
REMARK    1  A    between atoms: C_12  and  C_1 
REMARK    2  A    between atoms: N_11  and  C_5 
REMARK    3  A    between atoms: C_14  and  C_6 
REMARK    4  A    between atoms: C_8  and  C_13 
REMARK       I    between atoms: C_15  and  N_11 
ROOT
ATOM      1  C   UNL d   1      -0.805   1.011  -0.025  0.00  0.00     0.128 A 
ATOM      2  C   UNL d   1      -1.342  -0.254  -0.082  0.00  0.00     0.074 A 
ATOM      3  N   UNL d   1       0.917  -0.416  -0.091  0.00  0.00    -0.260 N 
ATOM      4  HN  UNL d   1       1.868  -0.785  -0.110  1.00  0.00     0.195 HD
ATOM      5  C   UNL d   1      -0.223  -1.129  -0.108  0.00  0.00     0.068 A 
ATOM      6  O   UNL d   1       0.549   0.912  -0.042  0.00  0.00    -0.235 OA
ENDROOT
BRANCH   1   7
ATOM      7  C   UNL d   1      -1.374   2.338   0.090  0.00  0.00     0.086 A 
ATOM      8  N   UNL d   1      -2.716   2.348   0.187  0.00  0.00    -0.189 N 
ATOM      9  C   UNL d   1      -3.308   3.524   0.385  0.00  0.00     0.685 A 
ATOM     10  HN  UNL d   1      -3.259   1.487   0.113  1.00  0.00     0.184 HD
ATOM     11  N   UNL d   1      -2.652   4.686   0.517  0.00  0.00    -0.202 N 
ATOM     12  C   UNL d   1      -1.314   4.642   0.378  0.00  0.00     0.108 A 
ATOM     13  HN  UNL d   1      -3.142   5.559   0.714  1.00  0.00     0.183 HD
ATOM     14  C   UNL d   1      -0.613   3.484   0.153  0.00  0.00     0.050 A 
BRANCH   9  15
ATOM     15  N   UNL d   1      -4.685   3.620   0.510  0.00  0.00    -0.160 N 
ATOM     16  C   UNL d   1      -5.579   2.627   0.196  0.00  0.00     0.231 C 
ATOM     17  O   UNL d   1      -5.324   1.536  -0.303  0.00  0.00    -0.273 OA
ATOM     18  C   UNL d   1      -7.008   3.002   0.497  0.00  0.00     0.118 C 
ATOM     19  H   UNL d   1      -4.998   4.542   0.768  0.00  0.00     0.187 HD
ENDBRANCH   9  15
ENDBRANCH   1   7
BRANCH   5  20
ATOM     20  C   UNL d   1      -0.210  -2.596  -0.141  0.00  0.00    -0.007 A 
ATOM     21  C   UNL d   1       1.005  -3.299  -0.075  0.00  0.00     0.030 A 
ATOM     22  C   UNL d   1       1.043  -4.702  -0.142  0.00  0.00     0.048 A 
ATOM     23  C   UNL d   1      -0.163  -5.407  -0.261  0.00  0.00     0.016 A 
ATOM     24  C   UNL d   1      -1.377  -4.724  -0.311  0.00  0.00     0.002 A 
ATOM     25  C   UNL d   1      -1.401  -3.329  -0.252  0.00  0.00     0.014 A 
BRANCH  22  26
ATOM     26  C   UNL d   1       2.353  -5.448  -0.106  0.00  0.00     0.417 C 
ATOM     27  F   UNL d   1       3.443  -4.641   0.023  0.00  0.00    -0.166 F 
ATOM     28  F   UNL d   1       2.421  -6.333   0.928  0.00  0.00    -0.166 F 
ATOM     29  F   UNL d   1       2.563  -6.179  -1.236  0.00  0.00    -0.166 F 
ENDBRANCH  22  26
ENDBRANCH   5  20
TORSDOF 4
