REMARK  4 active torsions:
REMARK  status: ('A' for Active; 'I' for Inactive)
REMARK    1  A    between atoms: C_8  and  C_3 
REMARK    2  A    between atoms: C_10  and  C_6 
REMARK    3  A    between atoms: O_15  and  C_8 
REMARK    4  A    between atoms: O_21  and  C_18 
ROOT
ATOM      1  N   UNL d   1       1.238  -1.239  -0.078  0.00  0.00    -0.355 N 
ATOM      2  HN  UNL d   1       1.246  -2.257  -0.139  1.00  0.00     0.166 HD
ATOM      3  C   UNL d   1       1.210   1.521   0.023  0.00  0.00     0.052 A 
ATOM      4  C   UNL d   1       0.068  -0.580  -0.054  0.00  0.00     0.044 A 
ATOM      5  C   UNL d   1      -0.021   0.821  -0.021  0.00  0.00     0.008 A 
ATOM      6  C   UNL d   1       2.409  -0.556  -0.020  0.00  0.00     0.044 A 
ATOM      7  C   UNL d   1       2.426   0.827   0.040  0.00  0.00     0.049 A 
ATOM      8  C   UNL d   1      -1.310   1.414  -0.030  0.00  0.00     0.015 A 
ATOM      9  C   UNL d   1      -1.099  -1.336  -0.054  0.00  0.00     0.037 A 
ATOM     10  C   UNL d   1      -2.470   0.635  -0.034  0.00  0.00     0.007 A 
ATOM     11  C   UNL d   1      -2.373  -0.752  -0.040  0.00  0.00    -0.060 A 
ATOM     12  C   UNL d   1      -3.598  -1.616   0.007  0.00  0.00     0.048 C 
ENDROOT
BRANCH   6  13
ATOM     13  C   UNL d   1       3.632  -1.384  -0.018  0.00  0.00    -0.009 A 
ATOM     14  C   UNL d   1       3.665  -2.619  -0.688  0.00  0.00     0.016 A 
ATOM     15  C   UNL d   1       4.807  -3.429  -0.667  0.00  0.00     0.037 A 
ATOM     16  C   UNL d   1       5.954  -3.023   0.013  0.00  0.00     0.068 A 
ATOM     17  C   UNL d   1       5.947  -1.801   0.679  0.00  0.00     0.037 A 
ATOM     18  C   UNL d   1       4.797  -0.995   0.665  0.00  0.00     0.016 A 
BRANCH  16  19
ATOM     19  O   UNL d   1       6.982  -3.922   0.001  0.00  0.00    -0.356 OA
ATOM     20  C   UNL d   1       8.286  -3.404   0.235  0.00  0.00     0.210 C 
ENDBRANCH  16  19
ENDBRANCH   6  13
BRANCH   3  21
ATOM     21  C   UNL d   1       1.257   3.002   0.138  0.00  0.00     0.177 C 
ATOM     22  O   UNL d   1       0.494   3.654   0.829  0.00  0.00    -0.646 OA
BRANCH  21  23
ATOM     23  O   UNL d   1       2.244   3.571  -0.590  0.00  0.00    -0.773 OA
ATOM     24  H   UNL d   1       2.702   2.985  -1.222  0.00  0.00     0.167 HD
ENDBRANCH  21  23
ENDBRANCH   3  21
TORSDOF 4
