REMARK  7 active torsions:
REMARK  status: ('A' for Active; 'I' for Inactive)
REMARK    1  A    between atoms: C_4  and  C_1 
REMARK    2  A    between atoms: N_2  and  C_3 
REMARK    3  A    between atoms: O_9  and  C_4 
REMARK    4  A    between atoms: C_5  and  C_7 
REMARK    5  A    between atoms: C_23  and  O_9 
REMARK    6  A    between atoms: C_14  and  C_13 
REMARK    7  A    between atoms: C_29  and  C_28 
ROOT
ATOM      1  C   UNL d   1       3.601  -0.414   1.242  0.00  0.00     0.301 C 
ATOM      2  O   UNL d   1       3.354  -0.181   2.414  0.00  0.00    -0.259 OA
ENDROOT
BRANCH   1   3
ATOM      3  C   UNL d   1       3.969  -1.766   0.750  0.00  0.00     0.072 A 
ATOM      4  C   UNL d   1       3.586  -2.277  -0.488  0.00  0.00     0.119 A 
ATOM      5  C   UNL d   1       4.052  -3.518  -0.961  0.00  0.00     0.053 A 
ATOM      6  C   UNL d   1       4.900  -4.294  -0.151  0.00  0.00     0.050 A 
ATOM      7  C   UNL d   1       5.221  -3.819   1.132  0.00  0.00     0.017 A 
ATOM      8  C   UNL d   1       4.764  -2.570   1.579  0.00  0.00     0.021 A 
BRANCH   4   9
ATOM      9  N   UNL d   1       2.595  -1.588  -1.288  0.00  0.00    -0.115 N 
ATOM     10  O   UNL d   1       1.485  -1.417  -0.771  0.00  0.00    -0.532 OA
ATOM     11  O   UNL d   1       2.926  -1.266  -2.436  0.00  0.00    -0.532 OA
ENDBRANCH   4   9
BRANCH   6  12
ATOM     12  C   UNL d   1       5.466  -5.608  -0.640  0.00  0.00     0.417 C 
ATOM     13  F   UNL d   1       5.034  -5.952  -1.884  0.00  0.00    -0.166 F 
ATOM     14  F   UNL d   1       6.824  -5.585  -0.708  0.00  0.00    -0.166 F 
ATOM     15  F   UNL d   1       5.145  -6.649   0.172  0.00  0.00    -0.166 F 
ENDBRANCH   6  12
ENDBRANCH   1   3
BRANCH   1  16
ATOM     16  O   UNL d   1       3.746   0.496   0.202  0.00  0.00    -0.275 OA
BRANCH  16  17
ATOM     17  C   UNL d   1       3.386   1.863   0.296  0.00  0.00     0.079 A 
ATOM     18  C   UNL d   1       3.988   2.722  -0.621  0.00  0.00     0.038 A 
ATOM     19  C   UNL d   1       3.602   4.070  -0.678  0.00  0.00     0.015 A 
ATOM     20  C   UNL d   1       2.594   4.589   0.158  0.00  0.00    -0.026 A 
ATOM     21  C   UNL d   1       2.022   3.692   1.083  0.00  0.00     0.015 A 
ATOM     22  C   UNL d   1       2.409   2.344   1.157  0.00  0.00     0.038 A 
BRANCH  20  23
ATOM     23  C   UNL d   1       2.131   6.002   0.055  0.00  0.00    -0.026 A 
ATOM     24  C   UNL d   1       1.662   6.712   1.176  0.00  0.00     0.013 A 
ATOM     25  C   UNL d   1       1.207   8.036   1.080  0.00  0.00     0.008 A 
ATOM     26  C   UNL d   1       1.222   8.708  -0.144  0.00  0.00    -0.059 A 
ATOM     27  C   UNL d   1       1.673   8.019  -1.273  0.00  0.00     0.008 A 
ATOM     28  C   UNL d   1       2.116   6.691  -1.173  0.00  0.00     0.013 A 
BRANCH  26  29
ATOM     29  C   UNL d   1       0.760  10.141  -0.244  0.00  0.00     0.034 C 
ATOM     30  C   UNL d   1      -0.721  10.262  -0.569  0.00  0.00     0.010 C 
ENDBRANCH  26  29
ENDBRANCH  20  23
ENDBRANCH  16  17
ENDBRANCH   1  16
TORSDOF 7
