REMARK  3 active torsions:
REMARK  status: ('A' for Active; 'I' for Inactive)
REMARK    1  A    between atoms: S_8  and  C_1 
REMARK    2  A    between atoms: N_7  and  C_2 
REMARK    3  A    between atoms: C_9  and  S_8 
ROOT
ATOM      1  C   UNL d   1       0.649  -1.377   0.005  0.00  0.00     0.129 A 
ATOM      2  C   UNL d   1      -0.732  -1.346   0.031  0.00  0.00     0.161 A 
ATOM      3  N   UNL d   1       1.041  -0.066  -0.085  0.00  0.00    -0.287 N 
ATOM      4  N   UNL d   1       0.002   0.799  -0.129  0.00  0.00    -0.300 N 
ATOM      5  HN  UNL d   1       0.039   1.816  -0.201  1.00  0.00     0.187 HD
ATOM      6  C   UNL d   1      -1.086   0.021  -0.058  0.00  0.00     0.058 A 
ATOM      7  C   UNL d   1       2.371   0.503  -0.102  0.00  0.00     0.178 C 
ATOM      8  C   UNL d   1      -2.428   0.657  -0.030  0.00  0.00     0.072 C 
ENDROOT
BRANCH   1   9
ATOM      9  S   UNL d   1       1.801  -2.681   0.099  0.00  0.00    -0.032 SA
BRANCH   9  10
ATOM     10  C   UNL d   1       1.385  -3.624  -1.356  0.00  0.00     0.150 A 
ATOM     11  N   UNL d   1       0.802  -3.000  -2.397  0.00  0.00    -0.346 N 
ATOM     12  C   UNL d   1       0.529  -3.764  -3.473  0.00  0.00     0.091 A 
ATOM     13  HN  UNL d   1       0.579  -2.005  -2.373  1.00  0.00     0.167 HD
ATOM     14  C   UNL d   1       0.814  -5.108  -3.545  0.00  0.00     0.034 A 
ATOM     15  C   UNL d   1       1.415  -5.643  -2.433  0.00  0.00     0.091 A 
ATOM     16  N   UNL d   1       1.716  -4.927  -1.335  0.00  0.00    -0.346 N 
ATOM     17  HN  UNL d   1       2.174  -5.350  -0.528  1.00  0.00     0.167 HD
ENDBRANCH   9  10
ENDBRANCH   1   9
BRANCH   2  18
ATOM     18  N   UNL d   1      -1.612  -2.457   0.158  0.00  0.00    -0.111 N 
ATOM     19  O   UNL d   1      -1.397  -3.245   1.086  0.00  0.00    -0.532 OA
ATOM     20  O   UNL d   1      -2.548  -2.522  -0.650  0.00  0.00    -0.532 OA
ENDBRANCH   2  18
TORSDOF 3
