REMARK  5 active torsions:
REMARK  status: ('A' for Active; 'I' for Inactive)
REMARK    1  A    between atoms: S_8  and  C_2 
REMARK    2  A    between atoms: C_7  and  C_4 
REMARK    3  A    between atoms: O_14  and  C_7 
REMARK    4  A    between atoms: C_15  and  S_8 
REMARK    5  A    between atoms: C_18  and  O_14 
ROOT
ATOM      1  C   UNL d   1       0.155  -0.733   0.183  0.00  0.00     0.041 A 
ATOM      2  C   UNL d   1       1.274  -1.540   0.140  0.00  0.00     0.057 A 
ATOM      3  C   UNL d   1       0.483   0.677   0.078  0.00  0.00    -0.018 A 
ATOM      4  C   UNL d   1       1.857   0.882  -0.004  0.00  0.00     0.088 A 
ATOM      5  S   UNL d   1       2.701  -0.612   0.031  0.00  0.00    -0.076 SA
ATOM      6  C   UNL d   1      -1.234  -1.177   0.290  0.00  0.00     0.162 C 
ATOM      7  C   UNL d   1      -0.599   1.744   0.035  0.00  0.00     0.050 C 
ATOM      8  C   UNL d   1      -2.012   1.210   0.423  0.00  0.00    -0.037 C 
ATOM      9  C   UNL d   1      -2.251  -0.175  -0.216  0.00  0.00     0.093 C 
ATOM     10  O   UNL d   1      -1.580  -2.247   0.780  0.00  0.00    -0.292 OA
ATOM     11  C   UNL d   1      -3.101   2.171  -0.090  0.00  0.00     0.015 C 
ATOM     12  C   UNL d   1      -2.150   1.123   1.958  0.00  0.00     0.015 C 
ENDROOT
BRANCH   4  13
ATOM     13  C   UNL d   1       2.570   2.154  -0.130  0.00  0.00     0.300 C 
ATOM     14  O   UNL d   1       2.034   3.244  -0.246  0.00  0.00    -0.259 OA
BRANCH  13  15
ATOM     15  O   UNL d   1       3.926   1.965  -0.106  0.00  0.00    -0.317 OA
BRANCH  15  16
ATOM     16  C   UNL d   1       4.742   3.139  -0.232  0.00  0.00     0.174 C 
ATOM     17  C   UNL d   1       4.962   3.778   1.127  0.00  0.00     0.034 C 
ENDBRANCH  15  16
ENDBRANCH  13  15
ENDBRANCH   4  13
BRANCH   2  18
ATOM     18  S   UNL d   1       1.306  -3.303   0.058  0.00  0.00    -0.117 SA
BRANCH  18  19
ATOM     19  C   UNL d   1       2.338  -3.765   1.491  0.00  0.00     0.045 C 
ATOM     20  C   UNL d   1       1.670  -3.391   2.811  0.00  0.00     0.021 C 
ATOM     21  C   UNL d   1       2.581  -5.274   1.435  0.00  0.00     0.021 C 
ENDBRANCH  18  19
ENDBRANCH   2  18
TORSDOF 5
