REMARK  2 active torsions:
REMARK  status: ('A' for Active; 'I' for Inactive)
REMARK    1  A    between atoms: C_12  and  C_9 
REMARK    2  A    between atoms: C_15  and  C_13 
ROOT
ATOM      1  C   UNL d   1       0.387   0.645  -0.194  0.00  0.00     0.139 A 
ATOM      2  C   UNL d   1       0.392  -0.736  -0.477  0.00  0.00     0.058 A 
ATOM      3  N   UNL d   1       1.515   1.038   0.395  0.00  0.00    -0.254 N 
ATOM      4  HN  UNL d   1       1.760   1.980   0.702  1.00  0.00     0.195 HD
ATOM      5  C   UNL d   1      -0.738   1.489  -0.536  0.00  0.00     0.289 A 
ATOM      6  N   UNL d   1      -1.764  -0.570  -1.458  0.00  0.00    -0.301 N 
ATOM      7  HN  UNL d   1      -2.573  -0.979  -1.926  1.00  0.00     0.186 HD
ATOM      8  N   UNL d   1      -1.757   0.780  -1.159  0.00  0.00    -0.264 N 
ATOM      9  C   UNL d   1       1.612  -1.207  -0.009  0.00  0.00     0.113 A 
ATOM     10  O   UNL d   1       2.281  -0.105   0.498  0.00  0.00    -0.236 OA
ATOM     11  C   UNL d   1      -0.745  -1.329  -1.146  0.00  0.00     0.037 A 
ATOM     12  O   UNL d   1      -0.820   2.692  -0.320  0.00  0.00    -0.264 OA
ATOM     13  C   UNL d   1      -0.849  -2.778  -1.534  0.00  0.00     0.070 C 
ATOM     14  H   UNL d   1      -2.577   1.308  -1.437  0.00  0.00     0.190 HD
ENDROOT
BRANCH   9  15
ATOM     15  C   UNL d   1       2.176  -2.511   0.023  0.00  0.00     0.041 C 
ATOM     16  C   UNL d   1       3.504  -2.701  -0.028  0.00  0.00     0.014 C 
BRANCH  16  17
ATOM     17  C   UNL d   1       4.045  -4.061  -0.008  0.00  0.00    -0.036 A 
ATOM     18  C   UNL d   1       4.238  -4.761  -1.203  0.00  0.00     0.012 A 
ATOM     19  C   UNL d   1       4.700  -6.080  -1.180  0.00  0.00     0.007 A 
ATOM     20  C   UNL d   1       4.974  -6.715   0.038  0.00  0.00    -0.062 A 
ATOM     21  C   UNL d   1       4.783  -6.008   1.231  0.00  0.00     0.007 A 
ATOM     22  C   UNL d   1       5.465  -8.132   0.051  0.00  0.00     0.048 C 
ATOM     23  C   UNL d   1       4.321  -4.690   1.209  0.00  0.00     0.012 A 
ENDBRANCH  16  17
ENDBRANCH   9  15
TORSDOF 2
