REMARK  3 active torsions:
REMARK  status: ('A' for Active; 'I' for Inactive)
REMARK    1  A    between atoms: C_7  and  N_1 
REMARK    2  A    between atoms: C_9  and  C_6 
REMARK    3  A    between atoms: C_12  and  C_9 
ROOT
ATOM      1  N   UNL d   1      -0.041  -0.983   0.033  0.00  0.00    -0.224 N 
ATOM      2  C   UNL d   1       0.807   0.134   0.111  0.00  0.00     0.248 A 
ATOM      3  N   UNL d   1      -1.384  -0.654  -0.042  0.00  0.00    -0.299 N 
ATOM      4  HN  UNL d   1      -2.169  -1.302  -0.106  1.00  0.00     0.187 HD
ATOM      5  C   UNL d   1      -0.114   1.313   0.064  0.00  0.00     0.159 A 
ATOM      6  C   UNL d   1      -1.446   0.641  -0.014  0.00  0.00     0.013 A 
ATOM      7  O   UNL d   1       2.023   0.219   0.202  0.00  0.00    -0.271 OA
ENDROOT
BRANCH   1   8
ATOM      8  C   UNL d   1       0.322  -2.352   0.106  0.00  0.00     0.059 A 
ATOM      9  C   UNL d   1       1.652  -2.753   0.292  0.00  0.00     0.031 A 
ATOM     10  C   UNL d   1       1.989  -4.106   0.417  0.00  0.00     0.002 A 
ATOM     11  C   UNL d   1       1.001  -5.082   0.346  0.00  0.00     0.000 A 
ATOM     12  C   UNL d   1      -0.323  -4.707   0.137  0.00  0.00     0.002 A 
ATOM     13  C   UNL d   1      -0.658  -3.354   0.018  0.00  0.00     0.031 A 
ENDBRANCH   1   8
BRANCH   6  14
ATOM     14  C   UNL d   1      -2.733   1.411  -0.016  0.00  0.00     0.054 C 
BRANCH  14  15
ATOM     15  C   UNL d   1      -2.831   2.408  -1.165  0.00  0.00     0.001 C 
ATOM     16  C   UNL d   1      -2.824   1.739  -2.531  0.00  0.00     0.005 C 
ENDBRANCH  14  15
ENDBRANCH   6  14
TORSDOF 3
