REMARK  7 active torsions:
REMARK  status: ('A' for Active; 'I' for Inactive)
REMARK    1  A    between atoms: C_8  and  C_1 
REMARK    2  A    between atoms: C_4  and  C_2 
REMARK    3  A    between atoms: N_3  and  C_14 
REMARK    4  A    between atoms: N_15  and  C_7 
REMARK    5  A    between atoms: O_28  and  C_8 
REMARK       I    between atoms: C_11  and  N_13 
REMARK    6  A    between atoms: C_18  and  C_11 
REMARK    7  A    between atoms: N_13  and  N_15 
ROOT
ATOM      1  C   UNL d   1      -0.051  -1.432   0.013  0.00  0.00     0.086 A 
ATOM      2  C   UNL d   1       1.155  -0.760   0.043  0.00  0.00     0.136 A 
ATOM      3  N   UNL d   1       1.195   0.604   0.182  0.00  0.00    -0.327 N 
ATOM      4  HN  UNL d   1       2.089   1.092   0.232  1.00  0.00     0.168 HD
ATOM      5  C   UNL d   1       0.043   1.286   0.252  0.00  0.00     0.176 A 
ATOM      6  N   UNL d   1      -1.163   0.702   0.167  0.00  0.00    -0.340 N 
ATOM      7  HN  UNL d   1      -2.024   1.248   0.190  1.00  0.00     0.167 HD
ATOM      8  C   UNL d   1      -1.182  -0.644   0.049  0.00  0.00     0.110 A 
ENDROOT
BRANCH   5   9
ATOM      9  N   UNL d   1       0.136   2.668   0.458  0.00  0.00    -0.172 NA
ATOM     10  H   UNL d   1       1.071   2.979   0.189  0.00  0.00     0.156 HD
BRANCH   9  11
ATOM     11  N   UNL d   1      -0.891   3.403  -0.155  0.00  0.00    -0.280 N 
ATOM     12  C   UNL d   1      -0.569   4.680  -0.585  0.00  0.00     0.266 C 
ATOM     13  O   UNL d   1       0.579   5.116  -0.580  0.00  0.00    -0.266 OA
ATOM     14  H   UNL d   1      -1.836   3.080   0.038  0.00  0.00     0.184 HD
BRANCH  12  15
ATOM     15  C   UNL d   1      -1.697   5.534  -1.043  0.00  0.00     0.033 A 
ATOM     16  C   UNL d   1      -1.565   6.926  -0.914  0.00  0.00     0.019 A 
ATOM     17  C   UNL d   1      -2.583   7.778  -1.355  0.00  0.00     0.037 A 
ATOM     18  C   UNL d   1      -3.732   7.232  -1.940  0.00  0.00     0.102 A 
ATOM     19  C   UNL d   1      -3.869   5.843  -2.079  0.00  0.00     0.037 A 
ATOM     20  C   UNL d   1      -2.849   4.995  -1.630  0.00  0.00     0.019 A 
BRANCH  18  21
ATOM     21  N   UNL d   1      -4.797   8.122  -2.422  0.00  0.00    -0.116 N 
ATOM     22  O   UNL d   1      -4.644   9.341  -2.262  0.00  0.00    -0.532 OA
ATOM     23  O   UNL d   1      -5.782   7.599  -2.962  0.00  0.00    -0.532 OA
ENDBRANCH  18  21
ENDBRANCH  12  15
ENDBRANCH   9  11
ENDBRANCH   5   9
BRANCH   2  24
ATOM     24  C   UNL d   1       2.492  -1.458  -0.111  0.00  0.00     0.433 C 
ATOM     25  F   UNL d   1       2.433  -2.744  -0.553  0.00  0.00    -0.165 F 
ATOM     26  F   UNL d   1       3.297  -0.826  -1.017  0.00  0.00    -0.165 F 
ATOM     27  F   UNL d   1       3.203  -1.491   1.052  0.00  0.00    -0.165 F 
ENDBRANCH   2  24
BRANCH   1  28
ATOM     28  C   UNL d   1      -0.241  -2.879  -0.083  0.00  0.00     0.296 C 
ATOM     29  O   UNL d   1      -1.056  -3.389  -0.831  0.00  0.00    -0.259 OA
BRANCH  28  30
ATOM     30  O   UNL d   1       0.520  -3.500   0.845  0.00  0.00    -0.322 OA
ATOM     31  C   UNL d   1       0.413  -4.928   0.827  0.00  0.00     0.213 C 
ENDBRANCH  28  30
ENDBRANCH   1  28
TORSDOF 7
