REMARK  2 active torsions:
REMARK  status: ('A' for Active; 'I' for Inactive)
REMARK    1  A    between atoms: N_9  and  C_7 
REMARK    2  A    between atoms: C_8  and  N_9 
ROOT
ATOM      1  C   UNL d   1      -1.239   0.094  -0.130  0.00  0.00     0.130 C 
ATOM      2  C   UNL d   1      -0.635  -1.188   0.248  0.00  0.00     0.303 C 
ATOM      3  C   UNL d   1      -0.505   1.349   0.054  0.00  0.00     0.303 C 
ATOM      4  O   UNL d   1       0.710  -1.167   0.360  0.00  0.00    -0.279 OA
ATOM      5  O   UNL d   1       0.824   1.209   0.234  0.00  0.00    -0.279 OA
ATOM      6  C   UNL d   1       1.419  -0.032  -0.141  0.00  0.00     0.175 C 
ATOM      7  C   UNL d   1      -2.457   0.086  -0.699  0.00  0.00     0.130 C 
ATOM      8  O   UNL d   1      -1.039   2.451   0.049  0.00  0.00    -0.259 OA
ATOM      9  O   UNL d   1      -1.278  -2.210   0.440  0.00  0.00    -0.259 OA
ATOM     10  C   UNL d   1       1.571  -0.115  -1.665  0.00  0.00     0.080 C 
ATOM     11  C   UNL d   1       2.804  -0.061   0.504  0.00  0.00     0.080 C 
ENDROOT
BRANCH   7  12
ATOM     12  N   UNL d   1      -3.172   1.141  -1.205  0.00  0.00    -0.201 N 
ATOM     13  H   UNL d   1      -2.794   2.082  -1.136  0.00  0.00     0.183 HD
BRANCH  12  14
ATOM     14  C   UNL d   1      -4.438   1.114  -1.778  0.00  0.00     0.681 A 
ATOM     15  N   UNL d   1      -5.127  -0.039  -1.837  0.00  0.00    -0.202 N 
ATOM     16  C   UNL d   1      -6.355   0.006  -2.384  0.00  0.00     0.107 A 
ATOM     17  HN  UNL d   1      -4.735  -0.911  -1.483  1.00  0.00     0.183 HD
ATOM     18  C   UNL d   1      -6.916   1.151  -2.889  0.00  0.00     0.035 A 
ATOM     19  C   UNL d   1      -6.133   2.274  -2.798  0.00  0.00     0.107 A 
ATOM     20  N   UNL d   1      -4.904   2.282  -2.248  0.00  0.00    -0.202 N 
ATOM     21  HN  UNL d   1      -4.351   3.137  -2.190  1.00  0.00     0.183 HD
ENDBRANCH  12  14
ENDBRANCH   7  12
TORSDOF 2
