REMARK  4 active torsions:
REMARK  status: ('A' for Active; 'I' for Inactive)
REMARK    1  A    between atoms: C_2  and  S_1 
REMARK    2  A    between atoms: C_5  and  S_1 
REMARK    3  A    between atoms: N_11  and  C_8 
REMARK    4  A    between atoms: C_16  and  N_11 
ROOT
ATOM      1  C   UNL d   1       0.333  -1.365  -1.167  0.00  0.00     0.159 C 
ATOM      2  C   UNL d   1      -0.576  -2.295  -0.622  0.00  0.00     0.113 C 
ATOM      3  N   UNL d   1      -1.320  -3.077  -0.194  0.00  0.00    -0.191 NA
ATOM      4  C   UNL d   1       0.675  -1.360  -2.468  0.00  0.00     0.118 C 
ENDROOT
BRANCH   1   5
ATOM      5  S   UNL d   1       0.970  -0.128  -0.137  0.00  0.00     0.218 S 
ATOM      6  O   UNL d   1      -0.001   0.946  -0.028  0.00  0.00    -0.216 OA
ATOM      7  O   UNL d   1       2.337   0.182  -0.524  0.00  0.00    -0.216 OA
BRANCH   5   8
ATOM      8  C   UNL d   1       1.083  -0.877   1.484  0.00  0.00     0.065 A 
ATOM      9  C   UNL d   1       2.263  -1.526   1.864  0.00  0.00     0.025 A 
ATOM     10  C   UNL d   1       2.375  -2.052   3.154  0.00  0.00     0.020 A 
ATOM     11  C   UNL d   1       1.317  -1.917   4.054  0.00  0.00     0.011 A 
ATOM     12  C   UNL d   1       0.145  -1.257   3.680  0.00  0.00     0.020 A 
ATOM     13 BR   UNL d   1       1.480  -2.616   5.803  0.00  0.00    -0.051 Br
ATOM     14  C   UNL d   1       0.027  -0.727   2.393  0.00  0.00     0.025 A 
ENDBRANCH   5   8
ENDBRANCH   1   5
BRANCH   4  15
ATOM     15  N   UNL d   1       0.271  -2.223  -3.464  0.00  0.00    -0.397 N 
ATOM     16  H   UNL d   1      -0.389  -2.961  -3.215  0.00  0.00     0.158 HD
BRANCH  15  17
ATOM     17  C   UNL d   1       0.681  -2.169  -4.857  0.00  0.00     0.114 C 
ATOM     18  C   UNL d   1       0.039  -3.312  -5.627  0.00  0.00     0.026 C 
ENDBRANCH  15  17
ENDBRANCH   4  15
TORSDOF 4
