REMARK  3 active torsions:
REMARK  status: ('A' for Active; 'I' for Inactive)
REMARK    1  A    between atoms: O_6  and  C_1 
REMARK    2  A    between atoms: C_7  and  O_6 
REMARK    3  A    between atoms: O_11  and  C_8 
ROOT
ATOM      1  C   UNL d   1      -1.295  -1.381   0.012  0.00  0.00     0.114 A 
ATOM      2  C   UNL d   1       0.036  -0.870  -0.008  0.00  0.00     0.036 A 
ATOM      3  O   UNL d   1      -1.427   0.860   0.011  0.00  0.00    -0.316 OA
ATOM      4  C   UNL d   1      -0.103   0.519   0.005  0.00  0.00     0.121 A 
ATOM      5  C   UNL d   1      -2.136  -0.294  -0.003  0.00  0.00     0.180 A 
ATOM      6  C   UNL d   1       0.963   1.433  -0.003  0.00  0.00     0.102 A 
ATOM      7  C   UNL d   1       1.342  -1.395  -0.055  0.00  0.00     0.017 A 
ATOM      8  C   UNL d   1       2.432  -0.517  -0.051  0.00  0.00     0.004 A 
ATOM      9  C   UNL d   1       2.244   0.868  -0.024  0.00  0.00     0.040 A 
ENDROOT
BRANCH   1  10
ATOM     10  O   UNL d   1      -1.797  -2.634  -0.040  0.00  0.00    -0.276 OA
BRANCH  10  11
ATOM     11  C   UNL d   1      -1.176  -3.660   0.606  0.00  0.00     0.260 C 
ATOM     12  O   UNL d   1      -0.155  -3.617   1.278  0.00  0.00    -0.265 OA
ATOM     13  C   UNL d   1      -1.956  -4.928   0.399  0.00  0.00     0.126 C 
ENDBRANCH  10  11
ENDBRANCH   1  10
BRANCH   6  14
ATOM     14  O   UNL d   1       0.676   2.769   0.008  0.00  0.00    -0.353 OA
ATOM     15  C   UNL d   1       1.780   3.664  -0.011  0.00  0.00     0.210 C 
ENDBRANCH   6  14
TORSDOF 3
