REMARK  4 active torsions:
REMARK  status: ('A' for Active; 'I' for Inactive)
REMARK    1  A    between atoms: C_4  and  C_1 
REMARK    2  A    between atoms: C_2  and  C_3 
REMARK    3  A    between atoms: C_18  and  C_10 
REMARK    4  A    between atoms: C_17  and  C_18 
ROOT
ATOM      1  N   UNL d   1      -3.877   3.038   5.632  0.00  0.00    -0.197 NA
ATOM      2  C   UNL d   1      -3.335   2.982   4.609  0.00  0.00     0.059 C 
ATOM      3  C   UNL d   1      -2.635   2.912   3.318  0.00  0.00     0.128 C 
ENDROOT
BRANCH   3   4
ATOM      4  C   UNL d   1      -1.140   2.684   3.534  0.00  0.00     0.052 C 
BRANCH   4   5
ATOM      5  C   UNL d   1      -0.359   2.625   2.242  0.00  0.00    -0.056 A 
ATOM      6  C   UNL d   1       0.129   3.799   1.652  0.00  0.00     0.023 A 
ATOM      7  C   UNL d   1       0.906   3.754   0.481  0.00  0.00     0.049 A 
ATOM      8  C   UNL d   1       1.177   2.509  -0.108  0.00  0.00     0.032 A 
ATOM      9  C   UNL d   1       0.688   1.321   0.459  0.00  0.00     0.049 A 
ATOM     10  C   UNL d   1      -0.087   1.393   1.629  0.00  0.00     0.023 A 
BRANCH   7  11
ATOM     11  C   UNL d   1       1.450   5.034  -0.110  0.00  0.00     0.417 C 
ATOM     12  F   UNL d   1       2.248   4.836  -1.195  0.00  0.00    -0.166 F 
ATOM     13  F   UNL d   1       0.463   5.877  -0.519  0.00  0.00    -0.166 F 
ATOM     14  F   UNL d   1       2.200   5.739   0.782  0.00  0.00    -0.166 F 
ENDBRANCH   7  11
BRANCH   9  15
ATOM     15  C   UNL d   1       1.000  -0.024  -0.156  0.00  0.00     0.417 C 
ATOM     16  F   UNL d   1       1.823   0.050  -1.239  0.00  0.00    -0.166 F 
ATOM     17  F   UNL d   1      -0.119  -0.673  -0.578  0.00  0.00    -0.166 F 
ATOM     18  F   UNL d   1       1.613  -0.865   0.722  0.00  0.00    -0.166 F 
ENDBRANCH   9  15
ENDBRANCH   4   5
ENDBRANCH   3   4
TORSDOF 4
