REMARK  2 active torsions:
REMARK  status: ('A' for Active; 'I' for Inactive)
REMARK       I    between atoms: N_2  and  C_1 
REMARK    1  A    between atoms: C_3  and  C_1 
REMARK    2  A    between atoms: C_7  and  N_2 
ROOT
ATOM      1  C   UNL d   1       1.117   0.174  -0.071  0.00  0.00     0.256 C 
ATOM      2  N   UNL d   1       0.522  -0.855   0.640  0.00  0.00    -0.323 N 
ATOM      3  O   UNL d   1       2.308   0.470  -0.059  0.00  0.00    -0.267 OA
ATOM      4  H   UNL d   1      -0.428  -1.103   0.398  0.00  0.00     0.169 HD
ENDROOT
BRANCH   1   5
ATOM      5  C   UNL d   1       0.230   0.969  -0.966  0.00  0.00     0.032 A 
ATOM      6  C   UNL d   1      -1.107   1.245  -0.652  0.00  0.00     0.018 A 
ATOM      7  C   UNL d   1      -1.859   2.076  -1.491  0.00  0.00     0.025 A 
ATOM      8  C   UNL d   1      -1.278   2.630  -2.634  0.00  0.00     0.034 A 
ATOM      9  C   UNL d   1       0.049   2.356  -2.954  0.00  0.00     0.025 A 
ATOM     10 CL   UNL d   1      -2.199   3.675  -3.643  0.00  0.00    -0.084 Cl
ATOM     11  C   UNL d   1       0.802   1.529  -2.119  0.00  0.00     0.018 A 
ENDBRANCH   1   5
BRANCH   2  12
ATOM     12  C   UNL d   1       1.167  -1.693   1.580  0.00  0.00     0.035 A 
ATOM     13  C   UNL d   1       2.454  -1.451   2.073  0.00  0.00     0.031 A 
ATOM     14  C   UNL d   1       3.051  -2.325   2.988  0.00  0.00     0.026 A 
ATOM     15  C   UNL d   1       2.357  -3.449   3.421  0.00  0.00     0.034 A 
ATOM     16  C   UNL d   1       1.069  -3.698   2.956  0.00  0.00     0.026 A 
ATOM     17 CL   UNL d   1       3.095  -4.532   4.535  0.00  0.00    -0.084 Cl
ATOM     18  C   UNL d   1       0.472  -2.819   2.042  0.00  0.00     0.031 A 
ENDBRANCH   2  12
TORSDOF 2
