REMARK  5 active torsions:
REMARK  status: ('A' for Active; 'I' for Inactive)
REMARK    1  A    between atoms: C_2  and  S_1 
REMARK    2  A    between atoms: C_12  and  S_1 
REMARK    3  A    between atoms: C_5  and  C_16 
REMARK    4  A    between atoms: C_15  and  C_6 
REMARK    5  A    between atoms: C_17  and  C_8 
ROOT
ATOM      1  C   UNL d   1      -1.056  -2.802   1.137  0.00  0.00     0.144 C 
ATOM      2  C   UNL d   1      -0.193  -1.887   1.618  0.00  0.00     0.046 C 
ATOM      3  C   UNL d   1      -2.473  -2.703   1.288  0.00  0.00     0.112 C 
ATOM      4  N   UNL d   1      -3.618  -2.572   1.402  0.00  0.00    -0.191 NA
ENDROOT
BRANCH   1   5
ATOM      5  S   UNL d   1      -0.369  -4.182   0.326  0.00  0.00     0.216 S 
ATOM      6  O   UNL d   1       0.010  -5.183   1.309  0.00  0.00    -0.216 OA
ATOM      7  O   UNL d   1       0.625  -3.726  -0.633  0.00  0.00    -0.216 OA
BRANCH   5   8
ATOM      8  C   UNL d   1      -1.689  -4.898  -0.638  0.00  0.00     0.065 A 
ATOM      9  C   UNL d   1      -1.860  -4.508  -1.970  0.00  0.00     0.025 A 
ATOM     10  C   UNL d   1      -2.849  -5.122  -2.743  0.00  0.00     0.025 A 
ATOM     11  C   UNL d   1      -3.646  -6.123  -2.187  0.00  0.00     0.034 A 
ATOM     12  C   UNL d   1      -3.457  -6.526  -0.864  0.00  0.00     0.025 A 
ATOM     13 CL   UNL d   1      -4.854  -6.884  -3.146  0.00  0.00    -0.084 Cl
ATOM     14  C   UNL d   1      -2.470  -5.920  -0.086  0.00  0.00     0.025 A 
ENDBRANCH   5   8
ENDBRANCH   1   5
BRANCH   2  15
ATOM     15  C   UNL d   1      -0.605  -0.725   2.410  0.00  0.00    -0.034 A 
ATOM     16  C   UNL d   1      -0.468  -0.774   3.798  0.00  0.00     0.012 A 
ATOM     17  C   UNL d   1      -0.872   0.307   4.588  0.00  0.00     0.015 A 
ATOM     18  C   UNL d   1      -1.409   1.467   4.008  0.00  0.00    -0.002 A 
ATOM     19  C   UNL d   1      -1.591   1.483   2.616  0.00  0.00     0.015 A 
ATOM     20  C   UNL d   1      -1.183   0.403   1.820  0.00  0.00     0.012 A 
BRANCH  18  21
ATOM     21  C   UNL d   1      -1.753   2.662   4.800  0.00  0.00     0.084 A 
ATOM     22  N   UNL d   1      -2.696   3.530   4.486  0.00  0.00    -0.352 N 
ATOM     23  C   UNL d   1      -2.720   4.595   5.382  0.00  0.00     0.024 A 
ATOM     24  HN  UNL d   1      -3.327   3.432   3.690  1.00  0.00     0.166 HD
ATOM     25  C   UNL d   1      -1.747   4.524   6.362  0.00  0.00     0.077 A 
ATOM     26  S   UNL d   1      -0.825   3.096   6.189  0.00  0.00    -0.081 SA
BRANCH  23  27
ATOM     27  C   UNL d   1      -3.752   5.704   5.210  0.00  0.00    -0.008 C 
ATOM     28  C   UNL d   1      -4.710   5.399   4.040  0.00  0.00     0.021 C 
ATOM     29  C   UNL d   1      -4.596   5.852   6.492  0.00  0.00     0.021 C 
ATOM     30  C   UNL d   1      -3.050   7.045   4.917  0.00  0.00     0.021 C 
ENDBRANCH  23  27
ENDBRANCH  18  21
ENDBRANCH   2  15
TORSDOF 5
