REMARK  3 active torsions:
REMARK  status: ('A' for Active; 'I' for Inactive)
REMARK    1  A    between atoms: S_12  and  C_5 
REMARK    2  A    between atoms: N_10  and  C_14 
REMARK    3  A    between atoms: C_18  and  S_12 
ROOT
ATOM      1  C   UNL d   1       0.479  -0.943   0.031  0.00  0.00     0.706 A 
ATOM      2  N   UNL d   1       1.601  -1.629   0.052  0.00  0.00    -0.167 N 
ATOM      3  HN  UNL d   1       1.722  -2.641   0.075  1.00  0.00     0.186 HD
ATOM      4  N   UNL d   1       0.780   0.427   0.014  0.00  0.00    -0.089 N 
ATOM      5  C   UNL d   1       2.564  -0.665   0.035  0.00  0.00     0.181 A 
ATOM      6  N   UNL d   1       2.123   0.592   0.026  0.00  0.00    -0.258 N 
ATOM      7  HN  UNL d   1       2.661   1.458   0.027  1.00  0.00     0.190 HD
ATOM      8  N   UNL d   1      -0.808  -1.400   0.037  0.00  0.00    -0.194 N 
ATOM      9  HN  UNL d   1      -1.023  -2.397   0.053  1.00  0.00     0.184 HD
ATOM     10  C   UNL d   1      -0.233   1.391   0.003  0.00  0.00     0.050 A 
ATOM     11  C   UNL d   1      -1.515   0.982   0.005  0.00  0.00     0.052 A 
ATOM     12  C   UNL d   1      -1.746  -0.498   0.022  0.00  0.00     0.024 A 
ATOM     13  C   UNL d   1       0.132   2.844  -0.005  0.00  0.00     0.071 C 
ATOM     14  C   UNL d   1      -3.180  -0.968   0.030  0.00  0.00     0.068 C 
ENDROOT
BRANCH   5  15
ATOM     15  S   UNL d   1       4.264  -1.040   0.015  0.00  0.00    -0.034 SA
BRANCH  15  16
ATOM     16  C   UNL d   1       4.672  -1.124   1.744  0.00  0.00     0.077 A 
ATOM     17  N   UNL d   1       5.913  -0.676   2.072  0.00  0.00    -0.358 N 
ATOM     18  C   UNL d   1       6.306  -0.761   3.369  0.00  0.00     0.124 A 
ATOM     19  HN  UNL d   1       6.533  -0.286   1.362  1.00  0.00     0.166 HD
ATOM     20  C   UNL d   1       5.502  -1.285   4.366  0.00  0.00     0.118 A 
ATOM     21  C   UNL d   1       4.231  -1.748   4.030  0.00  0.00     0.040 A 
ATOM     22  C   UNL d   1       3.816  -1.672   2.698  0.00  0.00     0.040 A 
BRANCH  20  23
ATOM     23  N   UNL d   1       5.992  -1.356   5.734  0.00  0.00    -0.114 N 
ATOM     24  O   UNL d   1       7.135  -0.936   5.961  0.00  0.00    -0.532 OA
ATOM     25  O   UNL d   1       5.235  -1.833   6.591  0.00  0.00    -0.532 OA
ENDBRANCH  20  23
ENDBRANCH  15  16
ENDBRANCH   5  15
TORSDOF 3
