REMARK  4 active torsions:
REMARK  status: ('A' for Active; 'I' for Inactive)
REMARK    1  A    between atoms: C_9  and  C_3 
REMARK    2  A    between atoms: C_14  and  C_4 
REMARK    3  A    between atoms: N_11  and  N_7 
REMARK    4  A    between atoms: C_10  and  N_11 
ROOT
ATOM      1  N   UNL d   1       2.320   2.950  -0.088  0.00  0.00    -0.303 N 
ATOM      2  HN  UNL d   1       3.160   3.528  -0.127  1.00  0.00     0.186 HD
ATOM      3  C   UNL d   1       2.417   1.651  -0.046  0.00  0.00     0.049 C 
ATOM      4  C   UNL d   1       1.264   0.676  -0.026  0.00  0.00     0.072 C 
ENDROOT
BRANCH   3   5
ATOM      5  C   UNL d   1       3.777   1.100  -0.020  0.00  0.00     0.063 A 
ATOM      6  N   UNL d   1       4.003  -0.277   0.014  0.00  0.00    -0.348 N 
ATOM      7  C   UNL d   1       5.296  -0.541   0.065  0.00  0.00     0.084 A 
ATOM      8  HN  UNL d   1       3.268  -0.984   0.001  1.00  0.00     0.166 HD
ATOM      9  S   UNL d   1       6.311   0.853   0.025  0.00  0.00    -0.081 SA
ATOM     10  C   UNL d   1       4.933   1.859  -0.023  0.00  0.00     0.083 A 
BRANCH   7  11
ATOM     11  C   UNL d   1       5.874  -1.898   0.099  0.00  0.00    -0.002 A 
ATOM     12  C   UNL d   1       5.185  -2.958  -0.512  0.00  0.00     0.014 A 
ATOM     13  C   UNL d   1       5.713  -4.253  -0.514  0.00  0.00     0.001 A 
ATOM     14  C   UNL d   1       6.934  -4.511   0.105  0.00  0.00     0.000 A 
ATOM     15  C   UNL d   1       7.622  -3.478   0.733  0.00  0.00     0.001 A 
ATOM     16  C   UNL d   1       7.096  -2.182   0.733  0.00  0.00     0.014 A 
ENDBRANCH   7  11
ENDBRANCH   3   5
BRANCH   1  17
ATOM     17  N   UNL d   1       1.087   3.528  -0.080  0.00  0.00    -0.299 N 
ATOM     18  H   UNL d   1       0.383   3.159   0.566  0.00  0.00     0.187 HD
BRANCH  17  19
ATOM     19  C   UNL d   1       1.060   4.951  -0.089  0.00  0.00     0.071 A 
ATOM     20  C   UNL d   1       2.092   5.687  -0.692  0.00  0.00     0.056 A 
ATOM     21  C   UNL d   1       2.044   7.081  -0.735  0.00  0.00     0.036 A 
ATOM     22 CL   UNL d   1       3.333   7.959  -1.464  0.00  0.00    -0.084 Cl
ATOM     23  C   UNL d   1       0.960   7.769  -0.195  0.00  0.00     0.026 A 
ATOM     24  C   UNL d   1      -0.089   7.055   0.382  0.00  0.00     0.028 A 
ATOM     25  C   UNL d   1      -0.045   5.657   0.425  0.00  0.00     0.062 A 
ATOM     26 CL   UNL d   1      -1.368   4.818   1.157  0.00  0.00    -0.082 Cl
ENDBRANCH  17  19
ENDBRANCH   1  17
TORSDOF 4
