REMARK  5 active torsions:
REMARK  status: ('A' for Active; 'I' for Inactive)
REMARK    1  A    between atoms: C_2  and  S_1 
REMARK    2  A    between atoms: C_5  and  S_1 
REMARK    3  A    between atoms: C_6  and  N_3 
REMARK    4  A    between atoms: C_16  and  C_5 
REMARK    5  A    between atoms: N_7  and  C_16 
ROOT
ATOM      1  N   UNL d   1       0.893  -4.828  -2.332  0.00  0.00    -0.364 N 
ATOM      2  N   UNL d   1       0.424  -2.073  -3.241  0.00  0.00     0.092 N 
ATOM      3  C   UNL d   1       2.001  -4.073  -2.918  0.00  0.00     0.154 C 
ATOM      4  C   UNL d   1      -0.031  -3.994  -1.556  0.00  0.00     0.154 C 
ATOM      5  C   UNL d   1       1.400  -3.006  -3.865  0.00  0.00     0.292 C 
ATOM      6  C   UNL d   1      -0.586  -2.879  -2.489  0.00  0.00     0.292 C 
ENDROOT
BRANCH   2   7
ATOM      7  C   UNL d   1       1.053  -1.069  -2.363  0.00  0.00     0.287 C 
BRANCH   7   8
ATOM      8  C   UNL d   1       1.901  -0.058  -3.137  0.00  0.00     0.176 C 
BRANCH   8   9
ATOM      9  S   UNL d   1       2.632   1.105  -2.007  0.00  0.00     0.178 S 
ATOM     10  O   UNL d   1       1.550   1.899  -1.454  0.00  0.00    -0.223 OA
ATOM     11  O   UNL d   1       3.541   0.407  -1.121  0.00  0.00    -0.223 OA
BRANCH   9  12
ATOM     12  C   UNL d   1       3.622   2.204  -3.000  0.00  0.00     0.081 A 
ATOM     13  C   UNL d   1       4.780   1.778  -3.659  0.00  0.00     0.057 A 
ATOM     14  C   UNL d   1       5.565   2.710  -4.350  0.00  0.00     0.049 A 
ATOM     15 CL   UNL d   1       5.338   0.145  -3.689  0.00  0.00    -0.083 Cl
ATOM     16  C   UNL d   1       5.202   4.056  -4.371  0.00  0.00     0.035 A 
ATOM     17  C   UNL d   1       4.051   4.485  -3.717  0.00  0.00     0.025 A 
ATOM     18 CL   UNL d   1       6.192   5.195  -5.196  0.00  0.00    -0.084 Cl
ATOM     19  C   UNL d   1       3.261   3.561  -3.031  0.00  0.00     0.027 A 
ENDBRANCH   9  12
ENDBRANCH   8   9
ENDBRANCH   7   8
ENDBRANCH   2   7
BRANCH   1  20
ATOM     20  C   UNL d   1       1.087  -6.143  -1.949  0.00  0.00     0.102 A 
ATOM     21  N   UNL d   1       0.632  -6.565  -0.750  0.00  0.00    -0.352 N 
ATOM     22  C   UNL d   1       0.751  -7.879  -0.444  0.00  0.00     0.089 A 
ATOM     23  HN  UNL d   1       0.209  -5.911  -0.091  1.00  0.00     0.166 HD
ATOM     24  C   UNL d   1       1.296  -8.827  -1.288  0.00  0.00     0.017 A 
ATOM     25  C   UNL d   1       1.757  -8.401  -2.522  0.00  0.00     0.005 A 
ATOM     26  C   UNL d   1       1.654  -7.050  -2.848  0.00  0.00     0.048 A 
ENDBRANCH   1  20
TORSDOF 5
