REMARK  5 active torsions:
REMARK  status: ('A' for Active; 'I' for Inactive)
REMARK    1  A    between atoms: C_8  and  C_1 
REMARK    2  A    between atoms: S_9  and  C_5 
REMARK    3  A    between atoms: C_18  and  S_9 
REMARK    4  A    between atoms: C_10  and  C_18 
REMARK       I    between atoms: N_11  and  C_10 
REMARK    5  A    between atoms: C_12  and  N_11 
ROOT
ATOM      1  S   UNL d   1       1.059  -2.470   1.289  0.00  0.00    -0.083 SA
ENDROOT
BRANCH   1   2
ATOM      2  C   UNL d   1       0.696  -0.823   0.877  0.00  0.00     0.163 A 
ATOM      3  N   UNL d   1      -0.191  -0.022   1.551  0.00  0.00    -0.312 N 
ATOM      4  C   UNL d   1      -0.243   1.156   0.831  0.00  0.00     0.209 A 
ATOM      5  C   UNL d   1      -0.872  -0.376   2.770  0.00  0.00     0.160 C 
ATOM      6  N   UNL d   1       0.625   1.069  -0.165  0.00  0.00    -0.279 N 
ATOM      7  N   UNL d   1       1.206  -0.166  -0.134  0.00  0.00    -0.278 N 
ATOM      8  HN  UNL d   1       0.827   1.804  -0.842  1.00  0.00     0.188 HD
ATOM      9  HN  UNL d   1       1.912  -0.515  -0.783  1.00  0.00     0.189 HD
BRANCH   4  10
ATOM     10  C   UNL d   1      -1.112   2.336   1.093  0.00  0.00     0.450 C 
ATOM     11  F   UNL d   1      -2.081   2.107   2.018  0.00  0.00    -0.163 F 
ATOM     12  F   UNL d   1      -0.400   3.400   1.545  0.00  0.00    -0.163 F 
ATOM     13  F   UNL d   1      -1.762   2.743  -0.029  0.00  0.00    -0.163 F 
ENDBRANCH   4  10
ENDBRANCH   1   2
BRANCH   1  14
ATOM     14  C   UNL d   1       2.334  -2.795   0.033  0.00  0.00     0.185 C 
BRANCH  14  15
ATOM     15  C   UNL d   1       2.856  -4.221  -0.023  0.00  0.00     0.231 C 
ATOM     16  N   UNL d   1       2.060  -5.201   0.542  0.00  0.00    -0.326 N 
ATOM     17  H   UNL d   1       1.193  -4.881   0.961  0.00  0.00     0.169 HD
ATOM     18  O   UNL d   1       3.908  -4.433  -0.632  0.00  0.00    -0.272 OA
BRANCH  16  19
ATOM     19  C   UNL d   1       2.295  -6.595   0.535  0.00  0.00     0.036 A 
ATOM     20  C   UNL d   1       3.469  -7.184   0.055  0.00  0.00     0.053 A 
ATOM     21  C   UNL d   1       3.604  -8.574   0.032  0.00  0.00     0.036 A 
ATOM     22 CL   UNL d   1       5.052  -9.282  -0.577  0.00  0.00    -0.084 Cl
ATOM     23  C   UNL d   1       2.581  -9.394   0.493  0.00  0.00     0.024 A 
ATOM     24  C   UNL d   1       1.417  -8.819   0.999  0.00  0.00     0.004 A 
ATOM     25  C   UNL d   1       1.277  -7.426   1.024  0.00  0.00     0.029 A 
ENDBRANCH  16  19
ENDBRANCH  14  15
ENDBRANCH   1  14
TORSDOF 5
