REMARK  8 active torsions:
REMARK  status: ('A' for Active; 'I' for Inactive)
REMARK       I    between atoms: N_3  and  C_1 
REMARK    1  A    between atoms: C_4  and  C_1 
REMARK    2  A    between atoms: C_2  and  N_3 
REMARK    3  A    between atoms: N_7  and  C_5 
REMARK    4  A    between atoms: C_8  and  C_6 
REMARK    5  A    between atoms: O_18  and  C_8 
REMARK    6  A    between atoms: C_9  and  C_10 
REMARK    7  A    between atoms: O_19  and  C_9 
REMARK    8  A    between atoms: C_26  and  O_19 
ROOT
ATOM      1  C   UNL d   1       0.888  -1.754  -1.852  0.00  0.00     0.062 A 
ATOM      2  C   UNL d   1       2.030  -2.457  -1.406  0.00  0.00     0.057 A 
ATOM      3  C   UNL d   1       1.069  -2.707  -4.079  0.00  0.00     0.041 A 
ATOM      4  C   UNL d   1       0.397  -1.900  -3.162  0.00  0.00     0.049 A 
ATOM      5  C   UNL d   1       2.697  -3.240  -2.370  0.00  0.00     0.033 A 
ATOM      6  C   UNL d   1       2.236  -3.360  -3.687  0.00  0.00     0.020 A 
ENDROOT
BRANCH   1   7
ATOM      7  N   UNL d   1       0.176  -0.882  -1.006  0.00  0.00    -0.321 N 
ATOM      8  C   UNL d   1       0.377   0.481  -1.112  0.00  0.00     0.257 C 
ATOM      9  O   UNL d   1       1.260   0.990  -1.806  0.00  0.00    -0.267 OA
ATOM     10  H   UNL d   1      -0.789  -1.173  -0.844  0.00  0.00     0.169 HD
BRANCH   8  11
ATOM     11  C   UNL d   1      -0.453   1.393  -0.261  0.00  0.00     0.049 A 
ATOM     12  C   UNL d   1      -1.799   1.240   0.132  0.00  0.00     0.053 A 
ATOM     13  C   UNL d   1      -2.378   2.196   0.998  0.00  0.00     0.019 A 
ATOM     14  C   UNL d   1      -1.668   3.321   1.415  0.00  0.00     0.001 A 
ATOM     15  C   UNL d   1      -0.359   3.502   0.988  0.00  0.00     0.001 A 
ATOM     16  C   UNL d   1       0.240   2.547   0.172  0.00  0.00     0.018 A 
BRANCH  12  17
ATOM     17  C   UNL d   1      -2.670   0.114  -0.295  0.00  0.00     0.177 C 
ATOM     18  O   UNL d   1      -2.279  -1.036  -0.401  0.00  0.00    -0.646 OA
BRANCH  17  19
ATOM     19  O   UNL d   1      -3.947   0.466  -0.546  0.00  0.00    -0.773 OA
ATOM     20  H   UNL d   1      -4.144   1.423  -0.564  0.00  0.00     0.167 HD
ENDBRANCH  17  19
ENDBRANCH  12  17
ENDBRANCH   8  11
ENDBRANCH   1   7
BRANCH   2  21
ATOM     21  N   UNL d   1       2.463  -2.524  -0.087  0.00  0.00    -0.375 N 
ATOM     22  C   UNL d   1       1.581  -2.244   1.055  0.00  0.00     0.149 C 
ATOM     23  C   UNL d   1       2.017  -3.115   2.248  0.00  0.00     0.187 C 
ATOM     24  O   UNL d   1       3.404  -2.925   2.578  0.00  0.00    -0.388 OA
ATOM     25  C   UNL d   1       4.231  -3.238   1.443  0.00  0.00     0.187 C 
ATOM     26  C   UNL d   1       3.889  -2.350   0.234  0.00  0.00     0.149 C 
ENDBRANCH   2  21
BRANCH   3  27
ATOM     27  C   UNL d   1       0.444  -2.903  -5.412  0.00  0.00     0.293 C 
ATOM     28  O   UNL d   1      -0.605  -2.378  -5.752  0.00  0.00    -0.259 OA
BRANCH  27  29
ATOM     29  O   UNL d   1       1.129  -3.846  -6.105  0.00  0.00    -0.318 OA
BRANCH  29  30
ATOM     30  C   UNL d   1       0.377  -4.505  -7.131  0.00  0.00     0.174 C 
ATOM     31  C   UNL d   1      -0.330  -5.690  -6.496  0.00  0.00     0.034 C 
ENDBRANCH  29  30
ENDBRANCH  27  29
ENDBRANCH   3  27
TORSDOF 8
