REMARK  4 active torsions:
REMARK  status: ('A' for Active; 'I' for Inactive)
REMARK    1  A    between atoms: C_6  and  C_1 
REMARK    2  A    between atoms: S_16  and  C_3 
REMARK    3  A    between atoms: S_8  and  C_6 
REMARK    4  A    between atoms: C_7  and  S_8 
ROOT
ATOM      1  C   UNL d   1      -2.164  -2.052  -0.264  0.00  0.00     0.231 C 
ATOM      2  O   UNL d   1      -3.311  -2.270   0.118  0.00  0.00    -0.279 OA
ENDROOT
BRANCH   1   3
ATOM      3  C   UNL d   1      -1.517  -0.745  -0.268  0.00  0.00     0.070 A 
ATOM      4  S   UNL d   1      -2.583   0.616  -0.204  0.00  0.00    -0.077 SA
ATOM      5  C   UNL d   1      -1.313   1.749  -0.115  0.00  0.00     0.052 A 
ATOM      6  C   UNL d   1      -0.089   1.116  -0.158  0.00  0.00    -0.005 A 
ATOM      7  C   UNL d   1      -0.189  -0.317  -0.290  0.00  0.00    -0.024 A 
ATOM      8  C   UNL d   1       1.185   1.755  -0.044  0.00  0.00     0.010 C 
ATOM      9  C   UNL d   1       1.057  -1.171  -0.321  0.00  0.00     0.045 C 
ATOM     10  C   UNL d   1       2.384  -0.399  -0.452  0.00  0.00     0.032 C 
ATOM     11  C   UNL d   1       2.334   1.073  -0.173  0.00  0.00    -0.025 C 
BRANCH   5  12
ATOM     12  S   UNL d   1      -1.677   3.462   0.090  0.00  0.00    -0.126 SA
ATOM     13  C   UNL d   1      -1.043   4.151  -1.454  0.00  0.00     0.096 C 
ENDBRANCH   5  12
ENDBRANCH   1   3
BRANCH   1  14
ATOM     14  S   UNL d   1      -1.209  -3.400  -0.908  0.00  0.00    -0.043 SA
BRANCH  14  15
ATOM     15  C   UNL d   1      -2.521  -4.391  -1.633  0.00  0.00     0.052 A 
ATOM     16  C   UNL d   1      -3.306  -3.897  -2.697  0.00  0.00     0.054 A 
ATOM     17  C   UNL d   1      -4.398  -4.620  -3.179  0.00  0.00     0.049 A 
ATOM     18 CL   UNL d   1      -2.963  -2.392  -3.490  0.00  0.00    -0.083 Cl
ATOM     19  C   UNL d   1      -4.705  -5.858  -2.628  0.00  0.00     0.037 A 
ATOM     20  C   UNL d   1      -3.911  -6.399  -1.623  0.00  0.00     0.049 A 
ATOM     21 CL   UNL d   1      -6.072  -6.729  -3.201  0.00  0.00    -0.084 Cl
ATOM     22  C   UNL d   1      -2.824  -5.672  -1.130  0.00  0.00     0.054 A 
ATOM     23 CL   UNL d   1      -1.881  -6.435   0.109  0.00  0.00    -0.083 Cl
ENDBRANCH  14  15
ENDBRANCH   1  14
TORSDOF 4
