REMARK  4 active torsions:
REMARK  status: ('A' for Active; 'I' for Inactive)
REMARK    1  A    between atoms: S_2  and  N_1 
REMARK    2  A    between atoms: C_10  and  S_2 
REMARK    3  A    between atoms: S_8  and  C_6 
REMARK    4  A    between atoms: C_9  and  S_8 
ROOT
ATOM      1  N   UNL d   1      -0.108  -1.153   0.018  0.00  0.00    -0.180 N 
ATOM      2  C   UNL d   1       1.218  -0.746   0.104  0.00  0.00     0.061 C 
ATOM      3  N   UNL d   1      -0.982  -0.110   0.139  0.00  0.00    -0.287 N 
ATOM      4  HN  UNL d   1      -1.995  -0.152   0.250  1.00  0.00     0.188 HD
ATOM      5  C   UNL d   1       1.161   0.635   0.059  0.00  0.00     0.057 C 
ATOM      6  C   UNL d   1      -0.208   0.979   0.080  0.00  0.00     0.042 C 
ATOM      7  C   UNL d   1       2.400  -1.644   0.158  0.00  0.00     0.072 C 
ATOM      8  C   UNL d   1      -0.825   2.329   0.048  0.00  0.00     0.071 C 
ENDROOT
BRANCH   1   9
ATOM      9  S   UNL d   1      -0.628  -2.815  -0.092  0.00  0.00     0.282 S 
ATOM     10  O   UNL d   1      -2.004  -2.792  -0.551  0.00  0.00    -0.198 OA
ATOM     11  O   UNL d   1       0.409  -3.510  -0.831  0.00  0.00    -0.198 OA
BRANCH   9  12
ATOM     12  C   UNL d   1      -0.642  -3.425   1.574  0.00  0.00     0.081 A 
ATOM     13  C   UNL d   1      -1.059  -2.613   2.633  0.00  0.00     0.027 A 
ATOM     14  C   UNL d   1      -1.087  -3.137   3.929  0.00  0.00     0.025 A 
ATOM     15  C   UNL d   1      -0.712  -4.463   4.155  0.00  0.00     0.034 A 
ATOM     16  C   UNL d   1      -0.309  -5.276   3.096  0.00  0.00     0.025 A 
ATOM     17 CL   UNL d   1      -0.755  -5.101   5.752  0.00  0.00    -0.084 Cl
ATOM     18  C   UNL d   1      -0.273  -4.758   1.800  0.00  0.00     0.027 A 
ENDBRANCH   9  12
ENDBRANCH   1   9
BRANCH   5  19
ATOM     19  S   UNL d   1       2.495   1.752  -0.069  0.00  0.00    -0.050 SA
BRANCH  19  20
ATOM     20  C   UNL d   1       2.941   2.088   1.619  0.00  0.00     0.149 A 
ATOM     21  N   UNL d   1       2.235   1.528   2.619  0.00  0.00    -0.346 N 
ATOM     22  C   UNL d   1       2.662   1.786   3.869  0.00  0.00     0.091 A 
ATOM     23  HN  UNL d   1       1.422   0.939   2.439  1.00  0.00     0.167 HD
ATOM     24  C   UNL d   1       3.752   2.573   4.155  0.00  0.00     0.034 A 
ATOM     25  C   UNL d   1       4.394   3.109   3.066  0.00  0.00     0.091 A 
ATOM     26  N   UNL d   1       4.011   2.886   1.796  0.00  0.00    -0.346 N 
ATOM     27  HN  UNL d   1       4.506   3.300   1.007  1.00  0.00     0.167 HD
ENDBRANCH  19  20
ENDBRANCH   5  19
TORSDOF 4
