REMARK  6 active torsions:
REMARK  status: ('A' for Active; 'I' for Inactive)
REMARK    1  A    between atoms: C_6  and  C_1 
REMARK    2  A    between atoms: C_11  and  N_2 
REMARK    3  A    between atoms: C_17  and  C_3 
REMARK       I    between atoms: N_9  and  C_6 
REMARK    4  A    between atoms: N_8  and  C_10 
REMARK    5  A    between atoms: C_14  and  N_9 
REMARK    6  A    between atoms: C_26  and  C_17 
ROOT
ATOM      1  C   UNL d   1      -0.673   2.583   0.002  0.00  0.00     0.259 C 
ATOM      2  N   UNL d   1       0.311   3.527   0.259  0.00  0.00    -0.323 N 
ATOM      3  O   UNL d   1      -1.849   2.847  -0.235  0.00  0.00    -0.267 OA
ATOM      4  H   UNL d   1       1.250   3.195   0.423  0.00  0.00     0.169 HD
ENDROOT
BRANCH   1   5
ATOM      5  C   UNL d   1      -0.230   1.188   0.060  0.00  0.00     0.073 C 
ATOM      6  C   UNL d   1      -1.048   0.055   0.136  0.00  0.00     0.051 C 
ATOM      7  N   UNL d   1      -0.195  -1.045   0.210  0.00  0.00    -0.260 N 
ATOM      8  N   UNL d   1       1.095  -0.670  -0.006  0.00  0.00    -0.304 N 
ATOM      9  C   UNL d   1       1.070   0.657  -0.008  0.00  0.00     0.126 C 
ATOM     10  HN  UNL d   1       1.905  -1.277  -0.137  1.00  0.00     0.186 HD
BRANCH   6  11
ATOM     11  C   UNL d   1      -2.546  -0.034   0.014  0.00  0.00     0.060 C 
BRANCH  11  12
ATOM     12  C   UNL d   1      -3.289   0.407   1.278  0.00  0.00     0.002 C 
ATOM     13  C   UNL d   1      -4.796   0.296   1.095  0.00  0.00     0.005 C 
ENDBRANCH  11  12
ENDBRANCH   6  11
BRANCH   7  14
ATOM     14  C   UNL d   1      -0.455  -2.415   0.512  0.00  0.00     0.056 A 
ATOM     15  C   UNL d   1       0.432  -3.396   0.039  0.00  0.00     0.031 A 
ATOM     16  C   UNL d   1       0.263  -4.736   0.394  0.00  0.00     0.002 A 
ATOM     17  C   UNL d   1      -0.775  -5.106   1.246  0.00  0.00     0.000 A 
ATOM     18  C   UNL d   1      -1.659  -4.140   1.722  0.00  0.00     0.002 A 
ATOM     19  C   UNL d   1      -1.507  -2.800   1.348  0.00  0.00     0.031 A 
ENDBRANCH   7  14
ENDBRANCH   1   5
BRANCH   2  20
ATOM     20  C   UNL d   1       0.118   4.916   0.455  0.00  0.00     0.035 A 
ATOM     21  C   UNL d   1      -1.118   5.540   0.368  0.00  0.00     0.032 A 
ATOM     22  C   UNL d   1      -1.253   6.901   0.673  0.00  0.00     0.031 A 
ATOM     23  C   UNL d   1      -0.179   7.691   1.106  0.00  0.00     0.030 A 
ATOM     24  C   UNL d   1       1.074   7.066   1.113  0.00  0.00     0.031 A 
ATOM     25  C   UNL d   1       1.224   5.701   0.796  0.00  0.00     0.032 A 
BRANCH  23  26
ATOM     26  N   UNL d   1      -0.392   9.028   1.438  0.00  0.00    -0.377 N 
ATOM     27  C   UNL d   1       0.744   9.925   1.737  0.00  0.00     0.149 C 
ATOM     28  C   UNL d   1       0.276  11.393   1.665  0.00  0.00     0.187 C 
ATOM     29  O   UNL d   1      -0.847  11.651   2.525  0.00  0.00    -0.388 OA
ATOM     30  C   UNL d   1      -1.942  10.791   2.175  0.00  0.00     0.187 C 
ATOM     31  C   UNL d   1      -1.549   9.315   2.324  0.00  0.00     0.149 C 
ENDBRANCH  23  26
ENDBRANCH   2  20
TORSDOF 6
