REMARK  6 active torsions:
REMARK  status: ('A' for Active; 'I' for Inactive)
REMARK    1  A    between atoms: S_2  and  N_1 
REMARK    2  A    between atoms: C_11  and  S_2 
REMARK    3  A    between atoms: C_3  and  C_4 
REMARK    4  A    between atoms: C_13  and  C_5 
REMARK    5  A    between atoms: O_21  and  C_13 
REMARK    6  A    between atoms: C_27  and  O_21 
ROOT
ATOM      1  N   UNL d   1       1.057  -0.815   0.044  0.00  0.00    -0.176 N 
ATOM      2  C   UNL d   1      -0.247  -1.310  -0.038  0.00  0.00     0.089 A 
ATOM      3  N   UNL d   1       1.087   0.558   0.110  0.00  0.00    -0.295 N 
ATOM      4  HN  UNL d   1       1.906   1.163   0.174  1.00  0.00     0.187 HD
ATOM      5  C   UNL d   1      -1.053  -0.178  -0.009  0.00  0.00     0.052 A 
ATOM      6  C   UNL d   1      -0.191   0.920   0.071  0.00  0.00     0.111 A 
ENDROOT
BRANCH   2   7
ATOM      7  C   UNL d   1      -0.721  -2.676  -0.102  0.00  0.00     0.069 A 
ATOM      8  C   UNL d   1      -0.362  -3.778  -0.879  0.00  0.00     0.128 A 
ATOM      9  N   UNL d   1      -1.115  -4.935  -0.635  0.00  0.00    -0.348 N 
ATOM     10  C   UNL d   1      -2.036  -4.713   0.269  0.00  0.00     0.048 A 
ATOM     11  HN  UNL d   1      -0.965  -5.830  -1.100  1.00  0.00     0.166 HD
ATOM     12  S   UNL d   1      -2.044  -3.138   0.927  0.00  0.00    -0.072 SA
ATOM     13  C   UNL d   1      -3.028  -5.733   0.705  0.00  0.00     0.076 C 
BRANCH   8  14
ATOM     14  C   UNL d   1       0.685  -3.797  -1.902  0.00  0.00     0.311 C 
ATOM     15  O   UNL d   1       1.044  -2.792  -2.505  0.00  0.00    -0.258 OA
BRANCH  14  16
ATOM     16  O   UNL d   1       1.218  -5.044  -2.069  0.00  0.00    -0.317 OA
BRANCH  16  17
ATOM     17  C   UNL d   1       2.269  -5.190  -3.031  0.00  0.00     0.175 C 
ATOM     18  C   UNL d   1       3.625  -5.246  -2.346  0.00  0.00     0.034 C 
ENDBRANCH  16  17
ENDBRANCH  14  16
ENDBRANCH   8  14
ENDBRANCH   2   7
BRANCH   1  19
ATOM     19  S   UNL d   1       2.510  -1.763   0.139  0.00  0.00     0.282 S 
ATOM     20  O   UNL d   1       2.113  -3.120   0.457  0.00  0.00    -0.198 OA
ATOM     21  O   UNL d   1       3.291  -1.437  -1.040  0.00  0.00    -0.198 OA
BRANCH  19  22
ATOM     22  C   UNL d   1       3.403  -1.150   1.543  0.00  0.00     0.083 A 
ATOM     23  C   UNL d   1       3.696  -2.030   2.590  0.00  0.00     0.049 A 
ATOM     24  C   UNL d   1       4.497  -1.595   3.640  0.00  0.00     0.035 A 
ATOM     25 CL   UNL d   1       4.886  -2.681   4.917  0.00  0.00    -0.084 Cl
ATOM     26  C   UNL d   1       5.002  -0.296   3.654  0.00  0.00     0.024 A 
ATOM     27  C   UNL d   1       4.710   0.578   2.605  0.00  0.00     0.003 A 
ATOM     28  C   UNL d   1       3.918   0.150   1.538  0.00  0.00     0.025 A 
ENDBRANCH  19  22
ENDBRANCH   1  19
TORSDOF 6
