REMARK  1 active torsions:
REMARK  status: ('A' for Active; 'I' for Inactive)
REMARK    1  A    between atoms: C_7  and  C_6 
ROOT
ATOM      1  N   UNL d   1      -0.050  -0.936  -1.528  0.00  0.00    -0.307 N 
ATOM      2  C   UNL d   1       0.832   0.063  -1.259  0.00  0.00     0.146 A 
ATOM      3  C   UNL d   1      -1.527   0.576  -0.532  0.00  0.00     0.076 A 
ATOM      4  C   UNL d   1      -1.363  -0.751  -1.195  0.00  0.00     0.264 A 
ATOM      5  S   UNL d   1      -0.008   1.408  -0.520  0.00  0.00    -0.055 SA
ATOM      6  C   UNL d   1      -2.644   1.077   0.017  0.00  0.00     0.037 C 
ATOM      7  S   UNL d   1       2.449  -0.023  -1.600  0.00  0.00    -0.052 SA
ATOM      8  O   UNL d   1      -2.243  -1.562  -1.433  0.00  0.00    -0.267 OA
ATOM      9  H   UNL d   1       0.238  -1.792  -1.977  0.00  0.00     0.170 HD
ENDROOT
BRANCH   6  10
ATOM     10  C   UNL d   1      -3.912   0.340   0.091  0.00  0.00    -0.013 A 
ATOM     11  C   UNL d   1      -4.223  -0.503   1.172  0.00  0.00     0.045 A 
ATOM     12  C   UNL d   1      -5.399  -1.256   1.169  0.00  0.00     0.048 A 
ATOM     13 CL   UNL d   1      -3.170  -0.652   2.538  0.00  0.00    -0.083 Cl
ATOM     14  C   UNL d   1      -6.268  -1.168   0.084  0.00  0.00     0.035 A 
ATOM     15  C   UNL d   1      -5.982  -0.322  -0.986  0.00  0.00     0.024 A 
ATOM     16 CL   UNL d   1      -7.701  -2.118   0.062  0.00  0.00    -0.084 Cl
ATOM     17  C   UNL d   1      -4.808   0.434  -0.983  0.00  0.00     0.015 A 
ENDBRANCH   6  10
TORSDOF 1
