REMARK  6 active torsions:
REMARK  status: ('A' for Active; 'I' for Inactive)
REMARK    1  A    between atoms: C_10  and  C_1 
REMARK    2  A    between atoms: C_16  and  C_6 
REMARK    3  A    between atoms: S_15  and  C_9 
REMARK    4  A    between atoms: C_11  and  C_18 
REMARK       I    between atoms: N_14  and  C_11 
REMARK    5  A    between atoms: C_19  and  N_14 
REMARK    6  A    between atoms: C_18  and  S_15 
ROOT
ATOM      1  N   UNL d   1      -1.159   3.232  -0.621  0.00  0.00    -0.334 N 
ATOM      2  HN  UNL d   1      -0.392   3.109  -1.282  1.00  0.00     0.168 HD
ATOM      3  C   UNL d   1      -1.765   4.415  -0.452  0.00  0.00     0.145 A 
ATOM      4  C   UNL d   1      -1.620   2.213   0.132  0.00  0.00     0.071 A 
ATOM      5  N   UNL d   1      -2.769   4.659   0.400  0.00  0.00    -0.347 N 
ATOM      6  HN  UNL d   1      -3.189   5.584   0.487  1.00  0.00     0.167 HD
ATOM      7  C   UNL d   1      -2.642   2.360   1.045  0.00  0.00     0.049 A 
ATOM      8  C   UNL d   1      -3.189   3.616   1.133  0.00  0.00     0.092 A 
ENDROOT
BRANCH   3   9
ATOM      9  S   UNL d   1      -1.026   5.785  -1.296  0.00  0.00    -0.085 SA
BRANCH   9  10
ATOM     10  C   UNL d   1      -0.893   6.925   0.110  0.00  0.00     0.185 C 
BRANCH  10  11
ATOM     11  C   UNL d   1      -0.067   6.424   1.293  0.00  0.00     0.231 C 
ATOM     12  N   UNL d   1       0.779   5.360   1.043  0.00  0.00    -0.327 N 
ATOM     13  H   UNL d   1       0.783   5.007   0.090  0.00  0.00     0.169 HD
ATOM     14  O   UNL d   1      -0.146   7.026   2.366  0.00  0.00    -0.272 OA
BRANCH  12  15
ATOM     15  C   UNL d   1       1.661   4.727   1.942  0.00  0.00     0.034 A 
ATOM     16  C   UNL d   1       1.748   5.042   3.300  0.00  0.00     0.031 A 
ATOM     17  C   UNL d   1       2.702   4.421   4.116  0.00  0.00     0.026 A 
ATOM     18  C   UNL d   1       3.567   3.476   3.576  0.00  0.00     0.034 A 
ATOM     19  C   UNL d   1       3.466   3.121   2.233  0.00  0.00     0.026 A 
ATOM     20 CL   UNL d   1       4.772   2.752   4.566  0.00  0.00    -0.084 Cl
ATOM     21  C   UNL d   1       2.509   3.739   1.422  0.00  0.00     0.031 A 
ENDBRANCH  12  15
ENDBRANCH  10  11
ENDBRANCH   9  10
ENDBRANCH   3   9
BRANCH   4  22
ATOM     22  C   UNL d   1      -0.951   0.947  -0.107  0.00  0.00     0.127 A 
ATOM     23  C   UNL d   1       0.021   0.517  -0.979  0.00  0.00     0.074 A 
ATOM     24  C   UNL d   1       0.184  -0.866  -0.701  0.00  0.00     0.068 A 
ATOM     25  N   UNL d   1      -0.626  -1.230   0.309  0.00  0.00    -0.260 N 
ATOM     26  O   UNL d   1      -1.333  -0.103   0.667  0.00  0.00    -0.235 OA
ATOM     27  HN  UNL d   1      -0.702  -2.157   0.727  1.00  0.00     0.195 HD
BRANCH  24  28
ATOM     28  C   UNL d   1       1.065  -1.830  -1.363  0.00  0.00    -0.007 A 
ATOM     29  C   UNL d   1       1.447  -3.009  -0.708  0.00  0.00     0.014 A 
ATOM     30  C   UNL d   1       2.279  -3.939  -1.337  0.00  0.00     0.001 A 
ATOM     31  C   UNL d   1       2.734  -3.703  -2.632  0.00  0.00     0.000 A 
ATOM     32  C   UNL d   1       2.360  -2.537  -3.297  0.00  0.00     0.001 A 
ATOM     33  C   UNL d   1       1.530  -1.604  -2.667  0.00  0.00     0.014 A 
ENDBRANCH  24  28
ENDBRANCH   4  22
TORSDOF 6
