REMARK  5 active torsions:
REMARK  status: ('A' for Active; 'I' for Inactive)
REMARK    1  A    between atoms: C_8  and  C_1 
REMARK    2  A    between atoms: C_10  and  C_4 
REMARK    3  A    between atoms: C_5  and  C_9 
REMARK    4  A    between atoms: O_16  and  C_8 
REMARK    5  A    between atoms: C_20  and  O_16 
ROOT
ATOM      1  C   UNL d   1       1.326   0.834   0.057  0.00  0.00     0.115 A 
ATOM      2  N   UNL d   1       1.440  -0.557   0.078  0.00  0.00    -0.345 N 
ATOM      3  HN  UNL d   1       2.322  -1.065   0.140  1.00  0.00     0.167 HD
ATOM      4  C   UNL d   1       0.253  -1.125   0.006  0.00  0.00     0.085 A 
ATOM      5  S   UNL d   1      -1.071  -0.022   0.001  0.00  0.00    -0.081 SA
ATOM      6  C   UNL d   1       0.022   1.292   0.039  0.00  0.00     0.087 A 
ENDROOT
BRANCH   4   7
ATOM      7  C   UNL d   1       0.045  -2.581  -0.037  0.00  0.00    -0.002 A 
ATOM      8  C   UNL d   1       0.966  -3.419   0.616  0.00  0.00     0.030 A 
ATOM      9  C   UNL d   1       0.831  -4.817   0.589  0.00  0.00     0.048 A 
ATOM     10  C   UNL d   1      -0.243  -5.379  -0.115  0.00  0.00     0.016 A 
ATOM     11  C   UNL d   1      -1.157  -4.563  -0.780  0.00  0.00     0.002 A 
ATOM     12  C   UNL d   1      -1.013  -3.174  -0.742  0.00  0.00     0.014 A 
BRANCH   9  13
ATOM     13  C   UNL d   1       1.821  -5.710   1.294  0.00  0.00     0.417 C 
ATOM     14  F   UNL d   1       2.818  -5.033   1.929  0.00  0.00    -0.166 F 
ATOM     15  F   UNL d   1       1.232  -6.484   2.248  0.00  0.00    -0.166 F 
ATOM     16  F   UNL d   1       2.440  -6.575   0.443  0.00  0.00    -0.166 F 
ENDBRANCH   9  13
ENDBRANCH   4   7
BRANCH   1  17
ATOM     17  C   UNL d   1       2.489   1.716  -0.021  0.00  0.00     0.310 C 
ATOM     18  O   UNL d   1       2.397   2.938  -0.109  0.00  0.00    -0.258 OA
BRANCH  17  19
ATOM     19  O   UNL d   1       3.660   1.022  -0.096  0.00  0.00    -0.317 OA
BRANCH  19  20
ATOM     20  C   UNL d   1       4.763   1.738  -0.663  0.00  0.00     0.175 C 
ATOM     21  C   UNL d   1       4.704   1.571  -2.171  0.00  0.00     0.034 C 
ENDBRANCH  19  20
ENDBRANCH  17  19
ENDBRANCH   1  17
TORSDOF 5
