REMARK  8 active torsions:
REMARK  status: ('A' for Active; 'I' for Inactive)
REMARK    1  A    between atoms: S_4  and  C_1 
REMARK    2  A    between atoms: C_2  and  S_3 
REMARK    3  A    between atoms: S_3  and  N_18 
REMARK    4  A    between atoms: N_17  and  S_4 
REMARK    5  A    between atoms: C_25  and  N_17 
REMARK    6  A    between atoms: N_18  and  C_24 
REMARK    7  A    between atoms: C_23  and  C_25 
REMARK    8  A    between atoms: C_24  and  C_23 
ROOT
ATOM      1  C   UNL d   1       5.603  -3.706   0.011  0.00  0.00     0.035 C 
ENDROOT
BRANCH   1   2
ATOM      2  C   UNL d   1       4.096  -3.962   0.052  0.00  0.00     0.106 C 
BRANCH   2   3
ATOM      3  N   UNL d   1       3.730  -4.806   1.203  0.00  0.00    -0.215 NA
ATOM      4  H   UNL d   1       4.293  -5.641   1.358  0.00  0.00     0.139 HD
BRANCH   3   5
ATOM      5  S   UNL d   1       2.113  -5.282   1.310  0.00  0.00     0.243 S 
ATOM      6  O   UNL d   1       2.080  -6.426   2.190  0.00  0.00    -0.206 OA
ATOM      7  O   UNL d   1       1.569  -5.330  -0.028  0.00  0.00    -0.206 OA
BRANCH   5   8
ATOM      8  C   UNL d   1       1.214  -4.069   2.125  0.00  0.00     0.105 A 
ATOM      9  C   UNL d   1       1.454  -3.647   3.410  0.00  0.00     0.099 A 
ATOM     10  S   UNL d   1       0.352  -2.459   3.931  0.00  0.00    -0.064 SA
ATOM     11 CL   UNL d   1       2.679  -4.151   4.506  0.00  0.00    -0.075 Cl
ATOM     12  C   UNL d   1      -0.448  -2.496   2.440  0.00  0.00     0.077 A 
ATOM     13  C   UNL d   1       0.097  -3.384   1.548  0.00  0.00     0.058 A 
ATOM     14 CL   UNL d   1      -1.804  -1.479   2.172  0.00  0.00    -0.076 Cl
ENDBRANCH   5   8
ENDBRANCH   3   5
ENDBRANCH   2   3
ENDBRANCH   1   2
BRANCH   1  15
ATOM     15  C   UNL d   1       6.477  -4.960  -0.045  0.00  0.00     0.133 C 
BRANCH  15  16
ATOM     16  N   UNL d   1       6.177  -5.779  -1.229  0.00  0.00    -0.315 N 
ATOM     17  H   UNL d   1       5.197  -5.937  -1.471  0.00  0.00     0.172 HD
BRANCH  16  18
ATOM     18  S   UNL d   1       7.048  -7.220  -1.395  0.00  0.00     0.261 S 
ATOM     19  O   UNL d   1       6.634  -7.843  -2.629  0.00  0.00    -0.200 OA
ATOM     20  O   UNL d   1       8.429  -6.967  -1.066  0.00  0.00    -0.200 OA
BRANCH  18  21
ATOM     21  C   UNL d   1       6.500  -8.311  -0.173  0.00  0.00     0.110 A 
ATOM     22  C   UNL d   1       5.204  -8.743  -0.030  0.00  0.00     0.099 A 
ATOM     23  S   UNL d   1       5.002  -9.809   1.280  0.00  0.00    -0.064 SA
ATOM     24 CL   UNL d   1       3.818  -8.323  -0.957  0.00  0.00    -0.075 Cl
ATOM     25  C   UNL d   1       6.643  -9.688   1.677  0.00  0.00     0.077 A 
ATOM     26  C   UNL d   1       7.350  -8.863   0.839  0.00  0.00     0.059 A 
ATOM     27 CL   UNL d   1       7.261 -10.545   3.028  0.00  0.00    -0.076 Cl
ENDBRANCH  18  21
ENDBRANCH  16  18
ENDBRANCH  15  16
ENDBRANCH   1  15
TORSDOF 8
