REMARK  3 active torsions:
REMARK  status: ('A' for Active; 'I' for Inactive)
REMARK    1  A    between atoms: C_7  and  C_1 
REMARK    2  A    between atoms: O_9  and  C_5 
REMARK    3  A    between atoms: O_10  and  C_7 
ROOT
ATOM      1  C   UNL d   1      -0.317  -1.116   0.007  0.00  0.00     0.127 A 
ATOM      2  N   UNL d   1       0.964  -0.694   0.007  0.00  0.00    -0.291 N 
ATOM      3  HN  UNL d   1       1.809  -1.264   0.008  1.00  0.00     0.187 HD
ATOM      4  C   UNL d   1      -1.210  -0.007   0.004  0.00  0.00     0.094 A 
ATOM      5  C   UNL d   1      -0.413   1.113   0.003  0.00  0.00     0.159 A 
ATOM      6  N   UNL d   1       0.874   0.648   0.005  0.00  0.00    -0.275 N 
ATOM      7  C   UNL d   1       2.074   1.449   0.004  0.00  0.00     0.180 C 
ENDROOT
BRANCH   1   8
ATOM      8  C   UNL d   1      -0.694  -2.537   0.009  0.00  0.00     0.311 C 
ATOM      9  O   UNL d   1      -1.863  -2.916   0.009  0.00  0.00    -0.258 OA
BRANCH   8  10
ATOM     10  O   UNL d   1       0.384  -3.377   0.010  0.00  0.00    -0.321 OA
ATOM     11  C   UNL d   1       0.056  -4.764   0.012  0.00  0.00     0.213 C 
ENDBRANCH   8  10
ENDBRANCH   1   8
BRANCH   5  12
ATOM     12  O   UNL d   1      -0.692   2.411  -0.000  0.00  0.00    -0.345 OA
ATOM     13  H   UNL d   1      -1.663   2.501  -0.001  0.00  0.00     0.219 HD
ENDBRANCH   5  12
TORSDOF 3
