REMARK  5 active torsions:
REMARK  status: ('A' for Active; 'I' for Inactive)
REMARK    1  A    between atoms: C_4  and  C_1 
REMARK    2  A    between atoms: O_9  and  C_4 
REMARK    3  A    between atoms: C_10  and  C_5 
REMARK    4  A    between atoms: C_6  and  C_10 
REMARK    5  A    between atoms: N_11  and  O_9 
ROOT
ATOM      1  C   UNL d   1       1.288   0.837  -0.117  0.00  0.00     0.117 A 
ATOM      2  N   UNL d   1       1.406  -0.553  -0.234  0.00  0.00    -0.348 N 
ATOM      3  HN  UNL d   1       2.282  -1.049  -0.398  1.00  0.00     0.166 HD
ATOM      4  C   UNL d   1       0.233  -1.133  -0.102  0.00  0.00     0.055 A 
ATOM      5  C   UNL d   1      -0.016   1.280   0.017  0.00  0.00     0.087 A 
ATOM      6  S   UNL d   1      -1.095  -0.048   0.049  0.00  0.00    -0.086 SA
ENDROOT
BRANCH   4   7
ATOM      7  C   UNL d   1       0.027  -2.623  -0.022  0.00  0.00     0.107 C 
BRANCH   7   8
ATOM      8  C   UNL d   1      -0.107  -3.280  -1.381  0.00  0.00    -0.009 A 
ATOM      9  C   UNL d   1       1.024  -3.728  -2.091  0.00  0.00     0.042 A 
ATOM     10 CL   UNL d   1       2.621  -3.671  -1.426  0.00  0.00    -0.084 Cl
ATOM     11  C   UNL d   1       0.904  -4.265  -3.380  0.00  0.00     0.024 A 
ATOM     12  C   UNL d   1      -0.343  -4.369  -3.986  0.00  0.00     0.003 A 
ATOM     13  C   UNL d   1      -1.476  -3.955  -3.294  0.00  0.00     0.024 A 
ATOM     14  C   UNL d   1      -1.363  -3.421  -2.005  0.00  0.00     0.042 A 
ATOM     15 CL   UNL d   1      -2.842  -2.975  -1.227  0.00  0.00    -0.084 Cl
ENDBRANCH   7   8
ENDBRANCH   4   7
BRANCH   1  16
ATOM     16  C   UNL d   1       2.461   1.713  -0.077  0.00  0.00     0.332 C 
ATOM     17  O   UNL d   1       2.453   2.835   0.418  0.00  0.00    -0.256 OA
BRANCH  16  18
ATOM     18  O   UNL d   1       3.543   1.121  -0.689  0.00  0.00    -0.194 OA
BRANCH  18  19
ATOM     19  N   UNL d   1       4.681   1.230   0.129  0.00  0.00    -0.266 N 
ATOM     20  C   UNL d   1       5.758   0.867  -0.497  0.00  0.00     0.003 C 
ATOM     21  C   UNL d   1       5.869   0.586  -1.978  0.00  0.00     0.065 C 
ATOM     22  C   UNL d   1       7.019   0.698   0.313  0.00  0.00     0.065 C 
ATOM     23  HN  UNL d   1       4.662   1.555   1.096  1.00  0.00     0.194 HD
ENDBRANCH  18  19
ENDBRANCH  16  18
ENDBRANCH   1  16
TORSDOF 5
