REMARK  5 active torsions:
REMARK  status: ('A' for Active; 'I' for Inactive)
REMARK    1  A    between atoms: C_3  and  O_6 
REMARK    2  A    between atoms: O_7  and  C_4 
REMARK    3  A    between atoms: O_6  and  C_5 
REMARK    4  A    between atoms: C_13  and  O_7 
REMARK    5  A    between atoms: N_11  and  C_9 
ROOT
ATOM      1  O   UNL d   1      -3.027   0.292   0.448  0.00  0.00    -0.291 OA
ENDROOT
BRANCH   1   2
ATOM      2  C   UNL d   1      -3.738   1.432   0.158  0.00  0.00     0.111 A 
ATOM      3  C   UNL d   1      -3.565   2.058  -1.086  0.00  0.00     0.103 A 
ATOM      4  C   UNL d   1      -4.340   3.186  -1.393  0.00  0.00     0.040 A 
ATOM      5  C   UNL d   1      -5.282   3.684  -0.493  0.00  0.00     0.003 A 
ATOM      6  C   UNL d   1      -5.488   3.033   0.717  0.00  0.00     0.003 A 
ATOM      7  C   UNL d   1      -4.732   1.904   1.034  0.00  0.00     0.040 A 
BRANCH   3   8
ATOM      8  O   UNL d   1      -2.782   1.658  -2.134  0.00  0.00    -0.344 OA
BRANCH   8   9
ATOM      9  C   UNL d   1      -1.527   1.019  -1.888  0.00  0.00     0.121 C 
ATOM     10  C   UNL d   1      -1.647  -0.474  -2.181  0.00  0.00     0.040 C 
ATOM     11  C   UNL d   1      -0.533   1.641  -2.871  0.00  0.00     0.040 C 
ENDBRANCH   8   9
ENDBRANCH   3   8
ENDBRANCH   1   2
BRANCH   1  12
ATOM     12  C   UNL d   1      -2.600   0.051   1.737  0.00  0.00     0.148 A 
ATOM     13  N   UNL d   1      -2.578  -1.256   2.069  0.00  0.00    -0.345 N 
ATOM     14  C   UNL d   1      -2.110  -1.570   3.302  0.00  0.00     0.113 A 
ATOM     15  HN  UNL d   1      -2.898  -1.975   1.421  1.00  0.00     0.167 HD
ATOM     16  C   UNL d   1      -1.701  -0.646   4.260  0.00  0.00     0.021 A 
ATOM     17  C   UNL d   1      -1.672   0.685   3.857  0.00  0.00     0.029 A 
ATOM     18  C   UNL d   1      -2.126   1.046   2.584  0.00  0.00     0.058 A 
BRANCH  16  19
ATOM     19  N   UNL d   1      -1.111  -1.038   5.466  0.00  0.00    -0.302 NA
ATOM     20  H   UNL d   1      -1.414  -1.946   5.805  0.00  0.00     0.124 HD
ATOM     21  H   UNL d   1      -1.134  -0.329   6.192  0.00  0.00     0.124 HD
ENDBRANCH  16  19
ENDBRANCH   1  12
TORSDOF 5
