REMARK  4 active torsions:
REMARK  status: ('A' for Active; 'I' for Inactive)
REMARK    1  A    between atoms: C_2  and  S_1 
REMARK    2  A    between atoms: C_5  and  S_1 
REMARK    3  A    between atoms: C_4  and  C_3 
REMARK    4  A    between atoms: C_8  and  C_5 
ROOT
ATOM      1  C   UNL d   1       0.428  -0.007  -1.647  0.00  0.00     0.140 C 
ATOM      2  C   UNL d   1      -0.303  -0.998  -2.206  0.00  0.00     0.051 C 
ATOM      3  C   UNL d   1       0.909  -0.048  -0.298  0.00  0.00     0.111 C 
ATOM      4  N   UNL d   1       1.260  -0.149   0.802  0.00  0.00    -0.191 NA
ENDROOT
BRANCH   1   5
ATOM      5  S   UNL d   1       0.911   1.335  -2.655  0.00  0.00     0.191 S 
ATOM      6  O   UNL d   1       1.561   0.814  -3.850  0.00  0.00    -0.222 OA
ATOM      7  O   UNL d   1       1.630   2.314  -1.856  0.00  0.00    -0.222 OA
BRANCH   5   8
ATOM      8  C   UNL d   1      -0.586   2.117  -3.231  0.00  0.00     0.211 C 
BRANCH   8   9
ATOM      9  C   UNL d   1      -1.463   2.513  -2.111  0.00  0.00     0.066 A 
ATOM     10  O   UNL d   1      -2.724   1.994  -2.141  0.00  0.00    -0.326 OA
ATOM     11  C   UNL d   1      -3.389   2.495  -1.068  0.00  0.00     0.142 A 
ATOM     12  C   UNL d   1      -2.572   3.333  -0.350  0.00  0.00     0.027 A 
ATOM     13  C   UNL d   1      -1.332   3.361  -1.030  0.00  0.00     0.035 A 
ENDBRANCH   8   9
ENDBRANCH   5   8
ENDBRANCH   1   5
BRANCH   2  14
ATOM     14  C   UNL d   1      -0.727  -2.218  -1.487  0.00  0.00     0.026 A 
ATOM     15  C   UNL d   1      -1.912  -2.293  -0.742  0.00  0.00     0.047 A 
ATOM     16 CL   UNL d   1      -2.986  -0.951  -0.599  0.00  0.00    -0.083 Cl
ATOM     17  C   UNL d   1      -2.265  -3.471  -0.075  0.00  0.00     0.025 A 
ATOM     18  C   UNL d   1      -1.438  -4.591  -0.137  0.00  0.00     0.005 A 
ATOM     19  C   UNL d   1      -0.248  -4.525  -0.856  0.00  0.00     0.043 A 
ATOM     20  C   UNL d   1       0.097  -3.349  -1.521  0.00  0.00     0.128 A 
ATOM     21  F   UNL d   1       1.255  -3.315  -2.197  0.00  0.00    -0.205 F 
ENDBRANCH   2  14
TORSDOF 4
