REMARK  7 active torsions:
REMARK  status: ('A' for Active; 'I' for Inactive)
REMARK    1  A    between atoms: C_1  and  N_20 
REMARK    2  A    between atoms: C_6  and  C_7 
REMARK    3  A    between atoms: N_8  and  N_10 
REMARK       I    between atoms: N_10  and  C_11 
REMARK    4  A    between atoms: C_11  and  C_12 
REMARK    5  A    between atoms: C_14  and  O_17 
REMARK    6  A    between atoms: N_20  and  C_21 
REMARK    7  A    between atoms: N_20  and  C_22 
ROOT
ATOM      1  C   UNL d   1      -2.954   0.435  -0.233  0.00  0.00     0.118 C 
ATOM      2  N   UNL d   1      -3.434   1.630  -0.346  0.00  0.00    -0.308 N 
ATOM      3  HN  UNL d   1      -2.817   2.439  -0.401  1.00  0.00     0.186 HD
ENDROOT
BRANCH   2   4
ATOM      4  N   UNL d   1      -4.784   1.777  -0.389  0.00  0.00    -0.266 N 
ATOM      5  C   UNL d   1      -5.295   3.067  -0.469  0.00  0.00     0.272 C 
ATOM      6  O   UNL d   1      -4.623   4.096  -0.452  0.00  0.00    -0.266 OA
ATOM      7  H   UNL d   1      -5.393   0.973  -0.269  0.00  0.00     0.190 HD
BRANCH   5   8
ATOM      8  C   UNL d   1      -6.769   3.183  -0.595  0.00  0.00     0.066 A 
ATOM      9  C   UNL d   1      -7.556   2.241  -1.266  0.00  0.00     0.081 A 
ATOM     10  C   UNL d   1      -8.937   2.418  -1.362  0.00  0.00     0.037 A 
ATOM     11  C   UNL d   1      -9.535   3.555  -0.817  0.00  0.00     0.003 A 
ATOM     12  C   UNL d   1      -8.757   4.511  -0.165  0.00  0.00     0.001 A 
ATOM     13  C   UNL d   1      -7.378   4.325  -0.053  0.00  0.00     0.020 A 
BRANCH   9  14
ATOM     14  O   UNL d   1      -7.035   1.141  -1.892  0.00  0.00    -0.360 OA
ATOM     15  H   UNL d   1      -6.174   1.400  -2.276  0.00  0.00     0.217 HD
ENDBRANCH   9  14
ENDBRANCH   5   8
ENDBRANCH   2   4
BRANCH   1  16
ATOM     16  C   UNL d   1      -1.491   0.230  -0.152  0.00  0.00    -0.019 A 
ATOM     17  C   UNL d   1      -0.627   1.323  -0.159  0.00  0.00     0.015 A 
ATOM     18  C   UNL d   1       0.754   1.131  -0.049  0.00  0.00     0.030 A 
ATOM     19  C   UNL d   1       1.316  -0.147   0.090  0.00  0.00     0.030 A 
ATOM     20  C   UNL d   1       0.420  -1.232   0.075  0.00  0.00     0.030 A 
ATOM     21  C   UNL d   1      -0.968  -1.056  -0.050  0.00  0.00     0.015 A 
BRANCH  19  22
ATOM     22  N   UNL d   1       2.684  -0.316   0.264  0.00  0.00    -0.382 N 
BRANCH  22  23
ATOM     23  C   UNL d   1       3.631   0.527  -0.476  0.00  0.00     0.118 C 
ATOM     24  C   UNL d   1       4.263   1.581   0.421  0.00  0.00     0.026 C 
ENDBRANCH  22  23
BRANCH  22  25
ATOM     25  C   UNL d   1       3.232  -1.446   1.022  0.00  0.00     0.118 C 
ATOM     26  C   UNL d   1       2.868  -1.348   2.498  0.00  0.00     0.026 C 
ENDBRANCH  22  25
ENDBRANCH  19  22
ENDBRANCH   1  16
TORSDOF 7
