REMARK  7 active torsions:
REMARK  status: ('A' for Active; 'I' for Inactive)
REMARK    1  A    between atoms: N_2  and  C_1 
REMARK    2  A    between atoms: C_5  and  C_4 
REMARK       I    between atoms: N_9  and  C_5 
REMARK    3  A    between atoms: C_7  and  N_10 
REMARK    4  A    between atoms: N_12  and  C_7 
REMARK    5  A    between atoms: N_10  and  N_9 
REMARK    6  A    between atoms: C_16  and  N_12 
REMARK    7  A    between atoms: O_22  and  C_17 
ROOT
ATOM      1  N   UNL d   1      -3.237  -1.613   0.233  0.00  0.00    -0.273 N 
ATOM      2  H   UNL d   1      -2.587  -2.392   0.132  0.00  0.00     0.189 HD
ENDROOT
BRANCH   1   3
ATOM      3  C   UNL d   1      -4.586  -1.806   0.071  0.00  0.00     0.191 C 
ATOM      4  S   UNL d   1      -5.715  -0.576   0.001  0.00  0.00    -0.039 SA
BRANCH   3   5
ATOM      5  N   UNL d   1      -4.985  -3.105  -0.146  0.00  0.00    -0.332 N 
ATOM      6  H   UNL d   1      -5.873  -3.204  -0.625  0.00  0.00     0.168 HD
BRANCH   5   7
ATOM      7  C   UNL d   1      -4.310  -4.290   0.211  0.00  0.00     0.034 A 
ATOM      8  C   UNL d   1      -3.452  -4.355   1.314  0.00  0.00     0.032 A 
ATOM      9  C   UNL d   1      -2.739  -5.522   1.598  0.00  0.00     0.039 A 
ATOM     10  C   UNL d   1      -2.881  -6.641   0.782  0.00  0.00     0.068 A 
ATOM     11  C   UNL d   1      -3.797  -6.602  -0.272  0.00  0.00     0.039 A 
ATOM     12  C   UNL d   1      -4.526  -5.440  -0.547  0.00  0.00     0.032 A 
BRANCH  10  13
ATOM     13  O   UNL d   1      -2.194  -7.816   0.917  0.00  0.00    -0.356 OA
ATOM     14  C   UNL d   1      -1.131  -7.825   1.865  0.00  0.00     0.210 C 
ENDBRANCH  10  13
ENDBRANCH   5   7
ENDBRANCH   3   5
ENDBRANCH   1   3
BRANCH   1  15
ATOM     15  N   UNL d   1      -2.672  -0.428   0.708  0.00  0.00    -0.262 N 
ATOM     16  C   UNL d   1      -1.420  -0.516   1.289  0.00  0.00     0.293 C 
ATOM     17  O   UNL d   1      -0.803  -1.582   1.326  0.00  0.00    -0.264 OA
ATOM     18  H   UNL d   1      -3.224   0.426   0.690  0.00  0.00     0.190 HD
BRANCH  16  19
ATOM     19  C   UNL d   1      -0.895   0.712   1.845  0.00  0.00     0.147 A 
ATOM     20  O   UNL d   1      -1.666   1.847   1.874  0.00  0.00    -0.283 OA
ATOM     21  C   UNL d   1      -0.904   2.804   2.476  0.00  0.00     0.215 A 
ATOM     22  C   UNL d   1       0.337   2.326   2.821  0.00  0.00     0.066 A 
ATOM     23  C   UNL d   1       0.341   0.971   2.416  0.00  0.00     0.048 A 
BRANCH  21  24
ATOM     24  N   UNL d   1      -1.501   4.093   2.646  0.00  0.00    -0.090 N 
ATOM     25  O   UNL d   1      -0.795   4.957   3.178  0.00  0.00    -0.530 OA
ATOM     26  O   UNL d   1      -2.667   4.238   2.259  0.00  0.00    -0.530 OA
ENDBRANCH  21  24
ENDBRANCH  16  19
ENDBRANCH   1  15
TORSDOF 7
