REMARK  1 active torsions:
REMARK  status: ('A' for Active; 'I' for Inactive)
REMARK    1  A    between atoms: C_2  and  N_1 
ROOT
ATOM      1  C   UNL d   1       2.130  -1.517  -0.016  0.00  0.00     0.040 A 
ATOM      2  C   UNL d   1       3.218  -4.796  -1.419  0.00  0.00    -0.078 C 
ATOM      3  C   UNL d   1       3.138  -5.872  -1.954  0.00  0.00     0.018 C 
ATOM      4  C   UNL d   1       2.142  -2.708  -0.754  0.00  0.00     0.050 A 
ATOM      5  C   UNL d   1       3.268  -3.536  -0.749  0.00  0.00     0.019 A 
ATOM      6  C   UNL d   1       3.280  -1.156   0.699  0.00  0.00     0.030 A 
ATOM      7  C   UNL d   1       4.431  -1.946   0.642  0.00  0.00     0.004 A 
ATOM      8  C   UNL d   1       4.421  -3.144  -0.069  0.00  0.00     0.021 A 
ENDROOT
BRANCH   1   9
ATOM      9  N   UNL d   1       0.965  -0.685   0.002  0.00  0.00    -0.320 N 
ATOM     10  C   UNL d   1      -0.370  -1.119  -0.010  0.00  0.00     0.013 A 
ATOM     11  C   UNL d   1      -1.189  -0.005  -0.015  0.00  0.00     0.027 A 
ATOM     12  C   UNL d   1      -0.858  -2.530   0.069  0.00  0.00     0.068 C 
ATOM     13  C   UNL d   1      -0.374   1.132   0.025  0.00  0.00     0.027 A 
ATOM     14  C   UNL d   1       0.944   0.716   0.022  0.00  0.00     0.013 A 
ATOM     15  C   UNL d   1       2.122   1.633  -0.053  0.00  0.00     0.068 C 
ENDBRANCH   1   9
TORSDOF 1
