REMARK  6 active torsions:
REMARK  status: ('A' for Active; 'I' for Inactive)
REMARK    1  A    between atoms: N_9  and  C_1 
REMARK    2  A    between atoms: C_15  and  N_2 
REMARK    3  A    between atoms: C_3  and  C_15 
REMARK    4  A    between atoms: S_16  and  C_10 
REMARK    5  A    between atoms: C_20  and  S_16 
REMARK    6  A    between atoms: C_24  and  C_20 
ROOT
ATOM      1  C   UNL d   1       3.414   0.747  -0.113  0.00  0.00     0.120 A 
ATOM      2  N   UNL d   1       3.710   0.024  -1.250  0.00  0.00    -0.318 N 
ATOM      3  C   UNL d   1       4.881  -0.629  -0.973  0.00  0.00     0.162 A 
ATOM      4  N   UNL d   1       4.417   0.619   0.736  0.00  0.00    -0.285 N 
ATOM      5  HN  UNL d   1       4.497   1.085   1.640  1.00  0.00     0.188 HD
ATOM      6  N   UNL d   1       5.333  -0.246   0.198  0.00  0.00    -0.278 N 
ATOM      7  HN  UNL d   1       6.210  -0.538   0.629  1.00  0.00     0.189 HD
ATOM      8  C   UNL d   1       2.922  -0.097  -2.451  0.00  0.00     0.160 C 
ENDROOT
BRANCH   1   9
ATOM      9  C   UNL d   1       2.123   1.419   0.182  0.00  0.00     0.227 C 
BRANCH   9  10
ATOM     10  N   UNL d   1       2.245   2.874   0.218  0.00  0.00    -0.287 N 
ATOM     11  C   UNL d   1       2.435   3.676   1.323  0.00  0.00     0.060 A 
ATOM     12  C   UNL d   1       2.137   4.964   0.896  0.00  0.00     0.150 A 
ATOM     13  C   UNL d   1       2.843   3.159   2.658  0.00  0.00     0.072 C 
ATOM     14  C   UNL d   1       1.869   4.848  -0.491  0.00  0.00     0.057 A 
ATOM     15  N   UNL d   1       1.933   3.570  -0.898  0.00  0.00    -0.300 N 
ATOM     16  C   UNL d   1       1.520   5.913  -1.468  0.00  0.00     0.072 C 
ATOM     17  HN  UNL d   1       1.780   3.206  -1.839  1.00  0.00     0.187 HD
BRANCH  12  18
ATOM     18  N   UNL d   1       2.088   6.159   1.703  0.00  0.00    -0.112 N 
ATOM     19  O   UNL d   1       2.246   6.033   2.924  0.00  0.00    -0.532 OA
ATOM     20  O   UNL d   1       1.860   7.226   1.121  0.00  0.00    -0.532 OA
ENDBRANCH  12  18
ENDBRANCH   9  10
ENDBRANCH   1   9
BRANCH   3  21
ATOM     21  S   UNL d   1       5.581  -1.848  -1.979  0.00  0.00    -0.088 SA
BRANCH  21  22
ATOM     22  C   UNL d   1       6.540  -2.757  -0.726  0.00  0.00     0.121 C 
BRANCH  22  23
ATOM     23  C   UNL d   1       7.266  -3.944  -1.313  0.00  0.00    -0.048 A 
ATOM     24  C   UNL d   1       8.599  -3.820  -1.735  0.00  0.00     0.009 A 
ATOM     25  C   UNL d   1       9.281  -4.920  -2.263  0.00  0.00     0.024 A 
ATOM     26  C   UNL d   1       8.633  -6.147  -2.379  0.00  0.00     0.034 A 
ATOM     27  C   UNL d   1       7.307  -6.285  -1.973  0.00  0.00     0.024 A 
ATOM     28 CL   UNL d   1       9.475  -7.501  -3.026  0.00  0.00    -0.084 Cl
ATOM     29  C   UNL d   1       6.624  -5.186  -1.443  0.00  0.00     0.009 A 
ENDBRANCH  22  23
ENDBRANCH  21  22
ENDBRANCH   3  21
TORSDOF 6
