REMARK  4 active torsions:
REMARK  status: ('A' for Active; 'I' for Inactive)
REMARK    1  A    between atoms: C_4  and  C_1 
REMARK    2  A    between atoms: C_2  and  C_6 
REMARK    3  A    between atoms: C_3  and  C_7 
REMARK       I    between atoms: N_9  and  C_4 
REMARK    4  A    between atoms: C_10  and  N_9 
ROOT
ATOM      1  C   UNL d   1       2.553   3.273  -0.961  0.00  0.00     0.050 A 
ATOM      2  C   UNL d   1       2.430   4.829   0.909  0.00  0.00     0.050 A 
ATOM      3  C   UNL d   1       0.375   3.992  -0.116  0.00  0.00     0.036 A 
ATOM      4  C   UNL d   1       3.183   4.076   0.001  0.00  0.00     0.032 A 
ATOM      5  C   UNL d   1       1.027   4.788   0.829  0.00  0.00     0.045 A 
ATOM      6  C   UNL d   1       1.146   3.239  -1.009  0.00  0.00     0.045 A 
ENDROOT
BRANCH   3   7
ATOM      7  N   UNL d   1      -1.026   3.837  -0.156  0.00  0.00    -0.322 N 
ATOM      8  C   UNL d   1      -1.961   4.551   0.583  0.00  0.00     0.263 C 
ATOM      9  O   UNL d   1      -1.712   5.615   1.142  0.00  0.00    -0.267 OA
ATOM     10  H   UNL d   1      -1.396   3.086  -0.726  0.00  0.00     0.169 HD
BRANCH   8  11
ATOM     11  C   UNL d   1      -3.285   3.944   0.682  0.00  0.00     0.073 A 
ATOM     12  S   UNL d   1      -3.709   2.476  -0.086  0.00  0.00    -0.096 SA
ATOM     13  C   UNL d   1      -5.247   2.450   0.665  0.00  0.00     0.057 A 
ATOM     14  C   UNL d   1      -5.463   3.546   1.477  0.00  0.00    -0.054 A 
ATOM     15  C   UNL d   1      -4.336   4.426   1.442  0.00  0.00     0.031 A 
ATOM     16  C   UNL d   1      -6.686   3.777   2.299  0.00  0.00     0.048 C 
ENDBRANCH   8  11
ENDBRANCH   3   7
BRANCH   2  17
ATOM     17  C   UNL d   1       3.085   5.646   1.998  0.00  0.00     0.417 C 
ATOM     18  F   UNL d   1       4.441   5.521   2.020  0.00  0.00    -0.166 F 
ATOM     19  F   UNL d   1       2.835   6.978   1.880  0.00  0.00    -0.166 F 
ATOM     20  F   UNL d   1       2.661   5.288   3.241  0.00  0.00    -0.166 F 
ENDBRANCH   2  17
BRANCH   1  21
ATOM     21  C   UNL d   1       3.361   2.431  -1.920  0.00  0.00     0.417 C 
ATOM     22  F   UNL d   1       4.701   2.473  -1.683  0.00  0.00    -0.166 F 
ATOM     23  F   UNL d   1       3.014   1.116  -1.871  0.00  0.00    -0.166 F 
ATOM     24  F   UNL d   1       3.197   2.814  -3.215  0.00  0.00    -0.166 F 
ENDBRANCH   1  21
TORSDOF 4
