REMARK  1 active torsions:
REMARK  status: ('A' for Active; 'I' for Inactive)
REMARK    1  A    between atoms: O_10  and  C_4 
ROOT
ATOM      1  C   UNL d   1      -0.213  -1.278   0.006  0.00  0.00     0.120 A 
ATOM      2  C   UNL d   1       0.996   0.743  -0.001  0.00  0.00     0.001 A 
ATOM      3  C   UNL d   1      -0.322   1.185   0.000  0.00  0.00     0.095 A 
ATOM      4  C   UNL d   1       1.034  -0.692   0.005  0.00  0.00     0.101 A 
ATOM      5  S   UNL d   1      -1.449  -0.102   0.004  0.00  0.00    -0.065 SA
ATOM      6  C   UNL d   1      -0.474  -2.683   0.009  0.00  0.00     0.110 C 
ATOM      7  C   UNL d   1      -0.737   2.557  -0.002  0.00  0.00     0.107 C 
ATOM      8  N   UNL d   1      -0.702  -3.822   0.010  0.00  0.00    -0.191 NA
ATOM      9  N   UNL d   1      -1.043   3.676  -0.003  0.00  0.00    -0.191 NA
ATOM     10  C   UNL d   1       2.183   1.655  -0.008  0.00  0.00     0.053 C 
ENDROOT
BRANCH   4  11
ATOM     11  O   UNL d   1       2.147  -1.451   0.009  0.00  0.00    -0.358 OA
ATOM     12  H   UNL d   1       2.958  -0.917   0.015  0.00  0.00     0.217 HD
ENDBRANCH   4  11
TORSDOF 1
