REMARK  4 active torsions:
REMARK  status: ('A' for Active; 'I' for Inactive)
REMARK    1  A    between atoms: C_7  and  C_1 
REMARK    2  A    between atoms: O_8  and  C_2 
REMARK    3  A    between atoms: C_9  and  O_8 
REMARK    4  A    between atoms: C_10  and  C_9 
ROOT
ATOM      1  C   UNL d   1       1.557   0.774   0.003  0.00  0.00     0.136 A 
ATOM      2  C   UNL d   1       0.144  -0.957   0.138  0.00  0.00     0.170 A 
ATOM      3  N   UNL d   1       0.329   1.310   0.127  0.00  0.00    -0.293 N 
ATOM      4  HN  UNL d   1       0.083   2.300   0.146  1.00  0.00     0.187 HD
ATOM      5  C   UNL d   1       1.476  -0.636  -0.002  0.00  0.00     0.093 A 
ATOM      6  N   UNL d   1      -0.510   0.249   0.221  0.00  0.00    -0.275 N 
ATOM      7  C   UNL d   1      -1.910   0.534   0.433  0.00  0.00     0.180 C 
ENDROOT
BRANCH   2   8
ATOM      8  O   UNL d   1      -0.339  -2.174   0.212  0.00  0.00    -0.256 OA
BRANCH   8   9
ATOM      9  C   UNL d   1      -1.546  -2.748   0.182  0.00  0.00     0.306 C 
ATOM     10  O   UNL d   1      -2.612  -2.164   0.047  0.00  0.00    -0.258 OA
BRANCH   9  11
ATOM     11  C   UNL d   1      -1.405  -4.194   0.335  0.00  0.00     0.080 A 
ATOM     12  S   UNL d   1       0.138  -4.957   0.374  0.00  0.00    -0.096 SA
ATOM     13  C   UNL d   1      -0.544  -6.508   0.555  0.00  0.00     0.050 A 
ATOM     14  C   UNL d   1      -1.919  -6.464   0.586  0.00  0.00     0.009 A 
ATOM     15  C   UNL d   1      -2.416  -5.133   0.455  0.00  0.00     0.025 A 
ENDBRANCH   9  11
ENDBRANCH   8   9
ENDBRANCH   2   8
BRANCH   1  16
ATOM     16  C   UNL d   1       2.827   1.572  -0.103  0.00  0.00     0.434 C 
ATOM     17  F   UNL d   1       2.643   2.916  -0.064  0.00  0.00    -0.165 F 
ATOM     18  F   UNL d   1       3.689   1.264   0.907  0.00  0.00    -0.165 F 
ATOM     19  F   UNL d   1       3.491   1.299  -1.261  0.00  0.00    -0.165 F 
ENDBRANCH   1  16
TORSDOF 4
