REMARK  3 active torsions:
REMARK  status: ('A' for Active; 'I' for Inactive)
REMARK    1  A    between atoms: S_5  and  C_1 
REMARK    2  A    between atoms: N_7  and  C_2 
REMARK       I    between atoms: C_8  and  N_7 
REMARK       I    between atoms: N_9  and  C_8 
REMARK    3  A    between atoms: C_15  and  N_9 
ROOT
ATOM      1  C   UNL d   1      -0.745   1.537   0.410  0.00  0.00     0.112 C 
ATOM      2  C   UNL d   1      -1.569  -0.794   0.447  0.00  0.00     0.086 C 
ATOM      3  S   UNL d   1      -2.215   0.730   0.790  0.00  0.00    -0.059 SA
ATOM      4  C   UNL d   1       0.256   0.619   0.161  0.00  0.00     0.001 C 
ATOM      5  C   UNL d   1      -0.208  -0.738   0.210  0.00  0.00    -0.012 C 
ATOM      6  C   UNL d   1       1.617   0.906  -0.163  0.00  0.00     0.010 C 
ATOM      7  C   UNL d   1       2.530  -0.073  -0.286  0.00  0.00    -0.025 C 
ATOM      8  C   UNL d   1       0.712  -1.898  -0.071  0.00  0.00     0.046 C 
ATOM      9  C   UNL d   1       2.210  -1.528  -0.071  0.00  0.00     0.032 C 
ENDROOT
BRANCH   2  10
ATOM     10  N   UNL d   1      -2.349  -1.925   0.349  0.00  0.00    -0.302 N 
ATOM     11  C   UNL d   1      -3.668  -2.199   0.560  0.00  0.00     0.325 C 
ATOM     12  N   UNL d   1      -4.442  -1.284   1.211  0.00  0.00    -0.309 N 
ATOM     13  O   UNL d   1      -4.049  -3.300   0.163  0.00  0.00    -0.247 OA
ATOM     14  H   UNL d   1      -4.038  -0.368   1.331  0.00  0.00     0.170 HD
ATOM     15  H   UNL d   1      -1.890  -2.741  -0.036  0.00  0.00     0.171 HD
BRANCH  12  16
ATOM     16  C   UNL d   1      -5.762  -1.476   1.682  0.00  0.00     0.036 A 
ATOM     17  C   UNL d   1      -6.391  -2.727   1.717  0.00  0.00     0.031 A 
ATOM     18  C   UNL d   1      -7.685  -2.868   2.226  0.00  0.00     0.026 A 
ATOM     19  C   UNL d   1      -8.365  -1.756   2.700  0.00  0.00     0.034 A 
ATOM     20  C   UNL d   1      -7.759  -0.501   2.675  0.00  0.00     0.026 A 
ATOM     21 CL   UNL d   1      -9.954  -1.930   3.337  0.00  0.00    -0.084 Cl
ATOM     22  C   UNL d   1      -6.458  -0.364   2.172  0.00  0.00     0.031 A 
ENDBRANCH  12  16
ENDBRANCH   2  10
BRANCH   1  23
ATOM     23  S   UNL d   1      -0.831   3.313   0.420  0.00  0.00     0.179 S 
ATOM     24  O   UNL d   1      -1.103   3.684   1.797  0.00  0.00    -0.222 OA
ATOM     25  O   UNL d   1       0.349   3.774  -0.282  0.00  0.00    -0.222 OA
ATOM     26  C   UNL d   1      -2.246   3.703  -0.580  0.00  0.00     0.167 C 
ENDBRANCH   1  23
TORSDOF 3
