REMARK  5 active torsions:
REMARK  status: ('A' for Active; 'I' for Inactive)
REMARK    1  A    between atoms: N_2  and  C_1 
REMARK    2  A    between atoms: C_3  and  C_7 
REMARK       I    between atoms: N_6  and  C_3 
REMARK    3  A    between atoms: O_10  and  C_5 
REMARK    4  A    between atoms: C_8  and  N_6 
REMARK    5  A    between atoms: C_16  and  O_10 
ROOT
ATOM      1  C   UNL d   1       1.476  -0.396   0.296  0.00  0.00     0.137 A 
ATOM      2  C   UNL d   1       0.512  -1.412   0.373  0.00  0.00     0.056 A 
ATOM      3  C   UNL d   1       1.108   0.946   0.157  0.00  0.00     0.109 A 
ATOM      4  C   UNL d   1      -0.848  -1.083   0.381  0.00  0.00     0.034 A 
ATOM      5  C   UNL d   1      -0.258   1.263   0.188  0.00  0.00     0.041 A 
ATOM      6  C   UNL d   1      -1.232   0.262   0.305  0.00  0.00     0.020 A 
ENDROOT
BRANCH   4   7
ATOM      7  C   UNL d   1      -1.829  -2.176   0.611  0.00  0.00     0.256 C 
ATOM      8  N   UNL d   1      -3.108  -1.974   0.130  0.00  0.00    -0.321 N 
ATOM      9  H   UNL d   1      -3.250  -1.272  -0.587  0.00  0.00     0.169 HD
ATOM     10  O   UNL d   1      -1.429  -3.186   1.182  0.00  0.00    -0.267 OA
BRANCH   8  11
ATOM     11  C   UNL d   1      -4.223  -2.812   0.386  0.00  0.00     0.056 A 
ATOM     12  C   UNL d   1      -5.353  -2.735  -0.447  0.00  0.00     0.060 A 
ATOM     13 CL   UNL d   1      -5.391  -1.651  -1.797  0.00  0.00    -0.082 Cl
ATOM     14  C   UNL d   1      -6.466  -3.550  -0.221  0.00  0.00     0.026 A 
ATOM     15  C   UNL d   1      -6.476  -4.433   0.859  0.00  0.00     0.002 A 
ATOM     16  C   UNL d   1      -5.375  -4.498   1.707  0.00  0.00     0.002 A 
ATOM     17  C   UNL d   1      -4.256  -3.695   1.472  0.00  0.00     0.031 A 
ENDBRANCH   8  11
ENDBRANCH   4   7
BRANCH   1  18
ATOM     18  N   UNL d   1       2.858  -0.801   0.458  0.00  0.00    -0.113 N 
ATOM     19  O   UNL d   1       3.286  -1.641  -0.345  0.00  0.00    -0.532 OA
ATOM     20  O   UNL d   1       3.486  -0.313   1.407  0.00  0.00    -0.532 OA
ENDBRANCH   1  18
BRANCH   3  21
ATOM     21  O   UNL d   1       1.938   2.038   0.103  0.00  0.00    -0.308 OA
BRANCH  21  22
ATOM     22  C   UNL d   1       3.055   2.043  -0.698  0.00  0.00     0.076 A 
ATOM     23  C   UNL d   1       3.206   1.310  -1.877  0.00  0.00     0.039 A 
ATOM     24  C   UNL d   1       4.425   1.342  -2.563  0.00  0.00     0.026 A 
ATOM     25  C   UNL d   1       5.465   2.148  -2.101  0.00  0.00     0.034 A 
ATOM     26  C   UNL d   1       5.293   2.937  -0.967  0.00  0.00     0.026 A 
ATOM     27 CL   UNL d   1       6.969   2.169  -2.936  0.00  0.00    -0.084 Cl
ATOM     28  C   UNL d   1       4.087   2.884  -0.267  0.00  0.00     0.039 A 
ENDBRANCH  21  22
ENDBRANCH   3  21
TORSDOF 5
