REMARK  9 active torsions:
REMARK  status: ('A' for Active; 'I' for Inactive)
REMARK    1  A    between atoms: O_12  and  C_1 
REMARK    2  A    between atoms: O_13  and  C_2 
REMARK    3  A    between atoms: N_24  and  C_9 
REMARK    4  A    between atoms: C_10  and  O_12 
REMARK    5  A    between atoms: C_11  and  O_13 
REMARK    6  A    between atoms: C_31  and  N_24 
REMARK    7  A    between atoms: C_25  and  S_26 
REMARK    8  A    between atoms: S_26  and  C_35 
REMARK    9  A    between atoms: C_35  and  C_31 
ROOT
ATOM      1  C   UNL d   1       0.761  -0.995   0.118  0.00  0.00     0.246 A 
ATOM      2  C   UNL d   1      -1.293  -0.160   0.049  0.00  0.00     0.246 A 
ATOM      3  N   UNL d   1      -0.538  -1.252   0.111  0.00  0.00    -0.286 N 
ATOM      4  HN  UNL d   1      -0.922  -2.196   0.150  1.00  0.00     0.173 HD
ATOM      5  N   UNL d   1      -0.857   1.097   0.070  0.00  0.00    -0.154 N 
ATOM      6  HN  UNL d   1      -1.489   1.897   0.063  1.00  0.00     0.188 HD
ATOM      7  N   UNL d   1       1.309   0.214   0.146  0.00  0.00    -0.154 N 
ATOM      8  HN  UNL d   1       2.318   0.352   0.200  1.00  0.00     0.188 HD
ATOM      9  C   UNL d   1       0.459   1.229   0.100  0.00  0.00     0.684 A 
ENDROOT
BRANCH   1  10
ATOM     10  O   UNL d   1       1.582  -2.114   0.059  0.00  0.00    -0.279 OA
BRANCH  10  11
ATOM     11  C   UNL d   1       2.832  -1.977  -0.504  0.00  0.00     0.082 A 
ATOM     12  C   UNL d   1       3.847  -2.760   0.050  0.00  0.00     0.061 A 
ATOM     13  C   UNL d   1       5.140  -2.685  -0.467  0.00  0.00     0.038 A 
ATOM     14 CL   UNL d   1       6.391  -3.643   0.225  0.00  0.00    -0.084 Cl
ATOM     15  C   UNL d   1       5.432  -1.841  -1.536  0.00  0.00     0.048 A 
ATOM     16  C   UNL d   1       4.410  -1.089  -2.106  0.00  0.00     0.038 A 
ATOM     17  C   UNL d   1       3.107  -1.171  -1.615  0.00  0.00     0.061 A 
ATOM     18 CL   UNL d   1       4.755  -0.041  -3.426  0.00  0.00    -0.084 Cl
ENDBRANCH  10  11
ENDBRANCH   1  10
BRANCH   2  19
ATOM     19  O   UNL d   1      -2.669  -0.302  -0.077  0.00  0.00    -0.279 OA
BRANCH  19  20
ATOM     20  C   UNL d   1      -3.140  -1.361  -0.824  0.00  0.00     0.082 A 
ATOM     21  C   UNL d   1      -4.366  -1.901  -0.429  0.00  0.00     0.061 A 
ATOM     22  C   UNL d   1      -4.907  -2.976  -1.135  0.00  0.00     0.038 A 
ATOM     23 CL   UNL d   1      -6.413  -3.647  -0.642  0.00  0.00    -0.084 Cl
ATOM     24  C   UNL d   1      -4.243  -3.514  -2.235  0.00  0.00     0.048 A 
ATOM     25  C   UNL d   1      -3.040  -2.947  -2.645  0.00  0.00     0.038 A 
ATOM     26  C   UNL d   1      -2.499  -1.859  -1.963  0.00  0.00     0.061 A 
ATOM     27 CL   UNL d   1      -2.204  -3.599  -4.001  0.00  0.00    -0.084 Cl
ENDBRANCH  19  20
ENDBRANCH   2  19
BRANCH   9  28
ATOM     28  N   UNL d   1       1.047   2.467   0.010  0.00  0.00    -0.225 N 
ATOM     29  H   UNL d   1       2.048   2.411   0.151  0.00  0.00     0.177 HD
BRANCH  28  30
ATOM     30  C   UNL d   1       0.356   3.611   0.574  0.00  0.00     0.148 C 
BRANCH  30  31
ATOM     31  C   UNL d   1       1.352   4.649   1.118  0.00  0.00     0.095 C 
BRANCH  31  32
ATOM     32  S   UNL d   1       2.480   5.282  -0.181  0.00  0.00    -0.159 SA
BRANCH  32  33
ATOM     33  C   UNL d   1       3.470   6.545   0.741  0.00  0.00    -0.003 C 
ATOM     34  C   UNL d   1       4.317   5.881   1.832  0.00  0.00     0.026 C 
ATOM     35  C   UNL d   1       4.405   7.202  -0.289  0.00  0.00     0.026 C 
ATOM     36  C   UNL d   1       2.561   7.622   1.343  0.00  0.00     0.026 C 
ENDBRANCH  32  33
ENDBRANCH  31  32
ENDBRANCH  30  31
ENDBRANCH  28  30
ENDBRANCH   9  28
TORSDOF 9
