REMARK  6 active torsions:
REMARK  status: ('A' for Active; 'I' for Inactive)
REMARK    1  A    between atoms: C_12  and  N_1 
REMARK    2  A    between atoms: C_7  and  C_2 
REMARK    3  A    between atoms: O_8  and  C_7 
REMARK    4  A    between atoms: C_9  and  O_8 
REMARK    5  A    between atoms: C_13  and  C_10 
REMARK    6  A    between atoms: C_14  and  C_12 
ROOT
ATOM      1  C   UNL d   1       2.185   1.496  -0.057  0.00  0.00     0.194 C 
ATOM      2  C   UNL d   1       3.429   2.315  -0.433  0.00  0.00     0.048 C 
ENDROOT
BRANCH   1   3
ATOM      3  C   UNL d   1       2.683   0.056   0.089  0.00  0.00     0.130 A 
ATOM      4  N   UNL d   1       2.353  -0.942  -0.775  0.00  0.00    -0.306 N 
ATOM      5  C   UNL d   1       3.147  -2.005  -0.410  0.00  0.00     0.194 A 
ATOM      6  N   UNL d   1       3.862  -1.585   0.699  0.00  0.00    -0.275 N 
ATOM      7  S   UNL d   1       3.311  -3.508  -1.089  0.00  0.00    -0.039 SA
ATOM      8  N   UNL d   1       3.569  -0.288   0.988  0.00  0.00    -0.284 N 
ATOM      9  H   UNL d   1       4.550  -2.116   1.219  0.00  0.00     0.189 HD
ATOM     10  HN  UNL d   1       3.953   0.287   1.737  1.00  0.00     0.188 HD
BRANCH   4  11
ATOM     11  C   UNL d   1       1.269  -0.983  -1.749  0.00  0.00     0.159 C 
BRANCH  11  12
ATOM     12  C   UNL d   1       1.769  -0.651  -3.124  0.00  0.00    -0.017 C 
ATOM     13  C   UNL d   1       1.167   0.209  -3.958  0.00  0.00     0.008 C 
ENDBRANCH  11  12
ENDBRANCH   4  11
ENDBRANCH   1   3
BRANCH   1  14
ATOM     14  O   UNL d   1       1.581   1.971   1.154  0.00  0.00    -0.338 OA
BRANCH  14  15
ATOM     15  C   UNL d   1       0.940   3.195   1.151  0.00  0.00     0.081 A 
ATOM     16  C   UNL d   1       0.583   3.783   2.393  0.00  0.00     0.007 A 
ATOM     17  C   UNL d   1      -0.033   5.059   2.355  0.00  0.00     0.015 A 
ATOM     18  C   UNL d   1      -0.323   5.723   1.165  0.00  0.00     0.001 A 
ATOM     19  C   UNL d   1       0.003   5.124  -0.038  0.00  0.00     0.003 A 
ATOM     20  C   UNL d   1       0.618   3.873  -0.045  0.00  0.00     0.037 A 
BRANCH  16  21
ATOM     21  C   UNL d   1       0.841   3.191   3.736  0.00  0.00    -0.023 A 
ATOM     22  C   UNL d   1       2.052   2.568   4.070  0.00  0.00     0.012 A 
ATOM     23  C   UNL d   1       2.313   2.137   5.377  0.00  0.00     0.001 A 
ATOM     24  C   UNL d   1       1.367   2.321   6.387  0.00  0.00     0.000 A 
ATOM     25  C   UNL d   1       0.154   2.914   6.086  0.00  0.00     0.001 A 
ATOM     26  C   UNL d   1      -0.111   3.326   4.774  0.00  0.00     0.012 A 
ENDBRANCH  16  21
ENDBRANCH  14  15
ENDBRANCH   1  14
TORSDOF 6
