REMARK  3 active torsions:
REMARK  status: ('A' for Active; 'I' for Inactive)
REMARK    1  A    between atoms: C_2  and  C_1 
REMARK    2  A    between atoms: C_3  and  C_2 
REMARK    3  A    between atoms: N_11  and  C_5 
ROOT
ATOM      1  C   UNL d   1      -1.210  -0.949   1.078  0.00  0.00     0.016 A 
ATOM      2  C   UNL d   1      -3.270  -1.417  -0.118  0.00  0.00     0.056 A 
ATOM      3  C   UNL d   1      -1.890  -1.180  -0.124  0.00  0.00     0.041 A 
ATOM      4  C   UNL d   1      -3.977  -1.433   1.090  0.00  0.00     0.055 A 
ATOM      5  C   UNL d   1      -1.918  -0.984   2.286  0.00  0.00     0.017 A 
ATOM      6  C   UNL d   1      -3.297  -1.220   2.292  0.00  0.00     0.026 A 
ATOM      7 CL   UNL d   1      -4.041  -1.685  -1.643  0.00  0.00    -0.083 Cl
ATOM      8 CL   UNL d   1      -5.679  -1.716   1.166  0.00  0.00    -0.083 Cl
ENDROOT
BRANCH   1   9
ATOM      9  C   UNL d   1       0.260  -0.702   1.125  0.00  0.00     0.183 C 
ATOM     10  O   UNL d   1       0.902  -1.018   2.119  0.00  0.00    -0.288 OA
BRANCH   9  11
ATOM     11  C   UNL d   1       0.878  -0.026  -0.047  0.00  0.00     0.072 C 
ATOM     12  C   UNL d   1       2.208  -0.022  -0.221  0.00  0.00     0.088 C 
BRANCH  12  13
ATOM     13  N   UNL d   1       2.958   0.550  -1.241  0.00  0.00    -0.398 N 
ATOM     14  C   UNL d   1       2.405   1.338  -2.342  0.00  0.00     0.148 C 
ATOM     15  C   UNL d   1       4.416   0.410  -1.295  0.00  0.00     0.148 C 
ENDBRANCH  12  13
ENDBRANCH   9  11
ENDBRANCH   1   9
TORSDOF 3
