REMARK  3 active torsions:
REMARK  status: ('A' for Active; 'I' for Inactive)
REMARK    1  A    between atoms: N_3  and  S_1 
REMARK    2  A    between atoms: C_8  and  S_1 
REMARK    3  A    between atoms: N_2  and  C_6 
ROOT
ATOM      1  C   UNL d   1      -0.358  -3.885   2.341  0.00  0.00     0.067 A 
ATOM      2  C   UNL d   1       0.365  -1.556   0.967  0.00  0.00     0.076 A 
ATOM      3  C   UNL d   1      -0.964  -2.655   2.659  0.00  0.00     0.062 A 
ATOM      4  C   UNL d   1      -0.599  -1.492   1.978  0.00  0.00     0.051 A 
ATOM      5  C   UNL d   1       0.619  -3.931   1.335  0.00  0.00     0.033 A 
ATOM      6  C   UNL d   1       0.977  -2.770   0.642  0.00  0.00     0.027 A 
ATOM      7 CL   UNL d   1      -2.032  -2.483   4.009  0.00  0.00    -0.082 Cl
ENDROOT
BRANCH   1   8
ATOM      8  N   UNL d   1      -0.672  -5.060   3.056  0.00  0.00    -0.250 N 
ATOM      9  C   UNL d   1      -1.921  -5.625   3.066  0.00  0.00     0.232 C 
ATOM     10  C   UNL d   1      -1.873  -6.891   3.876  0.00  0.00     0.123 C 
ATOM     11  O   UNL d   1      -2.913  -5.258   2.450  0.00  0.00    -0.273 OA
ATOM     12  C   UNL d   1      -0.469  -6.898   4.483  0.00  0.00     0.050 C 
ATOM     13  C   UNL d   1       0.257  -5.792   3.749  0.00  0.00     0.240 C 
ATOM     14  C   UNL d   1       0.257  -8.235   4.367  0.00  0.00     0.020 C 
ATOM     15  C   UNL d   1      -0.488  -6.655   5.996  0.00  0.00     0.020 C 
ATOM     16  O   UNL d   1       1.458  -5.575   3.835  0.00  0.00    -0.272 OA
ATOM     17  C   UNL d   1      -0.220  -9.048   5.564  0.00  0.00     0.001 C 
ATOM     18  C   UNL d   1      -0.680  -8.038   6.613  0.00  0.00     0.001 C 
ENDBRANCH   1   8
BRANCH   2  19
ATOM     19  S   UNL d   1       0.992  -0.037   0.285  0.00  0.00     0.243 S 
ATOM     20  O   UNL d   1       0.825   0.979   1.299  0.00  0.00    -0.206 OA
ATOM     21  O   UNL d   1       2.303  -0.321  -0.262  0.00  0.00    -0.206 OA
BRANCH  19  22
ATOM     22  N   UNL d   1      -0.072   0.325  -0.996  0.00  0.00    -0.202 NA
ATOM     23  C   UNL d   1      -0.058  -0.578  -2.193  0.00  0.00     0.139 C 
ATOM     24  C   UNL d   1       1.142  -0.290  -3.122  0.00  0.00     0.132 C 
ATOM     25  C   UNL d   1       1.052  -1.118  -4.399  0.00  0.00     0.041 C 
ATOM     26  O   UNL d   1       1.185   1.097  -3.506  0.00  0.00    -0.379 OA
ATOM     27  C   UNL d   1       1.268   1.951  -2.351  0.00  0.00     0.132 C 
ATOM     28  C   UNL d   1       0.024   1.755  -1.466  0.00  0.00     0.139 C 
ATOM     29  C   UNL d   1       1.375   3.391  -2.833  0.00  0.00     0.041 C 
ENDBRANCH  19  22
ENDBRANCH   2  19
TORSDOF 3
