REMARK  8 active torsions:
REMARK  status: ('A' for Active; 'I' for Inactive)
REMARK    1  A    between atoms: C_11  and  C_5 
REMARK    2  A    between atoms: C_12  and  C_6 
REMARK    3  A    between atoms: N_14  and  C_7 
REMARK    4  A    between atoms: C_8  and  N_13 
REMARK    5  A    between atoms: C_19  and  C_9 
REMARK    6  A    between atoms: C_20  and  C_10 
REMARK    7  A    between atoms: O_36  and  C_19 
REMARK    8  A    between atoms: O_35  and  C_20 
ROOT
ATOM      1  N   UNL d   1       0.940   5.449   0.108  0.00  0.00    -0.214 N 
ATOM      2  N   UNL d   1       0.184   2.722  -0.137  0.00  0.00    -0.214 N 
ATOM      3  C   UNL d   1       1.498   3.175  -0.632  0.00  0.00     0.161 C 
ATOM      4  C   UNL d   1      -0.385   5.040   0.588  0.00  0.00     0.161 C 
ATOM      5  C   UNL d   1       1.445   4.667  -1.025  0.00  0.00     0.161 C 
ATOM      6  C   UNL d   1      -0.371   3.536   0.962  0.00  0.00     0.161 C 
ENDROOT
BRANCH   1   7
ATOM      7  C   UNL d   1       1.356   6.744   0.256  0.00  0.00     0.680 A 
ATOM      8  N   UNL d   1       0.706   7.547   1.108  0.00  0.00    -0.185 N 
ATOM      9  C   UNL d   1       1.185   8.806   1.370  0.00  0.00     0.150 A 
ATOM     10  HN  UNL d   1      -0.146   7.222   1.564  1.00  0.00     0.184 HD
ATOM     11  C   UNL d   1       2.329   9.278   0.753  0.00  0.00     0.087 A 
ATOM     12  C   UNL d   1       2.924   8.389  -0.115  0.00  0.00     0.126 A 
ATOM     13  N   UNL d   1       2.462   7.149  -0.374  0.00  0.00    -0.201 N 
ATOM     14  HN  UNL d   1       2.943   6.536  -1.032  1.00  0.00     0.183 HD
BRANCH   9  15
ATOM     15  C   UNL d   1       0.407   9.605   2.394  0.00  0.00     0.434 C 
ATOM     16  F   UNL d   1      -0.663   8.924   2.908  0.00  0.00    -0.165 F 
ATOM     17  F   UNL d   1       1.153   9.952   3.483  0.00  0.00    -0.165 F 
ATOM     18  F   UNL d   1      -0.129  10.757   1.896  0.00  0.00    -0.165 F 
ENDBRANCH   9  15
BRANCH  11  19
ATOM     19  C   UNL d   1       2.991  10.587   0.909  0.00  0.00     0.296 C 
ATOM     20  O   UNL d   1       4.053  10.852   0.363  0.00  0.00    -0.259 OA
BRANCH  19  21
ATOM     21  O   UNL d   1       2.292  11.429   1.686  0.00  0.00    -0.322 OA
ATOM     22  C   UNL d   1       2.879  12.728   1.833  0.00  0.00     0.213 C 
ENDBRANCH  19  21
ENDBRANCH  11  19
ENDBRANCH   1   7
BRANCH   2  23
ATOM     23  C   UNL d   1       0.068   1.349   0.020  0.00  0.00     0.680 A 
ATOM     24  N   UNL d   1       0.862   0.550  -0.705  0.00  0.00    -0.185 N 
ATOM     25  C   UNL d   1       0.713  -0.811  -0.654  0.00  0.00     0.150 A 
ATOM     26  HN  UNL d   1       1.583   0.958  -1.299  1.00  0.00     0.184 HD
ATOM     27  C   UNL d   1      -0.256  -1.392   0.141  0.00  0.00     0.087 A 
ATOM     28  C   UNL d   1      -1.015  -0.496   0.869  0.00  0.00     0.126 A 
ATOM     29  N   UNL d   1      -0.872   0.848   0.826  0.00  0.00    -0.201 N 
ATOM     30  HN  UNL d   1      -1.463   1.459   1.390  1.00  0.00     0.183 HD
BRANCH  25  31
ATOM     31  C   UNL d   1       1.674  -1.606  -1.513  0.00  0.00     0.434 C 
ATOM     32  F   UNL d   1       2.562  -0.817  -2.193  0.00  0.00    -0.165 F 
ATOM     33  F   UNL d   1       2.454  -2.463  -0.794  0.00  0.00    -0.165 F 
ATOM     34  F   UNL d   1       1.058  -2.343  -2.481  0.00  0.00    -0.165 F 
ENDBRANCH  25  31
BRANCH  27  35
ATOM     35  C   UNL d   1      -0.586  -2.823   0.301  0.00  0.00     0.296 C 
ATOM     36  O   UNL d   1      -1.456  -3.214   1.063  0.00  0.00    -0.259 OA
BRANCH  35  37
ATOM     37  O   UNL d   1       0.165  -3.609  -0.493  0.00  0.00    -0.322 OA
ATOM     38  C   UNL d   1      -0.138  -5.005  -0.411  0.00  0.00     0.213 C 
ENDBRANCH  35  37
ENDBRANCH  27  35
ENDBRANCH   2  23
TORSDOF 8
