REMARK  5 active torsions:
REMARK  status: ('A' for Active; 'I' for Inactive)
REMARK    1  A    between atoms: C_10  and  C_1 
REMARK    2  A    between atoms: C_15  and  C_7 
REMARK       I    between atoms: C_8  and  N_9 
REMARK    3  A    between atoms: C_12  and  C_8 
REMARK       I    between atoms: N_9  and  C_11 
REMARK       I    between atoms: C_11  and  N_14 
REMARK    4  A    between atoms: N_14  and  C_13 
REMARK    5  A    between atoms: C_18  and  C_19 
ROOT
ATOM      1  C   UNL d   1      -0.632  -2.256  -0.920  0.00  0.00     0.043 A 
ATOM      2  C   UNL d   1      -1.875  -2.436  -1.548  0.00  0.00     0.051 A 
ATOM      3  C   UNL d   1      -0.128  -3.314  -0.116  0.00  0.00     0.018 A 
ATOM      4  C   UNL d   1      -2.500  -3.701  -1.445  0.00  0.00     0.030 A 
ATOM      5  C   UNL d   1      -0.796  -4.528   0.028  0.00  0.00     0.001 A 
ATOM      6  C   UNL d   1      -1.975  -4.731  -0.664  0.00  0.00     0.002 A 
ENDROOT
BRANCH   1   7
ATOM      7  C   UNL d   1       0.178  -1.049  -0.986  0.00  0.00     0.177 A 
ATOM      8  O   UNL d   1       0.964  -0.822   0.115  0.00  0.00    -0.273 OA
ATOM      9  C   UNL d   1       1.780   0.191  -0.298  0.00  0.00     0.174 A 
ATOM     10  N   UNL d   1       1.483   0.599  -1.518  0.00  0.00    -0.277 N 
ATOM     11  N   UNL d   1       0.418  -0.190  -1.955  0.00  0.00    -0.277 N 
ATOM     12  HN  UNL d   1       1.943   1.345  -2.040  1.00  0.00     0.189 HD
ATOM     13  HN  UNL d   1      -0.076  -0.115  -2.845  1.00  0.00     0.189 HD
BRANCH   9  14
ATOM     14  C   UNL d   1       2.855   0.549   0.625  0.00  0.00     0.017 A 
ATOM     15  C   UNL d   1       2.804   0.198   1.981  0.00  0.00     0.016 A 
ATOM     16  C   UNL d   1       3.857   0.509   2.855  0.00  0.00     0.009 A 
ATOM     17  C   UNL d   1       5.009   1.180   2.406  0.00  0.00    -0.051 A 
ATOM     18  C   UNL d   1       5.051   1.524   1.044  0.00  0.00     0.009 A 
ATOM     19  C   UNL d   1       3.993   1.219   0.170  0.00  0.00     0.016 A 
BRANCH  17  20
ATOM     20  C   UNL d   1       6.145   1.521   3.391  0.00  0.00    -0.024 C 
ATOM     21  C   UNL d   1       7.342   2.239   2.728  0.00  0.00     0.019 C 
ATOM     22  C   UNL d   1       5.608   2.454   4.499  0.00  0.00     0.019 C 
ATOM     23  C   UNL d   1       6.696   0.236   4.048  0.00  0.00     0.019 C 
ENDBRANCH  17  20
ENDBRANCH   9  14
ENDBRANCH   1   7
BRANCH   2  24
ATOM     24  N   UNL d   1      -2.598  -1.396  -2.234  0.00  0.00    -0.308 N 
ATOM     25  C   UNL d   1      -3.916  -1.237  -1.929  0.00  0.00     0.327 C 
ATOM     26  N   UNL d   1      -4.802  -0.631  -2.798  0.00  0.00    -0.275 N 
ATOM     27  O   UNL d   1      -4.445  -1.716  -0.909  0.00  0.00    -0.247 OA
ATOM     28  C   UNL d   1      -5.072   0.171  -3.909  0.00  0.00     0.261 C 
ATOM     29  H   UNL d   1      -5.713  -0.922  -2.457  0.00  0.00     0.173 HD
ATOM     30  O   UNL d   1      -6.228   0.155  -4.344  0.00  0.00    -0.267 OA
ATOM     31  H   UNL d   1      -2.082  -0.585  -2.550  0.00  0.00     0.170 HD
BRANCH  28  32
ATOM     32  C   UNL d   1      -4.155   1.167  -4.475  0.00  0.00     0.054 A 
ATOM     33  C   UNL d   1      -2.925   0.900  -5.064  0.00  0.00     0.049 A 
ATOM     34 CL   UNL d   1      -2.294  -0.693  -5.232  0.00  0.00    -0.083 Cl
ATOM     35  C   UNL d   1      -2.205   1.946  -5.662  0.00  0.00     0.025 A 
ATOM     36  C   UNL d   1      -2.735   3.236  -5.729  0.00  0.00     0.002 A 
ATOM     37  C   UNL d   1      -3.996   3.496  -5.207  0.00  0.00     0.001 A 
ATOM     38  C   UNL d   1      -4.698   2.467  -4.580  0.00  0.00     0.019 A 
ENDBRANCH  28  32
ENDBRANCH   2  24
TORSDOF 5
