REMARK  3 active torsions:
REMARK  status: ('A' for Active; 'I' for Inactive)
REMARK    1  A    between atoms: C_2  and  C_1 
REMARK       I    between atoms: N_3  and  C_2 
REMARK    2  A    between atoms: C_8  and  C_4 
REMARK    3  A    between atoms: O_16  and  C_9 
ROOT
ATOM      1  C   UNL d   1       0.912   0.097  -0.014  0.00  0.00     0.113 C 
ATOM      2  C   UNL d   1       0.242   0.334   1.130  0.00  0.00     0.039 C 
ATOM      3  C   UNL d   1       0.255  -0.209  -1.237  0.00  0.00     0.105 C 
ATOM      4  N   UNL d   1      -0.268  -0.486  -2.234  0.00  0.00    -0.191 NA
ENDROOT
BRANCH   1   5
ATOM      5  C   UNL d   1       2.400   0.237   0.044  0.00  0.00     0.264 C 
ATOM      6  N   UNL d   1       3.205  -0.588  -0.711  0.00  0.00    -0.347 N 
ATOM      7  C   UNL d   1       2.850  -1.704  -1.578  0.00  0.00     0.126 C 
ATOM      8  C   UNL d   1       4.654  -0.474  -0.602  0.00  0.00     0.126 C 
ATOM      9  C   UNL d   1       4.048  -2.632  -1.477  0.00  0.00     0.021 C 
ATOM     10  C   UNL d   1       5.226  -1.678  -1.343  0.00  0.00     0.021 C 
ATOM     11  O   UNL d   1       2.892   1.074   0.807  0.00  0.00    -0.267 OA
ENDBRANCH   1   5
BRANCH   2  12
ATOM     12  C   UNL d   1      -1.216   0.258   1.264  0.00  0.00    -0.034 A 
ATOM     13  C   UNL d   1      -1.810  -0.906   1.761  0.00  0.00     0.014 A 
ATOM     14  C   UNL d   1      -3.204  -1.013   1.836  0.00  0.00     0.037 A 
ATOM     15  C   UNL d   1      -4.013   0.042   1.414  0.00  0.00     0.068 A 
ATOM     16  C   UNL d   1      -3.414   1.212   0.938  0.00  0.00     0.037 A 
ATOM     17  C   UNL d   1      -2.023   1.324   0.863  0.00  0.00     0.014 A 
BRANCH  15  18
ATOM     18  O   UNL d   1      -5.380   0.058   1.412  0.00  0.00    -0.356 OA
ATOM     19  C   UNL d   1      -6.038  -1.134   1.823  0.00  0.00     0.210 C 
ENDBRANCH  15  18
ENDBRANCH   2  12
TORSDOF 3
