REMARK  7 active torsions:
REMARK  status: ('A' for Active; 'I' for Inactive)
REMARK    1  A    between atoms: C_5  and  C_1 
REMARK    2  A    between atoms: C_8  and  C_2 
REMARK    3  A    between atoms: O_12  and  C_8 
REMARK    4  A    between atoms: N_9  and  O_12 
REMARK    5  A    between atoms: C_13  and  C_11 
REMARK    6  A    between atoms: N_24  and  C_11 
REMARK    7  A    between atoms: C_14  and  C_15 
ROOT
ATOM      1  N   UNL d   1       4.049   0.858  -0.667  0.00  0.00    -0.246 N 
ATOM      2  HN  UNL d   1       4.065  -0.038  -1.154  1.00  0.00     0.196 HD
ATOM      3  C   UNL d   1       5.120   1.421  -0.197  0.00  0.00     0.109 C 
ENDROOT
BRANCH   1   4
ATOM      4  O   UNL d   1       2.852   1.594  -0.449  0.00  0.00    -0.193 OA
BRANCH   4   5
ATOM      5  C   UNL d   1       1.787   0.757  -0.724  0.00  0.00     0.318 C 
ATOM      6  O   UNL d   1       1.901  -0.426  -1.035  0.00  0.00    -0.257 OA
BRANCH   5   7
ATOM      7  C   UNL d   1       0.452   1.362  -0.659  0.00  0.00     0.091 A 
ATOM      8  C   UNL d   1      -0.084   2.622  -0.237  0.00  0.00     0.150 A 
ATOM      9  N   UNL d   1      -1.430   2.658  -0.412  0.00  0.00    -0.294 N 
ATOM     10  N   UNL d   1      -1.747   1.455  -0.898  0.00  0.00    -0.306 N 
ATOM     11  HN  UNL d   1      -2.061   3.435  -0.215  1.00  0.00     0.187 HD
ATOM     12  C   UNL d   1      -3.120   1.113  -1.191  0.00  0.00     0.177 C 
ATOM     13  C   UNL d   1      -0.671   0.650  -1.065  0.00  0.00     0.129 A 
BRANCH   8  14
ATOM     14  C   UNL d   1       0.606   3.829   0.342  0.00  0.00     0.435 C 
ATOM     15  F   UNL d   1       1.917   3.614   0.638  0.00  0.00    -0.165 F 
ATOM     16  F   UNL d   1       0.583   4.890  -0.511  0.00  0.00    -0.165 F 
ATOM     17  F   UNL d   1       0.027   4.248   1.500  0.00  0.00    -0.165 F 
ENDBRANCH   8  14
ENDBRANCH   5   7
ENDBRANCH   4   5
ENDBRANCH   1   4
BRANCH   3  18
ATOM     18  C   UNL d   1       6.417   0.657  -0.344  0.00  0.00     0.004 A 
ATOM     19  C   UNL d   1       6.541  -0.342  -1.313  0.00  0.00     0.015 A 
ATOM     20  C   UNL d   1       7.716  -1.106  -1.409  0.00  0.00     0.009 A 
ATOM     21  C   UNL d   1       8.801  -0.909  -0.532  0.00  0.00    -0.051 A 
ATOM     22  C   UNL d   1       8.665   0.115   0.422  0.00  0.00     0.009 A 
ATOM     23  C   UNL d   1       7.493   0.888   0.517  0.00  0.00     0.015 A 
BRANCH  21  24
ATOM     24  C   UNL d   1      10.042  -1.824  -0.607  0.00  0.00    -0.024 C 
ATOM     25  C   UNL d   1      11.141  -1.472   0.423  0.00  0.00     0.019 C 
ATOM     26  C   UNL d   1       9.623  -3.287  -0.337  0.00  0.00     0.019 C 
ATOM     27  C   UNL d   1      10.694  -1.747  -2.005  0.00  0.00     0.019 C 
ENDBRANCH  21  24
ENDBRANCH   3  18
BRANCH   3  28
ATOM     28  N   UNL d   1       5.134   2.647   0.425  0.00  0.00    -0.286 NA
ATOM     29  H   UNL d   1       4.272   3.171   0.293  0.00  0.00     0.125 HD
ATOM     30  H   UNL d   1       5.960   3.213   0.265  0.00  0.00     0.125 HD
ENDBRANCH   3  28
TORSDOF 7
