REMARK  10 active torsions:
REMARK  status: ('A' for Active; 'I' for Inactive)
REMARK    1  A    between atoms: C_6  and  C_1 
REMARK    2  A    between atoms: C_7  and  C_1 
REMARK    3  A    between atoms: N_10  and  C_2 
REMARK    4  A    between atoms: O_8  and  C_3 
REMARK    5  A    between atoms: C_5  and  O_8 
REMARK    6  A    between atoms: O_20  and  C_6 
REMARK    7  A    between atoms: O_19  and  C_7 
REMARK    8  A    between atoms: C_13  and  N_10 
REMARK    9  A    between atoms: C_28  and  O_19 
REMARK   10  A    between atoms: C_27  and  O_20 
ROOT
ATOM      1  C   UNL d   1       0.858  -3.127   3.472  0.00  0.00     0.175 A 
ATOM      2  N   UNL d   1       0.136  -3.922   4.314  0.00  0.00    -0.345 N 
ATOM      3  HN  UNL d   1       0.456  -4.103   5.265  1.00  0.00     0.167 HD
ATOM      4  C   UNL d   1       0.407  -2.746   2.198  0.00  0.00     0.084 A 
ATOM      5  C   UNL d   1      -1.007  -4.460   3.857  0.00  0.00     0.090 A 
ATOM      6  C   UNL d   1      -0.797  -3.339   1.774  0.00  0.00     0.035 A 
ATOM      7  C   UNL d   1      -1.503  -4.215   2.596  0.00  0.00     0.019 A 
ENDROOT
BRANCH   4   8
ATOM      8  N   UNL d   1       1.060  -1.908   1.276  0.00  0.00    -0.361 N 
ATOM      9  H   UNL d   1       0.462  -1.527   0.536  0.00  0.00     0.165 HD
BRANCH   8  10
ATOM     10  C   UNL d   1       2.398  -1.623   1.135  0.00  0.00     0.112 C 
ATOM     11  C   UNL d   1       2.988  -0.806   0.239  0.00  0.00     0.129 C 
BRANCH  11  12
ATOM     12  C   UNL d   1       4.465  -0.793   0.107  0.00  0.00     0.300 C 
ATOM     13  O   UNL d   1       5.055  -0.500  -0.926  0.00  0.00    -0.259 OA
BRANCH  12  14
ATOM     14  O   UNL d   1       5.064  -1.278   1.225  0.00  0.00    -0.318 OA
BRANCH  14  15
ATOM     15  C   UNL d   1       6.402  -1.762   1.039  0.00  0.00     0.174 C 
ATOM     16  C   UNL d   1       6.331  -3.194   0.531  0.00  0.00     0.034 C 
ENDBRANCH  14  15
ENDBRANCH  12  14
ENDBRANCH  11  12
BRANCH  11  17
ATOM     17  C   UNL d   1       2.138  -0.092  -0.743  0.00  0.00     0.300 C 
ATOM     18  O   UNL d   1       0.994  -0.426  -1.020  0.00  0.00    -0.259 OA
BRANCH  17  19
ATOM     19  O   UNL d   1       2.810   0.944  -1.300  0.00  0.00    -0.318 OA
BRANCH  19  20
ATOM     20  C   UNL d   1       2.299   1.400  -2.561  0.00  0.00     0.174 C 
ATOM     21  C   UNL d   1       2.914   0.552  -3.660  0.00  0.00     0.034 C 
ENDBRANCH  19  20
ENDBRANCH  17  19
ENDBRANCH  11  17
ENDBRANCH   8  10
ENDBRANCH   4   8
BRANCH   1  22
ATOM     22  O   UNL d   1       2.084  -2.643   3.932  0.00  0.00    -0.291 OA
BRANCH  22  23
ATOM     23  C   UNL d   1       2.705  -3.339   4.946  0.00  0.00     0.084 A 
ATOM     24  C   UNL d   1       3.338  -2.632   5.957  0.00  0.00    -0.017 A 
ATOM     25  C   UNL d   1       3.853  -3.291   7.080  0.00  0.00    -0.043 A 
ATOM     26  C   UNL d   1       3.523  -1.151   6.055  0.00  0.00     0.042 C 
ATOM     27  C   UNL d   1       4.344  -2.316   8.103  0.00  0.00     0.040 C 
ATOM     28  C   UNL d   1       3.799  -4.681   7.193  0.00  0.00    -0.055 A 
ATOM     29  C   UNL d   1       4.314  -0.974   7.360  0.00  0.00     0.009 C 
ATOM     30  C   UNL d   1       3.248  -5.400   6.126  0.00  0.00     0.010 A 
ATOM     31  C   UNL d   1       4.247  -5.398   8.428  0.00  0.00     0.049 C 
ATOM     32  C   UNL d   1       2.732  -4.739   5.004  0.00  0.00     0.038 A 
ENDBRANCH  22  23
ENDBRANCH   1  22
TORSDOF 10
