REMARK  5 active torsions:
REMARK  status: ('A' for Active; 'I' for Inactive)
REMARK    1  A    between atoms: O_4  and  N_1 
REMARK    2  A    between atoms: C_5  and  O_4 
REMARK    3  A    between atoms: C_11  and  C_5 
REMARK    4  A    between atoms: O_12  and  C_11 
REMARK    5  A    between atoms: C_13  and  O_12 
ROOT
ATOM      1  C   UNL d   1      -1.475   2.981  -0.096  0.00  0.00     0.305 C 
ATOM      2  O   UNL d   1      -1.560   2.096  -0.938  0.00  0.00    -0.261 OA
ENDROOT
BRANCH   1   3
ATOM      3  O   UNL d   1      -1.736   2.835   1.241  0.00  0.00    -0.185 OA
BRANCH   3   4
ATOM      4  N   UNL d   1      -2.563   1.742   1.488  0.00  0.00    -0.145 N 
ATOM      5  C   UNL d   1      -2.128   0.666   2.182  0.00  0.00     0.251 C 
ATOM      6  C   UNL d   1      -3.338  -0.161   2.526  0.00  0.00     0.115 C 
ATOM      7  O   UNL d   1      -0.992   0.416   2.555  0.00  0.00    -0.271 OA
ATOM      8  C   UNL d   1      -4.522   0.658   2.023  0.00  0.00     0.115 C 
ATOM      9  C   UNL d   1      -3.905   1.938   1.549  0.00  0.00     0.251 C 
ATOM     10  O   UNL d   1      -4.531   2.959   1.308  0.00  0.00    -0.271 OA
ENDBRANCH   3   4
ENDBRANCH   1   3
BRANCH   1  11
ATOM     11  C   UNL d   1      -1.179   4.437  -0.378  0.00  0.00     0.288 C 
BRANCH  11  12
ATOM     12  O   UNL d   1      -2.458   5.056  -0.313  0.00  0.00    -0.342 OA
BRANCH  12  13
ATOM     13  C   UNL d   1      -2.537   6.401  -0.128  0.00  0.00     0.069 A 
ATOM     14  C   UNL d   1      -1.475   7.302  -0.144  0.00  0.00     0.037 A 
ATOM     15  C   UNL d   1      -1.719   8.665   0.052  0.00  0.00     0.003 A 
ATOM     16  C   UNL d   1      -3.020   9.129   0.257  0.00  0.00     0.000 A 
ATOM     17  C   UNL d   1      -4.082   8.230   0.272  0.00  0.00     0.003 A 
ATOM     18  C   UNL d   1      -3.837   6.871   0.082  0.00  0.00     0.037 A 
ENDBRANCH  12  13
ENDBRANCH  11  12
ENDBRANCH   1  11
TORSDOF 5
