REMARK  3 active torsions:
REMARK  status: ('A' for Active; 'I' for Inactive)
REMARK    1  A    between atoms: C_4  and  C_1 
REMARK       I    between atoms: N_9  and  C_4 
REMARK       I    between atoms: C_8  and  N_10 
REMARK       I    between atoms: N_11  and  C_8 
REMARK    2  A    between atoms: N_10  and  N_9 
REMARK    3  A    between atoms: C_14  and  N_11 
ROOT
ATOM      1  C   UNL d   1       5.530  -1.172  -0.167  0.00  0.00     0.339 C 
ATOM      2  N   UNL d   1       4.159  -0.985  -0.200  0.00  0.00    -0.248 N 
ATOM      3  N   UNL d   1       6.217  -0.173  -0.826  0.00  0.00    -0.308 N 
ATOM      4  O   UNL d   1       6.012  -2.168   0.368  0.00  0.00    -0.245 OA
ATOM      5  H   UNL d   1       3.740  -0.068  -0.319  0.00  0.00     0.192 HD
ATOM      6  H   UNL d   1       5.672   0.612  -1.150  0.00  0.00     0.170 HD
ENDROOT
BRANCH   2   7
ATOM      7  N   UNL d   1       3.367  -1.933   0.471  0.00  0.00    -0.261 N 
ATOM      8  C   UNL d   1       1.996  -1.808   0.475  0.00  0.00     0.287 C 
ATOM      9  O   UNL d   1       1.414  -0.856  -0.043  0.00  0.00    -0.264 OA
ATOM     10  H   UNL d   1       3.830  -2.756   0.861  0.00  0.00     0.190 HD
BRANCH   8  11
ATOM     11  C   UNL d   1       1.302  -2.898   1.165  0.00  0.00     0.109 A 
ATOM     12  N   UNL d   1       1.986  -3.916   1.841  0.00  0.00    -0.349 N 
ATOM     13  C   UNL d   1       1.126  -4.736   2.411  0.00  0.00     0.047 A 
ATOM     14  HN  UNL d   1       3.001  -4.009   1.886  1.00  0.00     0.166 HD
ATOM     15  C   UNL d   1       1.490  -5.907   3.257  0.00  0.00     0.076 C 
ATOM     16  S   UNL d   1      -0.533  -4.373   2.143  0.00  0.00    -0.087 SA
ATOM     17  C   UNL d   1      -0.076  -3.005   1.225  0.00  0.00     0.086 A 
ENDBRANCH   8  11
ENDBRANCH   2   7
BRANCH   3  18
ATOM     18  C   UNL d   1       7.597  -0.158  -1.133  0.00  0.00     0.036 A 
ATOM     19  C   UNL d   1       8.460  -1.221  -0.849  0.00  0.00     0.031 A 
ATOM     20  C   UNL d   1       9.802  -1.179  -1.238  0.00  0.00     0.026 A 
ATOM     21  C   UNL d   1      10.295  -0.066  -1.908  0.00  0.00     0.034 A 
ATOM     22  C   UNL d   1       9.457   1.012  -2.181  0.00  0.00     0.026 A 
ATOM     23 CL   UNL d   1      11.938  -0.031  -2.413  0.00  0.00    -0.084 Cl
ATOM     24  C   UNL d   1       8.111   0.966  -1.795  0.00  0.00     0.031 A 
ENDBRANCH   3  18
TORSDOF 3
