REMARK  2 active torsions:
REMARK  status: ('A' for Active; 'I' for Inactive)
REMARK    1  A    between atoms: N_5  and  C_1 
REMARK    2  A    between atoms: C_10  and  N_4 
ROOT
ATOM      1  C   UNL d   1      -0.327   1.119   0.011  0.00  0.00     0.190 A 
ATOM      2  N   UNL d   1       0.990   0.718  -0.020  0.00  0.00    -0.326 N 
ATOM      3  HN  UNL d   1       1.815   1.318  -0.043  1.00  0.00     0.169 HD
ATOM      4  N   UNL d   1      -0.337  -1.067   0.036  0.00  0.00    -0.339 N 
ATOM      5  C   UNL d   1      -1.166   0.028   0.038  0.00  0.00     0.147 A 
ATOM      6  C   UNL d   1       0.965  -0.600  -0.015  0.00  0.00     0.081 A 
ATOM      7  C   UNL d   1       2.174  -1.462  -0.062  0.00  0.00     0.089 C 
ENDROOT
BRANCH   1   8
ATOM      8  N   UNL d   1      -0.689   2.519   0.007  0.00  0.00    -0.096 N 
ATOM      9  O   UNL d   1      -1.904   2.778   0.025  0.00  0.00    -0.530 OA
ATOM     10  O   UNL d   1       0.224   3.357  -0.015  0.00  0.00    -0.530 OA
ENDBRANCH   1   8
BRANCH   4  11
ATOM     11  C   UNL d   1      -0.777  -2.462   0.065  0.00  0.00     0.082 C 
ATOM     12  C   UNL d   1      -1.608  -2.782   1.310  0.00  0.00     0.032 C 
ATOM     13  C   UNL d   1      -1.548  -2.841  -1.201  0.00  0.00     0.032 C 
ENDBRANCH   4  11
TORSDOF 2
