REMARK  4 active torsions:
REMARK  status: ('A' for Active; 'I' for Inactive)
REMARK    1  A    between atoms: O_7  and  C_1 
REMARK    2  A    between atoms: O_8  and  C_2 
REMARK    3  A    between atoms: C_12  and  O_7 
REMARK    4  A    between atoms: C_11  and  O_8 
ROOT
ATOM      1  C   UNL d   1       0.132   1.420   0.009  0.00  0.00     0.159 A 
ATOM      2  C   UNL d   1      -0.132  -1.390   0.017  0.00  0.00     0.159 A 
ATOM      3  C   UNL d   1      -1.125   0.816  -0.010  0.00  0.00     0.194 A 
ATOM      4  C   UNL d   1       1.125  -0.786  -0.013  0.00  0.00     0.194 A 
ATOM      5  C   UNL d   1      -1.260  -0.571  -0.030  0.00  0.00     0.194 A 
ATOM      6  C   UNL d   1       1.260   0.601  -0.041  0.00  0.00     0.194 A 
ATOM      7  F   UNL d   1       2.491   1.121  -0.129  0.00  0.00    -0.200 F 
ATOM      8  F   UNL d   1      -2.231   1.578  -0.018  0.00  0.00    -0.200 F 
ATOM      9  F   UNL d   1       2.231  -1.548  -0.024  0.00  0.00    -0.200 F 
ATOM     10  F   UNL d   1      -2.492  -1.092  -0.109  0.00  0.00    -0.200 F 
ENDROOT
BRANCH   1  11
ATOM     11  O   UNL d   1       0.139   2.792  -0.024  0.00  0.00    -0.304 OA
BRANCH  11  12
ATOM     12  C   UNL d   1       1.129   3.505   0.610  0.00  0.00     0.076 A 
ATOM     13  C   UNL d   1       1.751   3.119   1.798  0.00  0.00     0.044 A 
ATOM     14  C   UNL d   1       2.769   3.907   2.364  0.00  0.00    -0.053 A 
ATOM     15  C   UNL d   1       3.474   3.415   3.599  0.00  0.00     0.049 C 
ATOM     16  C   UNL d   1       3.117   5.129   1.755  0.00  0.00    -0.056 A 
ATOM     17  C   UNL d   1       2.441   5.535   0.595  0.00  0.00     0.010 A 
ATOM     18  C   UNL d   1       4.196   6.010   2.323  0.00  0.00     0.049 C 
ATOM     19  C   UNL d   1       1.455   4.728   0.028  0.00  0.00     0.038 A 
ENDBRANCH  11  12
ENDBRANCH   1  11
BRANCH   2  20
ATOM     20  O   UNL d   1      -0.139  -2.763  -0.011  0.00  0.00    -0.304 OA
BRANCH  20  21
ATOM     21  C   UNL d   1      -1.123  -3.473   0.634  0.00  0.00     0.076 A 
ATOM     22  C   UNL d   1      -1.739  -3.081   1.823  0.00  0.00     0.044 A 
ATOM     23  C   UNL d   1      -2.748  -3.869   2.403  0.00  0.00    -0.053 A 
ATOM     24  C   UNL d   1      -3.446  -3.372   3.640  0.00  0.00     0.049 C 
ATOM     25  C   UNL d   1      -3.096  -5.098   1.806  0.00  0.00    -0.056 A 
ATOM     26  C   UNL d   1      -2.427  -5.508   0.643  0.00  0.00     0.010 A 
ATOM     27  C   UNL d   1      -4.166  -5.979   2.389  0.00  0.00     0.049 C 
ATOM     28  C   UNL d   1      -1.449  -4.701   0.062  0.00  0.00     0.038 A 
ENDBRANCH  20  21
ENDBRANCH   2  20
TORSDOF 4
