REMARK  4 active torsions:
REMARK  status: ('A' for Active; 'I' for Inactive)
REMARK    1  A    between atoms: C_5  and  C_1 
REMARK    2  A    between atoms: C_4  and  C_11 
REMARK       I    between atoms: N_9  and  C_5 
REMARK    3  A    between atoms: C_11  and  N_8 
REMARK    4  A    between atoms: C_15  and  N_9 
ROOT
ATOM      1  N   UNL d   1      -4.568   2.894   1.655  0.00  0.00     0.092 N 
ATOM      2  C   UNL d   1      -3.820   0.566   0.062  0.00  0.00     0.088 C 
ATOM      3  C   UNL d   1      -4.377   1.815  -0.613  0.00  0.00     0.055 C 
ATOM      4  C   UNL d   1      -4.514   0.397   1.407  0.00  0.00     0.055 C 
ATOM      5  C   UNL d   1      -4.082   3.031   0.270  0.00  0.00     0.275 C 
ATOM      6  C   UNL d   1      -4.200   1.612   2.280  0.00  0.00     0.275 C 
ENDROOT
BRANCH   2   7
ATOM      7  N   UNL d   1      -3.843  -0.627  -0.760  0.00  0.00    -0.351 N 
ATOM      8  C   UNL d   1      -4.962  -1.263  -1.246  0.00  0.00     0.270 C 
ATOM      9  O   UNL d   1      -6.108  -0.863  -1.088  0.00  0.00    -0.266 OA
ATOM     10  H   UNL d   1      -2.961  -1.094  -0.957  0.00  0.00     0.163 HD
BRANCH   8  11
ATOM     11  C   UNL d   1      -4.650  -2.491  -1.989  0.00  0.00     0.124 A 
ATOM     12  N   UNL d   1      -3.393  -2.964  -2.087  0.00  0.00    -0.256 N 
ATOM     13  O   UNL d   1      -3.480  -4.113  -2.853  0.00  0.00    -0.242 OA
ATOM     14  HN  UNL d   1      -2.550  -2.558  -1.681  1.00  0.00     0.195 HD
ATOM     15  C   UNL d   1      -4.774  -4.324  -3.212  0.00  0.00     0.075 A 
ATOM     16  C   UNL d   1      -5.557  -3.332  -2.681  0.00  0.00     0.071 A 
ATOM     17  C   UNL d   1      -5.037  -5.504  -4.053  0.00  0.00     0.079 C 
ENDBRANCH   8  11
ENDBRANCH   2   7
BRANCH   1  18
ATOM     18  C   UNL d   1      -4.084   4.047   2.455  0.00  0.00     0.315 C 
BRANCH  18  19
ATOM     19  C   UNL d   1      -4.566   4.050   3.886  0.00  0.00     0.030 A 
ATOM     20  C   UNL d   1      -5.899   4.290   4.243  0.00  0.00     0.045 A 
ATOM     21 CL   UNL d   1      -7.093   4.735   3.077  0.00  0.00    -0.084 Cl
ATOM     22  C   UNL d   1      -6.310   4.177   5.578  0.00  0.00     0.024 A 
ATOM     23  C   UNL d   1      -5.396   3.840   6.575  0.00  0.00     0.005 A 
ATOM     24  C   UNL d   1      -4.062   3.633   6.242  0.00  0.00     0.043 A 
ATOM     25  C   UNL d   1      -3.661   3.740   4.913  0.00  0.00     0.126 A 
ATOM     26  F   UNL d   1      -2.372   3.511   4.620  0.00  0.00    -0.205 F 
ENDBRANCH  18  19
ENDBRANCH   1  18
TORSDOF 4
