REMARK  4 active torsions:
REMARK  status: ('A' for Active; 'I' for Inactive)
REMARK    1  A    between atoms: C_8  and  C_1 
REMARK    2  A    between atoms: N_7  and  C_2 
REMARK    3  A    between atoms: S_4  and  N_7 
REMARK    4  A    between atoms: C_11  and  C_6 
REMARK       I    between atoms: N_13  and  C_8 
ROOT
ATOM      1  C   UNL d   1       0.001   1.304   0.130  0.00  0.00     0.095 A 
ATOM      2  C   UNL d   1       1.327   0.918   0.037  0.00  0.00     0.046 A 
ATOM      3  S   UNL d   1      -1.036  -0.059   0.144  0.00  0.00    -0.082 SA
ATOM      4  C   UNL d   1       1.461  -0.506  -0.065  0.00  0.00     0.045 A 
ATOM      5  C   UNL d   1       0.250  -1.175  -0.040  0.00  0.00     0.018 A 
ENDROOT
BRANCH   2   6
ATOM      6  N   UNL d   1       2.438   1.785  -0.022  0.00  0.00    -0.184 NA
ATOM      7  H   UNL d   1       3.089   1.609  -0.790  0.00  0.00     0.146 HD
BRANCH   6   8
ATOM      8  S   UNL d   1       3.403   2.009   1.358  0.00  0.00     0.210 S 
ATOM      9  O   UNL d   1       3.101   0.981   2.330  0.00  0.00    -0.211 OA
ATOM     10  O   UNL d   1       4.747   2.188   0.859  0.00  0.00    -0.211 OA
ATOM     11  C   UNL d   1       2.817   3.573   1.976  0.00  0.00     0.180 C 
ENDBRANCH   6   8
ENDBRANCH   2   6
BRANCH   1  12
ATOM     12  C   UNL d   1      -0.556   2.644   0.196  0.00  0.00     0.258 C 
ATOM     13  O   UNL d   1       0.101   3.684   0.189  0.00  0.00    -0.267 OA
ATOM     14  N   UNL d   1      -1.923   2.740   0.270  0.00  0.00    -0.365 N 
ATOM     15  H   UNL d   1      -2.510   1.919   0.296  0.00  0.00     0.159 HD
ATOM     16  H   UNL d   1      -2.341   3.658   0.315  0.00  0.00     0.159 HD
ENDBRANCH   1  12
BRANCH   5  17
ATOM     17  C   UNL d   1      -0.039  -2.619  -0.109  0.00  0.00    -0.019 A 
ATOM     18  C   UNL d   1      -1.207  -3.103  -0.726  0.00  0.00     0.013 A 
ATOM     19  C   UNL d   1      -1.502  -4.469  -0.749  0.00  0.00     0.001 A 
ATOM     20  C   UNL d   1      -0.624  -5.378  -0.168  0.00  0.00     0.000 A 
ATOM     21  C   UNL d   1       0.549  -4.921   0.429  0.00  0.00     0.001 A 
ATOM     22  C   UNL d   1       0.841  -3.552   0.458  0.00  0.00     0.013 A 
ENDBRANCH   5  17
TORSDOF 4
