REMARK  11 active torsions:
REMARK  status: ('A' for Active; 'I' for Inactive)
REMARK    1  A    between atoms: C_2  and  C_1 
REMARK    2  A    between atoms: N_12  and  C_5 
REMARK    3  A    between atoms: O_11  and  C_15 
REMARK    4  A    between atoms: C_17  and  O_11 
REMARK    5  A    between atoms: C_20  and  N_12 
REMARK    6  A    between atoms: C_14  and  C_19 
REMARK    7  A    between atoms: C_15  and  C_14 
REMARK    8  A    between atoms: O_18  and  C_14 
REMARK    9  A    between atoms: N_16  and  C_21 
REMARK   10  A    between atoms: C_19  and  N_16 
REMARK   11  A    between atoms: C_21  and  C_20 
ROOT
ATOM      1  C   UNL d   1      -1.185   4.717  -6.196  0.00  0.00     0.284 C 
ENDROOT
BRANCH   1   2
ATOM      2  N   UNL d   1      -1.681   4.249  -7.499  0.00  0.00     0.087 N 
ATOM      3  H   UNL d   1      -2.459   3.601  -7.377  0.00  0.00     0.316 HD
BRANCH   2   4
ATOM      4  C   UNL d   1      -2.062   5.340  -8.404  0.00  0.00     0.303 C 
BRANCH   4   5
ATOM      5  C   UNL d   1      -2.628   4.826  -9.745  0.00  0.00     0.170 C 
BRANCH   5   6
ATOM      6  C   UNL d   1      -3.031   6.019 -10.629  0.00  0.00     0.209 C 
BRANCH   6   7
ATOM      7  O   UNL d   1      -3.668   5.520 -11.806  0.00  0.00    -0.349 OA
BRANCH   7   8
ATOM      8  C   UNL d   1      -3.985   6.427 -12.777  0.00  0.00     0.068 A 
ATOM      9  C   UNL d   1      -3.932   7.818 -12.658  0.00  0.00     0.037 A 
ATOM     10  C   UNL d   1      -4.302   8.626 -13.735  0.00  0.00     0.003 A 
ATOM     11  C   UNL d   1      -4.728   8.051 -14.931  0.00  0.00     0.000 A 
ATOM     12  C   UNL d   1      -4.783   6.665 -15.055  0.00  0.00     0.003 A 
ATOM     13  C   UNL d   1      -4.414   5.858 -13.978  0.00  0.00     0.037 A 
ENDBRANCH   7   8
ENDBRANCH   6   7
ENDBRANCH   5   6
BRANCH   5  14
ATOM     14  O   UNL d   1      -1.665   4.013 -10.426  0.00  0.00    -0.392 OA
ATOM     15  H   UNL d   1      -0.796   4.438 -10.337  0.00  0.00     0.210 HD
ENDBRANCH   5  14
ENDBRANCH   4   5
ENDBRANCH   2   4
ENDBRANCH   1   2
BRANCH   1  16
ATOM     16  C   UNL d   1      -2.204   5.522  -5.365  0.00  0.00     0.123 C 
BRANCH  16  17
ATOM     17  N   UNL d   1      -1.617   6.015  -4.131  0.00  0.00    -0.277 NA
ATOM     18  H   UNL d   1      -1.116   5.334  -3.561  0.00  0.00     0.129 HD
BRANCH  17  19
ATOM     19  C   UNL d   1      -2.434   6.737  -3.272  0.00  0.00     0.079 A 
ATOM     20  C   UNL d   1      -3.403   7.634  -3.711  0.00  0.00     0.043 A 
ATOM     21  C   UNL d   1      -4.148   8.358  -2.782  0.00  0.00     0.021 A 
ATOM     22  C   UNL d   1      -3.890   8.197  -1.422  0.00  0.00     0.063 A 
ATOM     23  C   UNL d   1      -2.905   7.290  -1.070  0.00  0.00     0.105 A 
ATOM     24  N   UNL d   1      -2.186   6.561  -1.961  0.00  0.00    -0.356 N 
ATOM     25  HN  UNL d   1      -1.477   5.899  -1.645  1.00  0.00     0.166 HD
BRANCH  22  26
ATOM     26  C   UNL d   1      -4.631   8.983  -0.389  0.00  0.00     0.418 C 
ATOM     27  F   UNL d   1      -4.252   8.706   0.890  0.00  0.00    -0.166 F 
ATOM     28  F   UNL d   1      -5.975   8.766  -0.434  0.00  0.00    -0.166 F 
ATOM     29  F   UNL d   1      -4.467  10.326  -0.544  0.00  0.00    -0.166 F 
ENDBRANCH  22  26
ENDBRANCH  17  19
ENDBRANCH  16  17
ENDBRANCH   1  16
TORSDOF 11
