REMARK  4 active torsions:
REMARK  status: ('A' for Active; 'I' for Inactive)
REMARK    1  A    between atoms: S_2  and  C_1 
REMARK    2  A    between atoms: C_8  and  S_2 
REMARK    3  A    between atoms: N_5  and  C_9 
REMARK    4  A    between atoms: C_7  and  C_8 
ROOT
ATOM      1  S   UNL d   1      -3.547  -1.686   0.076  0.00  0.00     0.201 S 
ATOM      2  O   UNL d   1      -4.545  -0.658   0.289  0.00  0.00    -0.220 OA
ATOM      3  O   UNL d   1      -2.123  -1.411   0.152  0.00  0.00    -0.220 OA
ENDROOT
BRANCH   1   4
ATOM      4  C   UNL d   1      -3.862  -2.936   1.290  0.00  0.00     0.172 A 
ATOM      5  N   UNL d   1      -4.249  -4.166   1.020  0.00  0.00    -0.340 N 
ATOM      6  C   UNL d   1      -4.439  -4.849   2.209  0.00  0.00     0.050 A 
ATOM      7  HN  UNL d   1      -4.386  -4.553   0.086  1.00  0.00     0.167 HD
ATOM      8  C   UNL d   1      -4.882  -6.181   2.328  0.00  0.00     0.031 A 
ATOM      9  C   UNL d   1      -4.166  -4.122   3.373  0.00  0.00     0.034 A 
ATOM     10  C   UNL d   1      -5.048  -6.749   3.595  0.00  0.00     0.002 A 
ATOM     11  C   UNL d   1      -4.769  -6.009   4.740  0.00  0.00     0.002 A 
ATOM     12  C   UNL d   1      -4.320  -4.687   4.650  0.00  0.00     0.021 A 
ATOM     13  S   UNL d   1      -3.656  -2.532   2.933  0.00  0.00    -0.058 SA
ENDBRANCH   1   4
BRANCH   1  14
ATOM     14  C   UNL d   1      -3.905  -2.556  -1.446  0.00  0.00     0.189 C 
BRANCH  14  15
ATOM     15  C   UNL d   1      -3.727  -1.624  -2.622  0.00  0.00    -0.011 A 
ATOM     16  C   UNL d   1      -4.748  -0.817  -3.164  0.00  0.00     0.110 A 
ATOM     17  C   UNL d   1      -4.511   0.054  -4.240  0.00  0.00     0.037 A 
ATOM     18  C   UNL d   1      -3.242   0.115  -4.808  0.00  0.00     0.002 A 
ATOM     19  C   UNL d   1      -2.218  -0.682  -4.300  0.00  0.00     0.001 A 
ATOM     20  C   UNL d   1      -2.453  -1.533  -3.215  0.00  0.00     0.010 A 
BRANCH  16  21
ATOM     21  N   UNL d   1      -6.125  -0.900  -2.692  0.00  0.00    -0.115 N 
ATOM     22  O   UNL d   1      -6.653  -2.020  -2.699  0.00  0.00    -0.532 OA
ATOM     23  O   UNL d   1      -6.681   0.156  -2.366  0.00  0.00    -0.532 OA
ENDBRANCH  16  21
ENDBRANCH  14  15
ENDBRANCH   1  14
TORSDOF 4
