REMARK  8 active torsions:
REMARK  status: ('A' for Active; 'I' for Inactive)
REMARK    1  A    between atoms: C_4  and  S_1 
REMARK    2  A    between atoms: O_6  and  S_1 
REMARK    3  A    between atoms: S_2  and  C_5 
REMARK    4  A    between atoms: C_17  and  S_2 
REMARK    5  A    between atoms: N_3  and  C_11 
REMARK    6  A    between atoms: C_5  and  C_10 
REMARK    7  A    between atoms: N_8  and  O_6 
REMARK    8  A    between atoms: N_22  and  C_10 
ROOT
ATOM      1  N   UNL d   1       0.959  -0.218   2.521  0.00  0.00    -0.236 N 
ATOM      2  HN  UNL d   1       0.720   0.270   1.657  1.00  0.00     0.197 HD
ATOM      3  C   UNL d   1       0.538   0.124   3.702  0.00  0.00     0.111 C 
ENDROOT
BRANCH   1   4
ATOM      4  O   UNL d   1       1.794  -1.361   2.596  0.00  0.00    -0.146 OA
BRANCH   4   5
ATOM      5  S   UNL d   1       2.333  -1.936   1.147  0.00  0.00     0.319 S 
ATOM      6  O   UNL d   1       2.765  -3.312   1.330  0.00  0.00    -0.191 OA
ATOM      7  O   UNL d   1       1.366  -1.624   0.107  0.00  0.00    -0.191 OA
BRANCH   5   8
ATOM      8  C   UNL d   1       3.816  -0.980   0.822  0.00  0.00     0.096 A 
ATOM      9  C   UNL d   1       3.846  -0.212  -0.356  0.00  0.00     0.062 A 
ATOM     10  C   UNL d   1       4.981   0.550  -0.658  0.00  0.00     0.104 A 
ATOM     11  C   UNL d   1       6.087   0.545   0.195  0.00  0.00     0.037 A 
ATOM     12  C   UNL d   1       6.054  -0.227   1.358  0.00  0.00     0.011 A 
ATOM     13  C   UNL d   1       4.927  -1.004   1.692  0.00  0.00    -0.038 A 
ATOM     14  C   UNL d   1       4.997  -1.761   2.990  0.00  0.00     0.050 C 
BRANCH  10  15
ATOM     15  N   UNL d   1       5.015   1.367  -1.880  0.00  0.00    -0.116 N 
ATOM     16  O   UNL d   1       4.022   1.334  -2.621  0.00  0.00    -0.532 OA
ATOM     17  O   UNL d   1       6.034   2.035  -2.098  0.00  0.00    -0.532 OA
ENDBRANCH  10  15
ENDBRANCH   5   8
ENDBRANCH   4   5
ENDBRANCH   1   4
BRANCH   3  18
ATOM     18  C   UNL d   1      -0.406   1.298   3.796  0.00  0.00     0.223 C 
BRANCH  18  19
ATOM     19  S   UNL d   1       0.513   2.806   3.970  0.00  0.00     0.182 S 
ATOM     20  O   UNL d   1       1.308   2.729   5.182  0.00  0.00    -0.222 OA
ATOM     21  O   UNL d   1       1.119   3.163   2.702  0.00  0.00    -0.222 OA
BRANCH  19  22
ATOM     22  C   UNL d   1      -0.774   4.003   4.287  0.00  0.00     0.059 A 
ATOM     23  C   UNL d   1      -1.110   4.322   5.609  0.00  0.00     0.023 A 
ATOM     24  C   UNL d   1      -2.112   5.261   5.853  0.00  0.00     0.002 A 
ATOM     25  C   UNL d   1      -2.763   5.882   4.787  0.00  0.00     0.000 A 
ATOM     26  C   UNL d   1      -2.412   5.573   3.471  0.00  0.00     0.002 A 
ATOM     27  C   UNL d   1      -1.411   4.634   3.216  0.00  0.00     0.023 A 
ENDBRANCH  19  22
ENDBRANCH  18  19
ENDBRANCH   3  18
BRANCH   3  28
ATOM     28  N   UNL d   1       0.866  -0.545   4.853  0.00  0.00    -0.387 N 
ATOM     29  H   UNL d   1       0.370  -0.383   5.721  0.00  0.00     0.157 HD
ATOM     30  H   UNL d   1       1.305  -1.453   4.753  0.00  0.00     0.157 HD
ENDBRANCH   3  28
TORSDOF 8
