REMARK  5 active torsions:
REMARK  status: ('A' for Active; 'I' for Inactive)
REMARK    1  A    between atoms: C_6  and  C_1 
REMARK    2  A    between atoms: C_5  and  C_2 
REMARK       I    between atoms: N_9  and  C_5 
REMARK    3  A    between atoms: C_14  and  N_9 
REMARK    4  A    between atoms: C_15  and  N_10 
REMARK    5  A    between atoms: C_22  and  C_15 
ROOT
ATOM      1  C   UNL d   1       0.203  -2.385   0.471  0.00  0.00     0.256 C 
ATOM      2  N   UNL d   1      -0.346  -3.494  -0.183  0.00  0.00    -0.352 N 
ATOM      3  O   UNL d   1      -0.432  -1.377   0.730  0.00  0.00    -0.267 OA
ATOM      4  H   UNL d   1       0.161  -4.358  -0.045  0.00  0.00     0.163 HD
ENDROOT
BRANCH   1   5
ATOM      5  C   UNL d   1       1.595  -2.518   0.870  0.00  0.00     0.092 C 
ATOM      6  C   UNL d   1       2.293  -1.865   1.954  0.00  0.00     0.086 C 
ATOM      7  N   UNL d   1       3.559  -2.314   2.014  0.00  0.00    -0.259 N 
ATOM      8  O   UNL d   1       3.747  -3.111   0.913  0.00  0.00    -0.241 OA
ATOM      9  HN  UNL d   1       4.247  -2.104   2.737  1.00  0.00     0.195 HD
ATOM     10  C   UNL d   1       2.595  -3.212   0.214  0.00  0.00     0.090 C 
ATOM     11  C   UNL d   1       2.706  -3.948  -1.063  0.00  0.00     0.080 C 
BRANCH   6  12
ATOM     12  C   UNL d   1       1.835  -0.832   2.903  0.00  0.00     0.037 A 
ATOM     13  C   UNL d   1       0.649  -0.978   3.649  0.00  0.00     0.048 A 
ATOM     14 CL   UNL d   1      -0.216  -2.478   3.753  0.00  0.00    -0.083 Cl
ATOM     15  C   UNL d   1       0.144   0.080   4.425  0.00  0.00     0.025 A 
ATOM     16  C   UNL d   1       0.847   1.276   4.537  0.00  0.00     0.003 A 
ATOM     17  C   UNL d   1       2.071   1.406   3.896  0.00  0.00     0.025 A 
ATOM     18  C   UNL d   1       2.559   0.372   3.079  0.00  0.00     0.048 A 
ATOM     19 CL   UNL d   1       4.084   0.699   2.315  0.00  0.00    -0.083 Cl
ENDBRANCH   6  12
ENDBRANCH   1   5
BRANCH   2  20
ATOM     20  C   UNL d   1      -1.794  -3.636  -0.414  0.00  0.00     0.088 C 
ATOM     21  C   UNL d   1      -2.140  -4.942  -1.163  0.00  0.00     0.055 C 
ATOM     22  C   UNL d   1      -1.955  -4.869  -2.691  0.00  0.00     0.275 C 
ATOM     23  N   UNL d   1      -2.580  -3.672  -3.275  0.00  0.00     0.092 N 
ATOM     24  C   UNL d   1      -2.043  -2.465  -2.629  0.00  0.00     0.275 C 
ATOM     25  C   UNL d   1      -2.430  -2.461  -1.158  0.00  0.00     0.055 C 
BRANCH  23  26
ATOM     26  C   UNL d   1      -2.360  -3.571  -4.731  0.00  0.00     0.311 C 
BRANCH  26  27
ATOM     27  C   UNL d   1      -3.081  -4.607  -5.567  0.00  0.00    -0.030 A 
ATOM     28  C   UNL d   1      -4.473  -4.764  -5.487  0.00  0.00     0.009 A 
ATOM     29  C   UNL d   1      -5.134  -5.671  -6.319  0.00  0.00     0.001 A 
ATOM     30  C   UNL d   1      -4.412  -6.427  -7.242  0.00  0.00     0.000 A 
ATOM     31  C   UNL d   1      -3.031  -6.275  -7.336  0.00  0.00     0.001 A 
ATOM     32  C   UNL d   1      -2.369  -5.369  -6.506  0.00  0.00     0.009 A 
ENDBRANCH  26  27
ENDBRANCH  23  26
ENDBRANCH   2  20
TORSDOF 5
