REMARK  5 active torsions:
REMARK  status: ('A' for Active; 'I' for Inactive)
REMARK    1  A    between atoms: C_2  and  S_1 
REMARK    2  A    between atoms: N_12  and  S_1 
REMARK    3  A    between atoms: C_6  and  C_19 
REMARK    4  A    between atoms: C_18  and  N_12 
REMARK    5  A    between atoms: C_19  and  C_18 
ROOT
ATOM      1  N   UNL d   1       2.585  -0.115   0.000  0.00  0.00    -0.215 NA
ATOM      2  H   UNL d   1       3.018   0.667  -0.493  0.00  0.00     0.139 HD
ENDROOT
BRANCH   1   3
ATOM      3  S   UNL d   1       0.904   0.005  -0.095  0.00  0.00     0.241 S 
ATOM      4  O   UNL d   1       0.392   0.322   1.220  0.00  0.00    -0.206 OA
ATOM      5  O   UNL d   1       0.629   0.841  -1.242  0.00  0.00    -0.206 OA
BRANCH   3   6
ATOM      6  C   UNL d   1       0.400  -1.639  -0.525  0.00  0.00     0.076 A 
ATOM      7  C   UNL d   1      -0.462  -2.348   0.319  0.00  0.00     0.050 A 
ATOM      8  C   UNL d   1      -0.930  -3.606  -0.073  0.00  0.00     0.057 A 
ATOM      9 CL   UNL d   1      -2.017  -4.425   0.992  0.00  0.00    -0.083 Cl
ATOM     10  C   UNL d   1      -0.530  -4.153  -1.300  0.00  0.00     0.055 A 
ATOM     11  C   UNL d   1       0.336  -3.437  -2.134  0.00  0.00     0.027 A 
ATOM     12 CL   UNL d   1      -1.078  -5.697  -1.849  0.00  0.00    -0.083 Cl
ATOM     13  C   UNL d   1       0.799  -2.176  -1.751  0.00  0.00     0.026 A 
ENDBRANCH   3   6
ENDBRANCH   1   3
BRANCH   1  14
ATOM     14  C   UNL d   1       3.148  -0.470   1.314  0.00  0.00     0.109 C 
BRANCH  14  15
ATOM     15  C   UNL d   1       4.680  -0.523   1.257  0.00  0.00     0.056 C 
BRANCH  15  16
ATOM     16  C   UNL d   1       5.235  -0.878   2.599  0.00  0.00    -0.029 A 
ATOM     17  C   UNL d   1       5.603   0.001   3.599  0.00  0.00     0.096 A 
ATOM     18  N   UNL d   1       5.947  -0.729   4.705  0.00  0.00    -0.365 N 
ATOM     19  C   UNL d   1       5.820  -2.073   4.446  0.00  0.00     0.042 A 
ATOM     20  H   UNL d   1       6.229  -0.342   5.596  0.00  0.00     0.165 HD
ATOM     21  C   UNL d   1       5.407  -2.198   3.120  0.00  0.00    -0.002 A 
ATOM     22  C   UNL d   1       6.027  -3.178   5.281  0.00  0.00     0.030 A 
ATOM     23  C   UNL d   1       5.210  -3.491   2.593  0.00  0.00     0.014 A 
ATOM     24  C   UNL d   1       5.422  -4.606   3.410  0.00  0.00     0.001 A 
ATOM     25  C   UNL d   1       5.817  -4.449   4.736  0.00  0.00     0.002 A 
ENDBRANCH  15  16
ENDBRANCH  14  15
ENDBRANCH   1  14
TORSDOF 5
