REMARK  2 active torsions:
REMARK  status: ('A' for Active; 'I' for Inactive)
REMARK    1  A    between atoms: C_6  and  C_1 
REMARK       I    between atoms: N_13  and  C_6 
REMARK    2  A    between atoms: N_15  and  N_13 
ROOT
ATOM      1  C   UNL d   1       2.524   0.123   0.053  0.00  0.00     0.082 A 
ATOM      2  S   UNL d   1       1.673  -1.364   0.033  0.00  0.00    -0.066 SA
ATOM      3  C   UNL d   1       1.647   1.213   0.049  0.00  0.00    -0.026 A 
ATOM      4  C   UNL d   1       0.167  -0.602   0.018  0.00  0.00     0.086 A 
ATOM      5  C   UNL d   1       0.242   0.788   0.021  0.00  0.00     0.011 A 
ATOM      6  N   UNL d   1      -0.937  -1.372   0.005  0.00  0.00    -0.354 N 
ATOM      7  HN  UNL d   1      -0.895  -2.391   0.002  1.00  0.00     0.166 HD
ATOM      8  C   UNL d   1      -1.010   1.474   0.002  0.00  0.00    -0.047 A 
ATOM      9  C   UNL d   1      -2.178   0.683  -0.007  0.00  0.00     0.032 A 
ATOM     10  C   UNL d   1      -2.097  -0.701  -0.004  0.00  0.00     0.006 A 
ATOM     11  C   UNL d   1       2.073   2.650   0.072  0.00  0.00     0.050 C 
ATOM     12  C   UNL d   1      -1.229   2.965  -0.003  0.00  0.00     0.049 C 
ATOM     13  C   UNL d   1      -3.354  -1.521  -0.005  0.00  0.00     0.068 C 
ENDROOT
BRANCH   1  14
ATOM     14  C   UNL d   1       3.993   0.101   0.057  0.00  0.00     0.273 C 
ATOM     15  O   UNL d   1       4.705   1.100  -0.035  0.00  0.00    -0.266 OA
ATOM     16  N   UNL d   1       4.579  -1.166   0.169  0.00  0.00    -0.289 N 
ATOM     17  H   UNL d   1       3.982  -1.976   0.326  0.00  0.00     0.183 HD
BRANCH  16  18
ATOM     18  N   UNL d   1       5.983  -1.316   0.215  0.00  0.00    -0.247 NA
ATOM     19  H   UNL d   1       6.379  -0.378   0.364  0.00  0.00     0.143 HD
ATOM     20  H   UNL d   1       6.300  -1.574  -0.723  0.00  0.00     0.143 HD
ENDBRANCH  16  18
ENDBRANCH   1  14
TORSDOF 2
