REMARK  8 active torsions:
REMARK  status: ('A' for Active; 'I' for Inactive)
REMARK    1  A    between atoms: N_4  and  C_1 
REMARK    2  A    between atoms: C_2  and  C_3 
REMARK       I    between atoms: N_6  and  C_2 
REMARK    3  A    between atoms: O_19  and  C_5 
REMARK       I    between atoms: C_7  and  N_6 
REMARK    4  A    between atoms: O_9  and  C_7 
REMARK    5  A    between atoms: C_8  and  O_9 
REMARK    6  A    between atoms: O_20  and  C_11 
REMARK    7  A    between atoms: O_21  and  C_15 
REMARK    8  A    between atoms: O_22  and  C_16 
ROOT
ATOM      1  C   UNL d   1      -1.306  -2.702   1.017  0.00  0.00     0.265 C 
ATOM      2  N   UNL d   1      -2.666  -2.806   1.263  0.00  0.00    -0.268 N 
ATOM      3  C   UNL d   1      -3.596  -1.790   1.156  0.00  0.00     0.373 C 
ATOM      4  O   UNL d   1      -0.758  -1.686   0.601  0.00  0.00    -0.267 OA
ATOM      5  O   UNL d   1      -3.493  -0.767   0.501  0.00  0.00    -0.238 OA
ATOM      6  H   UNL d   1      -3.013  -3.657   1.673  0.00  0.00     0.174 HD
ENDROOT
BRANCH   1   7
ATOM      7  C   UNL d   1      -0.472  -3.939   1.257  0.00  0.00     0.101 A 
ATOM      8  C   UNL d   1      -0.985  -5.234   0.998  0.00  0.00     0.119 A 
ATOM      9  C   UNL d   1      -0.162  -6.350   1.252  0.00  0.00     0.137 A 
ATOM     10  C   UNL d   1       1.175  -6.221   1.635  0.00  0.00     0.042 A 
ATOM     11  C   UNL d   1       1.690  -4.948   1.858  0.00  0.00     0.040 A 
ATOM     12  C   UNL d   1       0.867  -3.815   1.700  0.00  0.00     0.086 A 
BRANCH   8  13
ATOM     13  O   UNL d   1      -2.289  -5.330   0.585  0.00  0.00    -0.352 OA
ATOM     14  C   UNL d   1      -2.504  -6.132  -0.581  0.00  0.00     0.210 C 
ENDBRANCH   8  13
BRANCH   9  15
ATOM     15  N   UNL d   1      -0.711  -7.695   1.239  0.00  0.00    -0.113 N 
ATOM     16  O   UNL d   1      -1.685  -7.920   1.963  0.00  0.00    -0.532 OA
ATOM     17  O   UNL d   1      -0.145  -8.518   0.504  0.00  0.00    -0.532 OA
ENDBRANCH   9  15
BRANCH  12  18
ATOM     18  O   UNL d   1       1.333  -2.648   2.255  0.00  0.00    -0.355 OA
ATOM     19  C   UNL d   1       2.167  -1.886   1.384  0.00  0.00     0.210 C 
ENDBRANCH  12  18
ENDBRANCH   1   7
BRANCH   3  20
ATOM     20  O   UNL d   1      -4.764  -2.180   1.834  0.00  0.00    -0.255 OA
BRANCH  20  21
ATOM     21  C   UNL d   1      -5.715  -1.201   2.226  0.00  0.00     0.147 A 
ATOM     22  C   UNL d   1      -5.309  -0.053   2.935  0.00  0.00     0.105 A 
ATOM     23  C   UNL d   1      -6.272   0.784   3.516  0.00  0.00     0.040 A 
ATOM     24  C   UNL d   1      -7.629   0.506   3.378  0.00  0.00     0.006 A 
ATOM     25  C   UNL d   1      -8.030  -0.631   2.683  0.00  0.00     0.040 A 
ATOM     26  C   UNL d   1      -7.086  -1.492   2.108  0.00  0.00     0.105 A 
BRANCH  22  27
ATOM     27  O   UNL d   1      -3.978   0.122   3.219  0.00  0.00    -0.353 OA
ATOM     28  C   UNL d   1      -3.484   1.442   2.981  0.00  0.00     0.210 C 
ENDBRANCH  22  27
BRANCH  26  29
ATOM     29  O   UNL d   1      -7.633  -2.640   1.602  0.00  0.00    -0.353 OA
ATOM     30  C   UNL d   1      -7.167  -3.029   0.319  0.00  0.00     0.210 C 
ENDBRANCH  26  29
ENDBRANCH  20  21
ENDBRANCH   3  20
TORSDOF 8
