REMARK  3 active torsions:
REMARK  status: ('A' for Active; 'I' for Inactive)
REMARK    1  A    between atoms: C_2  and  N_1 
REMARK    2  A    between atoms: O_7  and  C_3 
REMARK    3  A    between atoms: C_8  and  O_7 
ROOT
ATOM      1  C   UNL d   1      -0.766   3.290  -0.384  0.00  0.00     0.154 A 
ATOM      2  C   UNL d   1      -0.352   2.052   0.075  0.00  0.00     0.181 A 
ATOM      3  N   UNL d   1       0.659   1.375  -0.536  0.00  0.00    -0.345 N 
ATOM      4  HN  UNL d   1       0.917   0.436  -0.234  1.00  0.00     0.167 HD
ATOM      5  C   UNL d   1      -0.098   3.897  -1.450  0.00  0.00     0.042 A 
ATOM      6  C   UNL d   1       1.309   1.978  -1.552  0.00  0.00     0.090 A 
ATOM      7  C   UNL d   1       0.977   3.233  -2.034  0.00  0.00     0.020 A 
ENDROOT
BRANCH   2   8
ATOM      8  O   UNL d   1      -0.973   1.465   1.173  0.00  0.00    -0.291 OA
BRANCH   8   9
ATOM      9  C   UNL d   1      -0.243   0.524   1.869  0.00  0.00     0.079 A 
ATOM     10  C   UNL d   1       1.104   0.707   2.189  0.00  0.00     0.045 A 
ATOM     11  C   UNL d   1       1.853  -0.330   2.760  0.00  0.00    -0.037 A 
ATOM     12  C   UNL d   1       3.338  -0.140   2.906  0.00  0.00     0.050 C 
ATOM     13  C   UNL d   1       1.201  -1.527   3.114  0.00  0.00     0.046 A 
ATOM     14  C   UNL d   1      -0.182  -1.685   2.889  0.00  0.00    -0.037 A 
ATOM     15 CL   UNL d   1       2.134  -2.812   3.815  0.00  0.00    -0.083 Cl
ATOM     16  C   UNL d   1      -0.892  -0.645   2.258  0.00  0.00     0.045 A 
ATOM     17  C   UNL d   1      -0.955  -2.923   3.260  0.00  0.00     0.050 C 
ENDBRANCH   8   9
ENDBRANCH   2   8
BRANCH   1  18
ATOM     18  N   UNL d   1      -1.877   3.967   0.230  0.00  0.00    -0.111 N 
ATOM     19  O   UNL d   1      -1.822   4.175   1.448  0.00  0.00    -0.532 OA
ATOM     20  O   UNL d   1      -2.783   4.345  -0.523  0.00  0.00    -0.532 OA
ENDBRANCH   1  18
TORSDOF 3
