REMARK  3 active torsions:
REMARK  status: ('A' for Active; 'I' for Inactive)
REMARK    1  A    between atoms: C_5  and  C_1 
REMARK    2  A    between atoms: C_9  and  C_4 
REMARK    3  A    between atoms: C_8  and  C_5 
ROOT
ATOM      1  C   UNL d   1      -0.039  -1.290  -0.010  0.00  0.00     0.075 A 
ATOM      2  N   UNL d   1      -1.303   0.603   0.016  0.00  0.00    -0.259 N 
ATOM      3  HN  UNL d   1      -2.095   1.246   0.007  1.00  0.00     0.195 HD
ATOM      4  C   UNL d   1      -1.367  -0.741   0.046  0.00  0.00     0.082 A 
ATOM      5  O   UNL d   1       0.019   0.945  -0.001  0.00  0.00    -0.241 OA
ATOM      6  C   UNL d   1       0.783  -0.172   0.013  0.00  0.00     0.089 A 
ATOM      7  C   UNL d   1       2.239   0.077   0.089  0.00  0.00     0.080 C 
ENDROOT
BRANCH   1   8
ATOM      8  C   UNL d   1       0.392  -2.680   0.003  0.00  0.00     0.197 C 
ATOM      9  O   UNL d   1      -0.182  -3.542   0.657  0.00  0.00    -0.286 OA
BRANCH   8  10
ATOM     10  C   UNL d   1       1.595  -3.081  -0.787  0.00  0.00     0.015 A 
ATOM     11  C   UNL d   1       1.938  -2.437  -1.987  0.00  0.00     0.018 A 
ATOM     12  C   UNL d   1       3.149  -2.735  -2.617  0.00  0.00     0.043 A 
ATOM     13  C   UNL d   1       3.977  -3.712  -2.083  0.00  0.00     0.116 A 
ATOM     14  C   UNL d   1       3.609  -4.423  -0.945  0.00  0.00     0.043 A 
ATOM     15  F   UNL d   1       5.153  -3.971  -2.671  0.00  0.00    -0.206 F 
ATOM     16  C   UNL d   1       2.412  -4.108  -0.295  0.00  0.00     0.018 A 
ENDBRANCH   8  10
ENDBRANCH   1   8
BRANCH   4  17
ATOM     17  C   UNL d   1      -2.688  -1.385   0.102  0.00  0.00    -0.006 A 
ATOM     18  C   UNL d   1      -2.933  -2.650  -0.447  0.00  0.00     0.014 A 
ATOM     19  C   UNL d   1      -4.213  -3.213  -0.403  0.00  0.00     0.001 A 
ATOM     20  C   UNL d   1      -5.270  -2.516   0.180  0.00  0.00     0.000 A 
ATOM     21  C   UNL d   1      -5.048  -1.257   0.726  0.00  0.00     0.001 A 
ATOM     22  C   UNL d   1      -3.768  -0.699   0.689  0.00  0.00     0.014 A 
ENDBRANCH   4  17
TORSDOF 3
