REMARK  3 active torsions:
REMARK  status: ('A' for Active; 'I' for Inactive)
REMARK    1  A    between atoms: C_11  and  C_2 
REMARK    2  A    between atoms: S_13  and  C_3 
REMARK    3  A    between atoms: C_10  and  N_6 
ROOT
ATOM      1  C   UNL d   1       1.141  -0.353   0.073  0.00  0.00     0.094 C 
ATOM      2  C   UNL d   1       0.208   0.826   0.078  0.00  0.00     0.033 C 
ATOM      3  C   UNL d   1      -1.102   0.513   0.161  0.00  0.00     0.061 C 
ATOM      4  S   UNL d   1       0.343  -1.764   0.740  0.00  0.00    -0.033 SA
ATOM      5  S   UNL d   1      -1.517  -1.190   0.158  0.00  0.00    -0.043 SA
ATOM      6  N   UNL d   1       2.373  -0.261  -0.321  0.00  0.00    -0.349 N 
ATOM      7  HN  UNL d   1       2.692   0.627  -0.710  1.00  0.00     0.166 HD
ENDROOT
BRANCH   2   8
ATOM      8  C   UNL d   1       0.784   2.179   0.104  0.00  0.00    -0.021 A 
ATOM      9  C   UNL d   1       0.855   2.890   1.308  0.00  0.00     0.012 A 
ATOM     10  C   UNL d   1       1.435   4.160   1.343  0.00  0.00     0.001 A 
ATOM     11  C   UNL d   1       1.944   4.726   0.175  0.00  0.00     0.000 A 
ATOM     12  C   UNL d   1       1.878   4.026  -1.028  0.00  0.00     0.001 A 
ATOM     13  C   UNL d   1       1.304   2.754  -1.065  0.00  0.00     0.012 A 
ENDBRANCH   2   8
BRANCH   6  14
ATOM     14  C   UNL d   1       3.289  -1.317  -0.239  0.00  0.00     0.034 A 
ATOM     15  C   UNL d   1       4.481  -1.096   0.455  0.00  0.00     0.053 A 
ATOM     16  C   UNL d   1       5.456  -2.094   0.539  0.00  0.00     0.042 A 
ATOM     17 CL   UNL d   1       6.915  -1.729   1.391  0.00  0.00    -0.084 Cl
ATOM     18  C   UNL d   1       5.253  -3.344  -0.063  0.00  0.00    -0.040 A 
ATOM     19  C   UNL d   1       4.072  -3.549  -0.790  0.00  0.00     0.011 A 
ATOM     20  C   UNL d   1       6.275  -4.443   0.015  0.00  0.00     0.050 C 
ATOM     21  C   UNL d   1       3.112  -2.537  -0.894  0.00  0.00     0.030 A 
ENDBRANCH   6  14
BRANCH   3  22
ATOM     22  S   UNL d   1      -2.427   1.631   0.334  0.00  0.00    -0.126 SA
ATOM     23  C   UNL d   1      -2.192   2.781  -1.035  0.00  0.00     0.096 C 
ENDBRANCH   3  22
TORSDOF 3
