REMARK  4 active torsions:
REMARK  status: ('A' for Active; 'I' for Inactive)
REMARK    1  A    between atoms: C_11  and  C_5 
REMARK    2  A    between atoms: N_12  and  N_6 
REMARK    3  A    between atoms: C_10  and  N_12 
REMARK    4  A    between atoms: O_21  and  C_11 
ROOT
ATOM      1  S   UNL d   1      -1.058  -1.549   0.032  0.00  0.00     0.285 S 
ATOM      2  C   UNL d   1      -2.450  -0.571   0.467  0.00  0.00     0.215 C 
ATOM      3  N   UNL d   1      -1.449  -1.921  -1.573  0.00  0.00    -0.274 N 
ATOM      4  C   UNL d   1      -2.618   0.587  -0.457  0.00  0.00     0.225 C 
ATOM      5  N   UNL d   1      -3.281  -0.940   1.396  0.00  0.00    -0.285 N 
ATOM      6  HN  UNL d   1      -3.093  -1.771   1.957  1.00  0.00     0.188 HD
ATOM      7  C   UNL d   1      -2.376   0.379  -1.907  0.00  0.00     0.045 A 
ATOM      8  C   UNL d   1      -1.875  -0.836  -2.426  0.00  0.00     0.059 A 
ATOM      9  O   UNL d   1       0.078  -0.649   0.019  0.00  0.00    -0.198 OA
ATOM     10  O   UNL d   1      -1.067  -2.759   0.826  0.00  0.00    -0.198 OA
ATOM     11  O   UNL d   1      -3.016   1.653  -0.002  0.00  0.00    -0.284 OA
ATOM     12  C   UNL d   1      -1.407  -3.316  -2.024  0.00  0.00     0.170 C 
ATOM     13  C   UNL d   1      -2.728   1.431  -2.768  0.00  0.00     0.018 A 
ATOM     14  C   UNL d   1      -1.799  -0.979  -3.818  0.00  0.00     0.031 A 
ATOM     15  C   UNL d   1      -2.630   1.270  -4.147  0.00  0.00     0.001 A 
ATOM     16  C   UNL d   1      -2.181   0.062  -4.671  0.00  0.00     0.002 A 
ENDROOT
BRANCH   5  17
ATOM     17  N   UNL d   1      -4.412  -0.201   1.614  0.00  0.00    -0.298 N 
ATOM     18  H   UNL d   1      -4.475   0.754   1.228  0.00  0.00     0.187 HD
BRANCH  17  19
ATOM     19  C   UNL d   1      -5.339  -0.615   2.525  0.00  0.00     0.071 A 
ATOM     20  C   UNL d   1      -6.500   0.057   2.877  0.00  0.00     0.108 A 
ATOM     21  S   UNL d   1      -7.346  -0.796   4.119  0.00  0.00    -0.094 SA
ATOM     22  C   UNL d   1      -6.208  -2.061   4.143  0.00  0.00     0.053 A 
ATOM     23  C   UNL d   1      -5.198  -1.850   3.236  0.00  0.00     0.039 A 
BRANCH  20  24
ATOM     24  C   UNL d   1      -7.100   1.287   2.394  0.00  0.00     0.302 C 
ATOM     25  O   UNL d   1      -8.143   1.788   2.796  0.00  0.00    -0.259 OA
BRANCH  24  26
ATOM     26  O   UNL d   1      -6.355   1.823   1.378  0.00  0.00    -0.322 OA
ATOM     27  C   UNL d   1      -6.924   3.007   0.810  0.00  0.00     0.213 C 
ENDBRANCH  24  26
ENDBRANCH  20  24
ENDBRANCH  17  19
ENDBRANCH   5  17
TORSDOF 4
