REMARK  1 active torsions:
REMARK  status: ('A' for Active; 'I' for Inactive)
REMARK       I    between atoms: C_3  and  N_1 
REMARK    1  A    between atoms: C_6  and  C_3 
ROOT
ATOM      1  N   UNL d   1       2.124   0.734   0.303  0.00  0.00    -0.338 N 
ATOM      2  C   UNL d   1      -0.282   0.627  -0.083  0.00  0.00    -0.022 A 
ATOM      3  C   UNL d   1       3.027   1.120   1.304  0.00  0.00     0.278 C 
ATOM      4  C   UNL d   1       0.941   1.518  -0.119  0.00  0.00     0.117 C 
ATOM      5  C   UNL d   1      -0.215  -0.748   0.027  0.00  0.00    -0.008 A 
ATOM      6  C   UNL d   1       2.239  -0.623  -0.265  0.00  0.00     0.132 C 
ATOM      7  S   UNL d   1      -1.741  -1.491   0.077  0.00  0.00    -0.106 SA
ATOM      8  C   UNL d   1       1.064  -1.519   0.154  0.00  0.00     0.067 C 
ATOM      9  C   UNL d   1      -1.644   1.070  -0.104  0.00  0.00     0.017 A 
ATOM     10  C   UNL d   1      -2.535   0.023  -0.022  0.00  0.00     0.051 A 
ATOM     11  O   UNL d   1       3.857   0.312   1.728  0.00  0.00    -0.265 OA
ATOM     12  C   UNL d   1       1.168   2.132  -1.501  0.00  0.00     0.037 C 
ENDROOT
BRANCH   3  13
ATOM     13  C   UNL d   1       2.965   2.462   1.868  0.00  0.00     0.142 A 
ATOM     14  O   UNL d   1       2.471   3.523   1.154  0.00  0.00    -0.317 OA
ATOM     15  C   UNL d   1       2.514   4.615   1.960  0.00  0.00     0.143 A 
ATOM     16  C   UNL d   1       3.083   4.298   3.169  0.00  0.00     0.027 A 
ATOM     17  C   UNL d   1       3.401   2.921   3.100  0.00  0.00     0.045 A 
ENDBRANCH   3  13
TORSDOF 1
