REMARK  3 active torsions:
REMARK  status: ('A' for Active; 'I' for Inactive)
REMARK    1  A    between atoms: C_2  and  S_1 
REMARK    2  A    between atoms: N_8  and  C_3 
REMARK    3  A    between atoms: C_9  and  N_8 
ROOT
ATOM      1  C   UNL d   1       0.414  -0.131   1.641  0.00  0.00     0.154 C 
ATOM      2  C   UNL d   1      -0.399   0.883   1.988  0.00  0.00     0.124 C 
ATOM      3  C   UNL d   1       0.872  -0.323   0.319  0.00  0.00     0.113 C 
ATOM      4  N   UNL d   1       1.179  -0.431  -0.796  0.00  0.00    -0.191 NA
ENDROOT
BRANCH   1   5
ATOM      5  S   UNL d   1       0.862  -1.316   2.822  0.00  0.00     0.183 S 
ATOM      6  O   UNL d   1       0.761  -0.758   4.159  0.00  0.00    -0.222 OA
ATOM      7  O   UNL d   1       2.087  -1.976   2.412  0.00  0.00    -0.222 OA
ATOM      8  C   UNL d   1      -0.445  -2.511   2.663  0.00  0.00     0.168 C 
ENDBRANCH   1   5
BRANCH   2   9
ATOM      9  N   UNL d   1      -0.897   1.885   1.178  0.00  0.00    -0.349 N 
ATOM     10  H   UNL d   1      -0.431   2.029   0.287  0.00  0.00     0.167 HD
BRANCH   9  11
ATOM     11  C   UNL d   1      -1.675   2.980   1.606  0.00  0.00     0.120 A 
ATOM     12  N   UNL d   1      -2.009   3.126   2.908  0.00  0.00    -0.350 N 
ATOM     13  C   UNL d   1      -2.818   4.170   3.214  0.00  0.00     0.106 A 
ATOM     14  HN  UNL d   1      -1.670   2.483   3.624  1.00  0.00     0.166 HD
ATOM     15  C   UNL d   1      -3.303   5.045   2.258  0.00  0.00     0.104 A 
ATOM     16  N   UNL d   1      -3.001   4.917   0.952  0.00  0.00    -0.371 N 
ATOM     17  C   UNL d   1      -2.191   3.870   0.655  0.00  0.00     0.136 A 
ATOM     18  HN  UNL d   1      -3.354   5.557   0.241  1.00  0.00     0.164 HD
ENDBRANCH   9  11
ENDBRANCH   2   9
TORSDOF 3
