REMARK  4 active torsions:
REMARK  status: ('A' for Active; 'I' for Inactive)
REMARK    1  A    between atoms: C_5  and  N_1 
REMARK    2  A    between atoms: C_8  and  C_4 
REMARK    3  A    between atoms: S_11  and  C_8 
REMARK    4  A    between atoms: C_18  and  S_11 
ROOT
ATOM      1  N   UNL d   1       0.780  -0.802   0.158  0.00  0.00    -0.257 N 
ATOM      2  N   UNL d   1       0.911   0.542   0.233  0.00  0.00    -0.289 N 
ATOM      3  HN  UNL d   1       1.766   1.066   0.421  1.00  0.00     0.188 HD
ATOM      4  C   UNL d   1      -0.312   1.048   0.011  0.00  0.00     0.107 C 
ATOM      5  C   UNL d   1      -0.552  -1.169   0.052  0.00  0.00     0.033 C 
ATOM      6  C   UNL d   1      -1.251   0.004  -0.158  0.00  0.00     0.062 C 
ATOM      7  C   UNL d   1      -1.082  -2.549   0.218  0.00  0.00     0.070 C 
ENDROOT
BRANCH   4   8
ATOM      8  C   UNL d   1      -0.585   2.489  -0.035  0.00  0.00     0.241 C 
ATOM      9  O   UNL d   1      -1.359   3.009  -0.835  0.00  0.00    -0.278 OA
BRANCH   8  10
ATOM     10  S   UNL d   1       0.114   3.393   1.306  0.00  0.00    -0.046 SA
BRANCH  10  11
ATOM     11  C   UNL d   1       1.504   4.225   0.569  0.00  0.00     0.008 A 
ATOM     12  C   UNL d   1       1.701   5.580   0.871  0.00  0.00     0.021 A 
ATOM     13  C   UNL d   1       2.845   6.251   0.428  0.00  0.00     0.025 A 
ATOM     14  C   UNL d   1       3.801   5.569  -0.319  0.00  0.00     0.034 A 
ATOM     15  C   UNL d   1       3.616   4.226  -0.635  0.00  0.00     0.025 A 
ATOM     16 CL   UNL d   1       5.229   6.379  -0.830  0.00  0.00    -0.084 Cl
ATOM     17  C   UNL d   1       2.471   3.557  -0.189  0.00  0.00     0.021 A 
ENDBRANCH  10  11
ENDBRANCH   8  10
ENDBRANCH   4   8
BRANCH   1  18
ATOM     18  C   UNL d   1       1.952  -1.601   0.140  0.00  0.00     0.100 A 
ATOM     19  C   UNL d   1       2.983  -1.362   1.072  0.00  0.00     0.066 A 
ATOM     20  C   UNL d   1       4.172  -2.098   1.015  0.00  0.00     0.050 A 
ATOM     21 CL   UNL d   1       2.851  -0.259   2.403  0.00  0.00    -0.082 Cl
ATOM     22  C   UNL d   1       4.341  -3.073   0.040  0.00  0.00     0.037 A 
ATOM     23  C   UNL d   1       3.338  -3.315  -0.892  0.00  0.00     0.050 A 
ATOM     24 CL   UNL d   1       5.804  -3.974  -0.027  0.00  0.00    -0.084 Cl
ATOM     25  C   UNL d   1       2.152  -2.572  -0.858  0.00  0.00     0.066 A 
ATOM     26 CL   UNL d   1       1.083  -2.823  -2.197  0.00  0.00    -0.082 Cl
ENDBRANCH   1  18
TORSDOF 4
