REMARK  3 active torsions:
REMARK  status: ('A' for Active; 'I' for Inactive)
REMARK    1  A    between atoms: C_5  and  C_4 
REMARK    2  A    between atoms: C_9  and  C_5 
REMARK       I    between atoms: C_6  and  N_10 
REMARK       I    between atoms: N_15  and  C_6 
REMARK       I    between atoms: N_11  and  C_9 
REMARK    3  A    between atoms: N_10  and  N_11 
ROOT
ATOM      1  N   UNL d   1       0.383   1.165  -0.291  0.00  0.00    -0.325 N 
ATOM      2  C   UNL d   1       1.603   0.571  -0.147  0.00  0.00     0.236 C 
ATOM      3  S   UNL d   1       0.443  -1.925   0.013  0.00  0.00    -0.113 SA
ATOM      4  C   UNL d   1       1.704  -0.741   0.615  0.00  0.00     0.153 C 
ATOM      5  C   UNL d   1      -0.860   0.541  -0.105  0.00  0.00     0.051 A 
ATOM      6  C   UNL d   1      -0.980  -0.851   0.032  0.00  0.00     0.028 A 
ATOM      7  O   UNL d   1       2.622   1.177  -0.482  0.00  0.00    -0.272 OA
ATOM      8  C   UNL d   1      -2.000   1.348  -0.098  0.00  0.00     0.031 A 
ATOM      9  C   UNL d   1      -2.252  -1.420   0.144  0.00  0.00     0.021 A 
ATOM     10  C   UNL d   1      -3.390  -0.610   0.159  0.00  0.00     0.002 A 
ATOM     11  C   UNL d   1      -3.262   0.773   0.049  0.00  0.00     0.002 A 
ATOM     12  H   UNL d   1       0.408   2.116  -0.635  0.00  0.00     0.169 HD
ENDROOT
BRANCH   4  13
ATOM     13  C   UNL d   1       1.550  -0.506   2.116  0.00  0.00     0.129 C 
BRANCH  13  14
ATOM     14  C   UNL d   1       2.613   0.318   2.822  0.00  0.00     0.237 C 
ATOM     15  N   UNL d   1       3.648   0.852   2.098  0.00  0.00    -0.266 N 
ATOM     16  H   UNL d   1       3.730   0.875   1.077  0.00  0.00     0.190 HD
ATOM     17  O   UNL d   1       2.536   0.500   4.043  0.00  0.00    -0.272 OA
BRANCH  15  18
ATOM     18  N   UNL d   1       4.559   1.677   2.784  0.00  0.00    -0.249 N 
ATOM     19  C   UNL d   1       5.816   1.822   2.236  0.00  0.00     0.334 C 
ATOM     20  O   UNL d   1       6.120   1.400   1.125  0.00  0.00    -0.246 OA
ATOM     21  N   UNL d   1       6.663   2.516   3.061  0.00  0.00    -0.346 N 
ATOM     22  C   UNL d   1       7.998   2.879   2.657  0.00  0.00     0.151 C 
ATOM     23  H   UNL d   1       6.271   2.959   3.878  0.00  0.00     0.163 HD
ATOM     24  H   UNL d   1       4.461   1.655   3.796  0.00  0.00     0.192 HD
ENDBRANCH  15  18
ENDBRANCH  13  14
ENDBRANCH   4  13
TORSDOF 3
