REMARK  6 active torsions:
REMARK  status: ('A' for Active; 'I' for Inactive)
REMARK    1  A    between atoms: N_2  and  S_1 
REMARK    2  A    between atoms: C_5  and  S_1 
REMARK    3  A    between atoms: C_7  and  N_2 
REMARK    4  A    between atoms: C_6  and  C_3 
REMARK    5  A    between atoms: C_4  and  C_9 
REMARK       I    between atoms: N_10  and  C_6 
REMARK    6  A    between atoms: C_9  and  N_10 
ROOT
ATOM      1  C   UNL d   1       1.967   0.249  -3.001  0.00  0.00     0.059 A 
ATOM      2  C   UNL d   1       0.737  -0.274  -2.564  0.00  0.00     0.058 A 
ATOM      3  C   UNL d   1       2.071   0.760  -4.308  0.00  0.00     0.019 A 
ATOM      4  C   UNL d   1      -0.366  -0.252  -3.430  0.00  0.00     0.031 A 
ATOM      5  C   UNL d   1       0.975   0.755  -5.169  0.00  0.00     0.001 A 
ATOM      6  C   UNL d   1      -0.246   0.256  -4.727  0.00  0.00     0.002 A 
ENDROOT
BRANCH   1   7
ATOM      7  C   UNL d   1       3.233   0.258  -2.221  0.00  0.00     0.254 C 
ATOM      8  N   UNL d   1       3.479  -0.829  -1.413  0.00  0.00    -0.352 N 
ATOM      9  H   UNL d   1       2.708  -1.447  -1.196  0.00  0.00     0.163 HD
ATOM     10  O   UNL d   1       4.029   1.179  -2.374  0.00  0.00    -0.268 OA
BRANCH   8  11
ATOM     11  C   UNL d   1       4.639  -0.836  -0.551  0.00  0.00     0.165 C 
BRANCH  11  12
ATOM     12  C   UNL d   1       5.003  -2.231  -0.111  0.00  0.00     0.003 A 
ATOM     13  C   UNL d   1       5.814  -3.058  -0.914  0.00  0.00     0.043 A 
ATOM     14 CL   UNL d   1       6.424  -2.542  -2.447  0.00  0.00    -0.084 Cl
ATOM     15  C   UNL d   1       6.159  -4.353  -0.505  0.00  0.00     0.024 A 
ATOM     16  C   UNL d   1       5.697  -4.853   0.709  0.00  0.00     0.003 A 
ATOM     17  C   UNL d   1       4.882  -4.060   1.508  0.00  0.00     0.024 A 
ATOM     18  C   UNL d   1       4.531  -2.764   1.102  0.00  0.00     0.043 A 
ATOM     19 CL   UNL d   1       3.489  -1.877   2.157  0.00  0.00    -0.084 Cl
ENDBRANCH  11  12
ENDBRANCH   8  11
ENDBRANCH   1   7
BRANCH   2  20
ATOM     20  N   UNL d   1       0.529  -0.847  -1.271  0.00  0.00    -0.280 N 
ATOM     21  H   UNL d   1      -0.061  -1.680  -1.221  0.00  0.00     0.179 HD
BRANCH  20  22
ATOM     22  S   UNL d   1       0.308   0.145   0.080  0.00  0.00     0.263 S 
ATOM     23  O   UNL d   1       1.392   1.093   0.158  0.00  0.00    -0.200 OA
ATOM     24  O   UNL d   1       0.009  -0.752   1.174  0.00  0.00    -0.200 OA
BRANCH  22  25
ATOM     25  C   UNL d   1      -1.187   1.057  -0.252  0.00  0.00     0.081 A 
ATOM     26  C   UNL d   1      -2.425   0.457   0.019  0.00  0.00     0.050 A 
ATOM     27  C   UNL d   1      -3.597   1.214  -0.074  0.00  0.00     0.057 A 
ATOM     28 CL   UNL d   1      -5.090   0.420   0.278  0.00  0.00    -0.083 Cl
ATOM     29  C   UNL d   1      -3.534   2.570  -0.423  0.00  0.00     0.055 A 
ATOM     30  C   UNL d   1      -2.294   3.160  -0.693  0.00  0.00     0.027 A 
ATOM     31 CL   UNL d   1      -4.936   3.568  -0.512  0.00  0.00    -0.083 Cl
ATOM     32  C   UNL d   1      -1.116   2.408  -0.607  0.00  0.00     0.027 A 
ENDBRANCH  22  25
ENDBRANCH  20  22
ENDBRANCH   2  20
TORSDOF 6
