REMARK  3 active torsions:
REMARK  status: ('A' for Active; 'I' for Inactive)
REMARK       I    between atoms: N_2  and  C_1 
REMARK    1  A    between atoms: C_4  and  C_1 
REMARK    2  A    between atoms: C_8  and  N_3 
REMARK    3  A    between atoms: C_16  and  C_8 
ROOT
ATOM      1  C   UNL d   1       2.160  -0.250   0.235  0.00  0.00     0.253 C 
ATOM      2  N   UNL d   1       2.823  -1.474   0.436  0.00  0.00    -0.345 N 
ATOM      3  N   UNL d   1       4.622  -3.816   0.795  0.00  0.00     0.095 N 
ATOM      4  O   UNL d   1       2.248   0.693   1.024  0.00  0.00    -0.267 OA
ATOM      5  C   UNL d   1       2.992  -2.489  -0.614  0.00  0.00     0.156 C 
ATOM      6  C   UNL d   1       3.886  -1.448   1.448  0.00  0.00     0.156 C 
ATOM      7  C   UNL d   1       4.392  -2.840   1.882  0.00  0.00     0.292 C 
ATOM      8  C   UNL d   1       3.421  -3.857  -0.054  0.00  0.00     0.292 C 
ENDROOT
BRANCH   1   9
ATOM      9  C   UNL d   1       1.405  -0.013  -1.021  0.00  0.00     0.032 A 
ATOM     10  C   UNL d   1       0.427  -0.896  -1.484  0.00  0.00     0.017 A 
ATOM     11  C   UNL d   1      -0.120  -0.722  -2.757  0.00  0.00     0.007 A 
ATOM     12  C   UNL d   1       0.250   0.376  -3.544  0.00  0.00    -0.062 A 
ATOM     13  C   UNL d   1       1.146   1.318  -3.028  0.00  0.00     0.007 A 
ATOM     14  C   UNL d   1      -0.256   0.492  -4.951  0.00  0.00     0.048 C 
ATOM     15  C   UNL d   1       1.721   1.126  -1.770  0.00  0.00     0.017 A 
ENDBRANCH   1   9
BRANCH   3  16
ATOM     16  C   UNL d   1       5.825  -3.526  -0.002  0.00  0.00     0.311 C 
BRANCH  16  17
ATOM     17  C   UNL d   1       7.136  -3.891   0.670  0.00  0.00    -0.030 A 
ATOM     18  C   UNL d   1       7.218  -4.878   1.661  0.00  0.00     0.009 A 
ATOM     19  C   UNL d   1       8.446  -5.223   2.227  0.00  0.00     0.001 A 
ATOM     20  C   UNL d   1       9.614  -4.602   1.789  0.00  0.00     0.000 A 
ATOM     21  C   UNL d   1       9.553  -3.641   0.783  0.00  0.00     0.001 A 
ATOM     22  C   UNL d   1       8.323  -3.288   0.225  0.00  0.00     0.009 A 
ENDBRANCH  16  17
ENDBRANCH   3  16
TORSDOF 3
