REMARK  5 active torsions:
REMARK  status: ('A' for Active; 'I' for Inactive)
REMARK    1  A    between atoms: C_2  and  S_1 
REMARK    2  A    between atoms: C_8  and  S_1 
REMARK    3  A    between atoms: N_23  and  C_5 
REMARK    4  A    between atoms: C_15  and  C_6 
REMARK    5  A    between atoms: C_7  and  C_11 
ROOT
ATOM      1  C   UNL d   1       0.593   0.629   1.650  0.00  0.00     0.119 A 
ATOM      2  N   UNL d   1      -0.076   0.334   3.907  0.00  0.00    -0.331 N 
ATOM      3  HN  UNL d   1      -0.324  -0.274   4.687  1.00  0.00     0.168 HD
ATOM      4  C   UNL d   1       0.237  -0.177   2.702  0.00  0.00     0.102 A 
ATOM      5  C   UNL d   1      -0.051   1.676   4.051  0.00  0.00     0.118 A 
ATOM      6  N   UNL d   1       0.224   2.534   3.051  0.00  0.00    -0.350 N 
ATOM      7  HN  UNL d   1       0.195   3.544   3.187  1.00  0.00     0.166 HD
ATOM      8  C   UNL d   1       0.539   1.986   1.860  0.00  0.00     0.117 A 
ENDROOT
BRANCH   1   9
ATOM      9  S   UNL d   1       1.044   0.024   0.077  0.00  0.00     0.226 S 
ATOM     10  O   UNL d   1       0.727   1.062  -0.892  0.00  0.00    -0.216 OA
ATOM     11  O   UNL d   1       0.445  -1.293  -0.082  0.00  0.00    -0.216 OA
BRANCH   9  12
ATOM     12  C   UNL d   1       2.816  -0.175   0.045  0.00  0.00     0.133 A 
ATOM     13  N   UNL d   1       3.499   0.706   0.824  0.00  0.00    -0.356 N 
ATOM     14  C   UNL d   1       4.849   0.607   0.789  0.00  0.00     0.105 A 
ATOM     15  HN  UNL d   1       3.022   1.399   1.400  1.00  0.00     0.166 HD
ATOM     16  C   UNL d   1       5.542  -0.323   0.021  0.00  0.00     0.063 A 
ATOM     17  C   UNL d   1       4.791  -1.216  -0.757  0.00  0.00     0.020 A 
ATOM     18  C   UNL d   1       3.400  -1.148  -0.750  0.00  0.00     0.043 A 
BRANCH  16  19
ATOM     19  C   UNL d   1       7.042  -0.363   0.028  0.00  0.00     0.418 C 
ATOM     20  F   UNL d   1       7.610   0.598   0.808  0.00  0.00    -0.166 F 
ATOM     21  F   UNL d   1       7.527  -1.549   0.485  0.00  0.00    -0.166 F 
ATOM     22  F   UNL d   1       7.572  -0.196  -1.214  0.00  0.00    -0.166 F 
ENDBRANCH  16  19
ENDBRANCH   9  12
ENDBRANCH   1   9
BRANCH   4  23
ATOM     23  N   UNL d   1       0.264  -1.566   2.660  0.00  0.00    -0.287 NA
ATOM     24  H   UNL d   1      -0.138  -1.933   3.519  0.00  0.00     0.125 HD
ATOM     25  H   UNL d   1      -0.179  -1.952   1.824  0.00  0.00     0.125 HD
ENDBRANCH   4  23
BRANCH   5  26
ATOM     26  C   UNL d   1      -0.262   2.233   5.394  0.00  0.00     0.023 A 
ATOM     27  C   UNL d   1      -0.528   1.421   6.497  0.00  0.00     0.102 A 
ATOM     28  N   UNL d   1      -0.698   1.860   7.773  0.00  0.00    -0.374 N 
ATOM     29  C   UNL d   1      -0.594   3.189   7.973  0.00  0.00     0.087 A 
ATOM     30  HN  UNL d   1      -0.893   1.216   8.539  1.00  0.00     0.164 HD
ATOM     31  C   UNL d   1      -0.336   4.095   6.962  0.00  0.00     0.018 A 
ATOM     32  C   UNL d   1      -0.173   3.608   5.664  0.00  0.00     0.018 A 
ENDBRANCH   5  26
TORSDOF 5
