REMARK  12 active torsions:
REMARK  status: ('A' for Active; 'I' for Inactive)
REMARK    1  A    between atoms: C_1  and  O_7 
REMARK    2  A    between atoms: C_2  and  O_8 
REMARK    3  A    between atoms: C_3  and  O_10 
REMARK    4  A    between atoms: C_4  and  O_9 
REMARK    5  A    between atoms: C_6  and  C_16 
REMARK    6  A    between atoms: C_12  and  O_7 
REMARK    7  A    between atoms: C_11  and  O_8 
REMARK    8  A    between atoms: C_13  and  O_9 
REMARK    9  A    between atoms: C_26  and  O_10 
REMARK   10  A    between atoms: C_14  and  O_18 
REMARK   11  A    between atoms: C_15  and  C_17 
REMARK   12  A    between atoms: O_18  and  C_16 
ROOT
ATOM      1  C   UNL d   1       0.854  -1.423  -0.055  0.00  0.00     0.219 C 
ATOM      2  C   UNL d   1       1.703  -0.145   0.140  0.00  0.00     0.198 C 
ATOM      3  C   UNL d   1      -0.624  -1.259   0.393  0.00  0.00     0.299 C 
ATOM      4  C   UNL d   1       0.978   1.121  -0.338  0.00  0.00     0.195 C 
ATOM      5  O   UNL d   1      -1.159  -0.041  -0.159  0.00  0.00    -0.348 OA
ATOM      6  C   UNL d   1      -0.447   1.132   0.245  0.00  0.00     0.181 C 
ENDROOT
BRANCH   3   7
ATOM      7  O   UNL d   1      -1.440  -2.309  -0.161  0.00  0.00    -0.318 OA
BRANCH   7   8
ATOM      8  C   UNL d   1      -1.554  -3.520   0.452  0.00  0.00     0.072 A 
ATOM      9  C   UNL d   1      -1.121  -3.845   1.731  0.00  0.00     0.038 A 
ATOM     10  C   UNL d   1      -1.173  -5.167   2.182  0.00  0.00     0.018 A 
ATOM     11  C   UNL d   1      -1.749  -6.163   1.389  0.00  0.00     0.009 A 
ATOM     12  C   UNL d   1      -2.278  -5.829   0.142  0.00  0.00     0.018 A 
ATOM     13  C   UNL d   1      -2.170  -4.512  -0.322  0.00  0.00     0.038 A 
BRANCH  11  14
ATOM     14  C   UNL d   1      -1.742  -7.553   1.911  0.00  0.00     0.155 C 
ATOM     15  O   UNL d   1      -0.784  -7.935   2.580  0.00  0.00    -0.293 OA
ATOM     16  C   UNL d   1      -2.921  -8.449   1.649  0.00  0.00     0.096 C 
ENDBRANCH  11  14
ENDBRANCH   7   8
ENDBRANCH   3   7
BRANCH   1  17
ATOM     17  O   UNL d   1       1.541  -2.572   0.521  0.00  0.00    -0.308 OA
BRANCH  17  18
ATOM     18  C   UNL d   1       1.776  -2.571   1.862  0.00  0.00     0.255 C 
ATOM     19  O   UNL d   1       1.315  -1.752   2.646  0.00  0.00    -0.266 OA
ATOM     20  C   UNL d   1       2.611  -3.751   2.251  0.00  0.00     0.126 C 
ENDBRANCH  17  18
ENDBRANCH   1  17
BRANCH   2  21
ATOM     21  O   UNL d   1       2.928  -0.326  -0.620  0.00  0.00    -0.311 OA
BRANCH  21  22
ATOM     22  C   UNL d   1       4.012  -0.810   0.042  0.00  0.00     0.255 C 
ATOM     23  O   UNL d   1       4.113  -0.933   1.253  0.00  0.00    -0.266 OA
ATOM     24  C   UNL d   1       5.027  -1.306  -0.940  0.00  0.00     0.126 C 
ENDBRANCH  21  22
ENDBRANCH   2  21
BRANCH   6  25
ATOM     25  C   UNL d   1      -1.256   2.350  -0.223  0.00  0.00     0.213 C 
BRANCH  25  26
ATOM     26  O   UNL d   1      -0.638   3.587   0.156  0.00  0.00    -0.319 OA
BRANCH  26  27
ATOM     27  C   UNL d   1      -0.834   3.966   1.445  0.00  0.00     0.254 C 
ATOM     28  O   UNL d   1      -1.455   3.325   2.282  0.00  0.00    -0.266 OA
ATOM     29  C   UNL d   1      -0.160   5.274   1.730  0.00  0.00     0.126 C 
ENDBRANCH  26  27
ENDBRANCH  25  26
ENDBRANCH   6  25
BRANCH   4  30
ATOM     30  O   UNL d   1       0.917   1.131  -1.785  0.00  0.00    -0.311 OA
BRANCH  30  31
ATOM     31  C   UNL d   1       1.927   1.798  -2.413  0.00  0.00     0.255 C 
ATOM     32  O   UNL d   1       2.827   2.415  -1.860  0.00  0.00    -0.266 OA
ATOM     33  C   UNL d   1       1.827   1.618  -3.896  0.00  0.00     0.126 C 
ENDBRANCH  30  31
ENDBRANCH   4  30
TORSDOF 12
