REMARK  8 active torsions:
REMARK  status: ('A' for Active; 'I' for Inactive)
REMARK    1  A    between atoms: C_8  and  C_1 
REMARK    2  A    between atoms: C_7  and  C_2 
REMARK    3  A    between atoms: C_12  and  N_3 
REMARK    4  A    between atoms: O_17  and  C_7 
REMARK    5  A    between atoms: N_10  and  C_8 
REMARK    6  A    between atoms: C_9  and  O_16 
REMARK    7  A    between atoms: C_15  and  C_9 
REMARK    8  A    between atoms: O_16  and  N_10 
ROOT
ATOM      1  C   UNL d   1       1.012  -0.895   0.010  0.00  0.00     0.091 C 
ATOM      2  C   UNL d   1      -0.324  -1.295   0.009  0.00  0.00     0.086 C 
ATOM      3  N   UNL d   1       0.994   0.491   0.079  0.00  0.00    -0.255 N 
ATOM      4  N   UNL d   1      -0.265   0.971   0.250  0.00  0.00    -0.303 N 
ATOM      5  HN  UNL d   1      -0.546   1.933   0.441  1.00  0.00     0.186 HD
ATOM      6  C   UNL d   1      -1.050  -0.095   0.112  0.00  0.00     0.127 C 
ENDROOT
BRANCH   1   7
ATOM      7  C   UNL d   1       2.199  -1.710   0.001  0.00  0.00     0.147 C 
BRANCH   7   8
ATOM      8  N   UNL d   1       2.175  -2.859  -0.579  0.00  0.00    -0.266 N 
ATOM      9  HN  UNL d   1       1.356  -3.254  -1.041  1.00  0.00     0.194 HD
BRANCH   8  10
ATOM     10  O   UNL d   1       3.425  -3.500  -0.493  0.00  0.00    -0.195 OA
BRANCH  10  11
ATOM     11  C   UNL d   1       3.520  -4.386  -1.528  0.00  0.00     0.315 C 
ATOM     12  O   UNL d   1       2.735  -4.535  -2.453  0.00  0.00    -0.257 OA
BRANCH  11  13
ATOM     13  C   UNL d   1       4.741  -5.210  -1.415  0.00  0.00     0.041 A 
ATOM     14  C   UNL d   1       5.899  -4.758  -0.773  0.00  0.00     0.017 A 
ATOM     15  C   UNL d   1       7.027  -5.581  -0.723  0.00  0.00     0.001 A 
ATOM     16  C   UNL d   1       7.000  -6.848  -1.311  0.00  0.00     0.000 A 
ATOM     17  C   UNL d   1       5.851  -7.297  -1.959  0.00  0.00     0.001 A 
ATOM     18  C   UNL d   1       4.725  -6.477  -2.017  0.00  0.00     0.017 A 
ENDBRANCH  11  13
ENDBRANCH  10  11
ENDBRANCH   8  10
ENDBRANCH   7   8
ENDBRANCH   1   7
BRANCH   2  19
ATOM     19  C   UNL d   1      -0.856  -2.645   0.036  0.00  0.00     0.296 C 
ATOM     20  O   UNL d   1      -0.261  -3.595   0.541  0.00  0.00    -0.259 OA
BRANCH  19  21
ATOM     21  O   UNL d   1      -2.128  -2.732  -0.460  0.00  0.00    -0.322 OA
ATOM     22  C   UNL d   1      -2.658  -4.058  -0.371  0.00  0.00     0.213 C 
ENDBRANCH  19  21
ENDBRANCH   2  19
BRANCH   3  23
ATOM     23  C   UNL d   1       2.079   1.405  -0.017  0.00  0.00     0.057 A 
ATOM     24  C   UNL d   1       3.212   1.105  -0.784  0.00  0.00     0.031 A 
ATOM     25  C   UNL d   1       4.267   2.016  -0.853  0.00  0.00     0.002 A 
ATOM     26  C   UNL d   1       4.199   3.221  -0.155  0.00  0.00     0.000 A 
ATOM     27  C   UNL d   1       3.066   3.532   0.595  0.00  0.00     0.002 A 
ATOM     28  C   UNL d   1       1.996   2.637   0.649  0.00  0.00     0.031 A 
ENDBRANCH   3  23
TORSDOF 8
