REMARK  1 active torsions:
REMARK  status: ('A' for Active; 'I' for Inactive)
REMARK    1  A    between atoms: C_2  and  C_1 
REMARK       I    between atoms: N_10  and  C_1 
ROOT
ATOM      1  C   UNL d   1       0.170   1.271   0.538  0.00  0.00     0.033 A 
ATOM      2  N   UNL d   1      -2.042   4.686   1.563  0.00  0.00    -0.359 N 
ATOM      3  HN  UNL d   1      -1.973   5.633   1.191  1.00  0.00     0.166 HD
ATOM      4  C   UNL d   1      -2.909   4.287   2.464  0.00  0.00     0.139 A 
ATOM      5  C   UNL d   1      -1.498   2.415   1.849  0.00  0.00     0.033 A 
ATOM      6  S   UNL d   1      -2.794   2.653   2.961  0.00  0.00    -0.083 SA
ATOM      7  C   UNL d   1      -0.775   1.240   1.573  0.00  0.00     0.038 A 
ATOM      8  C   UNL d   1      -1.235   3.622   1.196  0.00  0.00     0.049 A 
ATOM      9  C   UNL d   1       0.481   2.485  -0.087  0.00  0.00     0.019 A 
ATOM     10  C   UNL d   1      -0.201   3.661   0.240  0.00  0.00     0.032 A 
ENDROOT
BRANCH   1  11
ATOM     11  C   UNL d   1       0.919   0.060   0.101  0.00  0.00     0.253 C 
ATOM     12  N   UNL d   1       0.288  -1.178  -0.042  0.00  0.00    -0.357 N 
ATOM     13  C   UNL d   1       1.103  -2.321  -0.427  0.00  0.00     0.152 C 
ATOM     14  C   UNL d   1      -1.123  -1.468   0.166  0.00  0.00     0.152 C 
ATOM     15  O   UNL d   1       2.115   0.224  -0.160  0.00  0.00    -0.267 OA
ENDBRANCH   1  11
TORSDOF 1
