REMARK  4 active torsions:
REMARK  status: ('A' for Active; 'I' for Inactive)
REMARK    1  A    between atoms: C_7  and  C_1 
REMARK    2  A    between atoms: S_10  and  C_8 
REMARK    3  A    between atoms: N_14  and  C_9 
REMARK    4  A    between atoms: C_15  and  S_10 
ROOT
ATOM      1  C   UNL d   1      -1.065   2.440  -0.183  0.00  0.00     0.049 A 
ATOM      2  C   UNL d   1      -1.810   2.662   0.976  0.00  0.00     0.089 A 
ATOM      3  N   UNL d   1      -2.530   3.807   1.156  0.00  0.00    -0.359 N 
ATOM      4  HN  UNL d   1      -3.071   3.954   2.008  1.00  0.00     0.166 HD
ATOM      5  C   UNL d   1      -1.056   3.447  -1.164  0.00  0.00     0.020 A 
ATOM      6  C   UNL d   1      -2.512   4.742   0.180  0.00  0.00     0.089 A 
ATOM      7  C   UNL d   1      -1.791   4.610  -0.987  0.00  0.00     0.018 A 
ENDROOT
BRANCH   1   8
ATOM      8  C   UNL d   1      -0.306   1.226  -0.513  0.00  0.00     0.165 A 
ATOM      9  N   UNL d   1       0.673   1.184  -1.360  0.00  0.00    -0.330 N 
ATOM     10  C   UNL d   1       0.947  -0.152  -1.450  0.00  0.00     0.126 A 
ATOM     11  HN  UNL d   1       1.128   1.959  -1.842  1.00  0.00     0.168 HD
ATOM     12  C   UNL d   1       1.778  -0.759  -2.312  0.00  0.00     0.120 C 
ATOM     13  C   UNL d   1       0.075  -0.919  -0.522  0.00  0.00     0.318 A 
ATOM     14  O   UNL d   1      -0.714   0.054   0.020  0.00  0.00    -0.255 OA
ATOM     15  O   UNL d   1       0.031  -2.112  -0.301  0.00  0.00    -0.257 OA
BRANCH  12  16
ATOM     16  N   UNL d   1       2.598  -0.249  -3.321  0.00  0.00    -0.396 N 
ATOM     17  C   UNL d   1       2.907   1.174  -3.469  0.00  0.00     0.148 C 
ATOM     18  C   UNL d   1       3.427  -1.127  -4.147  0.00  0.00     0.148 C 
ENDBRANCH  12  16
ENDBRANCH   1   8
BRANCH   2  19
ATOM     19  S   UNL d   1      -1.974   1.499   2.315  0.00  0.00    -0.072 SA
BRANCH  19  20
ATOM     20  C   UNL d   1      -0.817   2.108   3.526  0.00  0.00     0.007 A 
ATOM     21  C   UNL d   1      -0.880   3.411   4.033  0.00  0.00     0.020 A 
ATOM     22  C   UNL d   1      -0.012   3.820   5.051  0.00  0.00     0.025 A 
ATOM     23  C   UNL d   1       0.917   2.922   5.573  0.00  0.00     0.034 A 
ATOM     24  C   UNL d   1       0.991   1.623   5.080  0.00  0.00     0.025 A 
ATOM     25 CL   UNL d   1       1.961   3.414   6.849  0.00  0.00    -0.084 Cl
ATOM     26  C   UNL d   1       0.124   1.217   4.060  0.00  0.00     0.020 A 
ENDBRANCH  19  20
ENDBRANCH   2  19
TORSDOF 4
