REMARK  5 active torsions:
REMARK  status: ('A' for Active; 'I' for Inactive)
REMARK    1  A    between atoms: C_2  and  S_1 
REMARK    2  A    between atoms: C_9  and  S_1 
REMARK    3  A    between atoms: N_4  and  C_3 
REMARK    4  A    between atoms: C_6  and  C_7 
REMARK       I    between atoms: N_10  and  C_6 
REMARK    5  A    between atoms: C_19  and  N_10 
ROOT
ATOM      1  C   UNL d   1       0.391  -1.556  -0.215  0.00  0.00     0.097 A 
ATOM      2  C   UNL d   1       1.266  -2.638  -0.206  0.00  0.00     0.125 A 
ATOM      3  C   UNL d   1       0.789  -3.944  -0.403  0.00  0.00     0.054 A 
ATOM      4  C   UNL d   1      -0.586  -4.185  -0.590  0.00  0.00     0.034 A 
ATOM      5  C   UNL d   1      -0.977  -1.793  -0.417  0.00  0.00     0.027 A 
ATOM      6  C   UNL d   1      -1.463  -3.094  -0.577  0.00  0.00     0.018 A 
ENDROOT
BRANCH   4   7
ATOM      7  C   UNL d   1      -1.030  -5.601  -0.827  0.00  0.00     0.256 C 
ATOM      8  N   UNL d   1      -2.381  -5.822  -1.052  0.00  0.00    -0.323 N 
ATOM      9  H   UNL d   1      -3.020  -5.051  -0.988  0.00  0.00     0.169 HD
ATOM     10  O   UNL d   1      -0.154  -6.460  -0.816  0.00  0.00    -0.267 OA
BRANCH   8  11
ATOM     11  C   UNL d   1      -2.974  -7.037  -1.475  0.00  0.00     0.035 A 
ATOM     12  C   UNL d   1      -2.260  -8.217  -1.687  0.00  0.00     0.031 A 
ATOM     13  C   UNL d   1      -2.888  -9.349  -2.217  0.00  0.00     0.026 A 
ATOM     14  C   UNL d   1      -4.245  -9.312  -2.518  0.00  0.00     0.034 A 
ATOM     15  C   UNL d   1      -4.986  -8.162  -2.263  0.00  0.00     0.026 A 
ATOM     16 CL   UNL d   1      -5.001 -10.685  -3.225  0.00  0.00    -0.084 Cl
ATOM     17  C   UNL d   1      -4.351  -7.027  -1.742  0.00  0.00     0.031 A 
ENDBRANCH   8  11
ENDBRANCH   4   7
BRANCH   2  18
ATOM     18  N   UNL d   1       2.672  -2.494   0.105  0.00  0.00    -0.114 N 
ATOM     19  O   UNL d   1       2.943  -2.139   1.258  0.00  0.00    -0.532 OA
ATOM     20  O   UNL d   1       3.481  -2.834  -0.767  0.00  0.00    -0.532 OA
ENDBRANCH   2  18
BRANCH   1  21
ATOM     21  S   UNL d   1       0.894   0.137  -0.046  0.00  0.00     0.209 S 
ATOM     22  O   UNL d   1      -0.003   0.907  -0.893  0.00  0.00    -0.217 OA
ATOM     23  O   UNL d   1       2.320   0.221  -0.257  0.00  0.00    -0.217 OA
BRANCH  21  24
ATOM     24  C   UNL d   1       0.526   0.579   1.636  0.00  0.00     0.064 A 
ATOM     25  C   UNL d   1       1.513   0.491   2.615  0.00  0.00     0.024 A 
ATOM     26  C   UNL d   1       1.199   0.822   3.935  0.00  0.00     0.008 A 
ATOM     27  C   UNL d   1      -0.091   1.257   4.274  0.00  0.00    -0.062 A 
ATOM     28  C   UNL d   1      -1.067   1.358   3.276  0.00  0.00     0.008 A 
ATOM     29  C   UNL d   1      -0.408   1.616   5.697  0.00  0.00     0.048 C 
ATOM     30  C   UNL d   1      -0.762   1.022   1.957  0.00  0.00     0.024 A 
ENDBRANCH  21  24
ENDBRANCH   1  21
TORSDOF 5
