REMARK  4 active torsions:
REMARK  status: ('A' for Active; 'I' for Inactive)
REMARK    1  A    between atoms: N_6  and  C_1 
REMARK    2  A    between atoms: C_4  and  C_9 
REMARK    3  A    between atoms: C_5  and  C_11 
REMARK       I    between atoms: N_7  and  C_8 
REMARK    4  A    between atoms: C_8  and  C_17 
ROOT
ATOM      1  N   UNL d   1       0.361   2.722   0.002  0.00  0.00    -0.255 NA
ATOM      2  C   UNL d   1      -0.138   5.570   0.342  0.00  0.00     0.080 C 
ATOM      3  C   UNL d   1      -0.191   3.194   1.269  0.00  0.00     0.099 C 
ATOM      4  C   UNL d   1       0.024   3.519  -1.181  0.00  0.00     0.099 C 
ATOM      5  C   UNL d   1       0.425   4.982  -0.963  0.00  0.00     0.029 C 
ATOM      6  C   UNL d   1       0.232   4.646   1.507  0.00  0.00     0.029 C 
ENDROOT
BRANCH   2   7
ATOM      7  C   UNL d   1      -1.653   5.803   0.234  0.00  0.00     0.228 C 
ATOM      8  N   UNL d   1      -2.321   6.349   1.339  0.00  0.00    -0.326 N 
ATOM      9  C   UNL d   1      -3.705   6.338   1.325  0.00  0.00     0.096 C 
ATOM     10  C   UNL d   1      -1.722   7.385   2.198  0.00  0.00     0.151 C 
ATOM     11  C   UNL d   1      -4.491   6.434   2.401  0.00  0.00     0.051 C 
ATOM     12  C   UNL d   1      -4.016   6.232   3.801  0.00  0.00     0.113 C 
ATOM     13  N   UNL d   1      -2.881   6.528   4.316  0.00  0.00    -0.384 N 
ATOM     14  C   UNL d   1      -1.708   7.112   3.694  0.00  0.00     0.140 C 
ATOM     15  HN  UNL d   1      -2.788   6.323   5.311  1.00  0.00     0.159 HD
ATOM     16  O   UNL d   1      -2.266   5.448  -0.778  0.00  0.00    -0.273 OA
BRANCH  12  17
ATOM     17  C   UNL d   1      -5.043   5.525   4.717  0.00  0.00     0.432 C 
ATOM     18  F   UNL d   1      -6.222   5.250   4.087  0.00  0.00    -0.165 F 
ATOM     19  F   UNL d   1      -4.579   4.330   5.178  0.00  0.00    -0.165 F 
ATOM     20  F   UNL d   1      -5.364   6.269   5.808  0.00  0.00    -0.165 F 
ENDBRANCH  12  17
ENDBRANCH   2   7
BRANCH   1  21
ATOM     21  C   UNL d   1       0.218   1.343  -0.194  0.00  0.00     0.159 A 
ATOM     22  N   UNL d   1       0.141   0.872  -1.448  0.00  0.00    -0.329 N 
ATOM     23  C   UNL d   1       0.037  -0.465  -1.651  0.00  0.00     0.120 A 
ATOM     24  HN  UNL d   1       0.159   1.514  -2.241  1.00  0.00     0.168 HD
ATOM     25  C   UNL d   1       0.028  -1.357  -0.600  0.00  0.00     0.051 A 
ATOM     26  C   UNL d   1       0.116  -0.801   0.649  0.00  0.00     0.093 A 
ATOM     27  N   UNL d   1       0.205   0.524   0.869  0.00  0.00    -0.343 N 
ATOM     28  HN  UNL d   1       0.261   0.895   1.817  1.00  0.00     0.167 HD
BRANCH  23  29
ATOM     29  C   UNL d   1      -0.067  -0.986  -3.072  0.00  0.00     0.432 C 
ATOM     30  F   UNL d   1      -0.082  -0.017  -4.030  0.00  0.00    -0.165 F 
ATOM     31  F   UNL d   1       0.966  -1.816  -3.399  0.00  0.00    -0.165 F 
ATOM     32  F   UNL d   1      -1.200  -1.723  -3.272  0.00  0.00    -0.165 F 
ENDBRANCH  23  29
ENDBRANCH   1  21
TORSDOF 4
