REMARK  7 active torsions:
REMARK  status: ('A' for Active; 'I' for Inactive)
REMARK       I    between atoms: N_2  and  C_1 
REMARK    1  A    between atoms: C_3  and  C_1 
REMARK       I    between atoms: C_4  and  N_2 
REMARK    2  A    between atoms: O_8  and  C_4 
REMARK    3  A    between atoms: C_10  and  O_8 
REMARK    4  A    between atoms: C_18  and  C_10 
REMARK    5  A    between atoms: C_19  and  C_10 
REMARK    6  A    between atoms: S_13  and  C_18 
REMARK    7  A    between atoms: S_14  and  C_19 
ROOT
ATOM      1  C   UNL d   1       0.496  -4.265   1.816  0.00  0.00     0.263 C 
ATOM      2  N   UNL d   1       0.138  -3.066   1.221  0.00  0.00    -0.269 N 
ATOM      3  C   UNL d   1       0.907  -1.955   0.981  0.00  0.00     0.367 C 
ATOM      4  O   UNL d   1       1.539  -4.482   2.417  0.00  0.00    -0.267 OA
ATOM      5  O   UNL d   1       0.524  -1.107   0.176  0.00  0.00    -0.238 OA
ATOM      6  H   UNL d   1      -0.749  -3.012   0.743  0.00  0.00     0.174 HD
ENDROOT
BRANCH   1   7
ATOM      7  C   UNL d   1      -0.517  -5.355   1.727  0.00  0.00     0.075 A 
ATOM      8  C   UNL d   1      -0.131  -6.642   1.308  0.00  0.00     0.051 A 
ATOM      9 CL   UNL d   1       1.448  -7.008   0.705  0.00  0.00    -0.083 Cl
ATOM     10  C   UNL d   1      -1.055  -7.698   1.308  0.00  0.00     0.025 A 
ATOM     11  C   UNL d   1      -2.371  -7.486   1.708  0.00  0.00     0.003 A 
ATOM     12  C   UNL d   1      -2.771  -6.212   2.100  0.00  0.00     0.025 A 
ATOM     13  C   UNL d   1      -1.853  -5.152   2.117  0.00  0.00     0.051 A 
ATOM     14 CL   UNL d   1      -2.464  -3.625   2.653  0.00  0.00    -0.083 Cl
ENDBRANCH   1   7
BRANCH   3  15
ATOM     15  O   UNL d   1       2.081  -1.910   1.647  0.00  0.00    -0.297 OA
BRANCH  15  16
ATOM     16  C   UNL d   1       3.081  -0.915   1.305  0.00  0.00     0.152 C 
BRANCH  16  17
ATOM     17  C   UNL d   1       3.659  -1.165  -0.105  0.00  0.00     0.107 C 
BRANCH  17  18
ATOM     18  S   UNL d   1       4.511  -2.778  -0.267  0.00  0.00    -0.171 SA
ATOM     19  C   UNL d   1       6.020  -2.436   0.677  0.00  0.00     0.089 C 
ENDBRANCH  17  18
ENDBRANCH  16  17
BRANCH  16  20
ATOM     20  C   UNL d   1       2.618   0.552   1.437  0.00  0.00     0.107 C 
BRANCH  20  21
ATOM     21  S   UNL d   1       2.242   1.010   3.165  0.00  0.00    -0.171 SA
ATOM     22  C   UNL d   1       1.821   2.748   2.890  0.00  0.00     0.089 C 
ENDBRANCH  20  21
ENDBRANCH  16  20
ENDBRANCH  15  16
ENDBRANCH   3  15
TORSDOF 7
