REMARK  5 active torsions:
REMARK  status: ('A' for Active; 'I' for Inactive)
REMARK       I    between atoms: N_2  and  C_1 
REMARK    1  A    between atoms: C_3  and  C_1 
REMARK    2  A    between atoms: N_4  and  N_2 
REMARK    3  A    between atoms: C_11  and  N_4 
REMARK    4  A    between atoms: C_12  and  C_5 
REMARK    5  A    between atoms: C_18  and  C_17 
ROOT
ATOM      1  C   UNL d   1       0.937   0.091  -0.502  0.00  0.00     0.266 C 
ATOM      2  N   UNL d   1       0.150  -0.910  -1.053  0.00  0.00    -0.283 N 
ATOM      3  O   UNL d   1       2.164   0.034  -0.447  0.00  0.00    -0.266 OA
ATOM      4  H   UNL d   1      -0.805  -1.027  -0.732  0.00  0.00     0.184 HD
ENDROOT
BRANCH   2   5
ATOM      5  N   UNL d   1       0.824  -2.093  -1.420  0.00  0.00    -0.203 NA
ATOM      6  H   UNL d   1       1.831  -1.903  -1.499  0.00  0.00     0.153 HD
BRANCH   5   7
ATOM      7  C   UNL d   1       0.318  -2.711  -2.591  0.00  0.00     0.027 A 
ATOM      8  C   UNL d   1       1.204  -3.380  -3.445  0.00  0.00     0.026 A 
ATOM      9  C   UNL d   1       0.740  -4.119  -4.540  0.00  0.00     0.009 A 
ATOM     10  C   UNL d   1      -0.631  -4.238  -4.797  0.00  0.00    -0.055 A 
ATOM     11  C   UNL d   1      -1.522  -3.580  -3.940  0.00  0.00     0.009 A 
ATOM     12  C   UNL d   1      -1.054  -2.835  -2.849  0.00  0.00     0.026 A 
BRANCH  10  13
ATOM     13  C   UNL d   1      -1.159  -5.085  -5.942  0.00  0.00     0.010 C 
ATOM     14  C   UNL d   1      -0.680  -4.569  -7.301  0.00  0.00     0.015 C 
ATOM     15  C   UNL d   1      -0.791  -6.561  -5.762  0.00  0.00     0.015 C 
ENDBRANCH  10  13
ENDBRANCH   5   7
ENDBRANCH   2   5
BRANCH   1  16
ATOM     16  C   UNL d   1       0.204   1.263   0.043  0.00  0.00     0.033 A 
ATOM     17  C   UNL d   1       0.751   1.972   1.119  0.00  0.00     0.017 A 
ATOM     18  C   UNL d   1       0.121   3.127   1.591  0.00  0.00     0.008 A 
ATOM     19  C   UNL d   1      -1.049   3.599   0.978  0.00  0.00    -0.059 A 
ATOM     20  C   UNL d   1      -1.605   2.869  -0.082  0.00  0.00     0.008 A 
ATOM     21  C   UNL d   1      -0.982   1.710  -0.551  0.00  0.00     0.017 A 
BRANCH  19  22
ATOM     22  C   UNL d   1      -1.690   4.887   1.430  0.00  0.00     0.034 C 
ATOM     23  C   UNL d   1      -2.766   4.670   2.480  0.00  0.00     0.010 C 
ENDBRANCH  19  22
ENDBRANCH   1  16
TORSDOF 5
