REMARK  5 active torsions:
REMARK  status: ('A' for Active; 'I' for Inactive)
REMARK    1  A    between atoms: C_2  and  C_1 
REMARK    2  A    between atoms: O_4  and  C_1 
REMARK    3  A    between atoms: C_10  and  O_4 
REMARK    4  A    between atoms: O_9  and  C_11 
REMARK    5  A    between atoms: C_12  and  O_9 
ROOT
ATOM      1  C   UNL d   1      -1.144   1.210  -0.215  0.00  0.00     0.079 A 
ATOM      2  C   UNL d   1      -3.912   1.334  -0.010  0.00  0.00     0.076 A 
ATOM      3  C   UNL d   1      -1.770   0.695   0.918  0.00  0.00     0.040 A 
ATOM      4  C   UNL d   1      -1.880   1.867  -1.203  0.00  0.00     0.040 A 
ATOM      5  C   UNL d   1      -3.270   1.927  -1.099  0.00  0.00     0.040 A 
ATOM      6  C   UNL d   1      -3.160   0.764   1.023  0.00  0.00     0.040 A 
ENDROOT
BRANCH   1   7
ATOM      7  O   UNL d   1       0.248   1.155  -0.412  0.00  0.00    -0.275 OA
BRANCH   7   8
ATOM      8  C   UNL d   1       0.929  -0.045  -0.181  0.00  0.00     0.305 C 
ATOM      9  O   UNL d   1       0.429  -1.060   0.291  0.00  0.00    -0.258 OA
BRANCH   8  10
ATOM     10  C   UNL d   1       2.323   0.055  -0.587  0.00  0.00     0.080 A 
ATOM     11  S   UNL d   1       2.954   1.410  -1.428  0.00  0.00    -0.096 SA
ATOM     12  C   UNL d   1       4.507   0.705  -1.546  0.00  0.00     0.050 A 
ATOM     13  C   UNL d   1       4.561  -0.531  -0.943  0.00  0.00     0.009 A 
ATOM     14  C   UNL d   1       3.302  -0.905  -0.392  0.00  0.00     0.025 A 
ENDBRANCH   8  10
ENDBRANCH   7   8
ENDBRANCH   1   7
BRANCH   2  15
ATOM     15  O   UNL d   1      -5.286   1.398   0.009  0.00  0.00    -0.311 OA
BRANCH  15  16
ATOM     16  C   UNL d   1      -5.996   0.273   0.371  0.00  0.00     0.076 A 
ATOM     17  C   UNL d   1      -7.234   0.500   0.976  0.00  0.00     0.037 A 
ATOM     18  C   UNL d   1      -8.027  -0.576   1.380  0.00  0.00     0.003 A 
ATOM     19  C   UNL d   1      -7.585  -1.883   1.173  0.00  0.00     0.000 A 
ATOM     20  C   UNL d   1      -6.365  -2.114   0.540  0.00  0.00     0.003 A 
ATOM     21  C   UNL d   1      -5.579  -1.038   0.121  0.00  0.00     0.037 A 
ENDBRANCH  15  16
ENDBRANCH   2  15
TORSDOF 5
