REMARK  6 active torsions:
REMARK  status: ('A' for Active; 'I' for Inactive)
REMARK    1  A    between atoms: C_3  and  C_1 
REMARK    2  A    between atoms: S_14  and  C_6 
REMARK    3  A    between atoms: C_19  and  S_14 
REMARK    4  A    between atoms: C_15  and  C_19 
REMARK       I    between atoms: N_16  and  C_15 
REMARK    5  A    between atoms: C_23  and  N_16 
REMARK    6  A    between atoms: C_24  and  C_17 
ROOT
ATOM      1  C   UNL d   1      -0.469   1.010  -0.839  0.00  0.00     0.151 A 
ATOM      2  N   UNL d   1      -0.816  -0.275  -0.491  0.00  0.00    -0.314 N 
ATOM      3  N   UNL d   1       0.847   1.119  -0.795  0.00  0.00    -0.281 N 
ATOM      4  HN  UNL d   1       1.381   1.972  -0.963  1.00  0.00     0.188 HD
ATOM      5  C   UNL d   1       0.370  -0.944  -0.344  0.00  0.00     0.163 A 
ATOM      6  N   UNL d   1       1.373  -0.111  -0.486  0.00  0.00    -0.278 N 
ATOM      7  HN  UNL d   1       2.363  -0.335  -0.386  1.00  0.00     0.189 HD
ATOM      8  C   UNL d   1      -2.127  -0.837  -0.311  0.00  0.00     0.160 C 
ENDROOT
BRANCH   5   9
ATOM      9  S   UNL d   1       0.494  -2.653  -0.073  0.00  0.00    -0.083 SA
BRANCH   9  10
ATOM     10  C   UNL d   1       2.300  -2.823  -0.042  0.00  0.00     0.185 C 
BRANCH  10  11
ATOM     11  C   UNL d   1       2.822  -4.250   0.020  0.00  0.00     0.231 C 
ATOM     12  N   UNL d   1       1.916  -5.266  -0.226  0.00  0.00    -0.327 N 
ATOM     13  H   UNL d   1       0.988  -4.982  -0.518  0.00  0.00     0.169 HD
ATOM     14  O   UNL d   1       4.024  -4.417   0.245  0.00  0.00    -0.272 OA
BRANCH  12  15
ATOM     15  C   UNL d   1       2.144  -6.655  -0.092  0.00  0.00     0.034 A 
ATOM     16  C   UNL d   1       3.319  -7.190   0.438  0.00  0.00     0.030 A 
ATOM     17  C   UNL d   1       3.467  -8.570   0.611  0.00  0.00     0.010 A 
ATOM     18  C   UNL d   1       2.445  -9.457   0.258  0.00  0.00    -0.055 A 
ATOM     19  C   UNL d   1       1.276  -8.922  -0.299  0.00  0.00     0.010 A 
ATOM     20  C   UNL d   1       1.126  -7.537  -0.470  0.00  0.00     0.030 A 
BRANCH  18  21
ATOM     21  C   UNL d   1       2.579 -10.948   0.511  0.00  0.00     0.010 C 
ATOM     22  C   UNL d   1       3.783 -11.555  -0.215  0.00  0.00     0.015 C 
ATOM     23  C   UNL d   1       2.659 -11.238   2.014  0.00  0.00     0.015 C 
ENDBRANCH  18  21
ENDBRANCH  12  15
ENDBRANCH  10  11
ENDBRANCH   9  10
ENDBRANCH   5   9
BRANCH   1  24
ATOM     24  C   UNL d   1      -1.370   2.128  -1.252  0.00  0.00     0.085 A 
ATOM     25  N   UNL d   1      -2.745   1.993  -1.306  0.00  0.00    -0.351 N 
ATOM     26  C   UNL d   1      -3.291   3.103  -1.753  0.00  0.00     0.047 A 
ATOM     27  HN  UNL d   1      -3.260   1.155  -1.038  1.00  0.00     0.166 HD
ATOM     28  C   UNL d   1      -4.753   3.284  -1.960  0.00  0.00     0.076 C 
ATOM     29  S   UNL d   1      -2.193   4.370  -2.125  0.00  0.00    -0.087 SA
ATOM     30  C   UNL d   1      -0.890   3.361  -1.650  0.00  0.00     0.084 A 
ENDBRANCH   1  24
TORSDOF 6
