REMARK  2 active torsions:
REMARK  status: ('A' for Active; 'I' for Inactive)
REMARK    1  A    between atoms: C_6  and  N_1 
REMARK    2  A    between atoms: N_13  and  C_2 
ROOT
ATOM      1  N   UNL d   1       0.962  -0.571  -0.040  0.00  0.00    -0.238 N 
ATOM      2  C   UNL d   1       0.900   0.743   0.467  0.00  0.00     0.143 A 
ATOM      3  N   UNL d   1      -0.248  -0.963  -0.520  0.00  0.00    -0.302 N 
ATOM      4  HN  UNL d   1      -0.483  -1.858  -0.950  1.00  0.00     0.186 HD
ATOM      5  C   UNL d   1      -0.410   1.145   0.300  0.00  0.00     0.106 A 
ATOM      6  C   UNL d   1      -1.061   0.070  -0.310  0.00  0.00     0.134 A 
ATOM      7  C   UNL d   1      -0.969   2.414   0.623  0.00  0.00     0.104 C 
ATOM      8  N   UNL d   1      -1.412   3.455   0.874  0.00  0.00    -0.191 NA
ENDROOT
BRANCH   2   9
ATOM      9  N   UNL d   1       1.966   1.447   0.945  0.00  0.00    -0.383 N 
ATOM     10  H   UNL d   1       2.919   1.202   0.676  0.00  0.00     0.157 HD
ATOM     11  H   UNL d   1       1.877   2.448   1.123  0.00  0.00     0.157 HD
ENDBRANCH   2   9
BRANCH   1  12
ATOM     12  C   UNL d   1       2.074  -1.465  -0.051  0.00  0.00     0.080 A 
ATOM     13  C   UNL d   1       2.264  -2.421  -1.067  0.00  0.00     0.064 A 
ATOM     14  C   UNL d   1       3.397  -3.248  -1.045  0.00  0.00     0.050 A 
ATOM     15 CL   UNL d   1       1.260  -2.590  -2.468  0.00  0.00    -0.082 Cl
ATOM     16  C   UNL d   1       4.333  -3.134  -0.021  0.00  0.00     0.035 A 
ATOM     17  C   UNL d   1       4.144  -2.214   1.003  0.00  0.00     0.026 A 
ATOM     18 CL   UNL d   1       5.736  -4.127  -0.029  0.00  0.00    -0.084 Cl
ATOM     19  C   UNL d   1       3.015  -1.391   0.995  0.00  0.00     0.035 A 
ENDBRANCH   1  12
TORSDOF 2
