REMARK  4 active torsions:
REMARK  status: ('A' for Active; 'I' for Inactive)
REMARK    1  A    between atoms: C_9  and  N_2 
REMARK    2  A    between atoms: O_16  and  C_6 
REMARK    3  A    between atoms: O_17  and  C_8 
REMARK    4  A    between atoms: C_13  and  C_9 
ROOT
ATOM      1  C   UNL d   1      -1.297   0.808   0.237  0.00  0.00     0.254 C 
ATOM      2  N   UNL d   1      -2.220  -0.234   0.194  0.00  0.00    -0.343 N 
ATOM      3  C   UNL d   1       0.145   0.451   0.102  0.00  0.00     0.041 A 
ATOM      4  C   UNL d   1       0.555  -0.884   0.143  0.00  0.00    -0.038 A 
ATOM      5  C   UNL d   1       1.087   1.474  -0.060  0.00  0.00     0.057 A 
ATOM      6  C   UNL d   1       2.455   1.192  -0.181  0.00  0.00     0.102 A 
ATOM      7  C   UNL d   1       1.921  -1.170   0.047  0.00  0.00     0.047 A 
ATOM      8  C   UNL d   1       2.877  -0.150  -0.114  0.00  0.00     0.102 A 
ATOM      9  C   UNL d   1      -1.806  -1.565  -0.233  0.00  0.00     0.131 C 
ATOM     10  O   UNL d   1      -1.611   1.987   0.373  0.00  0.00    -0.267 OA
ATOM     11  C   UNL d   1      -0.457  -1.973   0.353  0.00  0.00     0.059 C 
ENDROOT
BRANCH   2  12
ATOM     12  C   UNL d   1      -3.640   0.093   0.139  0.00  0.00     0.164 C 
BRANCH  12  13
ATOM     13  C   UNL d   1      -4.340  -0.018   1.475  0.00  0.00    -0.039 A 
ATOM     14  C   UNL d   1      -5.380  -0.940   1.662  0.00  0.00     0.032 A 
ATOM     15  C   UNL d   1      -6.095  -0.962   2.862  0.00  0.00     0.034 A 
ATOM     16 CL   UNL d   1      -7.394  -2.074   3.059  0.00  0.00    -0.084 Cl
ATOM     17  C   UNL d   1      -5.781  -0.078   3.892  0.00  0.00     0.024 A 
ATOM     18  C   UNL d   1      -4.737   0.829   3.725  0.00  0.00     0.002 A 
ATOM     19  C   UNL d   1      -4.022   0.858   2.525  0.00  0.00     0.009 A 
ENDBRANCH  12  13
ENDBRANCH   2  12
BRANCH   6  20
ATOM     20  O   UNL d   1       3.399   2.167  -0.364  0.00  0.00    -0.353 OA
ATOM     21  C   UNL d   1       2.964   3.517  -0.466  0.00  0.00     0.210 C 
ENDBRANCH   6  20
BRANCH   8  22
ATOM     22  O   UNL d   1       4.151  -0.651  -0.193  0.00  0.00    -0.353 OA
ATOM     23  C   UNL d   1       5.245   0.253  -0.233  0.00  0.00     0.210 C 
ENDBRANCH   8  22
TORSDOF 4
