REMARK  5 active torsions:
REMARK  status: ('A' for Active; 'I' for Inactive)
REMARK    1  A    between atoms: C_7  and  C_1 
REMARK    2  A    between atoms: C_6  and  CA_9 
REMARK    3  A    between atoms: OXT_15  and  C_6 
REMARK    4  A    between atoms: CA_9  and  C_7 
REMARK    5  A    between atoms: N_13  and  CA_9 
ROOT
ATOM      1  C   UNL d   1       2.237  -0.807   0.126  0.00  0.00    -0.028 A 
ATOM      2  N   UNL d   1       1.758   1.372   0.049  0.00  0.00    -0.365 N 
ATOM      3  C   UNL d   1       0.548   0.721   0.095  0.00  0.00     0.045 A 
ATOM      4  C   UNL d   1       0.815  -0.645   0.214  0.00  0.00    -0.002 A 
ATOM      5  C   UNL d   1       2.778   0.462   0.052  0.00  0.00     0.096 A 
ATOM      6  C   UNL d   1      -0.751   1.239   0.040  0.00  0.00     0.072 A 
ATOM      7  C   UNL d   1      -0.275  -1.536   0.326  0.00  0.00     0.017 A 
ATOM      8  C   UNL d   1      -1.802   0.329   0.118  0.00  0.00     0.118 A 
ATOM      9  C   UNL d   1      -1.582  -1.034   0.271  0.00  0.00     0.043 A 
ATOM     10  F   UNL d   1      -3.061   0.782   0.042  0.00  0.00    -0.206 F 
ATOM     11  H   UNL d   1       1.872   2.376  -0.010  0.00  0.00     0.165 HD
ENDROOT
BRANCH   1  12
ATOM     12  C   UNL d   1       3.018  -2.086   0.067  0.00  0.00     0.087 C 
BRANCH  12  13
ATOM     13  CA  UNL d   1       2.699  -2.967  -1.153  0.00  0.00     0.318 C 
BRANCH  13  14
ATOM     14  C   UNL d   1       3.042  -2.291  -2.497  0.00  0.00     0.174 C 
ATOM     15  O   UNL d   1       3.970  -2.653  -3.215  0.00  0.00    -0.648 OA
BRANCH  14  16
ATOM     16  OXT UNL d   1       2.206  -1.302  -2.878  0.00  0.00    -0.775 OA
ATOM     17  HXT UNL d   1       1.513  -1.079  -2.224  0.00  0.00     0.167 HD
ENDBRANCH  14  16
ENDBRANCH  13  14
BRANCH  13  18
ATOM     18  N   UNL d   1       3.472  -4.237  -1.042  0.00  0.00     0.093 N 
ATOM     19  H1  UNL d   1       4.460  -4.003  -1.193  0.00  0.00     0.314 HD
ATOM     20  H2  UNL d   1       3.252  -4.810  -1.861  0.00  0.00     0.314 HD
ENDBRANCH  13  18
ENDBRANCH  12  13
ENDBRANCH   1  12
TORSDOF 5
