REMARK  4 active torsions:
REMARK  status: ('A' for Active; 'I' for Inactive)
REMARK    1  A    between atoms: S_10  and  C_2 
REMARK    2  A    between atoms: C_7  and  C_4 
REMARK    3  A    between atoms: O_13  and  C_7 
REMARK    4  A    between atoms: C_19  and  O_13 
ROOT
ATOM      1  C   UNL d   1       0.151   0.939   0.103  0.00  0.00     0.002 C 
ATOM      2  C   UNL d   1       1.498   1.182  -0.158  0.00  0.00     0.051 C 
ATOM      3  C   UNL d   1      -0.153  -0.474  -0.101  0.00  0.00    -0.024 C 
ATOM      4  C   UNL d   1       0.992  -1.248  -0.237  0.00  0.00     0.088 C 
ATOM      5  S   UNL d   1       2.372  -0.265  -0.413  0.00  0.00    -0.076 SA
ATOM      6  C   UNL d   1      -0.936   1.907   0.575  0.00  0.00     0.085 C 
ATOM      7  S   UNL d   1      -1.036   3.437  -0.427  0.00  0.00    -0.142 SA
ATOM      8  S   UNL d   1      -0.573   2.360   2.338  0.00  0.00    -0.142 SA
ATOM      9  C   UNL d   1      -1.567  -0.984  -0.080  0.00  0.00     0.041 C 
ATOM     10  C   UNL d   1      -2.367   1.279   0.599  0.00  0.00     0.037 C 
ATOM     11  C   UNL d   1      -2.555   0.134  -0.396  0.00  0.00     0.007 C 
ATOM     12  C   UNL d   1      -1.388   4.545   0.963  0.00  0.00     0.086 C 
ATOM     13  C   UNL d   1      -0.496   4.150   2.121  0.00  0.00     0.086 C 
ENDROOT
BRANCH   4  14
ATOM     14  C   UNL d   1       1.170  -2.688  -0.290  0.00  0.00     0.300 C 
ATOM     15  O   UNL d   1       2.207  -3.284  -0.574  0.00  0.00    -0.259 OA
BRANCH  14  16
ATOM     16  O   UNL d   1      -0.009  -3.315  -0.020  0.00  0.00    -0.317 OA
BRANCH  16  17
ATOM     17  C   UNL d   1      -0.088  -4.688  -0.415  0.00  0.00     0.174 C 
ATOM     18  C   UNL d   1      -0.415  -4.738  -1.898  0.00  0.00     0.034 C 
ENDBRANCH  16  17
ENDBRANCH  14  16
ENDBRANCH   4  14
BRANCH   2  19
ATOM     19  S   UNL d   1       2.371   2.720  -0.138  0.00  0.00    -0.126 SA
ATOM     20  C   UNL d   1       3.084   2.757  -1.805  0.00  0.00     0.096 C 
ENDBRANCH   2  19
TORSDOF 4
