REMARK  8 active torsions:
REMARK  status: ('A' for Active; 'I' for Inactive)
REMARK    1  A    between atoms: C_8  and  S_1 
REMARK    2  A    between atoms: C_14  and  S_1 
REMARK    3  A    between atoms: C_2  and  C_3 
REMARK    4  A    between atoms: O_4  and  C_2 
REMARK    5  A    between atoms: C_6  and  O_4 
REMARK    6  A    between atoms: C_5  and  S_17 
REMARK    7  A    between atoms: C_20  and  C_8 
REMARK    8  A    between atoms: S_17  and  C_20 
ROOT
ATOM      1  C   UNL d   1       0.573   1.083  -5.802  0.00  0.00     0.073 A 
ATOM      2  C   UNL d   1       0.792  -0.302  -5.849  0.00  0.00     0.086 A 
ATOM      3  N   UNL d   1       1.254  -0.918  -6.974  0.00  0.00    -0.360 N 
ATOM      4  HN  UNL d   1       1.393  -1.929  -6.997  1.00  0.00     0.166 HD
ATOM      5  C   UNL d   1       0.877   1.836  -6.951  0.00  0.00     0.022 A 
ATOM      6  C   UNL d   1       1.521  -0.157  -8.060  0.00  0.00     0.089 A 
ATOM      7  C   UNL d   1       1.361   1.212  -8.095  0.00  0.00     0.018 A 
ENDROOT
BRANCH   2   8
ATOM      8  S   UNL d   1       0.639  -1.392  -4.439  0.00  0.00    -0.110 SA
BRANCH   8   9
ATOM      9  C   UNL d   1       0.417  -3.053  -5.218  0.00  0.00     0.096 C 
BRANCH   9  10
ATOM     10  C   UNL d   1       1.661  -3.878  -5.570  0.00  0.00     0.156 C 
BRANCH  10  11
ATOM     11  S   UNL d   1       2.637  -4.316  -4.148  0.00  0.00     0.176 S 
ATOM     12  O   UNL d   1       1.750  -4.916  -3.170  0.00  0.00    -0.223 OA
ATOM     13  O   UNL d   1       3.481  -3.189  -3.794  0.00  0.00    -0.223 OA
BRANCH  11  14
ATOM     14  C   UNL d   1       3.759  -5.612  -4.677  0.00  0.00     0.059 A 
ATOM     15  C   UNL d   1       4.861  -5.290  -5.476  0.00  0.00     0.023 A 
ATOM     16  C   UNL d   1       5.839  -6.258  -5.732  0.00  0.00     0.002 A 
ATOM     17  C   UNL d   1       5.722  -7.538  -5.186  0.00  0.00     0.000 A 
ATOM     18  C   UNL d   1       4.620  -7.859  -4.394  0.00  0.00     0.002 A 
ATOM     19  C   UNL d   1       3.636  -6.899  -4.136  0.00  0.00     0.023 A 
ENDBRANCH  11  14
ENDBRANCH  10  11
ENDBRANCH   9  10
ENDBRANCH   8   9
ENDBRANCH   2   8
BRANCH   1  20
ATOM     20  C   UNL d   1       0.025   1.873  -4.667  0.00  0.00     0.301 C 
ATOM     21  O   UNL d   1       0.376   3.022  -4.438  0.00  0.00    -0.259 OA
BRANCH  20  22
ATOM     22  O   UNL d   1      -1.051   1.219  -4.100  0.00  0.00    -0.273 OA
BRANCH  22  23
ATOM     23  C   UNL d   1      -2.003   2.091  -3.545  0.00  0.00     0.101 A 
ATOM     24  C   UNL d   1      -3.108   2.475  -4.318  0.00  0.00     0.069 A 
ATOM     25  C   UNL d   1      -4.131   3.234  -3.750  0.00  0.00     0.050 A 
ATOM     26 CL   UNL d   1      -3.245   2.007  -5.974  0.00  0.00    -0.081 Cl
ATOM     27  C   UNL d   1      -4.045   3.606  -2.409  0.00  0.00     0.035 A 
ATOM     28  C   UNL d   1      -2.938   3.241  -1.639  0.00  0.00     0.026 A 
ATOM     29 CL   UNL d   1      -5.329   4.503  -1.694  0.00  0.00    -0.084 Cl
ATOM     30  C   UNL d   1      -1.911   2.474  -2.205  0.00  0.00     0.041 A 
ENDBRANCH  22  23
ENDBRANCH  20  22
ENDBRANCH   1  20
TORSDOF 8
