REMARK  3 active torsions:
REMARK  status: ('A' for Active; 'I' for Inactive)
REMARK    1  A    between atoms: C_7  and  C_1 
REMARK    2  A    between atoms: C_9  and  C_5 
REMARK       I    between atoms: N_8  and  C_7 
REMARK    3  A    between atoms: C_11  and  N_8 
ROOT
ATOM      1  C   UNL d   1      -0.204  -1.076  -0.229  0.00  0.00     0.097 A 
ATOM      2  S   UNL d   1       1.308  -0.295  -0.445  0.00  0.00    -0.064 SA
ATOM      3  N   UNL d   1      -0.739   1.188   0.006  0.00  0.00    -0.352 N 
ATOM      4  HN  UNL d   1      -1.332   2.002   0.172  1.00  0.00     0.166 HD
ATOM      5  C   UNL d   1       0.559   1.239  -0.206  0.00  0.00     0.085 A 
ATOM      6  C   UNL d   1      -1.189  -0.118  -0.028  0.00  0.00     0.029 A 
ATOM      7  C   UNL d   1      -2.647  -0.359   0.166  0.00  0.00     0.070 C 
ENDROOT
BRANCH   1   8
ATOM      8  C   UNL d   1      -0.387  -2.522  -0.241  0.00  0.00     0.265 C 
ATOM      9  N   UNL d   1       0.737  -3.283  -0.528  0.00  0.00    -0.322 N 
ATOM     10  H   UNL d   1       1.605  -2.776  -0.648  0.00  0.00     0.169 HD
ATOM     11  O   UNL d   1      -1.484  -3.010   0.021  0.00  0.00    -0.267 OA
BRANCH   9  12
ATOM     12  C   UNL d   1       0.815  -4.696  -0.540  0.00  0.00     0.035 A 
ATOM     13  C   UNL d   1      -0.302  -5.537  -0.483  0.00  0.00     0.029 A 
ATOM     14  C   UNL d   1      -0.153  -6.925  -0.428  0.00  0.00     0.002 A 
ATOM     15  C   UNL d   1       1.117  -7.492  -0.439  0.00  0.00     0.000 A 
ATOM     16  C   UNL d   1       2.237  -6.669  -0.532  0.00  0.00     0.002 A 
ATOM     17  C   UNL d   1       2.087  -5.279  -0.593  0.00  0.00     0.029 A 
ENDBRANCH   9  12
ENDBRANCH   1   8
BRANCH   5  18
ATOM     18  C   UNL d   1       1.334   2.487  -0.181  0.00  0.00    -0.002 A 
ATOM     19  C   UNL d   1       2.364   2.758  -1.092  0.00  0.00     0.014 A 
ATOM     20  C   UNL d   1       3.046   3.980  -1.052  0.00  0.00     0.001 A 
ATOM     21  C   UNL d   1       2.709   4.941  -0.101  0.00  0.00     0.000 A 
ATOM     22  C   UNL d   1       1.685   4.690   0.808  0.00  0.00     0.001 A 
ATOM     23  C   UNL d   1       1.000   3.474   0.762  0.00  0.00     0.014 A 
ENDBRANCH   5  18
TORSDOF 3
