REMARK  6 active torsions:
REMARK  status: ('A' for Active; 'I' for Inactive)
REMARK    1  A    between atoms: C_6  and  N_1 
REMARK    2  A    between atoms: C_14  and  C_2 
REMARK    3  A    between atoms: C_8  and  C_11 
REMARK    4  A    between atoms: O_17  and  N_12 
REMARK    5  A    between atoms: C_16  and  O_17 
REMARK    6  A    between atoms: C_19  and  C_16 
ROOT
ATOM      1  N   UNL d   1      -3.944   4.091   0.032  0.00  0.00    -0.244 N 
ATOM      2  C   UNL d   1      -2.015   2.949   0.015  0.00  0.00     0.029 A 
ATOM      3  C   UNL d   1      -2.559   4.230  -0.073  0.00  0.00     0.046 A 
ATOM      4  N   UNL d   1      -4.300   2.781   0.158  0.00  0.00    -0.303 N 
ATOM      5  HN  UNL d   1      -5.240   2.396   0.250  1.00  0.00     0.186 HD
ATOM      6  C   UNL d   1      -3.148   2.116   0.133  0.00  0.00     0.123 A 
ATOM      7  C   UNL d   1      -1.907   5.569  -0.206  0.00  0.00     0.071 C 
ENDROOT
BRANCH   2   8
ATOM      8  C   UNL d   1      -0.604   2.544   0.012  0.00  0.00     0.042 C 
ATOM      9  N   UNL d   1       0.265   3.501  -0.051  0.00  0.00    -0.261 N 
ATOM     10  HN  UNL d   1      -0.008   4.480  -0.125  1.00  0.00     0.194 HD
ATOM     11  C   UNL d   1      -0.259   1.077   0.105  0.00  0.00     0.071 C 
BRANCH   9  12
ATOM     12  O   UNL d   1       1.611   3.099  -0.013  0.00  0.00    -0.195 OA
BRANCH  12  13
ATOM     13  C   UNL d   1       2.397   4.218  -0.135  0.00  0.00     0.315 C 
ATOM     14  O   UNL d   1       2.014   5.368  -0.327  0.00  0.00    -0.257 OA
BRANCH  13  15
ATOM     15  C   UNL d   1       3.841   3.897   0.012  0.00  0.00     0.041 A 
ATOM     16  C   UNL d   1       4.747   4.972  -0.012  0.00  0.00     0.019 A 
ATOM     17  C   UNL d   1       6.119   4.753   0.132  0.00  0.00     0.025 A 
ATOM     18  C   UNL d   1       6.592   3.455   0.299  0.00  0.00     0.034 A 
ATOM     19  C   UNL d   1       5.706   2.377   0.323  0.00  0.00     0.025 A 
ATOM     20 CL   UNL d   1       8.281   3.181   0.481  0.00  0.00    -0.084 Cl
ATOM     21  C   UNL d   1       4.329   2.595   0.179  0.00  0.00     0.019 A 
ENDBRANCH  13  15
ENDBRANCH  12  13
ENDBRANCH   9  12
ENDBRANCH   2   8
BRANCH   1  22
ATOM     22  C   UNL d   1      -4.944   5.128   0.044  0.00  0.00     0.128 A 
ATOM     23  N   UNL d   1      -4.557   6.409  -0.186  0.00  0.00    -0.345 N 
ATOM     24  C   UNL d   1      -5.476   7.396  -0.150  0.00  0.00     0.007 A 
ATOM     25  HN  UNL d   1      -3.580   6.622  -0.384  1.00  0.00     0.167 HD
ATOM     26  C   UNL d   1      -4.988   8.786  -0.422  0.00  0.00     0.068 C 
ATOM     27  C   UNL d   1      -6.809   7.150   0.135  0.00  0.00     0.041 A 
ATOM     28  C   UNL d   1      -7.221   5.834   0.379  0.00  0.00     0.053 A 
ATOM     29  C   UNL d   1      -6.271   4.804   0.315  0.00  0.00     0.066 A 
BRANCH  28  30
ATOM     30  C   UNL d   1      -8.660   5.562   0.728  0.00  0.00     0.417 C 
ATOM     31  F   UNL d   1      -8.943   4.245   0.919  0.00  0.00    -0.166 F 
ATOM     32  F   UNL d   1      -9.038   6.196   1.873  0.00  0.00    -0.166 F 
ATOM     33  F   UNL d   1      -9.519   5.996  -0.235  0.00  0.00    -0.166 F 
ENDBRANCH  28  30
ENDBRANCH   1  22
TORSDOF 6
