REMARK  9 active torsions:
REMARK  status: ('A' for Active; 'I' for Inactive)
REMARK    1  A    between atoms: N_2  and  S_1 
REMARK    2  A    between atoms: C_8  and  S_1 
REMARK    3  A    between atoms: C_4  and  N_2 
REMARK    4  A    between atoms: C_16  and  N_2 
REMARK    5  A    between atoms: C_5  and  C_3 
REMARK       I    between atoms: N_9  and  C_5 
REMARK    6  A    between atoms: C_13  and  N_9 
REMARK    7  A    between atoms: C_10  and  C_13 
REMARK    8  A    between atoms: O_18  and  C_10 
REMARK    9  A    between atoms: C_14  and  C_16 
ROOT
ATOM      1  C   UNL d   1      -0.009  -3.239  -1.120  0.00  0.00     0.059 A 
ATOM      2  C   UNL d   1      -0.353  -1.887  -1.343  0.00  0.00     0.061 A 
ATOM      3  C   UNL d   1      -1.042  -4.157  -0.842  0.00  0.00     0.019 A 
ATOM      4  C   UNL d   1      -1.701  -1.499  -1.309  0.00  0.00     0.031 A 
ATOM      5  C   UNL d   1      -2.379  -3.754  -0.795  0.00  0.00     0.001 A 
ATOM      6  C   UNL d   1      -2.708  -2.426  -1.039  0.00  0.00     0.002 A 
ENDROOT
BRANCH   2   7
ATOM      7  N   UNL d   1       0.660  -0.878  -1.552  0.00  0.00    -0.267 N 
BRANCH   7   8
ATOM      8  S   UNL d   1       1.146  -0.006  -0.160  0.00  0.00     0.265 S 
ATOM      9  O   UNL d   1       2.557   0.261  -0.369  0.00  0.00    -0.200 OA
ATOM     10  O   UNL d   1       0.727  -0.729   1.020  0.00  0.00    -0.200 OA
BRANCH   8  11
ATOM     11  C   UNL d   1       0.284   1.543  -0.213  0.00  0.00     0.080 A 
ATOM     12  C   UNL d   1      -0.987   1.665   0.352  0.00  0.00     0.025 A 
ATOM     13  C   UNL d   1      -1.609   2.916   0.374  0.00  0.00     0.002 A 
ATOM     14  C   UNL d   1      -0.953   4.037  -0.142  0.00  0.00     0.000 A 
ATOM     15  C   UNL d   1       0.326   3.914  -0.683  0.00  0.00     0.002 A 
ATOM     16  C   UNL d   1       0.950   2.669  -0.715  0.00  0.00     0.025 A 
ENDBRANCH   8  11
ENDBRANCH   7   8
BRANCH   7  17
ATOM     17  C   UNL d   1       0.685  -0.136  -2.834  0.00  0.00     0.168 C 
BRANCH  17  18
ATOM     18  C   UNL d   1       0.819  -1.092  -3.986  0.00  0.00    -0.016 C 
ATOM     19  C   UNL d   1      -0.022  -1.161  -5.026  0.00  0.00     0.008 C 
ENDBRANCH  17  18
ENDBRANCH   7  17
ENDBRANCH   2   7
BRANCH   1  20
ATOM     20  C   UNL d   1       1.365  -3.841  -1.235  0.00  0.00     0.254 C 
ATOM     21  N   UNL d   1       2.473  -3.015  -1.203  0.00  0.00    -0.347 N 
ATOM     22  H   UNL d   1       2.342  -2.100  -0.794  0.00  0.00     0.163 HD
ATOM     23  O   UNL d   1       1.482  -5.058  -1.351  0.00  0.00    -0.268 OA
BRANCH  21  24
ATOM     24  C   UNL d   1       3.829  -3.577  -1.136  0.00  0.00     0.232 C 
BRANCH  24  25
ATOM     25  C   UNL d   1       4.816  -2.827  -2.026  0.00  0.00     0.158 C 
ATOM     26  O   UNL d   1       6.014  -3.061  -2.083  0.00  0.00    -0.649 OA
BRANCH  25  27
ATOM     27  O   UNL d   1       4.222  -1.874  -2.788  0.00  0.00    -0.775 OA
ATOM     28  H   UNL d   1       3.265  -1.889  -2.592  0.00  0.00     0.167 HD
ENDBRANCH  25  27
ENDBRANCH  24  25
ENDBRANCH  21  24
ENDBRANCH   1  20
TORSDOF 9
