REMARK  4 active torsions:
REMARK  status: ('A' for Active; 'I' for Inactive)
REMARK    1  A    between atoms: C_6  and  C_1 
REMARK    2  A    between atoms: C_4  and  C_7 
REMARK       I    between atoms: N_9  and  C_6 
REMARK    3  A    between atoms: C_18  and  N_9 
REMARK    4  A    between atoms: C_10  and  C_18 
ROOT
ATOM      1  C   UNL d   1      -1.708   0.206   0.024  0.00  0.00     0.054 A 
ATOM      2  N   UNL d   1       0.547   1.087   0.138  0.00  0.00    -0.355 N 
ATOM      3  HN  UNL d   1       1.172   1.890   0.203  1.00  0.00     0.166 HD
ATOM      4  C   UNL d   1      -0.810   1.276   0.090  0.00  0.00     0.021 A 
ATOM      5  C   UNL d   1       1.058  -0.173   0.099  0.00  0.00     0.117 A 
ATOM      6  C   UNL d   1      -1.151  -1.087   0.019  0.00  0.00     0.021 A 
ATOM      7  C   UNL d   1       0.227  -1.285   0.055  0.00  0.00     0.035 A 
ATOM      8  C   UNL d   1      -1.198   2.722   0.095  0.00  0.00     0.069 C 
ENDROOT
BRANCH   1   9
ATOM      9  C   UNL d   1      -3.195   0.259  -0.143  0.00  0.00     0.253 C 
ATOM     10  N   UNL d   1      -3.893   1.408   0.160  0.00  0.00    -0.356 N 
ATOM     11  H   UNL d   1      -3.471   2.163   0.672  0.00  0.00     0.162 HD
ATOM     12  O   UNL d   1      -3.770  -0.750  -0.552  0.00  0.00    -0.268 OA
BRANCH  10  13
ATOM     13  C   UNL d   1      -5.322   1.494  -0.061  0.00  0.00     0.127 C 
BRANCH  13  14
ATOM     14  C   UNL d   1      -6.050   1.470   1.246  0.00  0.00     0.003 A 
ATOM     15  C   UNL d   1      -5.967   0.283   2.176  0.00  0.00     0.007 A 
ATOM     16  C   UNL d   1      -7.238   0.555   1.424  0.00  0.00     0.007 A 
ENDBRANCH  13  14
ENDBRANCH  10  13
ENDBRANCH   1   9
BRANCH   5  17
ATOM     17  C   UNL d   1       2.568  -0.386   0.081  0.00  0.00     0.432 C 
ATOM     18  F   UNL d   1       3.297   0.764   0.094  0.00  0.00    -0.165 F 
ATOM     19  F   UNL d   1       3.004  -1.117   1.147  0.00  0.00    -0.165 F 
ATOM     20  F   UNL d   1       2.982  -1.075  -1.025  0.00  0.00    -0.165 F 
ENDBRANCH   5  17
TORSDOF 4
