REMARK  7 active torsions:
REMARK  status: ('A' for Active; 'I' for Inactive)
REMARK    1  A    between atoms: C_13  and  C_5 
REMARK    2  A    between atoms: N_7  and  C_9 
REMARK    3  A    between atoms: N_8  and  C_14 
REMARK    4  A    between atoms: O_20  and  C_13 
REMARK    5  A    between atoms: O_29  and  N_16 
REMARK    6  A    between atoms: C_25  and  O_20 
REMARK    7  A    between atoms: C_21  and  C_25 
ROOT
ATOM      1  C   UNL d   1       0.715  -0.275  -0.311  0.00  0.00     0.004 C 
ATOM      2  C   UNL d   1       1.271   0.998  -0.067  0.00  0.00     0.008 C 
ATOM      3  C   UNL d   1      -1.082   1.231  -0.206  0.00  0.00     0.007 C 
ATOM      4  C   UNL d   1      -0.713  -0.083  -0.551  0.00  0.00    -0.011 C 
ATOM      5  C   UNL d   1       1.552  -1.393  -0.201  0.00  0.00     0.053 C 
ATOM      6  C   UNL d   1       0.172   1.983   0.026  0.00  0.00     0.076 C 
ATOM      7  C   UNL d   1       3.470   0.147   0.023  0.00  0.00     0.104 C 
ATOM      8  C   UNL d   1       2.623   1.251   0.083  0.00  0.00     0.050 C 
ATOM      9  C   UNL d   1       2.945  -1.159  -0.086  0.00  0.00     0.054 C 
ATOM     10  C   UNL d   1      -2.401   1.656  -0.169  0.00  0.00     0.050 C 
ATOM     11  C   UNL d   1      -3.372   0.759  -0.624  0.00  0.00     0.103 C 
ATOM     12  C   UNL d   1      -1.669  -0.902  -1.135  0.00  0.00     0.016 C 
ATOM     13  N   UNL d   1       0.406   3.239   0.225  0.00  0.00    -0.268 N 
ATOM     14  HN  UNL d   1       1.337   3.623   0.385  1.00  0.00     0.194 HD
ATOM     15  C   UNL d   1      -3.005  -0.484  -1.171  0.00  0.00     0.037 C 
ENDROOT
BRANCH   5  16
ATOM     16  C   UNL d   1       1.029  -2.798  -0.081  0.00  0.00     0.294 C 
ATOM     17  O   UNL d   1      -0.126  -3.135  -0.246  0.00  0.00    -0.259 OA
BRANCH  16  18
ATOM     18  O   UNL d   1       2.028  -3.635   0.300  0.00  0.00    -0.313 OA
BRANCH  18  19
ATOM     19  C   UNL d   1       1.723  -5.032   0.437  0.00  0.00     0.219 C 
BRANCH  19  20
ATOM     20  C   UNL d   1       1.786  -5.594   1.849  0.00  0.00    -0.017 A 
ATOM     21  C   UNL d   1       2.614  -5.142   2.889  0.00  0.00     0.019 A 
ATOM     22 BR   UNL d   1       3.766  -3.638   2.756  0.00  0.00    -0.050 Br
ATOM     23  C   UNL d   1       2.661  -5.825   4.116  0.00  0.00     0.020 A 
ATOM     24  C   UNL d   1       1.903  -6.978   4.322  0.00  0.00     0.001 A 
ATOM     25  C   UNL d   1       1.087  -7.449   3.306  0.00  0.00     0.001 A 
ATOM     26  C   UNL d   1       1.027  -6.764   2.087  0.00  0.00     0.011 A 
ENDBRANCH  19  20
ENDBRANCH  18  19
ENDBRANCH  16  18
ENDBRANCH   5  16
BRANCH   7  27
ATOM     27  N   UNL d   1       4.923   0.348   0.095  0.00  0.00    -0.116 N 
ATOM     28  O   UNL d   1       5.340   1.509   0.183  0.00  0.00    -0.532 OA
ATOM     29  O   UNL d   1       5.644  -0.660   0.044  0.00  0.00    -0.532 OA
ENDBRANCH   7  27
BRANCH  13  30
ATOM     30  O   UNL d   1      -0.756   4.013   0.196  0.00  0.00    -0.289 OA
ATOM     31  H   UNL d   1      -0.408   4.921   0.276  0.00  0.00     0.244 HD
ENDBRANCH  13  30
BRANCH  11  32
ATOM     32  N   UNL d   1      -4.792   1.114  -0.525  0.00  0.00    -0.116 N 
ATOM     33  O   UNL d   1      -5.087   2.136   0.111  0.00  0.00    -0.532 OA
ATOM     34  O   UNL d   1      -5.613   0.359  -1.064  0.00  0.00    -0.532 OA
ENDBRANCH  11  32
TORSDOF 7
