REMARK  23 active torsions:
REMARK  status: ('A' for Active; 'I' for Inactive)
REMARK    1  A    between atoms: N_3  and  S_1 
REMARK    2  A    between atoms: C_4  and  S_1 
REMARK       I    between atoms: N_2  and  C_5 
REMARK       I    between atoms: C_13  and  N_3 
REMARK    3  A    between atoms: C_5  and  C_7 
REMARK    4  A    between atoms: C_7  and  N_10 
REMARK    5  A    between atoms: C_24  and  C_7 
REMARK    6  A    between atoms: C_8  and  C_9 
REMARK       I    between atoms: N_66  and  C_8 
REMARK       I    between atoms: N_10  and  C_12 
REMARK    7  A    between atoms: C_12  and  C_20 
REMARK       I    between atoms: N_21  and  C_13 
REMARK    8  A    between atoms: O_31  and  C_15 
REMARK       I    between atoms: C16_54  and  N_16 
REMARK    9  A    between atoms: N_16  and  C_20 
REMARK   10  A    between atoms: C_20  and  C_37 
REMARK   11  A    between atoms: O_27  and  C_24 
REMARK   12  A    between atoms: C_29  and  O_27 
REMARK   13  A    between atoms: C_41  and  N_28 
REMARK   14  A    between atoms: C_37  and  C_43 
REMARK   15  A    between atoms: C_43  and  C_41 
REMARK   16  A    between atoms: C6_49  and  C21_55 
REMARK   17  A    between atoms: O4_56  and  C16_54 
REMARK   18  A    between atoms: C21_55  and  O4_56 
REMARK   19  A    between atoms: CA_67  and  N_66 
REMARK   20  A    between atoms: C_68  and  CA_67 
REMARK   21  A    between atoms: CB_70  and  CA_67 
REMARK   22  A    between atoms: OXT_71  and  C_68 
REMARK   23  A    between atoms: CG_72  and  CB_70 
ROOT
ATOM      1  C   UNK d   1      -0.136  -7.497  -5.145  0.00  0.00     0.179 C 
ENDROOT
BRANCH   1   2
ATOM      2  C   UNK d   1      -1.689  -7.235  -5.222  0.00  0.00     0.241 C 
ATOM      3  N   UNK d   1      -2.520  -8.213  -5.726  0.00  0.00    -0.344 N 
ATOM      4  H   UNK d   1      -2.107  -8.970  -6.278  0.00  0.00     0.163 HD
ATOM      5  O   UNK d   1      -2.192  -6.238  -4.695  0.00  0.00    -0.271 OA
BRANCH   3   6
ATOM      6  C   UNK d   1      -3.979  -7.955  -5.895  0.00  0.00     0.200 C 
BRANCH   6   7
ATOM      7  C   UNK d   1      -4.404  -8.351  -7.321  0.00  0.00     0.245 C 
ATOM      8  N   UNK d   1      -5.502  -7.751  -7.925  0.00  0.00    -0.337 N 
ATOM      9  C   UNK d   1      -5.630  -7.683  -9.391  0.00  0.00     0.179 C 
ATOM     10  C   UNK d   1      -6.178  -6.560  -7.407  0.00  0.00     0.127 C 
ATOM     11  C   UNK d   1      -5.291  -6.214  -9.649  0.00  0.00     0.037 C 
ATOM     12  C   UNK d   1      -5.969  -5.486  -8.484  0.00  0.00     0.022 C 
ATOM     13  O   UNK d   1      -3.756  -9.221  -7.911  0.00  0.00    -0.271 OA
BRANCH   9  14
ATOM     14  C   UNK d   1      -5.098  -8.605 -10.523  0.00  0.00     0.241 C 
ATOM     15  N   LEU d   2      -4.652  -9.844 -10.161  0.00  0.00    -0.345 N 
ATOM     16  H   LEU d   2      -4.516 -10.001  -9.162  0.00  0.00     0.163 HD
ATOM     17  O   UNK d   1      -5.240  -8.275 -11.701  0.00  0.00    -0.271 OA
BRANCH  15  18
ATOM     18  CA  LEU d   2      -4.527 -10.995 -11.047  0.00  0.00     0.182 C 
BRANCH  18  19
ATOM     19  C   LEU d   2      -5.965 -11.467 -11.304  0.00  0.00     0.163 C 
ATOM     20  O   LEU d   2      -6.727 -11.914 -10.456  0.00  0.00    -0.648 OA
BRANCH  19  21
ATOM     21  OXT LEU d   2      -6.429 -11.216 -12.543  0.00  0.00    -0.775 OA
ATOM     22  HXT LEU d   2      -7.393 -11.366 -12.472  0.00  0.00     0.167 HD
ENDBRANCH  19  21
ENDBRANCH  18  19
BRANCH  18  23
ATOM     23  CB  LEU d   2      -3.690 -10.840 -12.330  0.00  0.00     0.040 C 
BRANCH  23  24
ATOM     24  CG  LEU d   2      -2.162 -11.003 -12.177  0.00  0.00    -0.020 C 
ATOM     25  CD1 LEU d   2      -1.530 -11.086 -13.575  0.00  0.00     0.009 C 
ATOM     26  CD2 LEU d   2      -1.500  -9.875 -11.389  0.00  0.00     0.009 C 
ENDBRANCH  23  24
ENDBRANCH  18  23
ENDBRANCH  15  18
ENDBRANCH   9  14
ENDBRANCH   6   7
BRANCH   6  27
ATOM     27  C   UNK d   1      -4.872  -8.535  -4.770  0.00  0.00     0.203 C 
BRANCH  27  28
ATOM     28  O   UNK d   1      -5.614  -9.724  -5.056  0.00  0.00    -0.379 OA
BRANCH  28  29
ATOM     29  C   UNK d   1      -5.130 -11.003  -4.619  0.00  0.00     0.050 C 
ATOM     30  C   UNK d   1      -4.705 -11.033  -3.144  0.00  0.00     0.045 C 
ATOM     31  C   UNK d   1      -6.313 -11.979  -4.778  0.00  0.00     0.045 C 
ATOM     32  C   UNK d   1      -3.998 -11.476  -5.527  0.00  0.00     0.045 C 
ENDBRANCH  28  29
ENDBRANCH  27  28
ENDBRANCH   6  27
ENDBRANCH   3   6
ENDBRANCH   1   2
BRANCH   1  33
ATOM     33  N   UNK d   1       0.570  -8.087  -6.311  0.00  0.00    -0.324 N 
ATOM     34  C16 <1> d   1       0.441  -9.384  -6.712  0.00  0.00     0.361 C 
ATOM     35  O7  <1> d   1      -0.606 -10.014  -6.688  0.00  0.00    -0.239 OA
ATOM     36  H   UNK d   1       1.548  -7.845  -6.382  0.00  0.00     0.165 HD
BRANCH  34  37
ATOM     37  O4  <1> d   1       1.658  -9.846  -7.116  0.00  0.00    -0.303 OA
BRANCH  37  38
ATOM     38  C21 <1> d   1       1.788 -11.262  -7.454  0.00  0.00     0.194 C 
BRANCH  38  39
ATOM     39  C6  <1> d   1       2.281 -12.153  -6.278  0.00  0.00     0.078 C 
ATOM     40  C9  <1> d   1       1.543 -11.788  -5.004  0.00  0.00    -0.036 A 
ATOM     41  C7  <1> d   1       2.395 -11.052  -4.150  0.00  0.00    -0.018 A 
ATOM     42  C30 <1> d   1       0.210 -12.011  -4.706  0.00  0.00     0.009 A 
ATOM     43  C29 <1> d   1       1.884 -10.467  -3.008  0.00  0.00     0.013 A 
ATOM     44  C8  <1> d   1       3.746 -11.118  -4.676  0.00  0.00    -0.018 A 
ATOM     45  C48 <1> d   1       0.521 -10.634  -2.729  0.00  0.00     0.001 A 
ATOM     46  C47 <1> d   1      -0.304 -11.411  -3.561  0.00  0.00     0.001 A 
ATOM     47  C10 <1> d   1       3.725 -11.879  -5.867  0.00  0.00    -0.036 A 
ATOM     48  C28 <1> d   1       4.948 -10.681  -4.146  0.00  0.00     0.013 A 
ATOM     49  C31 <1> d   1       4.899 -12.349  -6.439  0.00  0.00     0.009 A 
ATOM     50  C46 <1> d   1       6.112 -11.962  -5.864  0.00  0.00     0.001 A 
ATOM     51  C49 <1> d   1       6.137 -11.099  -4.756  0.00  0.00     0.001 A 
ENDBRANCH  38  39
ENDBRANCH  37  38
ENDBRANCH  34  37
ENDBRANCH   1  33
BRANCH   1  52
ATOM     52  C   UNK d   1       0.611  -6.154  -4.847  0.00  0.00     0.037 C 
BRANCH  52  53
ATOM     53  C   UNK d   1       0.464  -5.511  -3.459  0.00  0.00     0.023 C 
BRANCH  53  54
ATOM     54  C   UNK d   1       1.032  -6.350  -2.313  0.00  0.00     0.138 C 
BRANCH  54  55
ATOM     55  N   UNK d   1       0.722  -5.749  -1.018  0.00  0.00    -0.226 N 
ATOM     56  C   UNK d   1      -0.548  -5.782  -0.535  0.00  0.00     0.681 C 
ATOM     57  N   UNK d   1      -0.726  -4.951   0.554  0.00  0.00    -0.113 N 
ATOM     58  N   UNK d   1      -1.459  -6.528  -1.031  0.00  0.00    -0.234 N 
ATOM     59  H   UNK d   1       0.095  -4.603   1.034  0.00  0.00     0.197 HD
ATOM     60  H   UNK d   1      -2.341  -6.419  -0.544  0.00  0.00     0.174 HD
ATOM     61  HN  UNK d   1      -1.316  -7.157  -1.821  1.00  0.00     0.174 HD
ATOM     62  H   UNK d   1       1.227  -4.893  -0.836  0.00  0.00     0.177 HD
BRANCH  57  63
ATOM     63  S   UNK d   1      -2.114  -4.285   1.204  0.00  0.00     0.277 S 
ATOM     64  O   UNK d   1      -2.751  -3.510   0.170  0.00  0.00    -0.200 OA
ATOM     65  O   UNK d   1      -1.696  -3.610   2.423  0.00  0.00    -0.200 OA
BRANCH  63  66
ATOM     66  C   UNK d   1      -3.135  -5.693   1.686  0.00  0.00     0.092 A 
ATOM     67  C   UNK d   1      -2.750  -6.504   2.795  0.00  0.00    -0.029 A 
ATOM     68  C   UNK d   1      -3.638  -7.521   3.254  0.00  0.00    -0.021 A 
ATOM     69  C   UNK d   1      -1.438  -6.339   3.529  0.00  0.00     0.050 C 
ATOM     70  C   UNK d   1      -3.321  -8.409   4.441  0.00  0.00     0.052 C 
ATOM     71  C   UNK d   1      -4.869  -7.735   2.605  0.00  0.00     0.075 A 
ATOM     72  C   UNK d   1      -5.207  -6.962   1.499  0.00  0.00     0.045 A 
ATOM     73  C   UNK d   1      -4.353  -5.956   1.006  0.00  0.00    -0.035 A 
ATOM     74  C   UNK d   1      -4.868  -5.230  -0.212  0.00  0.00     0.050 C 
BRANCH  71  75
ATOM     75  O   UNK d   1      -5.660  -8.727   3.126  0.00  0.00    -0.355 OA
ATOM     76  C   UNK d   1      -6.918  -8.969   2.508  0.00  0.00     0.210 C 
ENDBRANCH  71  75
ENDBRANCH  63  66
ENDBRANCH  57  63
ENDBRANCH  54  55
ENDBRANCH  53  54
ENDBRANCH  52  53
ENDBRANCH   1  52
TORSDOF 23
