REMARK  3 active torsions:
REMARK  status: ('A' for Active; 'I' for Inactive)
REMARK    1  A    between atoms: O_3  and  C_1 
REMARK    2  A    between atoms: C_8  and  C_1 
REMARK    3  A    between atoms: C_4  and  O_3 
ROOT
ATOM      1  C   UNL d   1       4.391  -2.865  -1.312  0.00  0.00     0.026 A 
ATOM      2  C   UNL d   1       3.754  -1.605  -1.270  0.00  0.00     0.092 A 
ATOM      3  N   UNL d   1       5.515  -4.529  -2.295  0.00  0.00    -0.365 N 
ATOM      4  C   UNL d   1       5.030  -3.254  -2.492  0.00  0.00     0.045 A 
ATOM      5  C   UNL d   1       5.245  -4.943  -1.017  0.00  0.00     0.089 A 
ATOM      6  C   UNL d   1       4.542  -3.940  -0.389  0.00  0.00     0.033 A 
ATOM      7  C   UNL d   1       3.847  -0.755  -2.384  0.00  0.00     0.038 A 
ATOM      8  C   UNL d   1       4.514  -1.166  -3.538  0.00  0.00     0.005 A 
ATOM      9  C   UNL d   1       5.092  -2.435  -3.625  0.00  0.00     0.030 A 
ATOM     10  H   UNL d   1       6.005  -5.069  -2.993  0.00  0.00     0.165 HD
ENDROOT
BRANCH   2  11
ATOM     11  O   UNL d   1       2.871  -1.325  -0.195  0.00  0.00    -0.274 OA
BRANCH  11  12
ATOM     12  C   UNL d   1       2.453  -0.031   0.045  0.00  0.00     0.298 C 
ATOM     13  O   UNL d   1       3.166   0.966   0.058  0.00  0.00    -0.259 OA
BRANCH  12  14
ATOM     14  C   UNL d   1       0.968   0.011   0.192  0.00  0.00     0.040 A 
ATOM     15  C   UNL d   1       0.354   1.257   0.379  0.00  0.00     0.018 A 
ATOM     16  C   UNL d   1      -1.040   1.369   0.361  0.00  0.00     0.007 A 
ATOM     17  C   UNL d   1      -1.839   0.241   0.144  0.00  0.00    -0.062 A 
ATOM     18  C   UNL d   1      -1.228  -1.012   0.018  0.00  0.00     0.007 A 
ATOM     19  C   UNL d   1      -3.332   0.379   0.059  0.00  0.00     0.048 C 
ATOM     20  C   UNL d   1       0.166  -1.128   0.038  0.00  0.00     0.018 A 
ENDBRANCH  12  14
ENDBRANCH  11  12
ENDBRANCH   2  11
TORSDOF 3
