REMARK  6 active torsions:
REMARK  status: ('A' for Active; 'I' for Inactive)
REMARK    1  A    between atoms: C_5  and  C_1 
REMARK    2  A    between atoms: N_11  and  C_1 
REMARK    3  A    between atoms: C_2  and  C_7 
REMARK    4  A    between atoms: O_14  and  N_3 
REMARK    5  A    between atoms: C_7  and  O_10 
REMARK    6  A    between atoms: O_10  and  C_12 
ROOT
ATOM      1  C   UNL d   1       0.270   0.870  -0.920  0.00  0.00     0.004 A 
ATOM      2  C   UNL d   1       0.598   1.058  -2.265  0.00  0.00     0.017 A 
ATOM      3  C   UNL d   1      -0.799   1.574  -0.359  0.00  0.00     0.017 A 
ATOM      4  C   UNL d   1      -1.276   2.579  -2.509  0.00  0.00     0.069 A 
ATOM      5  C   UNL d   1      -0.177   1.911  -3.057  0.00  0.00     0.037 A 
ATOM      6  C   UNL d   1      -1.560   2.438  -1.149  0.00  0.00     0.037 A 
ENDROOT
BRANCH   4   7
ATOM      7  O   UNL d   1      -2.006   3.338  -3.385  0.00  0.00    -0.347 OA
BRANCH   7   8
ATOM      8  C   UNL d   1      -3.355   3.594  -2.978  0.00  0.00     0.217 C 
BRANCH   8   9
ATOM      9  C   UNL d   1      -4.214   3.972  -4.155  0.00  0.00     0.004 A 
ATOM     10  C   UNL d   1      -5.559   3.588  -4.168  0.00  0.00     0.124 A 
ATOM     11  F   UNL d   1      -6.058   2.873  -3.149  0.00  0.00    -0.205 F 
ATOM     12  C   UNL d   1      -6.405   3.934  -5.216  0.00  0.00     0.043 A 
ATOM     13  C   UNL d   1      -5.912   4.693  -6.274  0.00  0.00     0.003 A 
ATOM     14  C   UNL d   1      -4.577   5.103  -6.273  0.00  0.00     0.001 A 
ATOM     15  C   UNL d   1      -3.732   4.749  -5.216  0.00  0.00     0.012 A 
ENDBRANCH   8   9
ENDBRANCH   7   8
ENDBRANCH   4   7
BRANCH   1  16
ATOM     16  C   UNL d   1       1.041  -0.085  -0.075  0.00  0.00     0.108 C 
ATOM     17  N   UNL d   1       2.292  -0.307  -0.357  0.00  0.00    -0.258 N 
ATOM     18  HN  UNL d   1       2.802   0.133  -1.123  1.00  0.00     0.195 HD
BRANCH  17  19
ATOM     19  O   UNL d   1       2.845  -1.238   0.540  0.00  0.00    -0.289 OA
ATOM     20  H   UNL d   1       3.793  -1.192   0.317  0.00  0.00     0.244 HD
ENDBRANCH  17  19
BRANCH  16  21
ATOM     21  N   UNL d   1       0.398  -0.710   0.971  0.00  0.00    -0.287 NA
ATOM     22  H   UNL d   1       0.984  -1.466   1.318  0.00  0.00     0.125 HD
ATOM     23  H   UNL d   1      -0.541  -1.025   0.762  0.00  0.00     0.125 HD
ENDBRANCH  16  21
ENDBRANCH   1  16
TORSDOF 6
