REMARK  3 active torsions:
REMARK  status: ('A' for Active; 'I' for Inactive)
REMARK    1  A    between atoms: C_5  and  C_1 
REMARK       I    between atoms: N_12  and  C_5 
REMARK    2  A    between atoms: N_9  and  N_12 
REMARK    3  A    between atoms: C_11  and  C_15 
ROOT
ATOM      1  C   UNL d   1      -0.228  -2.553  -0.042  0.00  0.00     0.280 C 
ATOM      2  N   UNL d   1       0.832  -3.460  -0.081  0.00  0.00    -0.266 N 
ATOM      3  O   UNL d   1      -0.037  -1.341   0.066  0.00  0.00    -0.265 OA
ATOM      4  H   UNL d   1       0.673  -4.457  -0.165  0.00  0.00     0.190 HD
ENDROOT
BRANCH   2   5
ATOM      5  N   UNL d   1       2.101  -2.982   0.027  0.00  0.00    -0.308 N 
ATOM      6  C   UNL d   1       3.074  -3.835  -0.015  0.00  0.00     0.120 C 
ATOM      7  HN  UNL d   1       2.280  -1.984   0.138  1.00  0.00     0.186 HD
BRANCH   6   8
ATOM      8  C   UNL d   1       4.474  -3.364   0.118  0.00  0.00     0.002 A 
ATOM      9  C   UNL d   1       5.564  -4.240   0.072  0.00  0.00     0.045 A 
ATOM     10 CL   UNL d   1       5.391  -5.941  -0.169  0.00  0.00    -0.083 Cl
ATOM     11  C   UNL d   1       6.864  -3.740   0.225  0.00  0.00     0.024 A 
ATOM     12  C   UNL d   1       7.079  -2.373   0.420  0.00  0.00     0.002 A 
ATOM     13  C   UNL d   1       5.998  -1.499   0.459  0.00  0.00     0.001 A 
ATOM     14  C   UNL d   1       4.701  -1.990   0.308  0.00  0.00     0.014 A 
ENDBRANCH   6   8
ENDBRANCH   2   5
BRANCH   1  15
ATOM     15  C   UNL d   1      -1.560  -3.110  -0.133  0.00  0.00     0.115 A 
ATOM     16  C   UNL d   1      -2.797  -2.470  -0.127  0.00  0.00     0.046 A 
ATOM     17  N   UNL d   1      -3.890  -3.328  -0.229  0.00  0.00    -0.298 N 
ATOM     18  C   UNL d   1      -3.095  -1.017  -0.027  0.00  0.00     0.071 C 
ATOM     19  N   UNL d   1      -3.524  -4.594  -0.311  0.00  0.00    -0.269 N 
ATOM     20  HN  UNL d   1      -4.861  -3.014  -0.238  1.00  0.00     0.187 HD
ATOM     21  S   UNL d   1      -1.871  -4.790  -0.269  0.00  0.00     0.009 SA
ATOM     22  HN  UNL d   1      -4.183  -5.368  -0.391  1.00  0.00     0.195 HD
ENDBRANCH   1  15
TORSDOF 3
