REMARK  4 active torsions:
REMARK  status: ('A' for Active; 'I' for Inactive)
REMARK    1  A    between atoms: N_2  and  S_1 
REMARK    2  A    between atoms: C_4  and  S_1 
REMARK    3  A    between atoms: C_14  and  C_3 
REMARK    4  A    between atoms: C_9  and  C_15 
ROOT
ATOM      1  C   UNL d   1       0.402   1.345  -0.859  0.00  0.00     0.122 A 
ATOM      2  S   UNL d   1       1.335   2.689  -0.380  0.00  0.00    -0.074 SA
ATOM      3  C   UNL d   1       0.371   3.774  -1.278  0.00  0.00     0.034 A 
ATOM      4  C   UNL d   1      -0.552   1.701  -1.794  0.00  0.00     0.034 A 
ATOM      5  C   UNL d   1      -0.582   3.113  -2.022  0.00  0.00     0.023 A 
ENDROOT
BRANCH   1   6
ATOM      6  S   UNL d   1       0.843  -0.191  -0.097  0.00  0.00     0.289 S 
ATOM      7  O   UNL d   1      -0.152  -1.155  -0.530  0.00  0.00    -0.198 OA
ATOM      8  O   UNL d   1       2.264  -0.378  -0.335  0.00  0.00    -0.198 OA
BRANCH   6   9
ATOM      9  N   UNL d   1       0.655  -0.070   1.624  0.00  0.00    -0.181 N 
ATOM     10  N   UNL d   1       0.121   1.012   2.263  0.00  0.00    -0.289 N 
ATOM     11  C   UNL d   1       0.177   0.696   3.560  0.00  0.00     0.025 A 
ATOM     12  HN  UNL d   1      -0.241   1.869   1.845  1.00  0.00     0.188 HD
ATOM     13  C   UNL d   1      -0.278   1.656   4.597  0.00  0.00     0.070 C 
ATOM     14  C   UNL d   1       0.694  -0.601   3.759  0.00  0.00     0.053 A 
ATOM     15  C   UNL d   1       0.996  -1.086   2.502  0.00  0.00     0.044 A 
ATOM     16  C   UNL d   1       1.565  -2.403   2.120  0.00  0.00     0.071 C 
ENDBRANCH   6   9
ENDBRANCH   1   6
BRANCH   3  17
ATOM     17  C   UNL d   1       0.567   5.259  -1.222  0.00  0.00     0.067 A 
ATOM     18  C   UNL d   1       1.583   5.917  -0.503  0.00  0.00     0.068 A 
ATOM     19  C   UNL d   1       1.360   7.264  -0.688  0.00  0.00     0.136 A 
ATOM     20  N   UNL d   1       0.231   7.343  -1.452  0.00  0.00    -0.292 N 
ATOM     21  N   UNL d   1      -0.242   6.135  -1.832  0.00  0.00    -0.297 N 
ATOM     22  C   UNL d   1      -0.507   8.530  -1.825  0.00  0.00     0.178 C 
ATOM     23  HN  UNL d   1      -1.034   5.936  -2.444  1.00  0.00     0.187 HD
BRANCH  19  24
ATOM     24  C   UNL d   1       2.116   8.421  -0.171  0.00  0.00     0.434 C 
ATOM     25  F   UNL d   1       1.610   9.615  -0.561  0.00  0.00    -0.165 F 
ATOM     26  F   UNL d   1       2.139   8.428   1.184  0.00  0.00    -0.165 F 
ATOM     27  F   UNL d   1       3.407   8.389  -0.588  0.00  0.00    -0.165 F 
ENDBRANCH  19  24
ENDBRANCH   3  17
TORSDOF 4
