REMARK  2 active torsions:
REMARK  status: ('A' for Active; 'I' for Inactive)
REMARK       I    between atoms: N_3  and  C_1 
REMARK       I    between atoms: N_6  and  C_1 
REMARK    1  A    between atoms: C_4  and  N_3 
REMARK    2  A    between atoms: C_9  and  N_6 
ROOT
ATOM      1  C   UNL d   1      -0.999  -0.903   0.466  0.00  0.00     0.321 C 
ATOM      2  N   UNL d   1       0.285  -0.855   0.906  0.00  0.00    -0.330 N 
ATOM      3  N   UNL d   1      -1.511   0.227  -0.102  0.00  0.00    -0.309 N 
ATOM      4  O   UNL d   1      -1.717  -1.889   0.612  0.00  0.00    -0.247 OA
ATOM      5  H   UNL d   1       0.608   0.061   1.200  0.00  0.00     0.165 HD
ATOM      6  H   UNL d   1      -2.517   0.168  -0.189  0.00  0.00     0.170 HD
ENDROOT
BRANCH   2   7
ATOM      7  C   UNL d   1       0.877  -1.964   1.646  0.00  0.00     0.178 C 
ATOM      8  C   UNL d   1       2.054  -1.390   2.453  0.00  0.00     0.240 C 
ATOM      9  N   UNL d   1       2.735  -2.235   3.280  0.00  0.00    -0.359 N 
ATOM     10  O   UNL d   1       2.392  -0.205   2.385  0.00  0.00    -0.271 OA
ATOM     11  C   UNL d   1       2.351  -3.587   3.615  0.00  0.00     0.122 C 
ATOM     12  H   UNL d   1       3.476  -1.787   3.808  0.00  0.00     0.162 HD
ATOM     13  C   UNL d   1       2.518  -4.553   2.449  0.00  0.00     0.020 C 
ATOM     14  C   UNL d   1       1.429  -4.436   1.382  0.00  0.00     0.004 C 
ATOM     15  C   UNL d   1       1.348  -3.071   0.699  0.00  0.00     0.035 C 
ENDBRANCH   2   7
BRANCH   3  16
ATOM     16  C   UNL d   1      -0.904   1.425  -0.518  0.00  0.00     0.036 A 
ATOM     17  C   UNL d   1       0.461   1.562  -0.784  0.00  0.00     0.029 A 
ATOM     18  C   UNL d   1       0.997   2.807  -1.123  0.00  0.00     0.002 A 
ATOM     19  C   UNL d   1       0.167   3.919  -1.230  0.00  0.00     0.000 A 
ATOM     20  C   UNL d   1      -1.204   3.780  -1.032  0.00  0.00     0.002 A 
ATOM     21  C   UNL d   1      -1.739   2.535  -0.690  0.00  0.00     0.029 A 
ENDBRANCH   3  16
TORSDOF 2
