REMARK  6 active torsions:
REMARK  status: ('A' for Active; 'I' for Inactive)
REMARK       I    between atoms: C_3  and  N_1 
REMARK    1  A    between atoms: C_4  and  N_1 
REMARK    2  A    between atoms: C_2  and  C_12 
REMARK       I    between atoms: N_10  and  C_3 
REMARK    3  A    between atoms: C_16  and  C_4 
REMARK    4  A    between atoms: O_15  and  N_5 
REMARK    5  A    between atoms: S_11  and  C_16 
REMARK    6  A    between atoms: C_12  and  S_11 
ROOT
ATOM      1  C   UNL d   1       2.370  -0.171  -0.400  0.00  0.00     0.114 C 
ATOM      2  N   UNL d   1       2.976   0.664  -1.193  0.00  0.00    -0.256 N 
ATOM      3  HN  UNL d   1       3.960   0.592  -1.454  1.00  0.00     0.195 HD
ENDROOT
BRANCH   1   4
ATOM      4  N   UNL d   1       3.069  -1.233   0.148  0.00  0.00    -0.296 N 
ATOM      5  C   UNL d   1       4.371  -1.638  -0.004  0.00  0.00     0.319 C 
ATOM      6  O   UNL d   1       4.812  -2.622   0.577  0.00  0.00    -0.247 OA
ATOM      7  N   UNL d   1       5.143  -0.900  -0.827  0.00  0.00    -0.352 N 
ATOM      8  H   UNL d   1       4.724  -0.145  -1.359  0.00  0.00     0.160 HD
ATOM      9  H   UNL d   1       6.090  -1.195  -1.016  0.00  0.00     0.160 HD
ATOM     10  H   UNL d   1       2.547  -1.835   0.775  0.00  0.00     0.172 HD
ENDBRANCH   1   4
BRANCH   1  11
ATOM     11  C   UNL d   1       0.888  -0.063  -0.024  0.00  0.00     0.152 C 
BRANCH  11  12
ATOM     12  S   UNL d   1       0.346  -1.376   1.121  0.00  0.00    -0.157 SA
BRANCH  12  13
ATOM     13  C   UNL d   1      -1.415  -0.915   1.297  0.00  0.00     0.117 C 
BRANCH  13  14
ATOM     14  C   UNL d   1      -2.115  -1.890   2.207  0.00  0.00     0.011 A 
ATOM     15  C   UNL d   1      -2.142  -1.637   3.585  0.00  0.00     0.125 A 
ATOM     16  F   UNL d   1      -1.626  -0.493   4.060  0.00  0.00    -0.205 F 
ATOM     17  C   UNL d   1      -2.683  -2.544   4.493  0.00  0.00     0.043 A 
ATOM     18  C   UNL d   1      -3.221  -3.741   4.034  0.00  0.00     0.005 A 
ATOM     19  C   UNL d   1      -3.229  -4.011   2.666  0.00  0.00     0.024 A 
ATOM     20  C   UNL d   1      -2.682  -3.093   1.759  0.00  0.00     0.044 A 
ATOM     21 CL   UNL d   1      -2.733  -3.510   0.082  0.00  0.00    -0.084 Cl
ENDBRANCH  13  14
ENDBRANCH  12  13
ENDBRANCH  11  12
ENDBRANCH   1  11
BRANCH   2  22
ATOM     22  O   UNL d   1       2.119   1.671  -1.643  0.00  0.00    -0.288 OA
ATOM     23  H   UNL d   1       2.717   2.231  -2.176  0.00  0.00     0.244 HD
ENDBRANCH   2  22
TORSDOF 6
