REMARK  2 active torsions:
REMARK  status: ('A' for Active; 'I' for Inactive)
REMARK    1  A    between atoms: O_10  and  C_8 
REMARK    2  A    between atoms: C_11  and  O_10 
ROOT
ATOM      1  N   UNL d   1       7.231   0.608   0.441  0.00  0.00    -0.195 NA
ATOM      2  C   UNL d   1       6.079   0.783   0.514  0.00  0.00     0.085 C 
ATOM      3  C   UNL d   1       4.609   1.055   0.616  0.00  0.00     0.299 C 
ENDROOT
BRANCH   3   4
ATOM      4  O   UNL d   1       3.861  -0.008  -0.006  0.00  0.00    -0.338 OA
BRANCH   4   5
ATOM      5  C   UNL d   1       2.492   0.084   0.025  0.00  0.00     0.071 A 
ATOM      6  C   UNL d   1       1.806  -1.132  -0.001  0.00  0.00     0.045 A 
ATOM      7  C   UNL d   1       0.397  -1.190   0.003  0.00  0.00    -0.037 A 
ATOM      8  C   UNL d   1      -0.330   0.015   0.009  0.00  0.00     0.046 A 
ATOM      9  C   UNL d   1      -0.235  -2.557   0.005  0.00  0.00     0.050 C 
ATOM     10  C   UNL d   1       0.345   1.252   0.012  0.00  0.00    -0.037 A 
ATOM     11 CL   UNL d   1      -2.065  -0.022   0.008  0.00  0.00    -0.083 Cl
ATOM     12  C   UNL d   1       1.758   1.269   0.019  0.00  0.00     0.045 A 
ATOM     13  C   UNL d   1      -0.350   2.590  -0.001  0.00  0.00     0.050 C 
ENDBRANCH   4   5
ENDBRANCH   3   4
TORSDOF 2
