REMARK  5 active torsions:
REMARK  status: ('A' for Active; 'I' for Inactive)
REMARK    1  A    between atoms: S_13  and  C_3 
REMARK    2  A    between atoms: C_7  and  C_4 
REMARK    3  A    between atoms: O_11  and  C_7 
REMARK    4  A    between atoms: C_15  and  O_11 
REMARK    5  A    between atoms: C_16  and  C_15 
ROOT
ATOM      1  C   UNL d   1       0.060  -0.848   0.082  0.00  0.00     0.041 A 
ATOM      2  C   UNL d   1       0.385   0.570   0.015  0.00  0.00    -0.018 A 
ATOM      3  C   UNL d   1       1.181  -1.650   0.074  0.00  0.00     0.056 A 
ATOM      4  C   UNL d   1       1.764   0.772  -0.070  0.00  0.00     0.088 A 
ATOM      5  S   UNL d   1       2.604  -0.726   0.067  0.00  0.00    -0.076 SA
ATOM      6  C   UNL d   1      -1.323  -1.320   0.115  0.00  0.00     0.162 C 
ATOM      7  C   UNL d   1      -0.721   1.622  -0.024  0.00  0.00     0.050 C 
ATOM      8  C   UNL d   1      -2.128   1.047   0.361  0.00  0.00    -0.037 C 
ATOM      9  C   UNL d   1      -2.350  -0.305  -0.350  0.00  0.00     0.093 C 
ATOM     10  O   UNL d   1      -1.663  -2.424   0.515  0.00  0.00    -0.292 OA
ATOM     11  C   UNL d   1      -3.255   2.002  -0.078  0.00  0.00     0.015 C 
ATOM     12  C   UNL d   1      -2.252   0.869   1.891  0.00  0.00     0.015 C 
ENDROOT
BRANCH   4  13
ATOM     13  C   UNL d   1       2.537   2.004  -0.263  0.00  0.00     0.301 C 
ATOM     14  O   UNL d   1       2.072   3.135  -0.309  0.00  0.00    -0.259 OA
BRANCH  13  15
ATOM     15  O   UNL d   1       3.860   1.704  -0.422  0.00  0.00    -0.312 OA
BRANCH  15  16
ATOM     16  C   UNL d   1       4.780   2.743  -0.783  0.00  0.00     0.217 C 
BRANCH  16  17
ATOM     17  C   UNL d   1       5.061   2.729  -2.268  0.00  0.00    -0.034 A 
ATOM     18  C   UNL d   1       5.413   3.919  -2.921  0.00  0.00     0.009 A 
ATOM     19  C   UNL d   1       5.697   3.926  -4.289  0.00  0.00     0.001 A 
ATOM     20  C   UNL d   1       5.648   2.740  -5.020  0.00  0.00     0.000 A 
ATOM     21  C   UNL d   1       5.330   1.546  -4.380  0.00  0.00     0.001 A 
ATOM     22  C   UNL d   1       5.048   1.537  -3.011  0.00  0.00     0.009 A 
ENDBRANCH  16  17
ENDBRANCH  15  16
ENDBRANCH  13  15
ENDBRANCH   4  13
BRANCH   3  23
ATOM     23  S   UNL d   1       1.278  -3.404  -0.030  0.00  0.00    -0.126 SA
ATOM     24  C   UNL d   1       1.454  -3.838   1.713  0.00  0.00     0.096 C 
ENDBRANCH   3  23
TORSDOF 5
