REMARK  3 active torsions:
REMARK  status: ('A' for Active; 'I' for Inactive)
REMARK    1  A    between atoms: N_3  and  C_1 
REMARK       I    between atoms: C_6  and  N_3 
REMARK    2  A    between atoms: C_5  and  C_9 
REMARK    3  A    between atoms: C_10  and  C_6 
ROOT
ATOM      1  N   UNL d   1       3.006  -1.252  -2.096  0.00  0.00    -0.351 N 
ATOM      2  C   UNL d   1       2.534  -0.251  -2.917  0.00  0.00     0.252 C 
ATOM      3  O   UNL d   1       2.571   0.933  -2.607  0.00  0.00    -0.268 OA
ATOM      4  H   UNL d   1       2.793  -2.203  -2.324  0.00  0.00     0.163 HD
ENDROOT
BRANCH   1   5
ATOM      5  C   UNL d   1       3.759  -1.039  -0.854  0.00  0.00     0.101 C 
ATOM      6  C   UNL d   1       5.107  -1.863  -0.875  0.00  0.00    -0.022 C 
ATOM      7  C   UNL d   1       5.379  -2.137   0.609  0.00  0.00     0.016 C 
ATOM      8  C   UNL d   1       4.864  -3.315  -1.345  0.00  0.00     0.011 C 
ATOM      9  C   UNL d   1       6.253  -1.170  -1.588  0.00  0.00     0.017 C 
ATOM     10  C   UNL d   1       3.994  -2.755   0.842  0.00  0.00    -0.004 C 
ATOM     11  C   UNL d   1       3.042  -1.586   0.432  0.00  0.00    -0.023 C 
ATOM     12  C   UNL d   1       4.002  -3.889  -0.208  0.00  0.00     0.006 C 
ATOM     13  C   UNL d   1       3.025  -0.525   1.563  0.00  0.00     0.017 C 
ATOM     14  C   UNL d   1       1.579  -2.012   0.236  0.00  0.00     0.017 C 
ENDBRANCH   1   5
BRANCH   2  15
ATOM     15  C   UNL d   1       2.006  -0.667  -4.267  0.00  0.00     0.032 A 
ATOM     16  C   UNL d   1       2.015  -1.992  -4.738  0.00  0.00     0.033 A 
ATOM     17  C   UNL d   1       1.673  -2.296  -6.072  0.00  0.00     0.048 A 
ATOM     18  C   UNL d   1       1.263  -1.264  -6.925  0.00  0.00     0.016 A 
ATOM     19  C   UNL d   1       1.202   0.052  -6.459  0.00  0.00     0.002 A 
ATOM     20  C   UNL d   1       1.581   0.339  -5.146  0.00  0.00     0.017 A 
BRANCH  17  21
ATOM     21  C   UNL d   1       1.813  -3.702  -6.608  0.00  0.00     0.417 C 
ATOM     22  F   UNL d   1       2.235  -4.599  -5.673  0.00  0.00    -0.166 F 
ATOM     23  F   UNL d   1       0.646  -4.200  -7.103  0.00  0.00    -0.166 F 
ATOM     24  F   UNL d   1       2.714  -3.777  -7.625  0.00  0.00    -0.166 F 
ENDBRANCH  17  21
ENDBRANCH   2  15
TORSDOF 3
