REMARK  0 active torsions:
REMARK  status: ('A' for Active; 'I' for Inactive)
ROOT
ATOM      1  C   UNL d   1      -2.312  -0.006   0.004  0.00  0.00     0.123 A 
ATOM      2  N   UNL d   1      -1.587   1.095  -0.004  0.00  0.00    -0.340 N 
ATOM      3  HN  UNL d   1      -1.926   2.057  -0.006  1.00  0.00     0.167 HD
ATOM      4  N   UNL d   1      -1.508  -1.119  -0.010  0.00  0.00    -0.340 N 
ATOM      5  C   UNL d   1      -3.746  -0.053   0.038  0.00  0.00     0.049 A 
ATOM      6  C   UNL d   1      -0.277   0.674  -0.011  0.00  0.00     0.060 A 
ATOM      7  C   UNL d   1      -0.201  -0.713  -0.010  0.00  0.00     0.060 A 
ATOM      8  S   UNL d   1      -4.616  -1.533   0.037  0.00  0.00    -0.098 SA
ATOM      9  C   UNL d   1      -4.606   1.028   0.081  0.00  0.00     0.023 A 
ATOM     10  C   UNL d   1      -6.123  -0.730   0.110  0.00  0.00     0.050 A 
ATOM     11  C   UNL d   1      -5.977   0.638   0.127  0.00  0.00     0.009 A 
ATOM     12  C   UNL d   1       0.910   1.422  -0.014  0.00  0.00     0.032 A 
ATOM     13  C   UNL d   1       1.003  -1.420  -0.007  0.00  0.00     0.032 A 
ATOM     14  C   UNL d   1       2.176  -0.658  -0.007  0.00  0.00     0.002 A 
ATOM     15  C   UNL d   1       2.134   0.739  -0.012  0.00  0.00     0.002 A 
ATOM     16  H   UNL d   1      -1.841  -2.071  -0.009  0.00  0.00     0.167 HD
ENDROOT
TORSDOF 0
