REMARK  8 active torsions:
REMARK  status: ('A' for Active; 'I' for Inactive)
REMARK    1  A    between atoms: N_8  and  S_1 
REMARK    2  A    between atoms: C_13  and  S_1 
REMARK    3  A    between atoms: N_2  and  C_14 
REMARK    4  A    between atoms: C_10  and  C_6 
REMARK    5  A    between atoms: N_20  and  C_11 
REMARK    6  A    between atoms: S_24  and  C_11 
REMARK    7  A    between atoms: N_18  and  N_20 
REMARK    8  A    between atoms: C_33  and  C_32 
ROOT
ATOM      1  C   UNL d   1       0.450  -1.712   0.169  0.00  0.00     0.080 A 
ATOM      2  C   UNL d   1      -0.372  -4.339   0.684  0.00  0.00     0.057 A 
ATOM      3  C   UNL d   1       1.145  -2.781  -0.407  0.00  0.00     0.027 A 
ATOM      4  C   UNL d   1      -0.658  -1.946   0.988  0.00  0.00     0.027 A 
ATOM      5  C   UNL d   1      -1.062  -3.257   1.251  0.00  0.00     0.033 A 
ATOM      6  C   UNL d   1       0.743  -4.096  -0.135  0.00  0.00     0.033 A 
ENDROOT
BRANCH   1   7
ATOM      7  S   UNL d   1       1.076  -0.051  -0.005  0.00  0.00     0.264 S 
ATOM      8  O   UNL d   1       0.081   0.852   0.546  0.00  0.00    -0.200 OA
ATOM      9  O   UNL d   1       2.406  -0.065   0.565  0.00  0.00    -0.200 OA
BRANCH   7  10
ATOM     10  N   UNL d   1       1.176   0.228  -1.589  0.00  0.00    -0.259 N 
ATOM     11  C   UNL d   1       1.693   1.340  -1.981  0.00  0.00     0.168 C 
ATOM     12  HN  UNL d   1       0.838  -0.459  -2.264  1.00  0.00     0.181 HD
BRANCH  11  13
ATOM     13  N   UNL d   1       2.155   2.430  -1.240  0.00  0.00    -0.280 N 
ATOM     14  H   UNL d   1       1.968   2.403  -0.240  0.00  0.00     0.189 HD
BRANCH  13  15
ATOM     15  N   UNL d   1       3.206   3.197  -1.661  0.00  0.00    -0.309 N 
ATOM     16  C   UNL d   1       3.611   4.152  -0.888  0.00  0.00     0.118 C 
ATOM     17  HN  UNL d   1       3.657   3.021  -2.558  1.00  0.00     0.186 HD
BRANCH  16  18
ATOM     18  C   UNL d   1       4.793   4.956  -1.280  0.00  0.00    -0.019 A 
ATOM     19  C   UNL d   1       5.489   4.639  -2.454  0.00  0.00     0.013 A 
ATOM     20  C   UNL d   1       6.615   5.373  -2.822  0.00  0.00     0.001 A 
ATOM     21  C   UNL d   1       7.048   6.427  -2.019  0.00  0.00     0.000 A 
ATOM     22  C   UNL d   1       6.356   6.746  -0.848  0.00  0.00     0.001 A 
ATOM     23  C   UNL d   1       5.227   6.010  -0.473  0.00  0.00     0.013 A 
ENDBRANCH  16  18
ENDBRANCH  13  15
ENDBRANCH  11  13
BRANCH  11  24
ATOM     24  S   UNL d   1       1.838   1.566  -3.751  0.00  0.00    -0.096 SA
ATOM     25  C   UNL d   1       1.216   0.009  -4.393  0.00  0.00     0.099 C 
ENDBRANCH  11  24
ENDBRANCH   7  10
ENDBRANCH   1   7
BRANCH   2  26
ATOM     26  N   UNL d   1      -0.759  -5.683   0.969  0.00  0.00    -0.255 N 
ATOM     27  C   UNL d   1      -2.017  -6.195   1.282  0.00  0.00     0.076 C 
ATOM     28  C   UNL d   1      -1.786  -7.465   1.772  0.00  0.00     0.069 C 
ATOM     29  C   UNL d   1      -3.281  -5.539   1.063  0.00  0.00     0.033 A 
ATOM     30  C   UNL d   1      -0.402  -7.708   1.602  0.00  0.00     0.135 C 
ATOM     31  N   UNL d   1       0.194  -6.655   1.011  0.00  0.00    -0.289 N 
ATOM     32  HN  UNL d   1       1.153  -6.598   0.668  1.00  0.00     0.187 HD
ATOM     33  S   UNL d   1      -4.620  -5.795   2.107  0.00  0.00    -0.100 SA
ATOM     34  C   UNL d   1      -3.618  -4.677   0.034  0.00  0.00     0.021 A 
ATOM     35  C   UNL d   1      -5.604  -4.707   1.230  0.00  0.00     0.050 A 
ATOM     36  C   UNL d   1      -4.942  -4.167   0.152  0.00  0.00     0.008 A 
BRANCH  30  37
ATOM     37  C   UNL d   1       0.322  -8.974   1.984  0.00  0.00     0.434 C 
ATOM     38  F   UNL d   1       1.657  -8.940   1.737  0.00  0.00    -0.165 F 
ATOM     39  F   UNL d   1       0.178  -9.245   3.311  0.00  0.00    -0.165 F 
ATOM     40  F   UNL d   1      -0.174 -10.054   1.320  0.00  0.00    -0.165 F 
ENDBRANCH  30  37
ENDBRANCH   2  26
TORSDOF 8
