REMARK  7 active torsions:
REMARK  status: ('A' for Active; 'I' for Inactive)
REMARK    1  A    between atoms: C_6  and  C_1 
REMARK    2  A    between atoms: C_8  and  C_2 
REMARK    3  A    between atoms: C_9  and  N_3 
REMARK    4  A    between atoms: O_16  and  C_8 
REMARK    5  A    between atoms: N_10  and  O_16 
REMARK    6  A    between atoms: C_21  and  C_19 
REMARK    7  A    between atoms: O_30  and  C_22 
ROOT
ATOM      1  C   UNL d   1       1.001  -0.875  -0.005  0.00  0.00     0.158 C 
ATOM      2  C   UNL d   1      -0.333  -1.264   0.018  0.00  0.00     0.091 C 
ATOM      3  N   UNL d   1       1.012   0.505   0.076  0.00  0.00    -0.251 N 
ATOM      4  N   UNL d   1      -0.239   0.982   0.330  0.00  0.00    -0.303 N 
ATOM      5  HN  UNL d   1      -0.502   1.940   0.560  1.00  0.00     0.186 HD
ATOM      6  C   UNL d   1      -1.041  -0.069   0.214  0.00  0.00     0.127 C 
ENDROOT
BRANCH   2   7
ATOM      7  C   UNL d   1      -0.883  -2.595  -0.138  0.00  0.00     0.318 C 
ATOM      8  O   UNL d   1      -0.310  -3.479  -0.762  0.00  0.00    -0.257 OA
BRANCH   7   9
ATOM      9  O   UNL d   1      -2.130  -2.694   0.436  0.00  0.00    -0.195 OA
BRANCH   9  10
ATOM     10  N   UNL d   1      -2.975  -3.394  -0.433  0.00  0.00    -0.268 N 
ATOM     11  C   UNL d   1      -4.137  -3.567   0.111  0.00  0.00     0.126 C 
ATOM     12  HN  UNL d   1      -2.712  -3.722  -1.363  1.00  0.00     0.194 HD
BRANCH  11  13
ATOM     13  C   UNL d   1      -5.247  -4.123  -0.685  0.00  0.00    -0.019 A 
ATOM     14  C   UNL d   1      -5.058  -4.387  -2.045  0.00  0.00     0.015 A 
ATOM     15  C   UNL d   1      -6.121  -4.835  -2.828  0.00  0.00     0.037 A 
ATOM     16  C   UNL d   1      -7.378  -5.028  -2.255  0.00  0.00     0.068 A 
ATOM     17  C   UNL d   1      -7.558  -4.775  -0.889  0.00  0.00     0.037 A 
ATOM     18  C   UNL d   1      -6.497  -4.321  -0.099  0.00  0.00     0.015 A 
BRANCH  16  19
ATOM     19  O   UNL d   1      -8.498  -5.444  -2.920  0.00  0.00    -0.356 OA
ATOM     20  C   UNL d   1      -8.351  -5.710  -4.311  0.00  0.00     0.210 C 
ENDBRANCH  16  19
ENDBRANCH  11  13
ENDBRANCH   9  10
ENDBRANCH   7   9
ENDBRANCH   2   7
BRANCH   1  21
ATOM     21  C   UNL d   1       2.217  -1.702   0.011  0.00  0.00     0.435 C 
ATOM     22  F   UNL d   1       1.982  -2.963   0.451  0.00  0.00    -0.165 F 
ATOM     23  F   UNL d   1       2.784  -1.811  -1.214  0.00  0.00    -0.165 F 
ATOM     24  F   UNL d   1       3.159  -1.198   0.848  0.00  0.00    -0.165 F 
ENDBRANCH   1  21
BRANCH   3  25
ATOM     25  C   UNL d   1       2.072   1.451  -0.061  0.00  0.00     0.057 A 
ATOM     26  C   UNL d   1       3.223   1.187  -0.812  0.00  0.00     0.033 A 
ATOM     27  C   UNL d   1       4.235   2.149  -0.914  0.00  0.00     0.026 A 
ATOM     28  C   UNL d   1       4.097   3.381  -0.279  0.00  0.00     0.034 A 
ATOM     29  C   UNL d   1       2.946   3.668   0.448  0.00  0.00     0.026 A 
ATOM     30 CL   UNL d   1       5.347   4.554  -0.407  0.00  0.00    -0.084 Cl
ATOM     31  C   UNL d   1       1.931   2.713   0.546  0.00  0.00     0.033 A 
ENDBRANCH   3  25
TORSDOF 7
