REMARK  5 active torsions:
REMARK  status: ('A' for Active; 'I' for Inactive)
REMARK    1  A    between atoms: N_3  and  S_1 
REMARK    2  A    between atoms: C_11  and  S_1 
REMARK    3  A    between atoms: C_2  and  N_3 
REMARK    4  A    between atoms: C_10  and  O_14 
REMARK    5  A    between atoms: O_14  and  C_20 
ROOT
ATOM      1  S   UNL d   1       1.069  -0.139  -0.003  0.00  0.00     0.247 S 
ATOM      2  O   UNL d   1       1.582   0.449   1.222  0.00  0.00    -0.205 OA
ATOM      3  O   UNL d   1       0.023  -1.130   0.022  0.00  0.00    -0.205 OA
ENDROOT
BRANCH   1   4
ATOM      4  N   UNL d   1       2.425  -0.685  -0.851  0.00  0.00    -0.159 NA
ATOM      5  H   UNL d   1       3.215  -0.626  -0.207  0.00  0.00     0.148 HD
BRANCH   4   6
ATOM      6  C   UNL d   1       2.274  -2.019  -1.290  0.00  0.00     0.153 A 
ATOM      7  S   UNL d   1       1.399  -2.487  -2.680  0.00  0.00    -0.044 SA
ATOM      8  C   UNL d   1       1.915  -4.094  -2.356  0.00  0.00     0.065 A 
ATOM      9  C   UNL d   1       1.502  -5.225  -3.223  0.00  0.00     0.078 C 
ATOM     10  N   UNL d   1       2.696  -4.206  -1.299  0.00  0.00    -0.297 N 
ATOM     11  N   UNL d   1       2.942  -2.982  -0.706  0.00  0.00    -0.283 N 
ATOM     12  HN  UNL d   1       3.072  -5.091  -0.960  1.00  0.00     0.187 HD
ATOM     13  HN  UNL d   1       3.568  -2.846   0.088  1.00  0.00     0.188 HD
ENDBRANCH   4   6
ENDBRANCH   1   4
BRANCH   1  14
ATOM     14  C   UNL d   1       0.532   1.192  -1.047  0.00  0.00     0.075 A 
ATOM     15  C   UNL d   1      -0.427   0.944  -2.034  0.00  0.00     0.027 A 
ATOM     16  C   UNL d   1      -0.872   1.988  -2.852  0.00  0.00     0.038 A 
ATOM     17  C   UNL d   1      -0.397   3.284  -2.651  0.00  0.00     0.078 A 
ATOM     18  C   UNL d   1       0.571   3.514  -1.663  0.00  0.00     0.038 A 
ATOM     19  C   UNL d   1       1.032   2.477  -0.852  0.00  0.00     0.027 A 
BRANCH  17  20
ATOM     20  O   UNL d   1      -0.756   4.397  -3.343  0.00  0.00    -0.255 OA
BRANCH  20  21
ATOM     21  C   UNL d   1      -2.017   4.458  -3.993  0.00  0.00     0.530 C 
ATOM     22  F   UNL d   1      -2.904   3.540  -3.556  0.00  0.00    -0.144 F 
ATOM     23  F   UNL d   1      -2.549   5.681  -3.770  0.00  0.00    -0.144 F 
ATOM     24  F   UNL d   1      -1.847   4.309  -5.324  0.00  0.00    -0.144 F 
ENDBRANCH  20  21
ENDBRANCH  17  20
ENDBRANCH   1  14
TORSDOF 5
