REMARK  2 active torsions:
REMARK  status: ('A' for Active; 'I' for Inactive)
REMARK    1  A    between atoms: N_6  and  C_1 
REMARK    2  A    between atoms: O_12  and  C_4 
ROOT
ATOM      1  C   UNL d   1      -1.467   2.444   0.008  0.00  0.00     0.204 A 
ATOM      2  C   UNL d   1       0.010   2.480  -0.034  0.00  0.00     0.284 A 
ATOM      3  N   UNL d   1       0.668   1.242  -0.007  0.00  0.00    -0.311 N 
ATOM      4  C   UNL d   1      -2.171   1.298   0.008  0.00  0.00     0.117 A 
ATOM      5  C   UNL d   1      -1.441   0.018   0.004  0.00  0.00     0.027 A 
ATOM      6  C   UNL d   1      -0.031   0.011   0.005  0.00  0.00     0.057 A 
ATOM      7  O   UNL d   1       0.633   3.536  -0.118  0.00  0.00    -0.265 OA
ATOM      8  C   UNL d   1       0.657  -1.207   0.008  0.00  0.00    -0.030 A 
ATOM      9  C   UNL d   1       2.117   1.292  -0.016  0.00  0.00     0.133 C 
ATOM     10  C   UNL d   1      -2.140  -1.202  -0.002  0.00  0.00     0.017 A 
ATOM     11  C   UNL d   1       2.912  -0.001  -0.058  0.00  0.00     0.025 C 
ATOM     12  C   UNL d   1      -1.456  -2.412  -0.004  0.00  0.00     0.002 A 
ATOM     13  C   UNL d   1      -0.067  -2.413   0.003  0.00  0.00     0.009 A 
ATOM     14  C   UNL d   1       2.149  -1.304   0.046  0.00  0.00     0.042 C 
ENDROOT
BRANCH   1  15
ATOM     15  N   UNL d   1      -2.195   3.692   0.038  0.00  0.00    -0.107 N 
ATOM     16  O   UNL d   1      -3.301   3.720  -0.528  0.00  0.00    -0.531 OA
ATOM     17  O   UNL d   1      -1.724   4.638   0.684  0.00  0.00    -0.531 OA
ENDBRANCH   1  15
BRANCH   4  18
ATOM     18  O   UNL d   1      -3.554   1.180   0.025  0.00  0.00    -0.357 OA
ATOM     19  H   UNL d   1      -3.969   2.053  -0.149  0.00  0.00     0.217 HD
ENDBRANCH   4  18
TORSDOF 2
