REMARK  4 active torsions:
REMARK  status: ('A' for Active; 'I' for Inactive)
REMARK    1  A    between atoms: C_2  and  S_1 
REMARK    2  A    between atoms: C_7  and  S_1 
REMARK    3  A    between atoms: O_9  and  C_8 
REMARK    4  A    between atoms: C_12  and  O_9 
ROOT
ATOM      1  C   UNL d   1       0.504  -1.018  -1.399  0.00  0.00     0.165 C 
ATOM      2  C   UNL d   1       1.133  -2.269  -1.575  0.00  0.00     0.114 C 
ATOM      3  N   UNL d   1       1.659  -3.295  -1.705  0.00  0.00    -0.191 NA
ATOM      4  C   UNL d   1      -0.459  -0.560  -2.212  0.00  0.00     0.169 C 
ENDROOT
BRANCH   1   5
ATOM      5  S   UNL d   1       0.922  -0.094  -0.001  0.00  0.00     0.218 S 
ATOM      6  O   UNL d   1       0.503  -0.813   1.188  0.00  0.00    -0.216 OA
ATOM      7  O   UNL d   1       0.503   1.288  -0.177  0.00  0.00    -0.216 OA
BRANCH   5   8
ATOM      8  C   UNL d   1       2.708  -0.070   0.006  0.00  0.00     0.065 A 
ATOM      9  C   UNL d   1       3.385   0.960  -0.656  0.00  0.00     0.024 A 
ATOM     10  C   UNL d   1       4.777   1.029  -0.576  0.00  0.00     0.002 A 
ATOM     11  C   UNL d   1       5.483   0.080   0.165  0.00  0.00     0.000 A 
ATOM     12  C   UNL d   1       4.803  -0.943   0.828  0.00  0.00     0.002 A 
ATOM     13  C   UNL d   1       3.411  -1.018   0.756  0.00  0.00     0.024 A 
ENDBRANCH   5   8
ENDBRANCH   1   5
BRANCH   4  14
ATOM     14  O   UNL d   1      -0.875  -1.238  -3.331  0.00  0.00    -0.361 OA
BRANCH  14  15
ATOM     15  C   UNL d   1      -2.247  -0.987  -3.656  0.00  0.00     0.170 C 
ATOM     16  C   UNL d   1      -2.617  -1.868  -4.834  0.00  0.00     0.034 C 
ENDBRANCH  14  15
ENDBRANCH   4  14
TORSDOF 4
