REMARK  6 active torsions:
REMARK  status: ('A' for Active; 'I' for Inactive)
REMARK    1  A    between atoms: O_17  and  C_1 
REMARK    2  A    between atoms: C_3  and  O_13 
REMARK    3  A    between atoms: C_8  and  C_3 
REMARK    4  A    between atoms: C_11  and  C_4 
REMARK    5  A    between atoms: O_13  and  N_5 
REMARK    6  A    between atoms: O_22  and  C_7 
ROOT
ATOM      1  N   UNL d   1       0.167  -3.652  -0.189  0.00  0.00    -0.268 N 
ATOM      2  HN  UNL d   1       1.181  -3.655  -0.306  1.00  0.00     0.194 HD
ATOM      3  C   UNL d   1      -0.529  -2.584   0.030  0.00  0.00     0.127 C 
ENDROOT
BRANCH   1   4
ATOM      4  O   UNL d   1      -0.633  -4.814  -0.248  0.00  0.00    -0.195 OA
BRANCH   4   5
ATOM      5  C   UNL d   1       0.188  -5.874  -0.541  0.00  0.00     0.315 C 
ATOM      6  O   UNL d   1       1.401  -5.825  -0.736  0.00  0.00    -0.257 OA
BRANCH   5   7
ATOM      7  C   UNL d   1      -0.532  -7.176  -0.592  0.00  0.00     0.041 A 
ATOM      8  C   UNL d   1       0.251  -8.333  -0.739  0.00  0.00     0.019 A 
ATOM      9  C   UNL d   1      -0.335  -9.600  -0.799  0.00  0.00     0.025 A 
ATOM     10  C   UNL d   1      -1.719  -9.714  -0.715  0.00  0.00     0.034 A 
ATOM     11  C   UNL d   1      -2.514  -8.578  -0.577  0.00  0.00     0.025 A 
ATOM     12 CL   UNL d   1      -2.446 -11.274  -0.781  0.00  0.00    -0.084 Cl
ATOM     13  C   UNL d   1      -1.927  -7.303  -0.515  0.00  0.00     0.019 A 
ENDBRANCH   5   7
ENDBRANCH   4   5
ENDBRANCH   1   4
BRANCH   3  14
ATOM     14  C   UNL d   1       0.140  -1.254   0.085  0.00  0.00     0.006 A 
ATOM     15  C   UNL d   1      -0.557  -0.055   0.337  0.00  0.00     0.081 A 
ATOM     16  C   UNL d   1       0.117   1.198   0.263  0.00  0.00     0.124 A 
ATOM     17 CL   UNL d   1      -2.212  -0.157   0.866  0.00  0.00    -0.080 Cl
ATOM     18  C   UNL d   1       1.509   1.213   0.033  0.00  0.00     0.103 A 
ATOM     19  C   UNL d   1       2.193   0.004  -0.147  0.00  0.00     0.040 A 
ATOM     20  C   UNL d   1       1.520  -1.213  -0.138  0.00  0.00     0.017 A 
BRANCH  16  21
ATOM     21  O   UNL d   1      -0.486   2.405   0.520  0.00  0.00    -0.351 OA
ATOM     22  C   UNL d   1      -1.731   2.672  -0.120  0.00  0.00     0.210 C 
ENDBRANCH  16  21
BRANCH  18  23
ATOM     23  O   UNL d   1       2.370   2.276  -0.037  0.00  0.00    -0.353 OA
ATOM     24  C   UNL d   1       1.877   3.602   0.046  0.00  0.00     0.210 C 
ENDBRANCH  18  23
ENDBRANCH   3  14
TORSDOF 6
