REMARK  6 active torsions:
REMARK  status: ('A' for Active; 'I' for Inactive)
REMARK    1  A    between atoms: C_2  and  C_1 
REMARK    2  A    between atoms: C_3  and  C_1 
REMARK    3  A    between atoms: N_4  and  C_1 
REMARK    4  A    between atoms: N_6  and  C_1 
REMARK    5  A    between atoms: C_8  and  N_4 
REMARK    6  A    between atoms: C_5  and  C_7 
REMARK       I    between atoms: C_9  and  N_6 
ROOT
ATOM      1  C   UNL d   1       0.952   0.138   0.323  0.00  0.00     0.290 C 
ENDROOT
BRANCH   1   2
ATOM      2  C   UNL d   1       0.380  -0.246   1.760  0.00  0.00     0.435 C 
ATOM      3  F   UNL d   1      -0.208   0.752   2.443  0.00  0.00    -0.167 F 
ATOM      4  F   UNL d   1      -0.559  -1.234   1.659  0.00  0.00    -0.167 F 
ATOM      5  F   UNL d   1       1.325  -0.796   2.570  0.00  0.00    -0.167 F 
ENDBRANCH   1   2
BRANCH   1   6
ATOM      6  C   UNL d   1       0.739   1.691   0.020  0.00  0.00     0.435 C 
ATOM      7  F   UNL d   1       0.095   2.388   0.975  0.00  0.00    -0.167 F 
ATOM      8  F   UNL d   1       1.918   2.333  -0.216  0.00  0.00    -0.167 F 
ATOM      9  F   UNL d   1       0.034   1.891  -1.129  0.00  0.00    -0.167 F 
ENDBRANCH   1   6
BRANCH   1  10
ATOM     10  N   UNL d   1       0.384  -0.764  -0.782  0.00  0.00    -0.250 NA
ATOM     11  H   UNL d   1       0.749  -1.713  -0.683  0.00  0.00     0.130 HD
BRANCH  10  12
ATOM     12  C   UNL d   1      -0.992  -0.803  -1.099  0.00  0.00     0.025 A 
ATOM     13  C   UNL d   1      -1.494  -1.638  -2.127  0.00  0.00     0.069 A 
ATOM     14  C   UNL d   1      -2.865  -1.571  -2.491  0.00  0.00     0.018 A 
ATOM     15  C   UNL d   1      -3.756  -0.733  -1.832  0.00  0.00     0.001 A 
ATOM     16  C   UNL d   1      -3.288   0.061  -0.807  0.00  0.00     0.002 A 
ATOM     17  C   UNL d   1      -1.931   0.040  -0.468  0.00  0.00     0.024 A 
BRANCH  13  18
ATOM     18  C   UNL d   1      -0.684  -2.662  -2.888  0.00  0.00     0.419 C 
ATOM     19  F   UNL d   1       0.604  -2.811  -2.467  0.00  0.00    -0.166 F 
ATOM     20  F   UNL d   1      -1.236  -3.909  -2.796  0.00  0.00    -0.166 F 
ATOM     21  F   UNL d   1      -0.619  -2.398  -4.224  0.00  0.00    -0.166 F 
ENDBRANCH  13  18
ENDBRANCH  10  12
ENDBRANCH   1  10
BRANCH   1  22
ATOM     22  N   UNL d   1       2.404  -0.204   0.221  0.00  0.00    -0.324 N 
ATOM     23  C   UNL d   1       3.264   0.433   1.101  0.00  0.00     0.215 C 
ATOM     24  O   UNL d   1       2.840   1.179   1.984  0.00  0.00    -0.274 OA
ATOM     25  C   UNL d   1       4.724   0.188   0.889  0.00  0.00     0.117 C 
ATOM     26  H   UNL d   1       2.753  -0.430  -0.700  0.00  0.00     0.165 HD
ENDBRANCH   1  22
TORSDOF 6
