REMARK  4 active torsions:
REMARK  status: ('A' for Active; 'I' for Inactive)
REMARK    1  A    between atoms: N_6  and  C_1 
REMARK    2  A    between atoms: C_16  and  C_3 
REMARK    3  A    between atoms: N_4  and  C_10 
REMARK       I    between atoms: C_8  and  N_6 
REMARK    4  A    between atoms: C_11  and  C_8 
ROOT
ATOM      1  C   UNL d   1      -2.357  -0.121   0.061  0.00  0.00     0.120 A 
ATOM      2  N   UNL d   1      -1.546   0.973   0.224  0.00  0.00    -0.341 N 
ATOM      3  C   UNL d   1      -1.553  -1.252   0.036  0.00  0.00     0.031 A 
ATOM      4  C   UNL d   1      -0.221   0.605   0.153  0.00  0.00     0.047 A 
ATOM      5  C   UNL d   1      -0.190  -0.789   0.074  0.00  0.00     0.006 A 
ATOM      6  C   UNL d   1       0.937   1.398   0.158  0.00  0.00     0.066 A 
ATOM      7  C   UNL d   1       2.173   0.730   0.077  0.00  0.00     0.105 A 
ATOM      8  C   UNL d   1       1.072  -1.427   0.050  0.00  0.00     0.017 A 
ATOM      9  C   UNL d   1       2.245  -0.666   0.035  0.00  0.00     0.037 A 
ATOM     10  H   UNL d   1      -1.895   1.920   0.317  0.00  0.00     0.167 HD
ENDROOT
BRANCH   1  11
ATOM     11  N   UNL d   1      -3.730  -0.022  -0.064  0.00  0.00    -0.308 N 
ATOM     12  C   UNL d   1      -4.476   1.110   0.223  0.00  0.00     0.264 C 
ATOM     13  O   UNL d   1      -3.967   2.171   0.586  0.00  0.00    -0.267 OA
ATOM     14  H   UNL d   1      -4.240  -0.860  -0.321  0.00  0.00     0.170 HD
BRANCH  12  15
ATOM     15  C   UNL d   1      -5.921   0.917   0.107  0.00  0.00     0.072 A 
ATOM     16  S   UNL d   1      -6.595  -0.476  -0.640  0.00  0.00    -0.097 SA
ATOM     17  C   UNL d   1      -8.193   0.052  -0.358  0.00  0.00     0.050 A 
ATOM     18  C   UNL d   1      -8.226   1.264   0.295  0.00  0.00     0.009 A 
ATOM     19  C   UNL d   1      -6.919   1.767   0.557  0.00  0.00     0.025 A 
ENDBRANCH  12  15
ENDBRANCH   1  11
BRANCH   3  20
ATOM     20  C   UNL d   1      -2.063  -2.626  -0.016  0.00  0.00    -0.021 A 
ATOM     21  C   UNL d   1      -1.409  -3.604  -0.777  0.00  0.00     0.012 A 
ATOM     22  C   UNL d   1      -1.865  -4.926  -0.789  0.00  0.00     0.001 A 
ATOM     23  C   UNL d   1      -3.006  -5.279  -0.072  0.00  0.00     0.000 A 
ATOM     24  C   UNL d   1      -3.680  -4.317   0.673  0.00  0.00     0.001 A 
ATOM     25  C   UNL d   1      -3.197  -3.007   0.720  0.00  0.00     0.012 A 
ENDBRANCH   3  20
BRANCH   7  26
ATOM     26  N   UNL d   1       3.415   1.512   0.033  0.00  0.00    -0.116 N 
ATOM     27  O   UNL d   1       3.322   2.748   0.076  0.00  0.00    -0.532 OA
ATOM     28  O   UNL d   1       4.487   0.894  -0.051  0.00  0.00    -0.532 OA
ENDBRANCH   7  26
TORSDOF 4
