REMARK  3 active torsions:
REMARK  status: ('A' for Active; 'I' for Inactive)
REMARK    1  A    between atoms: C_4  and  C_1 
REMARK       I    between atoms: N_9  and  C_4 
REMARK    2  A    between atoms: C_8  and  N_10 
REMARK    3  A    between atoms: N_10  and  N_9 
ROOT
ATOM      1  C   UNL d   1      -0.100   2.498   0.136  0.00  0.00     0.270 C 
ATOM      2  N   UNL d   1      -1.322   3.156   0.214  0.00  0.00    -0.282 N 
ATOM      3  O   UNL d   1       0.946   3.154   0.115  0.00  0.00    -0.266 OA
ATOM      4  H   UNL d   1      -2.222   2.712   0.087  0.00  0.00     0.184 HD
ENDROOT
BRANCH   2   5
ATOM      5  N   UNL d   1      -1.274   4.561   0.035  0.00  0.00    -0.201 NA
ATOM      6  H   UNL d   1      -0.316   4.884   0.251  0.00  0.00     0.153 HD
BRANCH   5   7
ATOM      7  C   UNL d   1      -2.191   5.349   0.789  0.00  0.00     0.051 A 
ATOM      8  C   UNL d   1      -2.510   6.599   0.217  0.00  0.00     0.050 A 
ATOM      9  C   UNL d   1      -3.318   7.524   0.882  0.00  0.00     0.035 A 
ATOM     10 CL   UNL d   1      -3.683   9.034   0.145  0.00  0.00    -0.084 Cl
ATOM     11  C   UNL d   1      -3.815   7.233   2.147  0.00  0.00     0.026 A 
ATOM     12  C   UNL d   1      -3.487   6.019   2.747  0.00  0.00     0.027 A 
ATOM     13  C   UNL d   1      -2.669   5.087   2.087  0.00  0.00     0.057 A 
ATOM     14 CL   UNL d   1      -2.271   3.659   2.981  0.00  0.00    -0.082 Cl
ENDBRANCH   5   7
ENDBRANCH   2   5
BRANCH   1  15
ATOM     15  C   UNL d   1      -0.089   1.040   0.080  0.00  0.00     0.088 A 
ATOM     16  C   UNL d   1       1.084   0.311  -0.013  0.00  0.00     0.090 A 
ATOM     17  O   UNL d   1       0.807  -1.014  -0.047  0.00  0.00    -0.242 OA
ATOM     18  C   UNL d   1       2.518   0.665  -0.082  0.00  0.00     0.080 C 
ATOM     19  N   UNL d   1      -0.553  -1.197   0.011  0.00  0.00    -0.265 N 
ATOM     20  C   UNL d   1      -1.094   0.028   0.080  0.00  0.00     0.047 A 
ATOM     21  HN  UNL d   1      -1.052  -2.087   0.004  1.00  0.00     0.194 HD
ATOM     22  C   UNL d   1      -2.571   0.111   0.136  0.00  0.00     0.071 C 
ENDBRANCH   1  15
TORSDOF 3
