REMARK  0 active torsions:
REMARK  status: ('A' for Active; 'I' for Inactive)
ROOT
ATOM      1  C   UNL d   1       0.208  -0.211   0.110  0.00  0.00     0.048 C 
ATOM      2  C   UNL d   1      -0.659  -0.381  -1.096  0.00  0.00    -0.059 C 
ATOM      3  C   UNL d   1      -0.017  -0.135  -2.280  0.00  0.00     0.055 C 
ATOM      4  C   UNL d   1       1.518   0.210  -2.214  0.00  0.00     0.157 C 
ATOM      5  C   UNL d   1      -0.109   1.382  -0.064  0.00  0.00     0.140 C 
ATOM      6  C   UNL d   1       2.334  -0.317  -0.955  0.00  0.00     0.089 C 
ATOM      7  C   UNL d   1       1.313  -1.224  -0.361  0.00  0.00     0.039 C 
ATOM      8  C   UNL d   1       2.798   0.456   0.317  0.00  0.00    -0.076 C 
ATOM      9  C   UNL d   1       0.614  -0.102   1.579  0.00  0.00     0.049 C 
ATOM     10  C   UNL d   1       2.079   0.447   1.489  0.00  0.00    -0.022 C 
ATOM     11  C   UNL d   1      -2.122  -0.487  -0.827  0.00  0.00     0.044 C 
ATOM     12  C   UNL d   1      -2.647   0.928  -0.477  0.00  0.00    -0.037 C 
ATOM     13  C   UNL d   1      -1.569   1.792   0.246  0.00  0.00     0.088 C 
ATOM     14  O   UNL d   1       2.037   0.811  -3.152  0.00  0.00    -0.293 OA
ATOM     15  O   UNL d   1       0.699   2.246  -0.391  0.00  0.00    -0.297 OA
ATOM     16  C   UNL d   1       4.150   1.097   0.235  0.00  0.00     0.044 C 
ATOM     17  C   UNL d   1      -3.880   0.813   0.438  0.00  0.00     0.015 C 
ATOM     18  C   UNL d   1      -3.095   1.620  -1.783  0.00  0.00     0.015 C 
ENDROOT
TORSDOF 0
