REMARK  13 active torsions:
REMARK  status: ('A' for Active; 'I' for Inactive)
REMARK    1  A    between atoms: C_2  and  O_16 
REMARK    2  A    between atoms: C_3  and  O_17 
REMARK    3  A    between atoms: C_4  and  N_9 
REMARK    4  A    between atoms: C_7  and  O_18 
REMARK    5  A    between atoms: N_9  and  C_15 
REMARK    6  A    between atoms: N_19  and  N_11 
REMARK    7  A    between atoms: C_13  and  C_27 
REMARK    8  A    between atoms: C_15  and  N_19 
REMARK    9  A    between atoms: C_20  and  O_16 
REMARK   10  A    between atoms: C_21  and  O_17 
REMARK   11  A    between atoms: C_22  and  O_18 
REMARK   12  A    between atoms: C_26  and  O_29 
REMARK   13  A    between atoms: O_29  and  C_27 
ROOT
ATOM      1  C   UNL d   1       4.320   2.692   0.608  0.00  0.00     0.212 C 
ATOM      2  C   UNL d   1       3.964   2.615   2.101  0.00  0.00     0.198 C 
ATOM      3  C   UNL d   1       4.138   4.083  -0.018  0.00  0.00     0.255 C 
ATOM      4  C   UNL d   1       4.394   3.883   2.871  0.00  0.00     0.195 C 
ATOM      5  O   UNL d   1       4.840   5.037   0.778  0.00  0.00    -0.354 OA
ATOM      6  C   UNL d   1       4.222   5.192   2.070  0.00  0.00     0.180 C 
ENDROOT
BRANCH   3   7
ATOM      7  N   UNL d   1       4.770   4.074  -1.333  0.00  0.00    -0.337 N 
ATOM      8  H   UNL d   1       5.204   3.204  -1.603  0.00  0.00     0.164 HD
BRANCH   7   9
ATOM      9  C   UNL d   1       4.646   5.012  -2.334  0.00  0.00     0.188 C 
ATOM     10  S   UNL d   1       3.647   6.354  -2.273  0.00  0.00    -0.039 SA
BRANCH   9  11
ATOM     11  N   UNL d   1       5.503   4.703  -3.391  0.00  0.00    -0.276 N 
ATOM     12  H   UNL d   1       6.127   3.901  -3.311  0.00  0.00     0.189 HD
BRANCH  11  13
ATOM     13  N   UNL d   1       5.788   5.631  -4.344  0.00  0.00    -0.293 N 
ATOM     14  C   UNL d   1       6.785   5.390  -5.129  0.00  0.00     0.129 A 
ATOM     15  C   UNL d   1       7.697   4.164  -5.200  0.00  0.00     0.275 A 
ATOM     16  C   UNL d   1       7.295   6.331  -6.110  0.00  0.00     0.026 A 
ATOM     17  N   UNL d   1       8.636   4.464  -6.170  0.00  0.00    -0.321 N 
ATOM     18  O   UNL d   1       7.592   3.178  -4.504  0.00  0.00    -0.266 OA
ATOM     19  C   UNL d   1       8.415   5.739  -6.691  0.00  0.00     0.048 A 
ATOM     20  H   UNL d   1       9.393   3.845  -6.423  0.00  0.00     0.169 HD
ATOM     21  C   UNL d   1       9.165   6.418  -7.625  0.00  0.00     0.032 A 
ATOM     22  C   UNL d   1       8.759   7.721  -7.953  0.00  0.00     0.021 A 
ATOM     23  C   UNL d   1       7.622   8.303  -7.351  0.00  0.00     0.011 A 
ATOM     24  C   UNL d   1       6.870   7.607  -6.411  0.00  0.00     0.035 A 
ATOM     25 BR   UNL d   1       7.127  10.069  -7.809  0.00  0.00    -0.051 Br
ATOM     26  HN  UNL d   1       5.236   6.485  -4.434  1.00  0.00     0.187 HD
ENDBRANCH  11  13
ENDBRANCH   9  11
ENDBRANCH   7   9
ENDBRANCH   3   7
BRANCH   1  27
ATOM     27  O   UNL d   1       3.695   1.646  -0.180  0.00  0.00    -0.309 OA
BRANCH  27  28
ATOM     28  C   UNL d   1       2.338   1.687  -0.299  0.00  0.00     0.255 C 
ATOM     29  O   UNL d   1       1.624   2.570   0.147  0.00  0.00    -0.266 OA
ATOM     30  C   UNL d   1       1.849   0.530  -1.110  0.00  0.00     0.126 C 
ENDBRANCH  27  28
ENDBRANCH   1  27
BRANCH   2  31
ATOM     31  O   UNL d   1       4.739   1.499   2.649  0.00  0.00    -0.311 OA
BRANCH  31  32
ATOM     32  C   UNL d   1       4.247   0.248   2.435  0.00  0.00     0.255 C 
ATOM     33  O   UNL d   1       3.098  -0.020   2.121  0.00  0.00    -0.266 OA
ATOM     34  C   UNL d   1       5.362  -0.752   2.471  0.00  0.00     0.126 C 
ENDBRANCH  31  32
ENDBRANCH   2  31
BRANCH   6  35
ATOM     35  C   UNL d   1       4.924   6.352   2.802  0.00  0.00     0.213 C 
BRANCH  35  36
ATOM     36  O   UNL d   1       4.623   7.625   2.197  0.00  0.00    -0.319 OA
BRANCH  36  37
ATOM     37  C   UNL d   1       3.481   8.220   2.631  0.00  0.00     0.254 C 
ATOM     38  O   UNL d   1       2.701   7.737   3.441  0.00  0.00    -0.266 OA
ATOM     39  C   UNL d   1       3.318   9.579   2.018  0.00  0.00     0.126 C 
ENDBRANCH  36  37
ENDBRANCH  35  36
ENDBRANCH   6  35
BRANCH   4  40
ATOM     40  O   UNL d   1       3.788   3.928   4.191  0.00  0.00    -0.311 OA
BRANCH  40  41
ATOM     41  C   UNL d   1       2.435   4.064   4.268  0.00  0.00     0.255 C 
ATOM     42  O   UNL d   1       1.691   4.198   3.306  0.00  0.00    -0.266 OA
ATOM     43  C   UNL d   1       1.971   3.950   5.684  0.00  0.00     0.126 C 
ENDBRANCH  40  41
ENDBRANCH   4  40
TORSDOF 13
