REMARK  4 active torsions:
REMARK  status: ('A' for Active; 'I' for Inactive)
REMARK    1  A    between atoms: C_4  and  C_1 
REMARK    2  A    between atoms: N_3  and  C_2 
REMARK       I    between atoms: N_6  and  C_4 
REMARK       I    between atoms: C_9  and  N_6 
REMARK       I    between atoms: N_14  and  C_9 
REMARK    3  A    between atoms: C_17  and  N_14 
REMARK    4  A    between atoms: C_15  and  C_17 
ROOT
ATOM      1  C   UNL d   1       2.292  -1.575   0.037  0.00  0.00     0.260 C 
ATOM      2  N   UNL d   1       2.285  -2.954  -0.025  0.00  0.00    -0.275 N 
ATOM      3  C   UNL d   1       1.321  -3.836   0.379  0.00  0.00     0.323 C 
ATOM      4  O   UNL d   1       1.322  -0.913   0.395  0.00  0.00    -0.267 OA
ATOM      5  O   UNL d   1       1.537  -5.040   0.263  0.00  0.00    -0.247 OA
ATOM      6  N   UNL d   1       0.186  -3.321   0.919  0.00  0.00    -0.339 N 
ATOM      7  H   UNL d   1       3.098  -3.443  -0.361  0.00  0.00     0.173 HD
ATOM      8  H   UNL d   1      -0.002  -2.332   0.774  0.00  0.00     0.164 HD
ENDROOT
BRANCH   1   9
ATOM      9  C   UNL d   1       3.541  -0.916  -0.385  0.00  0.00     0.042 A 
ATOM     10  C   UNL d   1       3.731   0.517  -0.343  0.00  0.00     0.061 A 
ATOM     11  C   UNL d   1       4.974   0.904  -0.795  0.00  0.00     0.144 A 
ATOM     12  S   UNL d   1       5.932  -0.413  -1.265  0.00  0.00    -0.077 SA
ATOM     13  C   UNL d   1       4.685  -1.527  -0.870  0.00  0.00     0.069 A 
BRANCH  11  14
ATOM     14  N   UNL d   1       5.478   2.251  -0.886  0.00  0.00    -0.108 N 
ATOM     15  O   UNL d   1       4.733   3.143  -0.460  0.00  0.00    -0.531 OA
ATOM     16  O   UNL d   1       6.600   2.426  -1.378  0.00  0.00    -0.531 OA
ENDBRANCH  11  14
ENDBRANCH   1   9
BRANCH   6  17
ATOM     17  C   UNL d   1      -0.883  -4.203   1.314  0.00  0.00     0.150 C 
BRANCH  17  18
ATOM     18  C   UNL d   1      -1.986  -3.409   1.934  0.00  0.00    -0.018 C 
ATOM     19  C   UNL d   1      -3.264  -3.466   1.535  0.00  0.00     0.008 C 
ENDBRANCH  17  18
ENDBRANCH   6  17
TORSDOF 4
