REMARK  2 active torsions:
REMARK  status: ('A' for Active; 'I' for Inactive)
REMARK    1  A    between atoms: C_6  and  N_1 
REMARK    2  A    between atoms: C_10  and  C_2 
ROOT
ATOM      1  N   UNL d   1       0.997  -0.570  -0.032  0.00  0.00    -0.259 N 
ATOM      2  C   UNL d   1      -0.334   1.231   0.081  0.00  0.00     0.050 A 
ATOM      3  C   UNL d   1       1.001   0.828   0.030  0.00  0.00     0.046 A 
ATOM      4  N   UNL d   1      -0.267  -1.047   0.002  0.00  0.00    -0.304 N 
ATOM      5  HN  UNL d   1      -0.557  -2.024  -0.006  1.00  0.00     0.186 HD
ATOM      6  C   UNL d   1      -1.051   0.023   0.050  0.00  0.00     0.124 A 
ATOM      7  C   UNL d   1       2.232   1.666  -0.062  0.00  0.00     0.071 C 
ENDROOT
BRANCH   1   8
ATOM      8  C   UNL d   1       2.101  -1.478  -0.062  0.00  0.00     0.080 A 
ATOM      9  C   UNL d   1       2.063  -2.700  -0.778  0.00  0.00     0.086 A 
ATOM     10  C   UNL d   1       3.201  -3.543  -0.786  0.00  0.00     0.079 A 
ATOM     11 CL   UNL d   1       0.704  -3.147  -1.777  0.00  0.00    -0.080 Cl
ATOM     12 CL   UNL d   1       3.196  -5.046  -1.669  0.00  0.00    -0.081 Cl
ATOM     13  C   UNL d   1       4.360  -3.164  -0.091  0.00  0.00     0.057 A 
ATOM     14  C   UNL d   1       4.382  -1.976   0.635  0.00  0.00     0.028 A 
ATOM     15 CL   UNL d   1       5.809  -4.109  -0.090  0.00  0.00    -0.082 Cl
ATOM     16  C   UNL d   1       3.260  -1.149   0.663  0.00  0.00     0.035 A 
ENDBRANCH   1   8
BRANCH   2  17
ATOM     17  C   UNL d   1      -0.845   2.603   0.131  0.00  0.00     0.159 C 
ATOM     18  O   UNL d   1      -0.091   3.569   0.225  0.00  0.00    -0.293 OA
ATOM     19  C   UNL d   1      -2.334   2.854   0.056  0.00  0.00     0.097 C 
ENDBRANCH   2  17
TORSDOF 2
