REMARK  3 active torsions:
REMARK  status: ('A' for Active; 'I' for Inactive)
REMARK    1  A    between atoms: C_5  and  C_1 
REMARK    2  A    between atoms: O_4  and  C_5 
REMARK    3  A    between atoms: C_7  and  O_4 
ROOT
ATOM      1  C   UNL d   1      -1.780   3.299   0.689  0.00  0.00     0.060 A 
ATOM      2  C   UNL d   1      -2.017   1.982   1.092  0.00  0.00     0.070 A 
ATOM      3  C   UNL d   1      -2.667   4.310   1.056  0.00  0.00     0.036 A 
ATOM      4 CL   UNL d   1      -2.351   5.936   0.589  0.00  0.00    -0.084 Cl
ATOM      5  C   UNL d   1      -4.062   2.699   2.179  0.00  0.00     0.004 A 
ATOM      6  C   UNL d   1      -3.176   1.681   1.814  0.00  0.00     0.037 A 
ATOM      7  C   UNL d   1      -3.802   4.017   1.808  0.00  0.00     0.024 A 
ENDROOT
BRANCH   2   8
ATOM      8  O   UNL d   1      -1.060   1.073   0.723  0.00  0.00    -0.344 OA
BRANCH   8   9
ATOM      9  C   UNL d   1      -1.012  -0.116   1.512  0.00  0.00     0.244 C 
BRANCH   9  10
ATOM     10  C   UNL d   1       0.314  -0.848   1.327  0.00  0.00     0.095 C 
ATOM     11  S   UNL d   1       0.709  -2.198   2.225  0.00  0.00    -0.064 SA
ATOM     12  N   UNL d   1       1.180  -0.370   0.391  0.00  0.00    -0.392 N 
ATOM     13  H   UNL d   1       2.079  -0.812   0.247  0.00  0.00     0.156 HD
ATOM     14  H   UNL d   1       0.957   0.468  -0.138  0.00  0.00     0.156 HD
ENDBRANCH   9  10
ENDBRANCH   8   9
ENDBRANCH   2   8
TORSDOF 3
