REMARK  2 active torsions:
REMARK  status: ('A' for Active; 'I' for Inactive)
REMARK    1  A    between atoms: N_5  and  C_2 
REMARK    2  A    between atoms: C_8  and  N_5 
ROOT
ATOM      1  C   UNL d   1       2.026   0.514   0.238  0.00  0.00     0.092 A 
ATOM      2  C   UNL d   1       1.040   1.406  -0.254  0.00  0.00     0.051 A 
ATOM      3  C   UNL d   1       3.120   1.019   1.014  0.00  0.00     0.103 C 
ATOM      4  N   UNL d   1       3.976   1.473   1.657  0.00  0.00    -0.191 NA
ATOM      5  C   UNL d   1       1.917  -0.869   0.005  0.00  0.00     0.057 A 
ATOM      6 CL   UNL d   1       3.083  -2.001   0.602  0.00  0.00    -0.083 Cl
ATOM      7  C   UNL d   1      -0.025   0.851  -0.987  0.00  0.00     0.031 A 
ATOM      8  C   UNL d   1      -0.125  -0.523  -1.220  0.00  0.00     0.004 A 
ATOM      9  C   UNL d   1       0.846  -1.383  -0.726  0.00  0.00     0.025 A 
ENDROOT
BRANCH   2  10
ATOM     10  N   UNL d   1       1.163   2.799  -0.104  0.00  0.00    -0.383 N 
ATOM     11  H   UNL d   1       1.942   3.105   0.482  0.00  0.00     0.160 HD
BRANCH  10  12
ATOM     12  C   UNL d   1      -0.039   3.639   0.048  0.00  0.00     0.091 C 
ATOM     13  C   UNL d   1      -0.401   4.303  -1.282  0.00  0.00     0.036 C 
ATOM     14  C   UNL d   1       0.581   5.437  -1.518  0.00  0.00     0.076 C 
ATOM     15  S   UNL d   1       0.804   6.209   0.102  0.00  0.00    -0.167 SA
ATOM     16  C   UNL d   1       0.195   4.783   1.050  0.00  0.00     0.098 C 
ENDBRANCH  10  12
ENDBRANCH   2  10
TORSDOF 2
