REMARK  3 active torsions:
REMARK  status: ('A' for Active; 'I' for Inactive)
REMARK    1  A    between atoms: N_2  and  C_1 
REMARK    2  A    between atoms: N_3  and  C_1 
REMARK       I    between atoms: C_6  and  N_3 
REMARK    3  A    between atoms: C_8  and  C_6 
ROOT
ATOM      1  C   UNL d   1       0.954   0.451  -0.187  0.00  0.00     0.177 C 
ATOM      2  S   UNL d   1       0.157   0.090   1.254  0.00  0.00    -0.041 SA
ENDROOT
BRANCH   1   3
ATOM      3  N   UNL d   1       0.338   0.942  -1.314  0.00  0.00    -0.349 N 
ATOM      4  C   UNL d   1      -0.790   1.919  -1.203  0.00  0.00     0.116 C 
ATOM      5  C   UNL d   1      -1.775   1.741  -2.334  0.00  0.00    -0.022 A 
ATOM      6  C   UNL d   1      -0.233   3.344  -1.139  0.00  0.00     0.037 C 
ATOM      7  C   UNL d   1      -3.070   2.348  -2.434  0.00  0.00     0.017 A 
ATOM      8  C   UNL d   1      -1.538   0.925  -3.421  0.00  0.00    -0.008 A 
ATOM      9  C   UNL d   1      -3.744   1.964  -3.574  0.00  0.00     0.051 A 
ATOM     10  S   UNL d   1      -2.824   0.884  -4.530  0.00  0.00    -0.106 SA
ATOM     11  C   UNL d   1      -0.304   0.111  -3.599  0.00  0.00     0.066 C 
ATOM     12  C   UNL d   1       0.809   0.649  -2.686  0.00  0.00     0.131 C 
ENDBRANCH   1   3
BRANCH   1  13
ATOM     13  N   UNL d   1       2.304   0.193  -0.154  0.00  0.00    -0.299 N 
ATOM     14  C   UNL d   1       3.436   0.581  -0.886  0.00  0.00     0.264 C 
ATOM     15  O   UNL d   1       3.403   1.251  -1.912  0.00  0.00    -0.267 OA
ATOM     16  H   UNL d   1       2.550  -0.232   0.733  0.00  0.00     0.171 HD
BRANCH  14  17
ATOM     17  C   UNL d   1       4.704   0.115  -0.314  0.00  0.00     0.072 A 
ATOM     18  S   UNL d   1       4.783  -0.673   1.212  0.00  0.00    -0.097 SA
ATOM     19  C   UNL d   1       6.478  -0.853   1.117  0.00  0.00     0.050 A 
ATOM     20  C   UNL d   1       6.988  -0.323  -0.046  0.00  0.00     0.009 A 
ATOM     21  C   UNL d   1       5.966   0.240  -0.868  0.00  0.00     0.025 A 
ENDBRANCH  14  17
ENDBRANCH   1  13
TORSDOF 3
