REMARK  3 active torsions:
REMARK  status: ('A' for Active; 'I' for Inactive)
REMARK    1  A    between atoms: C_6  and  C_1 
REMARK    2  A    between atoms: N_19  and  C_4 
REMARK    3  A    between atoms: C_15  and  C_7 
ROOT
ATOM      1  C   UNL d   1       0.446  -1.317  -0.113  0.00  0.00     0.121 A 
ATOM      2  C   UNL d   1      -0.888  -1.150  -0.084  0.00  0.00     0.072 A 
ATOM      3  C   UNL d   1      -0.414   1.337  -0.038  0.00  0.00     0.081 A 
ATOM      4  C   UNL d   1       0.903   1.041  -0.039  0.00  0.00     0.138 A 
ATOM      5  O   UNL d   1       1.349  -0.276  -0.026  0.00  0.00    -0.294 OA
ATOM      6  C   UNL d   1      -1.472   0.245   0.030  0.00  0.00     0.113 A 
ATOM      7  C   UNL d   1      -1.784  -2.260  -0.183  0.00  0.00     0.099 C 
ATOM      8  C   UNL d   1      -0.848   2.695  -0.099  0.00  0.00     0.100 C 
ATOM      9  N   UNL d   1      -2.533  -3.143  -0.247  0.00  0.00    -0.192 NA
ATOM     10  N   UNL d   1      -1.196   3.798  -0.189  0.00  0.00    -0.191 NA
ENDROOT
BRANCH   1  11
ATOM     11  C   UNL d   1       1.043  -2.574  -0.378  0.00  0.00     0.069 A 
ATOM     12  N   UNL d   1       1.330  -3.487   0.614  0.00  0.00    -0.359 N 
ATOM     13  C   UNL d   1       1.802  -4.644   0.037  0.00  0.00     0.091 A 
ATOM     14  C   UNL d   1       1.166  -3.348   2.046  0.00  0.00     0.156 C 
ATOM     15  C   UNL d   1       1.862  -4.458  -1.325  0.00  0.00     0.020 A 
ATOM     16  C   UNL d   1       1.405  -3.148  -1.584  0.00  0.00     0.034 A 
ENDBRANCH   1  11
BRANCH   6  17
ATOM     17  C   UNL d   1      -2.593   0.472  -0.988  0.00  0.00    -0.043 A 
ATOM     18  C   UNL d   1      -3.896   0.752  -0.538  0.00  0.00     0.010 A 
ATOM     19  C   UNL d   1      -4.933   0.959  -1.450  0.00  0.00     0.023 A 
ATOM     20  C   UNL d   1      -4.684   0.886  -2.824  0.00  0.00     0.044 A 
ATOM     21  C   UNL d   1      -5.748   1.096  -3.758  0.00  0.00     0.099 C 
ATOM     22  C   UNL d   1      -3.393   0.609  -3.281  0.00  0.00     0.023 A 
ATOM     23  N   UNL d   1      -6.612   1.269  -4.516  0.00  0.00    -0.191 NA
ATOM     24  C   UNL d   1      -2.353   0.404  -2.372  0.00  0.00     0.010 A 
ENDBRANCH   6  17
BRANCH   4  25
ATOM     25  N   UNL d   1       1.931   1.955  -0.059  0.00  0.00    -0.282 NA
ATOM     26  H   UNL d   1       1.716   2.865  -0.462  0.00  0.00     0.126 HD
ATOM     27  H   UNL d   1       2.800   1.558  -0.408  0.00  0.00     0.126 HD
ENDBRANCH   4  25
TORSDOF 3
