REMARK  4 active torsions:
REMARK  status: ('A' for Active; 'I' for Inactive)
REMARK    1  A    between atoms: C_2  and  C_1 
REMARK    2  A    between atoms: O_4  and  C_2 
REMARK    3  A    between atoms: C_7  and  O_4 
REMARK    4  A    between atoms: N_6  and  C_8 
ROOT
ATOM      1  C   UNL d   1       2.783   3.072  -0.015  0.00  0.00     0.106 A 
ATOM      2  C   UNL d   1       3.312   2.290  -1.062  0.00  0.00     0.064 A 
ATOM      3  C   UNL d   1       3.615   3.691   0.935  0.00  0.00     0.040 A 
ATOM      4  C   UNL d   1       4.717   2.185  -1.115  0.00  0.00     0.032 A 
ATOM      5  C   UNL d   1       4.997   3.574   0.834  0.00  0.00     0.003 A 
ATOM      6  C   UNL d   1       5.551   2.817  -0.189  0.00  0.00     0.002 A 
ENDROOT
BRANCH   1   7
ATOM      7  O   UNL d   1       1.377   3.122   0.161  0.00  0.00    -0.272 OA
BRANCH   7   8
ATOM      8  C   UNL d   1       0.724   4.323   0.472  0.00  0.00     0.307 C 
ATOM      9  O   UNL d   1       1.292   5.402   0.594  0.00  0.00    -0.258 OA
BRANCH   8  10
ATOM     10  C   UNL d   1      -0.714   4.116   0.603  0.00  0.00     0.097 A 
ATOM     11  C   UNL d   1      -1.695   5.028   0.944  0.00  0.00     0.034 A 
ATOM     12  C   UNL d   1      -3.013   4.497   0.919  0.00  0.00     0.028 A 
ATOM     13 BR   UNL d   1      -1.443   6.847   1.412  0.00  0.00    -0.049 Br
ATOM     14  C   UNL d   1      -3.014   3.167   0.570  0.00  0.00     0.052 A 
ATOM     15  S   UNL d   1      -1.435   2.576   0.314  0.00  0.00    -0.095 SA
ENDBRANCH   8  10
ENDBRANCH   7   8
ENDBRANCH   1   7
BRANCH   2  16
ATOM     16  N   UNL d   1       2.586   1.666  -2.073  0.00  0.00    -0.375 N 
ATOM     17  C   UNL d   1       1.252   2.134  -2.471  0.00  0.00     0.149 C 
ATOM     18  C   UNL d   1       0.967   1.659  -3.906  0.00  0.00     0.187 C 
ATOM     19  O   UNL d   1       1.065   0.227  -4.018  0.00  0.00    -0.388 OA
ATOM     20  C   UNL d   1       2.381  -0.213  -3.637  0.00  0.00     0.187 C 
ATOM     21  C   UNL d   1       2.723   0.199  -2.194  0.00  0.00     0.149 C 
ENDBRANCH   2  16
TORSDOF 4
