REMARK  8 active torsions:
REMARK  status: ('A' for Active; 'I' for Inactive)
REMARK    1  A    between atoms: O_33  and  C_9 
REMARK    2  A    between atoms: O_34  and  C_10 
REMARK    3  A    between atoms: O_35  and  C_11 
REMARK    4  A    between atoms: O_36  and  C_12 
REMARK    5  A    between atoms: C_30  and  C_13 
REMARK    6  A    between atoms: C_29  and  C_14 
REMARK    7  A    between atoms: C_31  and  C_15 
REMARK    8  A    between atoms: C_32  and  C_16 
ROOT
ATOM      1  C   UNL d   1       3.289   0.482  -0.395  0.00  0.00    -0.020 A 
ATOM      2  C   UNL d   1      -2.731   1.731  -0.203  0.00  0.00    -0.020 A 
ATOM      3  C   UNL d   1       2.772  -1.893  -0.187  0.00  0.00    -0.020 A 
ATOM      4  C   UNL d   1      -3.303  -0.641  -0.381  0.00  0.00    -0.020 A 
ATOM      5  C   UNL d   1       1.843   2.559  -0.459  0.00  0.00    -0.019 A 
ATOM      6  C   UNL d   1      -0.526   3.040  -0.192  0.00  0.00    -0.019 A 
ATOM      7  C   UNL d   1       0.578  -3.164  -0.185  0.00  0.00    -0.019 A 
ATOM      8  C   UNL d   1      -1.810  -2.679  -0.387  0.00  0.00    -0.019 A 
ATOM      9  C   UNL d   1       2.692  -0.682  -0.880  0.00  0.00     0.079 A 
ATOM     10  C   UNL d   1      -2.593   0.481  -0.816  0.00  0.00     0.079 A 
ATOM     11  C   UNL d   1       0.549   2.573  -0.996  0.00  0.00     0.081 A 
ATOM     12  C   UNL d   1      -0.520  -2.696  -0.954  0.00  0.00     0.081 A 
ATOM     13  C   UNL d   1       4.183  -0.785   1.511  0.00  0.00    -0.049 A 
ATOM     14  C   UNL d   1       1.005   3.636   1.636  0.00  0.00    -0.049 A 
ATOM     15  C   UNL d   1      -4.392   0.750   1.333  0.00  0.00    -0.049 A 
ATOM     16  C   UNL d   1      -0.897  -3.607   1.729  0.00  0.00    -0.049 A 
ATOM     17  C   UNL d   1      -1.973   2.961  -0.673  0.00  0.00     0.083 C 
ATOM     18  C   UNL d   1       3.058   1.840  -1.034  0.00  0.00     0.083 C 
ATOM     19  C   UNL d   1       2.022  -3.125  -0.664  0.00  0.00     0.083 C 
ATOM     20  C   UNL d   1      -3.053  -2.016  -0.970  0.00  0.00     0.083 C 
ATOM     21  C   UNL d   1       4.047   0.405   0.783  0.00  0.00     0.018 A 
ATOM     22  C   UNL d   1      -4.204  -0.485   0.684  0.00  0.00     0.018 A 
ATOM     23  C   UNL d   1       2.038   3.136   0.831  0.00  0.00     0.018 A 
ATOM     24  C   UNL d   1      -3.630   1.842   0.877  0.00  0.00     0.018 A 
ATOM     25  C   UNL d   1      -0.287   3.555   1.101  0.00  0.00     0.018 A 
ATOM     26  C   UNL d   1       0.361  -3.617   1.133  0.00  0.00     0.018 A 
ATOM     27  C   UNL d   1      -1.966  -3.168   0.936  0.00  0.00     0.018 A 
ATOM     28  C   UNL d   1       3.524  -1.927   1.007  0.00  0.00     0.018 A 
ENDROOT
BRANCH  13  29
ATOM     29  C   UNL d   1       4.984  -0.829   2.824  0.00  0.00    -0.024 C 
ATOM     30  C   UNL d   1       5.610   0.535   3.213  0.00  0.00     0.019 C 
ATOM     31  C   UNL d   1       4.059  -1.248   3.986  0.00  0.00     0.019 C 
ATOM     32  C   UNL d   1       6.143  -1.837   2.697  0.00  0.00     0.019 C 
ENDBRANCH  13  29
BRANCH   9  33
ATOM     33  O   UNL d   1       2.046  -0.609  -2.075  0.00  0.00    -0.360 OA
ATOM     34  H   UNL d   1       1.283  -1.220  -2.052  0.00  0.00     0.217 HD
ENDBRANCH   9  33
BRANCH  11  35
ATOM     35  O   UNL d   1       0.123   2.107  -2.205  0.00  0.00    -0.355 OA
ATOM     36  C   UNL d   1       0.953   1.983  -3.344  0.00  0.00     0.210 C 
ENDBRANCH  11  35
BRANCH  12  37
ATOM     37  O   UNL d   1      -0.160  -2.172  -2.171  0.00  0.00    -0.355 OA
ATOM     38  C   UNL d   1      -0.993  -2.430  -3.296  0.00  0.00     0.210 C 
ENDBRANCH  12  37
BRANCH  14  39
ATOM     39  C   UNL d   1       1.245   4.196   3.051  0.00  0.00    -0.024 C 
ATOM     40  C   UNL d   1       2.730   4.172   3.484  0.00  0.00     0.019 C 
ATOM     41  C   UNL d   1       0.777   5.665   3.119  0.00  0.00     0.019 C 
ATOM     42  C   UNL d   1       0.461   3.375   4.099  0.00  0.00     0.019 C 
ENDBRANCH  14  39
BRANCH  16  43
ATOM     43  C   UNL d   1      -1.111  -3.967   3.209  0.00  0.00    -0.024 C 
ATOM     44  C   UNL d   1       0.194  -4.356   3.942  0.00  0.00     0.019 C 
ATOM     45  C   UNL d   1      -1.704  -2.754   3.961  0.00  0.00     0.019 C 
ATOM     46  C   UNL d   1      -2.081  -5.159   3.327  0.00  0.00     0.019 C 
ENDBRANCH  16  43
BRANCH  10  47
ATOM     47  O   UNL d   1      -1.764   0.307  -1.884  0.00  0.00    -0.360 OA
ATOM     48  H   UNL d   1      -0.910   0.713  -1.647  0.00  0.00     0.217 HD
ENDBRANCH  10  47
BRANCH  15  49
ATOM     49  C   UNL d   1      -5.400   0.852   2.488  0.00  0.00    -0.024 C 
ATOM     50  C   UNL d   1      -5.489   2.265   3.104  0.00  0.00     0.019 C 
ATOM     51  C   UNL d   1      -6.808   0.482   1.973  0.00  0.00     0.019 C 
ATOM     52  C   UNL d   1      -5.009  -0.120   3.622  0.00  0.00     0.019 C 
ENDBRANCH  15  49
TORSDOF 8
