REMARK  5 active torsions:
REMARK  status: ('A' for Active; 'I' for Inactive)
REMARK    1  A    between atoms: N_10  and  C_1 
REMARK    2  A    between atoms: O_11  and  C_6 
REMARK    3  A    between atoms: O_12  and  C_7 
REMARK    4  A    between atoms: C_14  and  O_11 
REMARK    5  A    between atoms: C_15  and  O_12 
ROOT
ATOM      1  C   UNL d   1      -1.465  -0.154  -0.071  0.00  0.00     0.686 C 
ATOM      2  N   UNL d   1      -0.724  -1.232   0.128  0.00  0.00    -0.154 N 
ATOM      3  HN  UNL d   1      -1.138  -2.153   0.273  1.00  0.00     0.188 HD
ATOM      4  N   UNL d   1      -0.948   1.060  -0.152  0.00  0.00    -0.154 N 
ATOM      5  HN  UNL d   1      -1.524   1.881  -0.338  1.00  0.00     0.188 HD
ATOM      6  C   UNL d   1       0.595  -1.046   0.127  0.00  0.00     0.246 C 
ATOM      7  C   UNL d   1       0.373   1.144   0.023  0.00  0.00     0.246 C 
ATOM      8  N   UNL d   1       1.210   0.123   0.122  0.00  0.00    -0.286 N 
ATOM      9  HN  UNL d   1       2.223   0.228   0.188  1.00  0.00     0.173 HD
ENDROOT
BRANCH   6  10
ATOM     10  O   UNL d   1       1.429  -2.158   0.138  0.00  0.00    -0.279 OA
BRANCH  10  11
ATOM     11  C   UNL d   1       0.969  -3.308  -0.467  0.00  0.00     0.079 A 
ATOM     12  C   UNL d   1       0.236  -3.320  -1.661  0.00  0.00     0.039 A 
ATOM     13  C   UNL d   1      -0.202  -4.529  -2.204  0.00  0.00     0.026 A 
ATOM     14  C   UNL d   1       0.127  -5.728  -1.576  0.00  0.00     0.034 A 
ATOM     15  C   UNL d   1       0.899  -5.727  -0.415  0.00  0.00     0.026 A 
ATOM     16 CL   UNL d   1      -0.420  -7.217  -2.240  0.00  0.00    -0.084 Cl
ATOM     17  C   UNL d   1       1.324  -4.516   0.138  0.00  0.00     0.039 A 
ENDBRANCH  10  11
ENDBRANCH   6  10
BRANCH   1  18
ATOM     18  N   UNL d   1      -2.815  -0.328  -0.255  0.00  0.00    -0.216 N 
ATOM     19  C   UNL d   1      -3.517  -1.385   0.471  0.00  0.00     0.151 C 
ATOM     20  C   UNL d   1      -4.390  -0.806   1.593  0.00  0.00     0.094 C 
ATOM     21  S   UNL d   1      -5.632   0.385   0.976  0.00  0.00    -0.166 SA
ATOM     22  C   UNL d   1      -4.492   1.478   0.054  0.00  0.00     0.094 C 
ATOM     23  C   UNL d   1      -3.614   0.697  -0.922  0.00  0.00     0.151 C 
ENDBRANCH   1  18
BRANCH   7  24
ATOM     24  O   UNL d   1       0.966   2.399   0.069  0.00  0.00    -0.279 OA
BRANCH  24  25
ATOM     25  C   UNL d   1       0.230   3.433   0.603  0.00  0.00     0.079 A 
ATOM     26  C   UNL d   1      -0.597   3.295   1.724  0.00  0.00     0.039 A 
ATOM     27  C   UNL d   1      -1.311   4.393   2.206  0.00  0.00     0.026 A 
ATOM     28  C   UNL d   1      -1.167   5.636   1.591  0.00  0.00     0.034 A 
ATOM     29  C   UNL d   1      -0.306   5.790   0.504  0.00  0.00     0.026 A 
ATOM     30 CL   UNL d   1      -2.051   6.987   2.182  0.00  0.00    -0.084 Cl
ATOM     31  C   UNL d   1       0.397   4.688   0.013  0.00  0.00     0.039 A 
ENDBRANCH  24  25
ENDBRANCH   7  24
TORSDOF 5
