REMARK  5 active torsions:
REMARK  status: ('A' for Active; 'I' for Inactive)
REMARK    1  A    between atoms: C_11  and  C_3 
REMARK    2  A    between atoms: C_14  and  C_4 
REMARK    3  A    between atoms: C_13  and  C_10 
REMARK    4  A    between atoms: N_15  and  C_14 
REMARK    5  A    between atoms: O_24  and  N_15 
ROOT
ATOM      1  C   UNL d   1      -0.479  -3.695  -0.054  0.00  0.00     0.143 A 
ATOM      2  N   UNL d   1      -0.975  -5.012  -0.053  0.00  0.00    -0.234 N 
ATOM      3  C   UNL d   1      -2.345  -5.248  -0.025  0.00  0.00     0.144 A 
ATOM      4  C   UNL d   1       0.904  -3.795  -0.027  0.00  0.00     0.072 A 
ATOM      5  N   UNL d   1      -1.309  -2.603  -0.074  0.00  0.00    -0.336 N 
ATOM      6  HN  UNL d   1      -0.935  -1.654  -0.109  1.00  0.00     0.167 HD
ATOM      7  C   UNL d   1      -3.196  -4.203  -0.005  0.00  0.00     0.071 A 
ATOM      8  N   UNL d   1       0.033  -5.909  -0.082  0.00  0.00    -0.302 N 
ATOM      9  HN  UNL d   1      -0.042  -6.926  -0.117  1.00  0.00     0.186 HD
ATOM     10  C   UNL d   1      -2.599  -2.825  -0.046  0.00  0.00     0.120 A 
ATOM     11  C   UNL d   1       1.145  -5.182  -0.057  0.00  0.00     0.127 A 
ENDROOT
BRANCH   4  12
ATOM     12  C   UNL d   1       1.899  -2.746   0.013  0.00  0.00     0.134 C 
ATOM     13  N   UNL d   1       1.408  -1.478   0.096  0.00  0.00    -0.383 N 
ATOM     14  H   UNL d   1       0.462  -1.334  -0.245  0.00  0.00     0.157 HD
ATOM     15  H   UNL d   1       2.085  -0.780  -0.189  0.00  0.00     0.157 HD
BRANCH  12  16
ATOM     16  N   UNL d   1       3.147  -3.091  -0.038  0.00  0.00    -0.253 N 
ATOM     17  HN  UNL d   1       3.480  -4.054  -0.098  1.00  0.00     0.196 HD
BRANCH  16  18
ATOM     18  O   UNL d   1       3.978  -1.959   0.000  0.00  0.00    -0.288 OA
ATOM     19  H   UNL d   1       4.864  -2.361   0.061  0.00  0.00     0.244 HD
ENDBRANCH  16  18
ENDBRANCH  12  16
ENDBRANCH   4  12
BRANCH   3  20
ATOM     20  C   UNL d   1      -2.833  -6.653  -0.013  0.00  0.00     0.434 C 
ATOM     21  F   UNL d   1      -1.901  -7.630   0.010  0.00  0.00    -0.165 F 
ATOM     22  F   UNL d   1      -3.637  -6.865   1.065  0.00  0.00    -0.165 F 
ATOM     23  F   UNL d   1      -3.612  -6.888  -1.105  0.00  0.00    -0.165 F 
ENDBRANCH   3  20
BRANCH  10  24
ATOM     24  C   UNL d   1      -3.579  -1.642  -0.068  0.00  0.00     0.432 C 
ATOM     25  F   UNL d   1      -4.881  -2.040  -0.051  0.00  0.00    -0.165 F 
ATOM     26  F   UNL d   1      -3.416  -0.818   1.001  0.00  0.00    -0.165 F 
ATOM     27  F   UNL d   1      -3.428  -0.877  -1.182  0.00  0.00    -0.165 F 
ENDBRANCH  10  24
TORSDOF 5
