REMARK  3 active torsions:
REMARK  status: ('A' for Active; 'I' for Inactive)
REMARK    1  A    between atoms: C_2  and  S_1 
REMARK    2  A    between atoms: C_3  and  C_4 
REMARK    3  A    between atoms: O_9  and  C_3 
ROOT
ATOM      1  C   UNL d   1       0.481  -0.037  -1.570  0.00  0.00     0.059 A 
ATOM      2  C   UNL d   1      -0.421  -1.248  -3.459  0.00  0.00     0.039 A 
ATOM      3  C   UNL d   1       0.173  -1.256  -2.191  0.00  0.00     0.041 A 
ATOM      4  C   UNL d   1       0.216   1.180  -2.204  0.00  0.00     0.023 A 
ATOM      5  C   UNL d   1      -0.678  -0.027  -4.098  0.00  0.00     0.018 A 
ATOM      6  C   UNL d   1      -0.360   1.182  -3.474  0.00  0.00     0.003 A 
ENDROOT
BRANCH   1   7
ATOM      7  S   UNL d   1       1.052  -0.040   0.117  0.00  0.00     0.171 S 
ATOM      8  O   UNL d   1       0.534  -1.255   0.721  0.00  0.00    -0.223 OA
ATOM      9  O   UNL d   1       0.741   1.257   0.682  0.00  0.00    -0.223 OA
ATOM     10  C   UNL d   1       2.813  -0.189   0.007  0.00  0.00     0.167 C 
ENDBRANCH   1   7
BRANCH   2  11
ATOM     11  C   UNL d   1      -0.775  -2.495  -4.189  0.00  0.00     0.176 C 
ATOM     12  O   UNL d   1      -0.793  -2.554  -5.405  0.00  0.00    -0.646 OA
BRANCH  11  13
ATOM     13  O   UNL d   1      -1.099  -3.537  -3.397  0.00  0.00    -0.773 OA
ATOM     14  H   UNL d   1      -1.231  -3.340  -2.453  0.00  0.00     0.167 HD
ENDBRANCH  11  13
ENDBRANCH   2  11
TORSDOF 3
