REMARK  2 active torsions:
REMARK  status: ('A' for Active; 'I' for Inactive)
REMARK    1  A    between atoms: S_6  and  C_1 
REMARK    2  A    between atoms: C_9  and  C_5 
ROOT
ATOM      1  C   UNL d   1      -0.085  -1.386  -0.028  0.00  0.00     0.122 A 
ATOM      2  C   UNL d   1       1.133  -0.732  -0.031  0.00  0.00     0.086 A 
ATOM      3  S   UNL d   1      -1.384  -0.279  -0.027  0.00  0.00    -0.064 SA
ATOM      4  C   UNL d   1      -0.336   1.051   0.018  0.00  0.00     0.088 A 
ATOM      5  C   UNL d   1       1.006   0.715  -0.015  0.00  0.00     0.026 A 
ATOM      6  C   UNL d   1       2.375  -1.447  -0.042  0.00  0.00     0.102 C 
ATOM      7  N   UNL d   1       3.405  -1.982  -0.016  0.00  0.00    -0.191 NA
ATOM      8 CL   UNL d   1      -1.093   2.600   0.132  0.00  0.00    -0.075 Cl
ENDROOT
BRANCH   1   9
ATOM      9  S   UNL d   1      -0.548  -3.103   0.006  0.00  0.00     0.179 S 
ATOM     10  O   UNL d   1       0.691  -3.839  -0.070  0.00  0.00    -0.222 OA
ATOM     11  O   UNL d   1      -1.443  -3.241   1.139  0.00  0.00    -0.222 OA
ATOM     12  C   UNL d   1      -1.453  -3.359  -1.497  0.00  0.00     0.167 C 
ENDBRANCH   1   9
BRANCH   5  13
ATOM     13  C   UNL d   1       2.094   1.710   0.038  0.00  0.00    -0.022 A 
ATOM     14  C   UNL d   1       2.040   2.907  -0.690  0.00  0.00     0.013 A 
ATOM     15  C   UNL d   1       3.053   3.868  -0.577  0.00  0.00     0.007 A 
ATOM     16  C   UNL d   1       4.171   3.631   0.226  0.00  0.00    -0.062 A 
ATOM     17  C   UNL d   1       4.262   2.418   0.910  0.00  0.00     0.007 A 
ATOM     18  C   UNL d   1       5.239   4.675   0.365  0.00  0.00     0.048 C 
ATOM     19  C   UNL d   1       3.228   1.479   0.831  0.00  0.00     0.013 A 
ENDBRANCH   5  13
TORSDOF 2
