REMARK  6 active torsions:
REMARK  status: ('A' for Active; 'I' for Inactive)
REMARK    1  A    between atoms: C_4  and  C_1 
REMARK    2  A    between atoms: O_15  and  C_2 
REMARK    3  A    between atoms: C_8  and  C_4 
REMARK    4  A    between atoms: C_13  and  C_4 
REMARK    5  A    between atoms: N_5  and  C_9 
REMARK    6  A    between atoms: C_16  and  C_13 
ROOT
ATOM      1  C   UNL d   1       3.101  -1.653   0.067  0.00  0.00     0.070 C 
ENDROOT
BRANCH   1   2
ATOM      2  C   UNL d   1       1.854  -0.756   0.234  0.00  0.00     0.060 A 
ATOM      3  C   UNL d   1       1.687   0.500  -0.227  0.00  0.00     0.091 A 
ATOM      4  C   UNL d   1       0.479   1.268   0.072  0.00  0.00     0.032 A 
ATOM      5  C   UNL d   1       0.246   2.556  -0.429  0.00  0.00     0.017 A 
ATOM      6  C   UNL d   1      -0.489   0.698   0.887  0.00  0.00     0.092 A 
ATOM      7  C   UNL d   1      -0.924   3.248  -0.103  0.00  0.00     0.001 A 
ATOM      8  C   UNL d   1      -1.875   2.659   0.730  0.00  0.00     0.003 A 
ATOM      9  C   UNL d   1      -1.661   1.375   1.227  0.00  0.00     0.038 A 
ATOM     10  O   UNL d   1      -0.334  -0.606   1.379  0.00  0.00    -0.274 OA
ATOM     11  C   UNL d   1       0.755  -1.393   1.026  0.00  0.00     0.298 A 
ATOM     12  O   UNL d   1       0.784  -2.582   1.324  0.00  0.00    -0.259 OA
BRANCH   3  13
ATOM     13  O   UNL d   1       2.579   1.159  -1.048  0.00  0.00    -0.359 OA
ATOM     14  H   UNL d   1       3.046   0.514  -1.602  0.00  0.00     0.217 HD
ENDBRANCH   3  13
ENDBRANCH   1   2
BRANCH   1  15
ATOM     15  C   UNL d   1       3.056  -2.532  -1.208  0.00  0.00    -0.016 A 
ATOM     16  C   UNL d   1       3.730  -3.776  -1.366  0.00  0.00     0.110 A 
ATOM     17  C   UNL d   1       3.605  -4.508  -2.571  0.00  0.00     0.037 A 
ATOM     18  C   UNL d   1       2.825  -4.040  -3.625  0.00  0.00     0.002 A 
ATOM     19  C   UNL d   1       2.163  -2.832  -3.494  0.00  0.00     0.001 A 
ATOM     20  C   UNL d   1       2.279  -2.096  -2.313  0.00  0.00     0.010 A 
BRANCH  16  21
ATOM     21  N   UNL d   1       4.598  -4.397  -0.332  0.00  0.00    -0.115 N 
ATOM     22  O   UNL d   1       4.795  -3.799   0.730  0.00  0.00    -0.532 OA
ATOM     23  O   UNL d   1       5.128  -5.485  -0.607  0.00  0.00    -0.532 OA
ENDBRANCH  16  21
ENDBRANCH   1  15
BRANCH   1  24
ATOM     24  C   UNL d   1       4.453  -0.897   0.183  0.00  0.00     0.092 C 
BRANCH  24  25
ATOM     25  C   UNL d   1       4.652  -0.228   1.535  0.00  0.00     0.124 C 
ATOM     26  O   UNL d   1       3.816  -0.280   2.435  0.00  0.00    -0.298 OA
ATOM     27  C   UNL d   1       5.948   0.517   1.733  0.00  0.00     0.091 C 
ENDBRANCH  24  25
ENDBRANCH   1  24
TORSDOF 6
