REMARK  6 active torsions:
REMARK  status: ('A' for Active; 'I' for Inactive)
REMARK    1  A    between atoms: N_3  and  C_1 
REMARK    2  A    between atoms: C_5  and  C_4 
REMARK    3  A    between atoms: N_17  and  C_5 
REMARK    4  A    between atoms: O_12  and  N_9 
REMARK    5  A    between atoms: C_11  and  O_12 
REMARK    6  A    between atoms: C_15  and  C_11 
ROOT
ATOM      1  C   UNL d   1      -0.225  -2.754   0.613  0.00  0.00     0.133 C 
ATOM      2  N   UNL d   1      -1.313  -3.145  -0.003  0.00  0.00    -0.244 N 
ATOM      3  HN  UNL d   1      -1.336  -3.965  -0.608  1.00  0.00     0.196 HD
ENDROOT
BRANCH   1   4
ATOM      4  C   UNL d   1      -0.094  -1.565   1.465  0.00  0.00     0.116 A 
ATOM      5  S   UNL d   1      -0.823  -0.055   1.108  0.00  0.00    -0.044 SA
ATOM      6  C   UNL d   1      -0.098   0.600   2.493  0.00  0.00     0.161 A 
ATOM      7  C   UNL d   1       0.703  -0.325   3.115  0.00  0.00     0.132 A 
ATOM      8  N   UNL d   1       0.725  -1.571   2.506  0.00  0.00    -0.355 N 
ATOM      9  HN  UNL d   1       1.284  -2.367   2.812  1.00  0.00     0.166 HD
BRANCH   6  10
ATOM     10  N   UNL d   1      -0.330   1.953   2.890  0.00  0.00    -0.107 N 
ATOM     11  O   UNL d   1       0.297   2.345   3.883  0.00  0.00    -0.531 OA
ATOM     12  O   UNL d   1      -1.134   2.624   2.234  0.00  0.00    -0.531 OA
ENDBRANCH   6  10
ENDBRANCH   1   4
BRANCH   1  13
ATOM     13  N   UNL d   1       0.858  -3.598   0.460  0.00  0.00    -0.285 NA
ATOM     14  H   UNL d   1       1.504  -3.585   1.244  0.00  0.00     0.125 HD
ATOM     15  H   UNL d   1       0.583  -4.530   0.168  0.00  0.00     0.125 HD
ENDBRANCH   1  13
BRANCH   2  16
ATOM     16  O   UNL d   1      -2.448  -2.346   0.234  0.00  0.00    -0.193 OA
BRANCH  16  17
ATOM     17  C   UNL d   1      -3.577  -3.043  -0.095  0.00  0.00     0.315 C 
ATOM     18  O   UNL d   1      -3.647  -4.221  -0.422  0.00  0.00    -0.257 OA
BRANCH  17  19
ATOM     19  C   UNL d   1      -4.791  -2.186   0.031  0.00  0.00     0.041 A 
ATOM     20  C   UNL d   1      -6.043  -2.814  -0.073  0.00  0.00     0.019 A 
ATOM     21  C   UNL d   1      -7.224  -2.073   0.024  0.00  0.00     0.025 A 
ATOM     22  C   UNL d   1      -7.160  -0.696   0.225  0.00  0.00     0.034 A 
ATOM     23  C   UNL d   1      -5.925  -0.057   0.325  0.00  0.00     0.025 A 
ATOM     24 CL   UNL d   1      -8.611   0.218   0.344  0.00  0.00    -0.084 Cl
ATOM     25  C   UNL d   1      -4.740  -0.798   0.226  0.00  0.00     0.019 A 
ENDBRANCH  17  19
ENDBRANCH  16  17
ENDBRANCH   2  16
TORSDOF 6
