REMARK  8 active torsions:
REMARK  status: ('A' for Active; 'I' for Inactive)
REMARK    1  A    between atoms: S_13  and  C_4 
REMARK    2  A    between atoms: C_10  and  C_6 
REMARK    3  A    between atoms: O_19  and  C_10 
REMARK    4  A    between atoms: C_17  and  S_13 
REMARK    5  A    between atoms: C_14  and  C_17 
REMARK    6  A    between atoms: O_21  and  C_14 
REMARK    7  A    between atoms: C_23  and  O_19 
REMARK    8  A    between atoms: C_24  and  O_21 
ROOT
ATOM      1  S   UNL d   1      -1.044  -2.168   0.462  0.00  0.00     0.267 S 
ATOM      2  C   UNL d   1      -1.790  -0.634   0.243  0.00  0.00     0.116 A 
ATOM      3  C   UNL d   1      -0.917   0.500   0.014  0.00  0.00     0.025 A 
ATOM      4  C   UNL d   1      -3.132  -0.336   0.229  0.00  0.00     0.067 A 
ATOM      5  N   UNL d   1       0.395  -2.046  -0.402  0.00  0.00    -0.275 N 
ATOM      6  C   UNL d   1      -1.670   1.640  -0.253  0.00  0.00     0.094 A 
ATOM      7  S   UNL d   1      -3.356   1.316  -0.149  0.00  0.00    -0.075 SA
ATOM      8  C   UNL d   1       0.565   0.397   0.032  0.00  0.00     0.005 A 
ATOM      9  C   UNL d   1       1.187  -0.861  -0.192  0.00  0.00     0.056 A 
ATOM     10  O   UNL d   1      -1.916  -3.127  -0.172  0.00  0.00    -0.200 OA
ATOM     11  O   UNL d   1      -0.765  -2.206   1.886  0.00  0.00    -0.200 OA
ATOM     12  C   UNL d   1       0.849  -3.154  -1.239  0.00  0.00     0.170 C 
ATOM     13  C   UNL d   1       1.393   1.493   0.319  0.00  0.00     0.014 A 
ATOM     14  C   UNL d   1       2.588  -0.961  -0.204  0.00  0.00     0.031 A 
ATOM     15  C   UNL d   1       2.788   1.382   0.295  0.00  0.00     0.001 A 
ATOM     16  C   UNL d   1       3.385   0.158   0.027  0.00  0.00     0.002 A 
ENDROOT
BRANCH   4  17
ATOM     17  S   UNL d   1      -4.572  -1.331   0.405  0.00  0.00    -0.111 SA
BRANCH  17  18
ATOM     18  C   UNL d   1      -4.472  -1.998   2.081  0.00  0.00     0.191 C 
BRANCH  18  19
ATOM     19  C   UNL d   1      -4.369  -0.963   3.178  0.00  0.00     0.268 C 
ATOM     20  O   UNL d   1      -4.251   0.246   3.051  0.00  0.00    -0.264 OA
BRANCH  19  21
ATOM     21  O   UNL d   1      -4.340  -1.624   4.378  0.00  0.00    -0.321 OA
BRANCH  21  22
ATOM     22  C   UNL d   1      -3.794  -0.883   5.478  0.00  0.00     0.174 C 
ATOM     23  C   UNL d   1      -2.287  -1.071   5.462  0.00  0.00     0.034 C 
ENDBRANCH  21  22
ENDBRANCH  19  21
ENDBRANCH  18  19
ENDBRANCH  17  18
ENDBRANCH   4  17
BRANCH   6  24
ATOM     24  C   UNL d   1      -1.271   2.987  -0.620  0.00  0.00     0.301 C 
ATOM     25  O   UNL d   1      -0.291   3.291  -1.294  0.00  0.00    -0.259 OA
BRANCH  24  26
ATOM     26  O   UNL d   1      -2.080   3.893   0.003  0.00  0.00    -0.317 OA
BRANCH  26  27
ATOM     27  C   UNL d   1      -1.564   5.221   0.149  0.00  0.00     0.174 C 
ATOM     28  C   UNL d   1      -0.867   5.294   1.496  0.00  0.00     0.034 C 
ENDBRANCH  26  27
ENDBRANCH  24  26
ENDBRANCH   6  24
TORSDOF 8
