REMARK  2 active torsions:
REMARK  status: ('A' for Active; 'I' for Inactive)
REMARK    1  A    between atoms: O_14  and  C_1 
REMARK    2  A    between atoms: C_9  and  O_14 
ROOT
ATOM      1  C   UNL d   1       4.417   2.775   1.324  0.00  0.00     0.031 A 
ATOM      2  C   UNL d   1       4.766   4.030   0.786  0.00  0.00     0.084 A 
ATOM      3  C   UNL d   1       4.771   1.640   0.574  0.00  0.00     0.092 A 
ATOM      4  N   UNL d   1       5.474   4.144  -0.359  0.00  0.00    -0.357 N 
ATOM      5  HN  UNL d   1       5.712   5.066  -0.724  1.00  0.00     0.166 HD
ATOM      6  C   UNL d   1       4.351   5.168   1.484  0.00  0.00     0.146 A 
ATOM      7  C   UNL d   1       5.524   1.760  -0.591  0.00  0.00     0.062 A 
ATOM      8  C   UNL d   1       3.664   5.104   2.693  0.00  0.00     0.086 A 
ATOM      9  C   UNL d   1       3.733   2.703   2.559  0.00  0.00     0.059 A 
ATOM     10  C   UNL d   1       5.864   3.029  -1.018  0.00  0.00     0.008 A 
ATOM     11  C   UNL d   1       3.376   3.865   3.230  0.00  0.00     0.120 A 
ATOM     12  F   UNL d   1       4.618   6.388   0.987  0.00  0.00    -0.204 F 
ATOM     13  F   UNL d   1       2.745   3.781   4.408  0.00  0.00    -0.206 F 
ATOM     14  C   UNL d   1       6.650   3.216  -2.280  0.00  0.00     0.068 C 
ENDROOT
BRANCH   3  15
ATOM     15  O   UNL d   1       4.372   0.390   0.999  0.00  0.00    -0.287 OA
BRANCH  15  16
ATOM     16  C   UNL d   1       3.527  -0.313   0.231  0.00  0.00     0.193 A 
ATOM     17  N   UNL d   1       3.001   0.151  -0.877  0.00  0.00    -0.328 N 
ATOM     18  C   UNL d   1       2.184  -0.802  -1.467  0.00  0.00     0.074 A 
ATOM     19  HN  UNL d   1       3.170   1.084  -1.254  1.00  0.00     0.168 HD
ATOM     20  C   UNL d   1       1.454  -0.700  -2.672  0.00  0.00     0.063 A 
ATOM     21  C   UNL d   1       2.095  -2.006  -0.761  0.00  0.00     0.039 A 
ATOM     22  C   UNL d   1       0.675  -1.748  -3.154  0.00  0.00     0.050 A 
ATOM     23 CL   UNL d   1       1.589   0.781  -3.517  0.00  0.00    -0.082 Cl
ATOM     24  C   UNL d   1       0.615  -2.927  -2.426  0.00  0.00     0.037 A 
ATOM     25  C   UNL d   1       1.312  -3.083  -1.222  0.00  0.00     0.045 A 
ATOM     26 CL   UNL d   1      -0.338  -4.235  -3.016  0.00  0.00    -0.084 Cl
ATOM     27  S   UNL d   1       3.063  -1.900   0.663  0.00  0.00    -0.044 SA
ENDBRANCH  15  16
ENDBRANCH   3  15
TORSDOF 2
