REMARK  9 active torsions:
REMARK  status: ('A' for Active; 'I' for Inactive)
REMARK    1  A    between atoms: O_10  and  C_1 
REMARK    2  A    between atoms: O_11  and  C_2 
REMARK    3  A    between atoms: N_12  and  C_9 
REMARK    4  A    between atoms: C_14  and  O_10 
REMARK    5  A    between atoms: C_15  and  O_11 
REMARK    6  A    between atoms: C_29  and  N_12 
REMARK    7  A    between atoms: C_13  and  S_16 
REMARK    8  A    between atoms: S_16  and  C_33 
REMARK    9  A    between atoms: C_33  and  C_29 
ROOT
ATOM      1  C   UNL d   1       0.769  -0.947  -0.078  0.00  0.00     0.234 A 
ATOM      2  C   UNL d   1      -1.285  -0.121   0.039  0.00  0.00     0.234 A 
ATOM      3  N   UNL d   1      -0.527  -1.209  -0.030  0.00  0.00    -0.287 N 
ATOM      4  HN  UNL d   1      -0.908  -2.155  -0.044  1.00  0.00     0.173 HD
ATOM      5  N   UNL d   1      -0.849   1.135   0.023  0.00  0.00    -0.298 N 
ATOM      6  HN  UNL d   1      -1.483   1.933   0.051  1.00  0.00     0.172 HD
ATOM      7  N   UNL d   1       1.318   0.265  -0.042  0.00  0.00    -0.298 N 
ATOM      8  HN  UNL d   1       2.328   0.404  -0.022  1.00  0.00     0.172 HD
ATOM      9  C   UNL d   1       0.467   1.276  -0.033  0.00  0.00     0.163 A 
ENDROOT
BRANCH   9  10
ATOM     10  N   UNL d   1       1.033   2.530  -0.145  0.00  0.00    -0.263 NA
ATOM     11  H   UNL d   1       2.021   2.463   0.090  0.00  0.00     0.130 HD
BRANCH  10  12
ATOM     12  C   UNL d   1       0.348   3.658   0.469  0.00  0.00     0.105 C 
BRANCH  12  13
ATOM     13  C   UNL d   1       0.676   3.798   1.964  0.00  0.00     0.089 C 
BRANCH  13  14
ATOM     14  S   UNL d   1       2.472   4.095   2.206  0.00  0.00    -0.159 SA
BRANCH  14  15
ATOM     15  C   UNL d   1       2.584   4.380   4.031  0.00  0.00    -0.003 C 
ATOM     16  C   UNL d   1       2.180   3.117   4.799  0.00  0.00     0.026 C 
ATOM     17  C   UNL d   1       4.058   4.701   4.327  0.00  0.00     0.026 C 
ATOM     18  C   UNL d   1       1.720   5.572   4.460  0.00  0.00     0.026 C 
ENDBRANCH  14  15
ENDBRANCH  13  14
ENDBRANCH  12  13
ENDBRANCH  10  12
ENDBRANCH   9  10
BRANCH   2  19
ATOM     19  O   UNL d   1      -2.668  -0.254   0.066  0.00  0.00    -0.279 OA
BRANCH  19  20
ATOM     20  C   UNL d   1      -3.202  -1.382   0.644  0.00  0.00     0.079 A 
ATOM     21  C   UNL d   1      -2.727  -1.934   1.838  0.00  0.00     0.039 A 
ATOM     22  C   UNL d   1      -3.352  -3.056   2.387  0.00  0.00     0.026 A 
ATOM     23  C   UNL d   1      -4.470  -3.604   1.758  0.00  0.00     0.034 A 
ATOM     24  C   UNL d   1      -4.969  -3.038   0.586  0.00  0.00     0.026 A 
ATOM     25 CL   UNL d   1      -5.242  -4.980   2.442  0.00  0.00    -0.084 Cl
ATOM     26  C   UNL d   1      -4.336  -1.921   0.030  0.00  0.00     0.039 A 
ENDBRANCH  19  20
ENDBRANCH   2  19
BRANCH   1  27
ATOM     27  O   UNL d   1       1.586  -2.071  -0.111  0.00  0.00    -0.279 OA
BRANCH  27  28
ATOM     28  C   UNL d   1       2.850  -1.947  -0.638  0.00  0.00     0.079 A 
ATOM     29  C   UNL d   1       3.857  -2.690  -0.017  0.00  0.00     0.039 A 
ATOM     30  C   UNL d   1       5.164  -2.650  -0.510  0.00  0.00     0.026 A 
ATOM     31  C   UNL d   1       5.457  -1.874  -1.631  0.00  0.00     0.034 A 
ATOM     32  C   UNL d   1       4.452  -1.153  -2.272  0.00  0.00     0.026 A 
ATOM     33 CL   UNL d   1       7.067  -1.812  -2.232  0.00  0.00    -0.084 Cl
ATOM     34  C   UNL d   1       3.143  -1.205  -1.787  0.00  0.00     0.039 A 
ENDBRANCH  27  28
ENDBRANCH   1  27
TORSDOF 9
