REMARK  2 active torsions:
REMARK  status: ('A' for Active; 'I' for Inactive)
REMARK    1  A    between atoms: C_12  and  C_2 
REMARK    2  A    between atoms: C_14  and  C_7 
ROOT
ATOM      1  C   UNL d   1      -0.256  -0.715   0.130  0.00  0.00     0.087 A 
ATOM      2  C   UNL d   1       0.890  -1.510   0.049  0.00  0.00     0.022 A 
ATOM      3  C   UNL d   1      -0.216   0.667   0.061  0.00  0.00     0.130 A 
ATOM      4  N   UNL d   1       2.076   0.603  -0.203  0.00  0.00    -0.298 N 
ATOM      5  HN  UNL d   1       2.961   1.092  -0.331  1.00  0.00     0.187 HD
ATOM      6  C   UNL d   1      -1.688  -1.023   0.235  0.00  0.00     0.270 C 
ATOM      7  C   UNL d   1       2.080  -0.768  -0.120  0.00  0.00     0.070 A 
ATOM      8  N   UNL d   1      -1.498   1.262   0.191  0.00  0.00    -0.185 NA
ATOM      9  N   UNL d   1       0.924   1.330  -0.120  0.00  0.00    -0.287 N 
ATOM     10  HN  UNL d   1       0.936   2.347  -0.195  1.00  0.00     0.188 HD
ATOM     11  N   UNL d   1      -2.372   0.173   0.061  0.00  0.00    -0.281 N 
ATOM     12  O   UNL d   1      -2.203  -2.102   0.449  0.00  0.00    -0.266 OA
ATOM     13  H   UNL d   1      -1.584   2.039  -0.465  0.00  0.00     0.154 HD
ATOM     14  H   UNL d   1      -3.320   0.251   0.415  0.00  0.00     0.184 HD
ENDROOT
BRANCH   2  15
ATOM     15  C   UNL d   1       0.836  -2.987   0.128  0.00  0.00    -0.022 A 
ATOM     16  C   UNL d   1      -0.006  -3.732  -0.719  0.00  0.00     0.012 A 
ATOM     17  C   UNL d   1      -0.034  -5.129  -0.677  0.00  0.00     0.001 A 
ATOM     18  C   UNL d   1       0.808  -5.818   0.189  0.00  0.00     0.000 A 
ATOM     19  C   UNL d   1       1.654  -5.108   1.034  0.00  0.00     0.001 A 
ATOM     20  C   UNL d   1       1.651  -3.708   1.020  0.00  0.00     0.012 A 
ENDBRANCH   2  15
BRANCH   7  21
ATOM     21  C   UNL d   1       3.450  -1.324  -0.221  0.00  0.00    -0.007 A 
ATOM     22  C   UNL d   1       3.772  -2.423  -1.036  0.00  0.00     0.014 A 
ATOM     23  C   UNL d   1       5.069  -2.944  -1.074  0.00  0.00     0.001 A 
ATOM     24  C   UNL d   1       6.084  -2.354  -0.326  0.00  0.00     0.000 A 
ATOM     25  C   UNL d   1       5.804  -1.238   0.456  0.00  0.00     0.001 A 
ATOM     26  C   UNL d   1       4.503  -0.732   0.507  0.00  0.00     0.014 A 
ENDBRANCH   7  21
TORSDOF 2
