REMARK  7 active torsions:
REMARK  status: ('A' for Active; 'I' for Inactive)
REMARK    1  A    between atoms: C_2  and  S_1 
REMARK    2  A    between atoms: C_8  and  S_1 
REMARK    3  A    between atoms: C_4  and  C_3 
REMARK    4  A    between atoms: C_5  and  O_17 
REMARK    5  A    between atoms: C_9  and  C_5 
REMARK    6  A    between atoms: C_19  and  C_8 
REMARK    7  A    between atoms: O_17  and  C_19 
ROOT
ATOM      1  S   UNL d   1       0.937   0.008   0.043  0.00  0.00     0.193 S 
ATOM      2  O   UNL d   1       0.195  -1.188  -0.335  0.00  0.00    -0.221 OA
ATOM      3  O   UNL d   1       2.386   0.059  -0.061  0.00  0.00    -0.221 OA
ENDROOT
BRANCH   1   4
ATOM      4  C   UNL d   1       0.545   0.309   1.755  0.00  0.00     0.143 A 
ATOM      5  C   UNL d   1       0.929  -0.533   2.786  0.00  0.00     0.086 A 
ATOM      6  C   UNL d   1       0.602  -0.101   4.086  0.00  0.00     0.020 A 
ATOM      7  C   UNL d   1      -0.055   1.111   4.293  0.00  0.00     0.018 A 
ATOM      8  C   UNL d   1      -0.396   1.864   3.189  0.00  0.00     0.089 A 
ATOM      9  N   UNL d   1      -0.120   1.482   1.928  0.00  0.00    -0.356 N 
ATOM     10  HN  UNL d   1      -0.401   2.052   1.130  1.00  0.00     0.166 HD
BRANCH   5  11
ATOM     11  C   UNL d   1       1.645  -1.839   2.619  0.00  0.00     0.420 C 
ATOM     12  F   UNL d   1       2.004  -2.187   1.364  0.00  0.00    -0.166 F 
ATOM     13  F   UNL d   1       2.796  -1.871   3.350  0.00  0.00    -0.166 F 
ATOM     14  F   UNL d   1       0.897  -2.878   3.091  0.00  0.00    -0.166 F 
ENDBRANCH   5  11
ENDBRANCH   1   4
BRANCH   1  15
ATOM     15  C   UNL d   1       0.284   1.346  -0.915  0.00  0.00     0.174 C 
BRANCH  15  16
ATOM     16  C   UNL d   1       0.919   2.692  -0.614  0.00  0.00     0.194 C 
BRANCH  16  17
ATOM     17  O   UNL d   1       0.353   3.729  -1.450  0.00  0.00    -0.317 OA
BRANCH  17  18
ATOM     18  C   UNL d   1      -0.839   4.224  -1.026  0.00  0.00     0.293 C 
ATOM     19  O   UNL d   1      -1.482   3.807  -0.074  0.00  0.00    -0.259 OA
BRANCH  18  20
ATOM     20  C   UNL d   1      -1.290   5.375  -1.855  0.00  0.00     0.041 A 
ATOM     21  C   UNL d   1      -0.522   5.908  -2.897  0.00  0.00     0.041 A 
ATOM     22  C   UNL d   1      -0.991   7.022  -3.597  0.00  0.00     0.035 A 
ATOM     23 CL   UNL d   1      -0.036   7.702  -4.858  0.00  0.00    -0.084 Cl
ATOM     24  C   UNL d   1      -2.220   7.603  -3.281  0.00  0.00     0.024 A 
ATOM     25  C   UNL d   1      -2.994   7.066  -2.254  0.00  0.00     0.003 A 
ATOM     26  C   UNL d   1      -2.529   5.959  -1.543  0.00  0.00     0.018 A 
ENDBRANCH  18  20
ENDBRANCH  17  18
ENDBRANCH  16  17
ENDBRANCH  15  16
ENDBRANCH   1  15
TORSDOF 7
