REMARK  6 active torsions:
REMARK  status: ('A' for Active; 'I' for Inactive)
REMARK    1  A    between atoms: C_3  and  C_1 
REMARK    2  A    between atoms: C_4  and  C_1 
REMARK    3  A    between atoms: C_9  and  C_2 
REMARK    4  A    between atoms: O_16  and  C_3 
REMARK    5  A    between atoms: N_5  and  C_4 
REMARK    6  A    between atoms: C_18  and  O_16 
ROOT
ATOM      1  C   UNL d   1       1.033  -0.080  -0.050  0.00  0.00     0.102 C 
ATOM      2  C   UNL d   1       0.342  -1.216   0.175  0.00  0.00     0.039 C 
ENDROOT
BRANCH   1   3
ATOM      3  C   UNL d   1       0.309   1.152  -0.430  0.00  0.00     0.302 C 
ATOM      4  O   UNL d   1      -0.904   1.223  -0.555  0.00  0.00    -0.259 OA
BRANCH   3   5
ATOM      5  O   UNL d   1       1.198   2.136  -0.706  0.00  0.00    -0.317 OA
BRANCH   5   6
ATOM      6  C   UNL d   1       0.684   3.276  -1.410  0.00  0.00     0.174 C 
ATOM      7  C   UNL d   1       0.779   3.001  -2.900  0.00  0.00     0.034 C 
ENDBRANCH   5   6
ENDBRANCH   3   5
ENDBRANCH   1   3
BRANCH   1   8
ATOM      8  C   UNL d   1       2.553  -0.080  -0.050  0.00  0.00    -0.031 C 
BRANCH   8   9
ATOM      9  N   UNL d   1       3.814  -0.080  -0.050  0.00  0.00    -0.365 N 
ATOM     10  HN2 UNL d   1       2.794  -0.080  -0.050  1.00  0.00     0.165 HD
ATOM     11  HN1 UNL d   1       4.834  -0.080  -0.050  1.00  0.00     0.165 HD
ENDBRANCH   8   9
ENDBRANCH   1   8
BRANCH   2  12
ATOM     12  C   UNL d   1       0.997  -2.507   0.410  0.00  0.00    -0.033 A 
ATOM     13  C   UNL d   1       1.378  -2.893   1.699  0.00  0.00     0.037 A 
ATOM     14  C   UNL d   1       2.084  -4.087   1.898  0.00  0.00     0.056 A 
ATOM     15 CL   UNL d   1       2.535  -4.491   3.516  0.00  0.00    -0.083 Cl
ATOM     16  C   UNL d   1       2.409  -4.899   0.805  0.00  0.00     0.055 A 
ATOM     17  C   UNL d   1       2.020  -4.518  -0.482  0.00  0.00     0.026 A 
ATOM     18 CL   UNL d   1       3.292  -6.374   0.973  0.00  0.00    -0.083 Cl
ATOM     19  C   UNL d   1       1.316  -3.327  -0.679  0.00  0.00     0.013 A 
ENDBRANCH   2  12
TORSDOF 6
