REMARK  7 active torsions:
REMARK  status: ('A' for Active; 'I' for Inactive)
REMARK    1  A    between atoms: C_3  and  S_1 
REMARK    2  A    between atoms: C_11  and  S_1 
REMARK    3  A    between atoms: C_2  and  C_4 
REMARK    4  A    between atoms: C_7  and  O_24 
REMARK    5  A    between atoms: C_8  and  C_7 
REMARK    6  A    between atoms: C_26  and  C_11 
REMARK    7  A    between atoms: O_24  and  C_26 
ROOT
ATOM      1  S   UNL d   1       0.896  -0.045  -0.091  0.00  0.00     0.193 S 
ATOM      2  O   UNL d   1       2.313  -0.306   0.100  0.00  0.00    -0.221 OA
ATOM      3  O   UNL d   1       0.455   1.152  -0.783  0.00  0.00    -0.221 OA
ENDROOT
BRANCH   1   4
ATOM      4  C   UNL d   1       0.167   0.010   1.531  0.00  0.00     0.128 A 
ATOM      5  N   UNL d   1      -0.699  -0.993   1.821  0.00  0.00    -0.356 N 
ATOM      6  C   UNL d   1      -1.267  -0.942   3.050  0.00  0.00     0.105 A 
ATOM      7  HN  UNL d   1      -0.909  -1.738   1.157  1.00  0.00     0.166 HD
ATOM      8  C   UNL d   1      -1.009   0.053   3.990  0.00  0.00     0.063 A 
ATOM      9  C   UNL d   1      -0.100   1.062   3.642  0.00  0.00     0.020 A 
ATOM     10  C   UNL d   1       0.502   1.047   2.388  0.00  0.00     0.042 A 
BRANCH   8  11
ATOM     11  C   UNL d   1      -1.684   0.043   5.330  0.00  0.00     0.418 C 
ATOM     12  F   UNL d   1      -2.539  -1.003   5.501  0.00  0.00    -0.166 F 
ATOM     13  F   UNL d   1      -0.796  -0.027   6.359  0.00  0.00    -0.166 F 
ATOM     14  F   UNL d   1      -2.420   1.167   5.547  0.00  0.00    -0.166 F 
ENDBRANCH   8  11
ENDBRANCH   1   4
BRANCH   1  15
ATOM     15  C   UNL d   1       0.190  -1.453  -0.909  0.00  0.00     0.174 C 
BRANCH  15  16
ATOM     16  C   UNL d   1       0.745  -1.548  -2.320  0.00  0.00     0.194 C 
BRANCH  16  17
ATOM     17  O   UNL d   1       0.244  -2.707  -3.015  0.00  0.00    -0.317 OA
BRANCH  17  18
ATOM     18  C   UNL d   1      -0.970  -2.553  -3.599  0.00  0.00     0.293 C 
ATOM     19  O   UNL d   1      -1.700  -1.584  -3.472  0.00  0.00    -0.259 OA
BRANCH  18  20
ATOM     20  C   UNL d   1      -1.307  -3.721  -4.459  0.00  0.00     0.041 A 
ATOM     21  C   UNL d   1      -0.448  -4.816  -4.620  0.00  0.00     0.043 A 
ATOM     22  C   UNL d   1      -0.806  -5.872  -5.468  0.00  0.00     0.056 A 
ATOM     23 CL   UNL d   1       0.306  -7.186  -5.624  0.00  0.00    -0.083 Cl
ATOM     24  C   UNL d   1      -2.024  -5.839  -6.160  0.00  0.00     0.055 A 
ATOM     25  C   UNL d   1      -2.883  -4.750  -5.997  0.00  0.00     0.026 A 
ATOM     26 CL   UNL d   1      -2.520  -7.102  -7.229  0.00  0.00    -0.083 Cl
ATOM     27  C   UNL d   1      -2.526  -3.696  -5.151  0.00  0.00     0.019 A 
ENDBRANCH  18  20
ENDBRANCH  17  18
ENDBRANCH  16  17
ENDBRANCH  15  16
ENDBRANCH   1  15
TORSDOF 7
