REMARK  3 active torsions:
REMARK  status: ('A' for Active; 'I' for Inactive)
REMARK    1  A    between atoms: C_3  and  N_1 
REMARK    2  A    between atoms: O_12  and  C_9 
REMARK    3  A    between atoms: C_13  and  O_12 
ROOT
ATOM      1  N   UNL d   1      -3.185  -5.263   6.003  0.00  0.00    -0.195 NA
ATOM      2  C   UNL d   1      -2.422  -4.639   5.390  0.00  0.00     0.085 C 
ATOM      3  C   UNL d   1      -1.431  -3.851   4.637  0.00  0.00     0.299 C 
ENDROOT
BRANCH   3   4
ATOM      4  O   UNL d   1      -2.086  -3.116   3.598  0.00  0.00    -0.338 OA
BRANCH   4   5
ATOM      5  C   UNL d   1      -1.284  -2.388   2.765  0.00  0.00     0.070 A 
ATOM      6  C   UNL d   1      -1.800  -2.186   1.481  0.00  0.00     0.039 A 
ATOM      7  C   UNL d   1      -1.098  -1.430   0.539  0.00  0.00     0.039 A 
ATOM      8  C   UNL d   1       0.127  -0.857   0.896  0.00  0.00     0.103 A 
ATOM      9  C   UNL d   1       0.646  -1.041   2.185  0.00  0.00     0.039 A 
ATOM     10  C   UNL d   1      -0.063  -1.808   3.119  0.00  0.00     0.039 A 
BRANCH   8  11
ATOM     11  N   UNL d   1       0.868  -0.049  -0.080  0.00  0.00    -0.116 N 
ATOM     12  O   UNL d   1       1.938   0.459   0.287  0.00  0.00    -0.532 OA
ATOM     13  O   UNL d   1       0.381   0.077  -1.213  0.00  0.00    -0.532 OA
ENDBRANCH   8  11
ENDBRANCH   4   5
ENDBRANCH   3   4
TORSDOF 3
