REMARK  5 active torsions:
REMARK  status: ('A' for Active; 'I' for Inactive)
REMARK    1  A    between atoms: C_2  and  C_1 
REMARK       I    between atoms: N_4  and  C_1 
REMARK       I    between atoms: C_3  and  N_5 
REMARK    2  A    between atoms: C_9  and  C_3 
REMARK    3  A    between atoms: N_5  and  N_4 
REMARK    4  A    between atoms: O_14  and  C_8 
REMARK    5  A    between atoms: C_17  and  O_14 
ROOT
ATOM      1  C   UNL d   1       0.222  -0.619   1.008  0.00  0.00     0.049 A 
ATOM      2  N   UNL d   1      -1.603  -2.013   1.776  0.00  0.00    -0.346 N 
ATOM      3  HN  UNL d   1      -2.400  -2.615   1.566  1.00  0.00     0.167 HD
ATOM      4  C   UNL d   1      -1.216  -1.777   3.050  0.00  0.00     0.147 A 
ATOM      5  C   UNL d   1      -0.891  -1.418   0.791  0.00  0.00     0.107 A 
ATOM      6  C   UNL d   1       0.648  -0.468   2.336  0.00  0.00     0.023 A 
ATOM      7  C   UNL d   1      -0.078  -1.058   3.375  0.00  0.00     0.057 A 
ENDROOT
BRANCH   1   8
ATOM      8  C   UNL d   1       0.898   0.147  -0.073  0.00  0.00     0.271 C 
ATOM      9  N   UNL d   1       0.486  -0.070  -1.373  0.00  0.00    -0.263 N 
ATOM     10  H   UNL d   1      -0.110  -0.832  -1.691  0.00  0.00     0.190 HD
ATOM     11  O   UNL d   1       1.766   0.975   0.204  0.00  0.00    -0.266 OA
BRANCH   9  12
ATOM     12  N   UNL d   1       1.037   0.713  -2.397  0.00  0.00    -0.263 N 
ATOM     13  C   UNL d   1       0.950   0.222  -3.683  0.00  0.00     0.270 C 
ATOM     14  O   UNL d   1       0.400  -0.845  -3.944  0.00  0.00    -0.266 OA
ATOM     15  H   UNL d   1       1.661   1.467  -2.113  0.00  0.00     0.190 HD
BRANCH  13  16
ATOM     16  C   UNL d   1       1.556   1.039  -4.765  0.00  0.00     0.033 A 
ATOM     17  C   UNL d   1       2.092   0.375  -5.877  0.00  0.00     0.019 A 
ATOM     18  C   UNL d   1       2.608   1.103  -6.952  0.00  0.00     0.025 A 
ATOM     19  C   UNL d   1       2.575   2.496  -6.921  0.00  0.00     0.034 A 
ATOM     20  C   UNL d   1       2.039   3.165  -5.820  0.00  0.00     0.025 A 
ATOM     21 CL   UNL d   1       3.178   3.394  -8.259  0.00  0.00    -0.084 Cl
ATOM     22  C   UNL d   1       1.531   2.439  -4.737  0.00  0.00     0.019 A 
ENDBRANCH  13  16
ENDBRANCH   9  12
ENDBRANCH   1   8
BRANCH   4  23
ATOM     23  O   UNL d   1      -1.997  -2.249   4.095  0.00  0.00    -0.294 OA
BRANCH  23  24
ATOM     24  C   UNL d   1      -3.366  -2.283   3.908  0.00  0.00     0.077 A 
ATOM     25  C   UNL d   1      -4.062  -3.296   4.573  0.00  0.00     0.039 A 
ATOM     26  C   UNL d   1      -5.451  -3.395   4.443  0.00  0.00     0.026 A 
ATOM     27  C   UNL d   1      -6.142  -2.476   3.653  0.00  0.00     0.034 A 
ATOM     28  C   UNL d   1      -5.460  -1.447   3.010  0.00  0.00     0.026 A 
ATOM     29 CL   UNL d   1      -7.849  -2.605   3.478  0.00  0.00    -0.084 Cl
ATOM     30  C   UNL d   1      -4.075  -1.338   3.156  0.00  0.00     0.039 A 
ENDBRANCH  23  24
ENDBRANCH   4  23
TORSDOF 5
