REMARK  6 active torsions:
REMARK  status: ('A' for Active; 'I' for Inactive)
REMARK    1  A    between atoms: C_2  and  S_1 
REMARK    2  A    between atoms: N_11  and  S_1 
REMARK    3  A    between atoms: C_3  and  S_4 
REMARK    4  A    between atoms: S_4  and  C_5 
REMARK    5  A    between atoms: C_8  and  C_7 
REMARK    6  A    between atoms: O_14  and  C_8 
ROOT
ATOM      1  C   UNL d   1       3.712  -0.160  -0.767  0.00  0.00     0.017 A 
ATOM      2  C   UNL d   1       3.776   1.050   0.046  0.00  0.00     0.008 A 
ATOM      3  C   UNL d   1       4.067   1.227   1.453  0.00  0.00     0.050 A 
ATOM      4  C   UNL d   1       3.478   2.275  -0.640  0.00  0.00    -0.024 A 
ATOM      5  C   UNL d   1       3.446  -0.066  -2.151  0.00  0.00     0.020 A 
ATOM      6  C   UNL d   1       3.965   2.479   2.098  0.00  0.00     0.019 A 
ATOM      7  C   UNL d   1       3.239   1.149  -2.774  0.00  0.00     0.002 A 
ATOM      8  C   UNL d   1       3.604   3.612   1.388  0.00  0.00     0.002 A 
ATOM      9  C   UNL d   1       3.238   2.306  -2.019  0.00  0.00     0.012 A 
ATOM     10  C   UNL d   1       3.384   3.502   0.026  0.00  0.00     0.012 A 
ENDROOT
BRANCH   1  11
ATOM     11  S   UNL d   1       3.768  -1.843  -0.076  0.00  0.00    -0.088 SA
BRANCH  11  12
ATOM     12  C   UNL d   1       4.535  -2.865  -1.346  0.00  0.00     0.029 A 
ATOM     13  C   UNL d   1       5.899  -3.192  -1.425  0.00  0.00     0.096 A 
ATOM     14  C   UNL d   1       6.393  -3.958  -2.501  0.00  0.00     0.027 A 
ATOM     15  C   UNL d   1       5.538  -4.417  -3.499  0.00  0.00     0.002 A 
ATOM     16  C   UNL d   1       4.179  -4.149  -3.409  0.00  0.00     0.001 A 
ATOM     17  C   UNL d   1       3.683  -3.404  -2.333  0.00  0.00     0.020 A 
BRANCH  13  18
ATOM     18  S   UNL d   1       7.073  -2.719  -0.178  0.00  0.00     0.259 S 
ATOM     19  O   UNL d   1       8.380  -3.180  -0.594  0.00  0.00    -0.201 OA
ATOM     20  O   UNL d   1       6.545  -3.074   1.122  0.00  0.00    -0.201 OA
BRANCH  18  21
ATOM     21  N   UNL d   1       7.101  -1.055  -0.273  0.00  0.00    -0.320 N 
ATOM     22  C   UNL d   1       7.396  -0.371  -1.515  0.00  0.00     0.159 C 
ATOM     23  H   UNL d   1       6.491  -0.598   0.415  0.00  0.00     0.171 HD
ENDBRANCH  18  21
ENDBRANCH  13  18
ENDBRANCH  11  12
ENDBRANCH   1  11
BRANCH   3  24
ATOM     24  C   UNL d   1       4.569   0.179   2.370  0.00  0.00     0.177 C 
ATOM     25  O   UNL d   1       4.226   0.014   3.525  0.00  0.00    -0.646 OA
BRANCH  24  26
ATOM     26  O   UNL d   1       5.625  -0.458   1.843  0.00  0.00    -0.773 OA
ATOM     27  H   UNL d   1       5.843  -1.175   2.487  0.00  0.00     0.167 HD
ENDBRANCH  24  26
ENDBRANCH   3  24
TORSDOF 6
