REMARK  7 active torsions:
REMARK  status: ('A' for Active; 'I' for Inactive)
REMARK    1  A    between atoms: C_2  and  C_1 
REMARK    2  A    between atoms: C_5  and  C_1 
REMARK    3  A    between atoms: C_8  and  C_1 
REMARK    4  A    between atoms: C_7  and  N_3 
REMARK    5  A    between atoms: O_15  and  C_5 
REMARK    6  A    between atoms: C_18  and  C_8 
REMARK    7  A    between atoms: O_19  and  C_18 
ROOT
ATOM      1  C   UNL d   1       0.468  -1.310  -0.589  0.00  0.00     0.083 C 
ATOM      2  N   UNL d   1       0.058  -1.235  -1.812  0.00  0.00    -0.367 N 
ATOM      3  HN  UNL d   1       0.060  -0.348  -2.315  1.00  0.00     0.165 HD
ENDROOT
BRANCH   1   4
ATOM      4  C   UNL d   1       0.962  -0.082   0.126  0.00  0.00     0.195 C 
BRANCH   4   5
ATOM      5  C   UNL d   1       0.499  -0.105   1.553  0.00  0.00     0.275 C 
ATOM      6  O   UNL d   1       0.698  -1.028   2.332  0.00  0.00    -0.264 OA
BRANCH   5   7
ATOM      7  O   UNL d   1      -0.246   0.998   1.844  0.00  0.00    -0.326 OA
ATOM      8  C   UNL d   1      -0.834   0.971   3.147  0.00  0.00     0.213 C 
ENDBRANCH   5   7
ENDBRANCH   4   5
BRANCH   4   9
ATOM      9  C   UNL d   1       2.464  -0.009   0.026  0.00  0.00     0.168 C 
ATOM     10  O   UNL d   1       3.185  -0.968   0.313  0.00  0.00    -0.294 OA
BRANCH   9  11
ATOM     11  C   UNL d   1       3.057   1.262  -0.559  0.00  0.00     0.246 C 
BRANCH  11  12
ATOM     12  O   UNL d   1       2.596   2.404   0.147  0.00  0.00    -0.389 OA
ATOM     13  C   UNL d   1       3.186   3.596  -0.365  0.00  0.00     0.202 C 
ENDBRANCH  11  12
ENDBRANCH   9  11
ENDBRANCH   4   9
ENDBRANCH   1   4
BRANCH   2  14
ATOM     14  C   UNL d   1      -0.393  -2.421  -2.430  0.00  0.00     0.053 A 
ATOM     15  C   UNL d   1      -1.633  -2.460  -3.098  0.00  0.00     0.062 A 
ATOM     16  C   UNL d   1      -2.074  -3.624  -3.733  0.00  0.00     0.050 A 
ATOM     17 CL   UNL d   1      -2.661  -1.069  -3.152  0.00  0.00    -0.082 Cl
ATOM     18  C   UNL d   1      -1.275  -4.763  -3.710  0.00  0.00     0.035 A 
ATOM     19  C   UNL d   1      -0.038  -4.745  -3.069  0.00  0.00     0.026 A 
ATOM     20 CL   UNL d   1      -1.813  -6.202  -4.484  0.00  0.00    -0.084 Cl
ATOM     21  C   UNL d   1       0.404  -3.577  -2.444  0.00  0.00     0.033 A 
ENDBRANCH   2  14
TORSDOF 7
