REMARK  4 active torsions:
REMARK  status: ('A' for Active; 'I' for Inactive)
REMARK    1  A    between atoms: C_2  and  S_1 
REMARK    2  A    between atoms: N_10  and  S_1 
REMARK    3  A    between atoms: C_23  and  N_10 
REMARK    4  A    between atoms: C_24  and  C_23 
ROOT
ATOM      1  S   UNL d   1       0.919  -0.070  -0.078  0.00  0.00     0.261 S 
ATOM      2  O   UNL d   1       0.072  -0.697  -1.063  0.00  0.00    -0.200 OA
ATOM      3  O   UNL d   1       2.355  -0.002  -0.253  0.00  0.00    -0.200 OA
ENDROOT
BRANCH   1   4
ATOM      4  C   UNL d   1       0.620  -0.856   1.458  0.00  0.00     0.110 A 
ATOM      5  C   UNL d   1      -0.669  -1.020   1.991  0.00  0.00     0.108 A 
ATOM      6  C   UNL d   1      -0.879  -1.695   3.270  0.00  0.00     0.086 A 
ATOM      7  N   UNL d   1      -1.867  -0.636   1.531  0.00  0.00    -0.238 N 
ATOM      8  N   UNL d   1      -2.191  -1.710   3.530  0.00  0.00    -0.239 N 
ATOM      9  C   UNL d   1       0.181  -2.210   4.041  0.00  0.00     0.034 A 
ATOM     10  O   UNL d   1      -2.796  -1.083   2.456  0.00  0.00    -0.156 OA
ATOM     11  HN  UNL d   1      -2.651  -2.103   4.351  1.00  0.00     0.197 HD
ATOM     12  C   UNL d   1       1.458  -2.042   3.475  0.00  0.00     0.004 A 
ATOM     13  C   UNL d   1       1.672  -1.396   2.231  0.00  0.00     0.028 A 
ATOM     14  HN  UNL d   1      -2.057  -0.119   0.673  1.00  0.00     0.197 HD
ENDBRANCH   1   4
BRANCH   1  15
ATOM     15  N   UNL d   1       0.376   1.495   0.142  0.00  0.00    -0.311 N 
ATOM     16  H   UNL d   1      -0.627   1.627   0.007  0.00  0.00     0.172 HD
BRANCH  15  17
ATOM     17  C   UNL d   1       1.081   2.377   1.064  0.00  0.00     0.170 C 
BRANCH  17  18
ATOM     18  C   UNL d   1       0.506   3.775   1.049  0.00  0.00    -0.037 A 
ATOM     19  C   UNL d   1      -0.053   4.330   2.212  0.00  0.00     0.048 A 
ATOM     20  C   UNL d   1      -0.548   5.619   2.147  0.00  0.00     0.105 A 
ATOM     21  O   UNL d   1      -1.110   6.303   3.178  0.00  0.00    -0.323 OA
ATOM     22  C   UNL d   1      -0.513   6.352   0.986  0.00  0.00     0.105 A 
ATOM     23  C   UNL d   1      -1.414   7.560   2.534  0.00  0.00     0.352 A 
ATOM     24  O   UNL d   1      -1.048   7.593   1.139  0.00  0.00    -0.323 OA
ATOM     25  C   UNL d   1       0.022   5.844  -0.176  0.00  0.00     0.040 A 
ATOM     26  C   UNL d   1       0.537   4.543  -0.141  0.00  0.00     0.012 A 
ENDBRANCH  17  18
ENDBRANCH  15  17
ENDBRANCH   1  15
TORSDOF 4
