REMARK  4 active torsions:
REMARK  status: ('A' for Active; 'I' for Inactive)
REMARK    1  A    between atoms: N_4  and  C_1 
REMARK    2  A    between atoms: C_5  and  S_12 
REMARK    3  A    between atoms: S_12  and  C_6 
REMARK    4  A    between atoms: C_17  and  C_7 
ROOT
ATOM      1  N   UNL d   1       2.505  -3.481   0.918  0.00  0.00    -0.320 N 
ATOM      2  C   UNL d   1       1.539  -3.587  -0.033  0.00  0.00     0.167 A 
ATOM      3  C   UNL d   1       3.552  -4.264   0.499  0.00  0.00     0.132 A 
ATOM      4  N   UNL d   1       3.221  -4.794  -0.667  0.00  0.00    -0.283 N 
ATOM      5  HN  UNL d   1       3.804  -5.418  -1.224  1.00  0.00     0.188 HD
ATOM      6  N   UNL d   1       1.953  -4.360  -1.004  0.00  0.00    -0.278 N 
ATOM      7  HN  UNL d   1       1.436  -4.598  -1.851  1.00  0.00     0.189 HD
ATOM      8  H   UNL d   1       2.428  -2.984   1.791  0.00  0.00     0.169 HD
ENDROOT
BRANCH   2   9
ATOM      9  S   UNL d   1      -0.021  -2.917   0.224  0.00  0.00    -0.027 SA
BRANCH   9  10
ATOM     10  C   UNL d   1      -0.055  -1.840  -1.155  0.00  0.00     0.121 A 
ATOM     11  S   UNL d   1      -1.232  -1.987  -2.398  0.00  0.00    -0.039 SA
ATOM     12  C   UNL d   1      -0.647  -0.548  -3.084  0.00  0.00     0.161 A 
ATOM     13  C   UNL d   1       0.402  -0.045  -2.353  0.00  0.00     0.133 A 
ATOM     14  N   UNL d   1       0.736  -0.788  -1.230  0.00  0.00    -0.352 N 
ATOM     15  HN  UNL d   1       1.477  -0.558  -0.568  1.00  0.00     0.166 HD
BRANCH  12  16
ATOM     16  N   UNL d   1      -1.234   0.024  -4.256  0.00  0.00    -0.107 N 
ATOM     17  O   UNL d   1      -0.742   1.091  -4.648  0.00  0.00    -0.531 OA
ATOM     18  O   UNL d   1      -2.185  -0.565  -4.782  0.00  0.00    -0.531 OA
ENDBRANCH  12  16
ENDBRANCH   9  10
ENDBRANCH   2   9
BRANCH   3  19
ATOM     19  C   UNL d   1       4.780  -4.489   1.260  0.00  0.00     0.009 A 
ATOM     20  C   UNL d   1       5.478  -5.697   1.114  0.00  0.00     0.017 A 
ATOM     21  C   UNL d   1       6.659  -5.936   1.827  0.00  0.00     0.025 A 
ATOM     22  C   UNL d   1       7.156  -4.960   2.686  0.00  0.00     0.034 A 
ATOM     23  C   UNL d   1       6.477  -3.754   2.845  0.00  0.00     0.025 A 
ATOM     24 CL   UNL d   1       8.617  -5.238   3.549  0.00  0.00    -0.084 Cl
ATOM     25  C   UNL d   1       5.293  -3.520   2.136  0.00  0.00     0.017 A 
ENDBRANCH   3  19
TORSDOF 4
