REMARK  4 active torsions:
REMARK  status: ('A' for Active; 'I' for Inactive)
REMARK       I    between atoms: C_6  and  N_1 
REMARK    1  A    between atoms: C_9  and  C_2 
REMARK    2  A    between atoms: S_8  and  C_3 
REMARK    3  A    between atoms: C_11  and  C_6 
REMARK    4  A    between atoms: C_14  and  S_8 
ROOT
ATOM      1  N   UNL d   1       0.933  -0.594   0.000  0.00  0.00    -0.218 N 
ATOM      2  C   UNL d   1       0.984   0.814   0.030  0.00  0.00     0.088 A 
ATOM      3  C   UNL d   1      -0.354   1.200  -0.011  0.00  0.00     0.052 A 
ATOM      4  N   UNL d   1      -0.334  -1.062  -0.199  0.00  0.00    -0.301 N 
ATOM      5  HN  UNL d   1      -0.627  -2.028  -0.349  1.00  0.00     0.186 HD
ATOM      6  C   UNL d   1       1.965  -1.543   0.198  0.00  0.00     0.277 C 
ATOM      7  C   UNL d   1      -1.100   0.022  -0.155  0.00  0.00     0.129 A 
ATOM      8  O   UNL d   1       2.924  -1.199   0.895  0.00  0.00    -0.265 OA
ENDROOT
BRANCH   2   9
ATOM      9  C   UNL d   1       2.231   1.613   0.022  0.00  0.00    -0.006 A 
ATOM     10  C   UNL d   1       3.371   1.198  -0.687  0.00  0.00     0.015 A 
ATOM     11  C   UNL d   1       4.555   1.948  -0.673  0.00  0.00     0.024 A 
ATOM     12  C   UNL d   1       4.600   3.160   0.004  0.00  0.00     0.034 A 
ATOM     13  C   UNL d   1       3.477   3.617   0.679  0.00  0.00     0.024 A 
ATOM     14 CL   UNL d   1       6.044   4.093   0.009  0.00  0.00    -0.084 Cl
ATOM     15  C   UNL d   1       2.314   2.837   0.702  0.00  0.00     0.015 A 
ENDBRANCH   2   9
BRANCH   6  16
ATOM     16  C   UNL d   1       1.988  -2.915  -0.390  0.00  0.00     0.034 A 
ATOM     17  C   UNL d   1       1.292  -3.233  -1.564  0.00  0.00     0.017 A 
ATOM     18  C   UNL d   1       1.419  -4.503  -2.135  0.00  0.00     0.001 A 
ATOM     19  C   UNL d   1       2.247  -5.456  -1.546  0.00  0.00     0.000 A 
ATOM     20  C   UNL d   1       2.953  -5.145  -0.386  0.00  0.00     0.001 A 
ATOM     21  C   UNL d   1       2.829  -3.878   0.188  0.00  0.00     0.017 A 
ENDBRANCH   6  16
BRANCH   3  22
ATOM     22  S   UNL d   1      -1.088   2.787  -0.041  0.00  0.00    -0.087 SA
BRANCH  22  23
ATOM     23  C   UNL d   1      -1.137   3.280   1.677  0.00  0.00     0.005 A 
ATOM     24  C   UNL d   1      -0.927   4.633   1.983  0.00  0.00     0.020 A 
ATOM     25  C   UNL d   1      -0.930   5.075   3.309  0.00  0.00     0.025 A 
ATOM     26  C   UNL d   1      -1.155   4.166   4.339  0.00  0.00     0.034 A 
ATOM     27  C   UNL d   1      -1.375   2.821   4.052  0.00  0.00     0.025 A 
ATOM     28 CL   UNL d   1      -1.166   4.706   5.972  0.00  0.00    -0.084 Cl
ATOM     29  C   UNL d   1      -1.369   2.380   2.724  0.00  0.00     0.020 A 
ENDBRANCH  22  23
ENDBRANCH   3  22
TORSDOF 4
