REMARK  2 active torsions:
REMARK  status: ('A' for Active; 'I' for Inactive)
REMARK    1  A    between atoms: N_8  and  N_6 
REMARK    2  A    between atoms: C_10  and  C_13 
ROOT
ATOM      1  C   UNL d   1      -1.232   0.893  -0.145  0.00  0.00     0.128 A 
ATOM      2  C   UNL d   1       0.277   0.675  -0.346  0.00  0.00     0.275 A 
ATOM      3  N   UNL d   1       0.425  -0.673  -0.590  0.00  0.00    -0.321 N 
ATOM      4  C   UNL d   1      -1.849  -0.431  -0.300  0.00  0.00     0.024 A 
ATOM      5  C   UNL d   1      -0.807  -1.319  -0.570  0.00  0.00     0.047 A 
ATOM      6  N   UNL d   1      -1.727   2.068   0.087  0.00  0.00    -0.295 N 
ATOM      7  HN  UNL d   1      -1.158   2.914   0.114  1.00  0.00     0.187 HD
ATOM      8  O   UNL d   1       1.143   1.520  -0.299  0.00  0.00    -0.266 OA
ATOM      9  C   UNL d   1      -3.162  -0.864  -0.252  0.00  0.00     0.016 A 
ATOM     10  C   UNL d   1      -1.033  -2.662  -0.798  0.00  0.00     0.030 A 
ATOM     11  C   UNL d   1      -3.411  -2.220  -0.483  0.00  0.00     0.001 A 
ATOM     12  C   UNL d   1      -2.356  -3.111  -0.753  0.00  0.00     0.002 A 
ATOM     13  H   UNL d   1       1.320  -1.102  -0.764  0.00  0.00     0.169 HD
ENDROOT
BRANCH   6  14
ATOM     14  N   UNL d   1      -3.096   2.073   0.295  0.00  0.00    -0.310 N 
ATOM     15  C   UNL d   1      -3.660   3.111  -0.239  0.00  0.00     0.120 C 
ATOM     16  HN  UNL d   1      -3.600   1.349   0.806  1.00  0.00     0.186 HD
BRANCH  15  17
ATOM     17  C   UNL d   1      -5.120   3.306  -0.137  0.00  0.00     0.002 A 
ATOM     18  C   UNL d   1      -5.819   4.119  -1.035  0.00  0.00     0.045 A 
ATOM     19 CL   UNL d   1      -5.053   4.953  -2.338  0.00  0.00    -0.083 Cl
ATOM     20  C   UNL d   1      -7.208   4.250  -0.912  0.00  0.00     0.024 A 
ATOM     21  C   UNL d   1      -7.895   3.582   0.103  0.00  0.00     0.002 A 
ATOM     22  C   UNL d   1      -7.199   2.777   1.002  0.00  0.00     0.001 A 
ATOM     23  C   UNL d   1      -5.816   2.636   0.882  0.00  0.00     0.014 A 
ENDBRANCH  15  17
ENDBRANCH   6  14
TORSDOF 2
