REMARK  5 active torsions:
REMARK  status: ('A' for Active; 'I' for Inactive)
REMARK    1  A    between atoms: C_2  and  S_1 
REMARK    2  A    between atoms: C_9  and  S_1 
REMARK    3  A    between atoms: C_3  and  C_2 
REMARK       I    between atoms: N_6  and  C_3 
REMARK    4  A    between atoms: C_8  and  N_6 
REMARK    5  A    between atoms: N_15  and  C_7 
ROOT
ATOM      1  C   UNL d   1       0.311   0.624  -1.559  0.00  0.00     0.147 C 
ATOM      2  C   UNL d   1       0.394   1.962  -1.405  0.00  0.00     0.114 C 
ENDROOT
BRANCH   1   3
ATOM      3  S   UNL d   1       1.071  -0.268  -0.247  0.00  0.00     0.213 S 
ATOM      4  O   UNL d   1       0.166  -0.262   0.892  0.00  0.00    -0.217 OA
ATOM      5  O   UNL d   1       2.412   0.272  -0.059  0.00  0.00    -0.217 OA
BRANCH   3   6
ATOM      6  C   UNL d   1       1.324  -1.981  -0.680  0.00  0.00     0.064 A 
ATOM      7  C   UNL d   1       2.580  -2.402  -1.135  0.00  0.00     0.025 A 
ATOM      8  C   UNL d   1       2.834  -3.767  -1.301  0.00  0.00     0.025 A 
ATOM      9  C   UNL d   1       1.839  -4.702  -1.012  0.00  0.00     0.034 A 
ATOM     10  C   UNL d   1       0.592  -4.288  -0.550  0.00  0.00     0.025 A 
ATOM     11 CL   UNL d   1       2.166  -6.381  -1.198  0.00  0.00    -0.084 Cl
ATOM     12  C   UNL d   1       0.340  -2.927  -0.361  0.00  0.00     0.025 A 
ENDBRANCH   3   6
ENDBRANCH   1   3
BRANCH   1  13
ATOM     13  C   UNL d   1      -0.467  -0.117  -2.575  0.00  0.00     0.269 C 
ATOM     14  N   UNL d   1      -0.620   0.493  -3.804  0.00  0.00    -0.320 N 
ATOM     15  H   UNL d   1      -0.139   1.381  -3.934  0.00  0.00     0.169 HD
ATOM     16  O   UNL d   1      -0.845  -1.254  -2.317  0.00  0.00    -0.266 OA
BRANCH  14  17
ATOM     17  C   UNL d   1      -1.268  -0.080  -4.939  0.00  0.00     0.077 A 
ATOM     18  C   UNL d   1      -2.168  -1.164  -4.896  0.00  0.00     0.184 A 
ATOM     19  C   UNL d   1      -2.657  -1.744  -6.064  0.00  0.00     0.195 A 
ATOM     20  F   UNL d   1      -2.667  -1.622  -3.740  0.00  0.00    -0.200 F 
ATOM     21  F   UNL d   1      -3.487  -2.794  -5.994  0.00  0.00    -0.199 F 
ATOM     22  C   UNL d   1      -2.301  -1.223  -7.296  0.00  0.00     0.158 A 
ATOM     23  C   UNL d   1      -1.480  -0.104  -7.372  0.00  0.00     0.048 A 
ATOM     24  F   UNL d   1      -2.762  -1.782  -8.423  0.00  0.00    -0.203 F 
ATOM     25  C   UNL d   1      -0.970   0.471  -6.198  0.00  0.00     0.036 A 
ENDBRANCH  14  17
ENDBRANCH   1  13
BRANCH   2  26
ATOM     26  N   UNL d   1      -0.201   3.080  -2.009  0.00  0.00    -0.397 N 
ATOM     27  C   UNL d   1       0.317   4.404  -1.575  0.00  0.00     0.148 C 
ATOM     28  C   UNL d   1      -1.674   3.113  -2.142  0.00  0.00     0.148 C 
ENDBRANCH   2  26
TORSDOF 5
