REMARK  2 active torsions:
REMARK  status: ('A' for Active; 'I' for Inactive)
REMARK    1  A    between atoms: S_5  and  C_1 
REMARK    2  A    between atoms: C_10  and  S_5 
ROOT
ATOM      1  C   UNL d   1      -1.967  -3.502   0.979  0.00  0.00     0.112 A 
ATOM      2  C   UNL d   1      -3.150  -2.794   1.210  0.00  0.00     0.148 A 
ATOM      3  C   UNL d   1      -3.360  -1.461   0.721  0.00  0.00     0.120 C 
ATOM      4  N   UNL d   1      -3.521  -0.383   0.321  0.00  0.00    -0.190 NA
ATOM      5  N   UNL d   1      -4.197  -3.315   1.918  0.00  0.00    -0.354 N 
ATOM      6  HN  UNL d   1      -5.057  -2.790   2.081  1.00  0.00     0.166 HD
ATOM      7  N   UNL d   1      -1.817  -4.764   1.465  0.00  0.00    -0.357 N 
ATOM      8  HN  UNL d   1      -0.962  -5.299   1.308  1.00  0.00     0.166 HD
ATOM      9  C   UNL d   1      -4.021  -4.568   2.388  0.00  0.00     0.106 A 
ATOM     10  C   UNL d   1      -2.856  -5.277   2.166  0.00  0.00     0.106 A 
ENDROOT
BRANCH   1  11
ATOM     11  S   UNL d   1      -0.605  -2.797   0.052  0.00  0.00    -0.070 SA
BRANCH  11  12
ATOM     12  C   UNL d   1       0.597  -4.109   0.021  0.00  0.00     0.007 A 
ATOM     13  C   UNL d   1       0.622  -5.016  -1.045  0.00  0.00     0.020 A 
ATOM     14  C   UNL d   1       1.573  -6.040  -1.078  0.00  0.00     0.025 A 
ATOM     15  C   UNL d   1       2.507  -6.150  -0.049  0.00  0.00     0.034 A 
ATOM     16  C   UNL d   1       2.505  -5.240   1.006  0.00  0.00     0.025 A 
ATOM     17 CL   UNL d   1       3.669  -7.418  -0.082  0.00  0.00    -0.084 Cl
ATOM     18  C   UNL d   1       1.553  -4.217   1.038  0.00  0.00     0.020 A 
ENDBRANCH  11  12
ENDBRANCH   1  11
TORSDOF 2
