REMARK  2 active torsions:
REMARK  status: ('A' for Active; 'I' for Inactive)
REMARK    1  A    between atoms: C_11  and  N_6 
REMARK    2  A    between atoms: C_7  and  C_11 
ROOT
ATOM      1  C   UNL d   1      -0.655  -0.455   0.177  0.00  0.00     0.005 A 
ATOM      2  C   UNL d   1      -1.024   0.868   0.272  0.00  0.00     0.020 A 
ATOM      3  N   UNL d   1       0.091   1.647   0.275  0.00  0.00    -0.358 N 
ATOM      4  C   UNL d   1       0.769  -0.483   0.127  0.00  0.00     0.003 A 
ATOM      5  C   UNL d   1       1.208   0.847   0.162  0.00  0.00     0.043 A 
ATOM      6  N   UNL d   1      -3.046  -1.149   0.165  0.00  0.00     0.097 N 
ATOM      7  C   UNL d   1      -1.626  -1.588   0.041  0.00  0.00     0.314 C 
ATOM      8  C   UNL d   1      -2.432   1.323   0.298  0.00  0.00     0.088 C 
ATOM      9  C   UNL d   1       1.724  -1.509   0.017  0.00  0.00     0.056 A 
ATOM     10  C   UNL d   1       2.563   1.197   0.075  0.00  0.00     0.033 A 
ATOM     11  C   UNL d   1      -3.290   0.222  -0.366  0.00  0.00     0.279 C 
ATOM     12  C   UNL d   1       3.073  -1.165  -0.061  0.00  0.00     0.117 A 
ATOM     13  C   UNL d   1       3.490   0.160  -0.039  0.00  0.00     0.044 A 
ATOM     14  F   UNL d   1       3.987  -2.138  -0.169  0.00  0.00    -0.206 F 
ATOM     15  H   UNL d   1       0.107   2.658   0.312  0.00  0.00     0.166 HD
ENDROOT
BRANCH   6  16
ATOM     16  C   UNL d   1      -3.921  -2.084  -0.577  0.00  0.00     0.313 C 
BRANCH  16  17
ATOM     17  C   UNL d   1      -3.938  -3.509  -0.061  0.00  0.00    -0.008 A 
ATOM     18  C   UNL d   1      -3.563  -4.614  -0.849  0.00  0.00     0.043 A 
ATOM     19  C   UNL d   1      -3.724  -5.919  -0.374  0.00  0.00     0.048 A 
ATOM     20 CL   UNL d   1      -2.894  -4.437  -2.433  0.00  0.00    -0.084 Cl
ATOM     21  C   UNL d   1      -4.250  -6.132   0.896  0.00  0.00     0.035 A 
ATOM     22  C   UNL d   1      -4.587  -5.055   1.710  0.00  0.00     0.024 A 
ATOM     23 CL   UNL d   1      -4.496  -7.740   1.458  0.00  0.00    -0.084 Cl
ATOM     24  C   UNL d   1      -4.430  -3.751   1.235  0.00  0.00     0.012 A 
ENDBRANCH  16  17
ENDBRANCH   6  16
TORSDOF 2
