REMARK  6 active torsions:
REMARK  status: ('A' for Active; 'I' for Inactive)
REMARK    1  A    between atoms: C_5  and  S_1 
REMARK    2  A    between atoms: C_12  and  S_1 
REMARK    3  A    between atoms: C_4  and  C_5 
REMARK    4  A    between atoms: C_17  and  C_6 
REMARK    5  A    between atoms: C_10  and  O_11 
REMARK    6  A    between atoms: O_11  and  C_17 
ROOT
ATOM      1  N   UNL d   1       1.048  -2.626  -2.835  0.00  0.00    -0.324 N 
ATOM      2  HN  UNL d   1       1.036  -3.596  -2.520  1.00  0.00     0.169 HD
ATOM      3  C   UNL d   1       0.734  -1.541  -2.167  0.00  0.00     0.162 A 
ATOM      4  C   UNL d   1       1.397  -2.124  -4.069  0.00  0.00     0.128 A 
ATOM      5  N   UNL d   1       1.347  -0.787  -4.157  0.00  0.00    -0.245 N 
ATOM      6  HN  UNL d   1       1.578  -0.197  -4.957  1.00  0.00     0.196 HD
ATOM      7  O   UNL d   1       0.901  -0.396  -2.890  0.00  0.00    -0.222 OA
ENDROOT
BRANCH   3   8
ATOM      8  C   UNL d   1       0.287  -1.415  -0.777  0.00  0.00     0.232 C 
BRANCH   8   9
ATOM      9  S   UNL d   1      -1.482  -1.367  -0.755  0.00  0.00     0.182 S 
ATOM     10  O   UNL d   1      -1.942  -0.257  -1.568  0.00  0.00    -0.222 OA
ATOM     11  O   UNL d   1      -1.898  -1.458   0.632  0.00  0.00    -0.222 OA
BRANCH   9  12
ATOM     12  C   UNL d   1      -2.026  -2.871  -1.544  0.00  0.00     0.059 A 
ATOM     13  C   UNL d   1      -2.258  -4.014  -0.770  0.00  0.00     0.025 A 
ATOM     14  C   UNL d   1      -2.708  -5.182  -1.390  0.00  0.00     0.025 A 
ATOM     15  C   UNL d   1      -2.928  -5.199  -2.769  0.00  0.00     0.034 A 
ATOM     16  C   UNL d   1      -2.713  -4.053  -3.535  0.00  0.00     0.025 A 
ATOM     17 CL   UNL d   1      -3.482  -6.641  -3.526  0.00  0.00    -0.084 Cl
ATOM     18  C   UNL d   1      -2.273  -2.880  -2.921  0.00  0.00     0.025 A 
ENDBRANCH   9  12
ENDBRANCH   8   9
ENDBRANCH   3   8
BRANCH   4  19
ATOM     19  C   UNL d   1       1.883  -3.015  -5.163  0.00  0.00     0.254 C 
BRANCH  19  20
ATOM     20  O   UNL d   1       0.810  -3.498  -5.972  0.00  0.00    -0.340 OA
BRANCH  20  21
ATOM     21  C   UNL d   1       1.062  -4.313  -7.049  0.00  0.00     0.112 A 
ATOM     22  C   UNL d   1       2.118  -5.225  -7.227  0.00  0.00     0.069 A 
ATOM     23 CL   UNL d   1       3.421  -5.493  -6.123  0.00  0.00    -0.081 Cl
ATOM     24  C   UNL d   1       2.159  -6.054  -8.362  0.00  0.00     0.027 A 
ATOM     25  C   UNL d   1       1.168  -5.996  -9.335  0.00  0.00     0.003 A 
ATOM     26  C   UNL d   1       0.123  -5.095  -9.185  0.00  0.00     0.027 A 
ATOM     27  C   UNL d   1       0.070  -4.267  -8.055  0.00  0.00     0.069 A 
ATOM     28 CL   UNL d   1      -1.272  -3.173  -7.949  0.00  0.00    -0.081 Cl
ENDBRANCH  20  21
ENDBRANCH  19  20
ENDBRANCH   4  19
TORSDOF 6
