REMARK  2 active torsions:
REMARK  status: ('A' for Active; 'I' for Inactive)
REMARK    1  A    between atoms: C_9  and  N_2 
REMARK    2  A    between atoms: S_17  and  C_5 
ROOT
ATOM      1  C   UNL d   1      -0.140  -1.311   0.094  0.00  0.00     0.156 A 
ATOM      2  N   UNL d   1       1.116  -0.707   0.016  0.00  0.00    -0.272 N 
ATOM      3  N   UNL d   1      -1.072  -0.378   0.126  0.00  0.00    -0.281 N 
ATOM      4  HN  UNL d   1      -2.071  -0.538   0.254  1.00  0.00     0.188 HD
ATOM      5  C   UNL d   1       0.819   0.639  -0.147  0.00  0.00     0.165 A 
ATOM      6  C   UNL d   1      -0.444  -2.712   0.168  0.00  0.00     0.080 A 
ATOM      7  N   UNL d   1      -0.473   0.838  -0.043  0.00  0.00    -0.278 N 
ATOM      8  HN  UNL d   1      -0.947   1.741  -0.081  1.00  0.00     0.189 HD
ATOM      9  N   UNL d   1      -1.490  -3.315  -0.504  0.00  0.00    -0.358 N 
ATOM     10  C   UNL d   1       0.192  -3.708   0.891  0.00  0.00     0.035 A 
ATOM     11  C   UNL d   1      -1.452  -4.673  -0.288  0.00  0.00     0.091 A 
ATOM     12  C   UNL d   1      -0.422  -4.943   0.581  0.00  0.00     0.020 A 
ATOM     13  C   UNL d   1      -2.491  -2.693  -1.346  0.00  0.00     0.156 C 
ENDROOT
BRANCH   2  14
ATOM     14  C   UNL d   1       2.386  -1.347  -0.028  0.00  0.00     0.065 A 
ATOM     15  C   UNL d   1       3.448  -0.951   0.803  0.00  0.00     0.062 A 
ATOM     16  C   UNL d   1       4.676  -1.617   0.735  0.00  0.00     0.050 A 
ATOM     17 CL   UNL d   1       3.295   0.253   2.035  0.00  0.00    -0.082 Cl
ATOM     18  C   UNL d   1       4.839  -2.693  -0.131  0.00  0.00     0.035 A 
ATOM     19  C   UNL d   1       3.787  -3.111  -0.943  0.00  0.00     0.026 A 
ATOM     20 CL   UNL d   1       6.341  -3.530  -0.183  0.00  0.00    -0.084 Cl
ATOM     21  C   UNL d   1       2.566  -2.435  -0.898  0.00  0.00     0.033 A 
ENDBRANCH   2  14
BRANCH   5  22
ATOM     22  S   UNL d   1       1.913   1.864  -0.715  0.00  0.00    -0.105 SA
ATOM     23  H   UNL d   1       3.040   1.453  -0.123  0.00  0.00     0.110 HD
ENDBRANCH   5  22
TORSDOF 2
