REMARK  4 active torsions:
REMARK  status: ('A' for Active; 'I' for Inactive)
REMARK    1  A    between atoms: N_5  and  C_1 
REMARK       I    between atoms: C_8  and  N_5 
REMARK    2  A    between atoms: C_11  and  C_8 
REMARK    3  A    between atoms: S_9  and  C_11 
REMARK    4  A    between atoms: C_12  and  S_9 
ROOT
ATOM      1  N   UNL d   1      -1.532  -3.194   1.023  0.00  0.00    -0.311 N 
ATOM      2  C   UNL d   1      -2.425  -3.025  -0.020  0.00  0.00     0.232 C 
ATOM      3  O   UNL d   1      -2.323  -2.226  -0.947  0.00  0.00    -0.272 OA
ATOM      4  H   UNL d   1      -1.730  -3.900   1.718  0.00  0.00     0.170 HD
ENDROOT
BRANCH   2   5
ATOM      5  C   UNL d   1      -3.672  -3.894   0.102  0.00  0.00     0.182 C 
BRANCH   5   6
ATOM      6  S   UNL d   1      -3.206  -5.654   0.195  0.00  0.00    -0.121 SA
BRANCH   6   7
ATOM      7  C   UNL d   1      -4.772  -6.518   0.170  0.00  0.00     0.001 A 
ATOM      8  C   UNL d   1      -6.034  -5.918   0.150  0.00  0.00     0.019 A 
ATOM      9  C   UNL d   1      -7.196  -6.703   0.153  0.00  0.00     0.008 A 
ATOM     10  C   UNL d   1      -7.118  -8.100   0.178  0.00  0.00    -0.062 A 
ATOM     11  C   UNL d   1      -5.859  -8.702   0.187  0.00  0.00     0.008 A 
ATOM     12  C   UNL d   1      -8.368  -8.930   0.191  0.00  0.00     0.048 C 
ATOM     13  C   UNL d   1      -4.702  -7.918   0.183  0.00  0.00     0.019 A 
ENDBRANCH   6   7
ENDBRANCH   5   6
ENDBRANCH   2   5
BRANCH   1  14
ATOM     14  C   UNL d   1      -0.319  -2.539   1.131  0.00  0.00     0.130 A 
ATOM     15  N   UNL d   1       0.162  -1.643   0.264  0.00  0.00    -0.245 N 
ATOM     16  O   UNL d   1       1.398  -1.259   0.741  0.00  0.00    -0.241 OA
ATOM     17  HN  UNL d   1      -0.295  -1.308  -0.584  1.00  0.00     0.196 HD
ATOM     18  C   UNL d   1       1.656  -1.913   1.901  0.00  0.00     0.076 A 
ATOM     19  C   UNL d   1       0.598  -2.737   2.194  0.00  0.00     0.084 A 
ATOM     20  C   UNL d   1       2.944  -1.603   2.545  0.00  0.00     0.079 C 
ENDBRANCH   1  14
TORSDOF 4
