REMARK  4 active torsions:
REMARK  status: ('A' for Active; 'I' for Inactive)
REMARK    1  A    between atoms: S_13  and  C_5 
REMARK    2  A    between atoms: C_11  and  C_7 
REMARK    3  A    between atoms: O_16  and  C_11 
REMARK    4  A    between atoms: C_15  and  S_13 
ROOT
ATOM      1  C   UNL d   1       0.227  -0.759  -0.030  0.00  0.00     0.051 A 
ATOM      2  C   UNL d   1       0.236   0.633  -0.034  0.00  0.00     0.135 A 
ATOM      3  N   UNL d   1       2.409  -0.019  -0.098  0.00  0.00    -0.301 N 
ATOM      4  HN  UNL d   1       3.428   0.015  -0.140  1.00  0.00     0.187 HD
ATOM      5  C   UNL d   1      -1.034  -1.409   0.005  0.00  0.00     0.040 A 
ATOM      6  N   UNL d   1       1.546   1.013  -0.072  0.00  0.00    -0.280 N 
ATOM      7  C   UNL d   1      -2.168  -0.578   0.110  0.00  0.00     0.071 A 
ATOM      8  C   UNL d   1       1.619  -1.103  -0.054  0.00  0.00     0.037 A 
ATOM      9  N   UNL d   1      -0.824   1.462   0.012  0.00  0.00    -0.349 N 
ATOM     10  HN  UNL d   1      -0.747   2.478  -0.022  1.00  0.00     0.167 HD
ATOM     11  C   UNL d   1      -2.000   0.804   0.107  0.00  0.00     0.109 A 
ATOM     12  C   UNL d   1       2.051   2.363  -0.046  0.00  0.00     0.179 C 
ATOM     13  C   UNL d   1       2.256  -2.445  -0.019  0.00  0.00     0.070 C 
ENDROOT
BRANCH   5  14
ATOM     14  S   UNL d   1      -1.045  -3.182   0.029  0.00  0.00    -0.088 SA
BRANCH  14  15
ATOM     15  C   UNL d   1      -1.125  -3.650  -1.699  0.00  0.00     0.005 A 
ATOM     16  C   UNL d   1      -0.628  -2.868  -2.747  0.00  0.00     0.019 A 
ATOM     17  C   UNL d   1      -0.781  -3.274  -4.078  0.00  0.00     0.008 A 
ATOM     18  C   UNL d   1      -1.429  -4.474  -4.388  0.00  0.00    -0.062 A 
ATOM     19  C   UNL d   1      -1.861  -5.293  -3.342  0.00  0.00     0.008 A 
ATOM     20  C   UNL d   1      -1.665  -4.851  -5.820  0.00  0.00     0.048 C 
ATOM     21  C   UNL d   1      -1.707  -4.885  -2.012  0.00  0.00     0.019 A 
ENDBRANCH  14  15
ENDBRANCH   5  14
BRANCH   7  22
ATOM     22  C   UNL d   1      -3.560  -1.021   0.298  0.00  0.00     0.178 C 
ATOM     23  O   UNL d   1      -4.373  -0.447   0.998  0.00  0.00    -0.646 OA
BRANCH  22  24
ATOM     24  O   UNL d   1      -3.907  -2.058  -0.475  0.00  0.00    -0.773 OA
ATOM     25  H   UNL d   1      -4.862  -2.191  -0.290  0.00  0.00     0.167 HD
ENDBRANCH  22  24
ENDBRANCH   7  22
TORSDOF 4
