REMARK  7 active torsions:
REMARK  status: ('A' for Active; 'I' for Inactive)
REMARK    1  A    between atoms: C_7  and  C_1 
REMARK    2  A    between atoms: C_3  and  C_2 
REMARK    3  A    between atoms: N_12  and  C_6 
REMARK    4  A    between atoms: O_20  and  C_7 
REMARK       I    between atoms: C_11  and  N_13 
REMARK    5  A    between atoms: C_19  and  C_11 
REMARK    6  A    between atoms: N_13  and  N_12 
REMARK    7  A    between atoms: C_21  and  C_19 
ROOT
ATOM      1  C   UNL d   1      -0.027  -1.372   0.648  0.00  0.00     0.086 A 
ATOM      2  C   UNL d   1      -0.804  -0.467   1.340  0.00  0.00     0.136 A 
ATOM      3  N   UNL d   1      -0.898   0.838   0.929  0.00  0.00    -0.327 N 
ATOM      4  HN  UNL d   1      -1.551   1.476   1.384  1.00  0.00     0.168 HD
ATOM      5  C   UNL d   1      -0.119   1.265  -0.079  0.00  0.00     0.176 A 
ATOM      6  N   UNL d   1       0.735   0.460  -0.720  0.00  0.00    -0.340 N 
ATOM      7  HN  UNL d   1       1.355   0.816  -1.447  1.00  0.00     0.167 HD
ATOM      8  C   UNL d   1       0.742  -0.844  -0.367  0.00  0.00     0.110 A 
ENDROOT
BRANCH   5   9
ATOM      9  N   UNL d   1      -0.197   2.593  -0.529  0.00  0.00    -0.173 NA
ATOM     10  H   UNL d   1       0.756   2.961  -0.591  0.00  0.00     0.156 HD
BRANCH   9  11
ATOM     11  N   UNL d   1      -1.081   3.413   0.196  0.00  0.00    -0.284 N 
ATOM     12  C   UNL d   1      -0.631   4.673   0.543  0.00  0.00     0.236 C 
ATOM     13  O   UNL d   1       0.555   4.999   0.489  0.00  0.00    -0.272 OA
ATOM     14  H   UNL d   1      -2.064   3.249  -0.003  0.00  0.00     0.184 HD
BRANCH  12  15
ATOM     15  C   UNL d   1      -1.739   5.624   0.967  0.00  0.00     0.142 C 
BRANCH  15  16
ATOM     16  C   UNL d   1      -2.338   6.429  -0.167  0.00  0.00    -0.049 A 
ATOM     17  C   UNL d   1      -3.701   6.763  -0.140  0.00  0.00     0.007 A 
ATOM     18  C   UNL d   1      -4.264   7.550  -1.148  0.00  0.00     0.001 A 
ATOM     19  C   UNL d   1      -3.471   8.020  -2.192  0.00  0.00     0.000 A 
ATOM     20  C   UNL d   1      -2.114   7.709  -2.224  0.00  0.00     0.001 A 
ATOM     21  C   UNL d   1      -1.550   6.927  -1.214  0.00  0.00     0.007 A 
ENDBRANCH  15  16
ENDBRANCH  12  15
ENDBRANCH   9  11
ENDBRANCH   5   9
BRANCH   2  22
ATOM     22  C   UNL d   1      -1.523  -0.813   2.628  0.00  0.00     0.433 C 
ATOM     23  F   UNL d   1      -1.199  -2.016   3.180  0.00  0.00    -0.165 F 
ATOM     24  F   UNL d   1      -1.252   0.091   3.618  0.00  0.00    -0.165 F 
ATOM     25  F   UNL d   1      -2.879  -0.812   2.494  0.00  0.00    -0.165 F 
ENDBRANCH   2  22
BRANCH   1  26
ATOM     26  C   UNL d   1       0.089  -2.806   0.910  0.00  0.00     0.296 C 
ATOM     27  O   UNL d   1       1.152  -3.405   0.850  0.00  0.00    -0.259 OA
BRANCH  26  28
ATOM     28  O   UNL d   1      -1.135  -3.344   1.109  0.00  0.00    -0.322 OA
ATOM     29  C   UNL d   1      -1.116  -4.743   1.418  0.00  0.00     0.213 C 
ENDBRANCH  26  28
ENDBRANCH   1  26
TORSDOF 7
