REMARK  3 active torsions:
REMARK  status: ('A' for Active; 'I' for Inactive)
REMARK    1  A    between atoms: C_4  and  C_1 
REMARK    2  A    between atoms: C_3  and  C_2 
REMARK       I    between atoms: N_13  and  C_4 
REMARK    3  A    between atoms: O_15  and  C_5 
ROOT
ATOM      1  C   UNL d   1       0.856   0.690  -0.433  0.00  0.00     0.112 C 
ATOM      2  C   UNL d   1       0.394  -0.311  -1.206  0.00  0.00     0.042 C 
ATOM      3  C   UNL d   1       2.027   1.425  -0.750  0.00  0.00     0.105 C 
ATOM      4  N   UNL d   1       2.980   2.047  -0.978  0.00  0.00    -0.191 NA
ENDROOT
BRANCH   1   5
ATOM      5  C   UNL d   1       0.079   1.035   0.797  0.00  0.00     0.260 C 
ATOM      6  O   UNL d   1      -0.935   0.427   1.126  0.00  0.00    -0.267 OA
ATOM      7  N   UNL d   1       0.531   2.079   1.547  0.00  0.00    -0.365 N 
ATOM      8  H   UNL d   1       1.346   2.643   1.340  0.00  0.00     0.159 HD
ATOM      9  H   UNL d   1       0.001   2.320   2.376  0.00  0.00     0.159 HD
ENDBRANCH   1   5
BRANCH   2  10
ATOM     10  C   UNL d   1       1.045  -0.724  -2.464  0.00  0.00     0.002 A 
ATOM     11  C   UNL d   1       0.697  -0.164  -3.705  0.00  0.00     0.097 A 
ATOM     12  C   UNL d   1       1.410  -0.519  -4.859  0.00  0.00     0.069 A 
ATOM     13 CL   UNL d   1       1.018   0.154  -6.401  0.00  0.00    -0.081 Cl
ATOM     14  C   UNL d   1       2.470  -1.422  -4.784  0.00  0.00     0.050 A 
ATOM     15  C   UNL d   1       2.803  -1.985  -3.556  0.00  0.00     0.036 A 
ATOM     16  C   UNL d   1       2.095  -1.650  -2.401  0.00  0.00     0.038 A 
ATOM     17 CL   UNL d   1       4.116  -3.093  -3.456  0.00  0.00    -0.084 Cl
BRANCH  11  18
ATOM     18  O   UNL d   1      -0.321   0.747  -3.822  0.00  0.00    -0.358 OA
ATOM     19  H   UNL d   1      -0.750   0.899  -2.966  0.00  0.00     0.217 HD
ENDBRANCH  11  18
ENDBRANCH   2  10
TORSDOF 3
