REMARK  3 active torsions:
REMARK  status: ('A' for Active; 'I' for Inactive)
REMARK    1  A    between atoms: C_2  and  N_1 
REMARK    2  A    between atoms: O_10  and  C_6 
REMARK    3  A    between atoms: C_11  and  O_10 
ROOT
ATOM      1  C   UNL d   1       0.483   1.289   0.329  0.00  0.00     0.118 A 
ATOM      2  N   UNL d   1      -0.751   3.352   0.423  0.00  0.00    -0.344 N 
ATOM      3  HN  UNL d   1      -1.017   4.244   0.006  1.00  0.00     0.167 HD
ATOM      4  C   UNL d   1      -1.256   2.951   1.615  0.00  0.00     0.148 A 
ATOM      5  C   UNL d   1       0.121   2.520  -0.193  0.00  0.00     0.126 A 
ATOM      6  C   UNL d   1      -0.090   0.866   1.532  0.00  0.00     0.041 A 
ATOM      7  C   UNL d   1      -0.985   1.715   2.185  0.00  0.00     0.059 A 
ENDROOT
BRANCH   4   8
ATOM      8  O   UNL d   1      -2.095   3.800   2.322  0.00  0.00    -0.294 OA
BRANCH   8   9
ATOM      9  C   UNL d   1      -1.897   5.158   2.183  0.00  0.00     0.078 A 
ATOM     10  C   UNL d   1      -3.039   5.964   2.217  0.00  0.00     0.040 A 
ATOM     11  C   UNL d   1      -2.917   7.350   2.094  0.00  0.00     0.045 A 
ATOM     12  C   UNL d   1      -1.656   7.918   1.944  0.00  0.00     0.116 A 
ATOM     13  C   UNL d   1      -0.512   7.131   1.939  0.00  0.00     0.045 A 
ATOM     14  F   UNL d   1      -1.542   9.246   1.809  0.00  0.00    -0.206 F 
ATOM     15  C   UNL d   1      -0.631   5.749   2.080  0.00  0.00     0.040 A 
ENDBRANCH   8   9
ENDBRANCH   4   8
BRANCH   1  16
ATOM     16  N   UNL d   1       1.468   0.476  -0.367  0.00  0.00    -0.114 N 
ATOM     17  O   UNL d   1       1.974   0.937  -1.398  0.00  0.00    -0.532 OA
ATOM     18  O   UNL d   1       1.748  -0.628   0.123  0.00  0.00    -0.532 OA
ENDBRANCH   1  16
TORSDOF 3
