REMARK  6 active torsions:
REMARK  status: ('A' for Active; 'I' for Inactive)
REMARK    1  A    between atoms: C_10  and  C_1 
REMARK    2  A    between atoms: C_2  and  C_8 
REMARK    3  A    between atoms: C_18  and  C_5 
REMARK    4  A    between atoms: N_20  and  C_8 
REMARK    5  A    between atoms: O_17  and  C_10 
REMARK    6  A    between atoms: N_13  and  O_17 
ROOT
ATOM      1  C   UNL d   1      -1.428  -1.051   0.580  0.00  0.00     0.320 C 
ATOM      2  O   UNL d   1      -1.881   0.084   0.714  0.00  0.00    -0.257 OA
ENDROOT
BRANCH   1   3
ATOM      3  C   UNL d   1      -0.069  -1.295   0.143  0.00  0.00     0.102 A 
ATOM      4  C   UNL d   1       0.635  -2.479  -0.248  0.00  0.00     0.084 A 
ATOM      5  N   UNL d   1       1.929  -2.197  -0.476  0.00  0.00    -0.259 N 
ATOM      6  O   UNL d   1       2.079  -0.845  -0.302  0.00  0.00    -0.241 OA
ATOM      7  HN  UNL d   1       2.660  -2.862  -0.731  1.00  0.00     0.195 HD
ATOM      8  C   UNL d   1       0.890  -0.302   0.049  0.00  0.00     0.091 A 
ATOM      9  C   UNL d   1       0.885   1.162   0.250  0.00  0.00     0.080 C 
BRANCH   4  10
ATOM     10  C   UNL d   1       0.170  -3.850  -0.456  0.00  0.00    -0.006 A 
ATOM     11  C   UNL d   1       0.953  -4.931  -0.019  0.00  0.00     0.014 A 
ATOM     12  C   UNL d   1       0.564  -6.247  -0.282  0.00  0.00     0.001 A 
ATOM     13  C   UNL d   1      -0.615  -6.496  -0.982  0.00  0.00     0.000 A 
ATOM     14  C   UNL d   1      -1.398  -5.433  -1.426  0.00  0.00     0.001 A 
ATOM     15  C   UNL d   1      -1.002  -4.116  -1.175  0.00  0.00     0.014 A 
ENDBRANCH   4  10
ENDBRANCH   1   3
BRANCH   1  16
ATOM     16  O   UNL d   1      -2.140  -2.199   0.845  0.00  0.00    -0.193 OA
BRANCH  16  17
ATOM     17  N   UNL d   1      -3.139  -1.922   1.804  0.00  0.00    -0.244 N 
ATOM     18  C   UNL d   1      -4.236  -2.554   1.550  0.00  0.00     0.126 C 
ATOM     19  HN  UNL d   1      -3.010  -1.298   2.600  1.00  0.00     0.196 HD
BRANCH  18  20
ATOM     20  C   UNL d   1      -5.348  -2.432   2.495  0.00  0.00     0.079 A 
ATOM     21  N   UNL d   1      -6.613  -2.946   2.185  0.00  0.00    -0.351 N 
ATOM     22  C   UNL d   1      -7.441  -2.730   3.185  0.00  0.00     0.047 A 
ATOM     23  HN  UNL d   1      -6.857  -3.418   1.314  1.00  0.00     0.166 HD
ATOM     24  C   UNL d   1      -8.870  -3.146   3.206  0.00  0.00     0.076 C 
ATOM     25  S   UNL d   1      -6.778  -1.898   4.535  0.00  0.00    -0.087 SA
ATOM     26  C   UNL d   1      -5.269  -1.820   3.733  0.00  0.00     0.084 A 
ENDBRANCH  18  20
BRANCH  18  27
ATOM     27  N   UNL d   1      -4.558  -3.327   0.468  0.00  0.00    -0.285 NA
ATOM     28  H   UNL d   1      -5.565  -3.463   0.369  0.00  0.00     0.125 HD
ATOM     29  H   UNL d   1      -4.101  -3.049  -0.389  0.00  0.00     0.125 HD
ENDBRANCH  18  27
ENDBRANCH  16  17
ENDBRANCH   1  16
TORSDOF 6
