REMARK  3 active torsions:
REMARK  status: ('A' for Active; 'I' for Inactive)
REMARK    1  A    between atoms: C_2  and  C_1 
REMARK    2  A    between atoms: N_3  and  C_13 
REMARK    3  A    between atoms: C_12  and  C_5 
ROOT
ATOM      1  C   UNL d   1       0.567  -1.386  -0.199  0.00  0.00     0.050 A 
ATOM      2  C   UNL d   1       1.523  -2.412  -0.117  0.00  0.00     0.045 A 
ATOM      3  C   UNL d   1       1.167  -3.755  -0.288  0.00  0.00     0.032 A 
ATOM      4  C   UNL d   1      -0.774  -1.726  -0.429  0.00  0.00     0.016 A 
ATOM      5  C   UNL d   1      -1.146  -3.062  -0.574  0.00  0.00     0.003 A 
ATOM      6  C   UNL d   1      -0.178  -4.066  -0.503  0.00  0.00     0.029 A 
ENDROOT
BRANCH   3   7
ATOM      7  N   UNL d   1       2.088  -4.813  -0.190  0.00  0.00    -0.365 N 
ATOM      8  C   UNL d   1       3.256  -4.677  -0.733  0.00  0.00     0.101 C 
ATOM      9  HN  UNL d   1       1.841  -5.673   0.300  1.00  0.00     0.165 HD
BRANCH   8  10
ATOM     10  C   UNL d   1       4.279  -5.732  -0.660  0.00  0.00    -0.005 A 
ATOM     11  C   UNL d   1       5.554  -5.472  -1.144  0.00  0.00     0.100 A 
ATOM     12  N   UNL d   1       6.561  -6.378  -1.128  0.00  0.00    -0.374 N 
ATOM     13  C   UNL d   1       6.276  -7.590  -0.605  0.00  0.00     0.087 A 
ATOM     14  HN  UNL d   1       7.487  -6.155  -1.492  1.00  0.00     0.164 HD
ATOM     15  C   UNL d   1       5.034  -7.940  -0.096  0.00  0.00     0.018 A 
ATOM     16  C   UNL d   1       4.015  -6.989  -0.122  0.00  0.00     0.015 A 
ENDBRANCH   8  10
ENDBRANCH   3   7
BRANCH   1  17
ATOM     17  C   UNL d   1       0.968   0.057  -0.035  0.00  0.00     0.417 C 
ATOM     18  F   UNL d   1       2.304   0.231   0.170  0.00  0.00    -0.166 F 
ATOM     19  F   UNL d   1       0.348   0.657   1.018  0.00  0.00    -0.166 F 
ATOM     20  F   UNL d   1       0.661   0.809  -1.129  0.00  0.00    -0.166 F 
ENDBRANCH   1  17
TORSDOF 3
