REMARK  13 active torsions:
REMARK  status: ('A' for Active; 'I' for Inactive)
REMARK       I    between atoms: N_2  and  C_1 
REMARK    1  A    between atoms: O_6  and  C_1 
REMARK    2  A    between atoms: C_4  and  N_2 
REMARK    3  A    between atoms: O_7  and  C_3 
REMARK    4  A    between atoms: C_4  and  C_3 
REMARK    5  A    between atoms: C_16  and  C_4 
REMARK    6  A    between atoms: C_5  and  C_12 
REMARK    7  A    between atoms: O_17  and  C_5 
REMARK    8  A    between atoms: C_11  and  O_6 
REMARK    9  A    between atoms: C_13  and  O_7 
REMARK   10  A    between atoms: C_12  and  C_14 
REMARK   11  A    between atoms: C_15  and  C_13 
REMARK   12  A    between atoms: C_23  and  C_16 
REMARK   13  A    between atoms: S_18  and  C_23 
ROOT
ATOM      1  C   UNL d   1       0.137   1.440   1.623  0.00  0.00     0.282 C 
ATOM      2  O   UNL d   1      -0.338   0.564   2.340  0.00  0.00    -0.263 OA
ENDROOT
BRANCH   1   3
ATOM      3  O   UNL d   1      -0.496   1.954   0.536  0.00  0.00    -0.315 OA
BRANCH   3   4
ATOM      4  C   UNL d   1      -1.879   1.578   0.315  0.00  0.00     0.217 C 
BRANCH   4   5
ATOM      5  C   UNL d   1      -2.053   0.494  -0.732  0.00  0.00    -0.034 A 
ATOM      6  C   UNL d   1      -0.999  -0.355  -1.070  0.00  0.00     0.010 A 
ATOM      7  C   UNL d   1      -1.159  -1.355  -2.030  0.00  0.00     0.008 A 
ATOM      8  C   UNL d   1      -2.384  -1.544  -2.684  0.00  0.00    -0.048 A 
ATOM      9  C   UNL d   1      -3.463  -0.732  -2.314  0.00  0.00     0.008 A 
ATOM     10  C   UNL d   1      -3.298   0.280  -1.353  0.00  0.00     0.010 A 
BRANCH   8  11
ATOM     11  C   UNL d   1      -2.501  -2.685  -3.672  0.00  0.00     0.148 C 
BRANCH  11  12
ATOM     12  C   UNL d   1      -3.420  -2.470  -4.847  0.00  0.00     0.143 C 
ATOM     13  O   UNL d   1      -4.291  -3.274  -5.185  0.00  0.00    -0.650 OA
BRANCH  12  14
ATOM     14  O   UNL d   1      -3.170  -1.352  -5.560  0.00  0.00    -0.776 OA
ATOM     15  H   UNL d   1      -2.452  -0.806  -5.178  0.00  0.00     0.167 HD
ENDBRANCH  12  14
ENDBRANCH  11  12
ENDBRANCH   8  11
ENDBRANCH   4   5
ENDBRANCH   3   4
ENDBRANCH   1   3
BRANCH   1  16
ATOM     16  C   UNL d   1       1.497   2.125   1.932  0.00  0.00     0.187 C 
BRANCH  16  17
ATOM     17  C   UNL d   1       2.023   3.238   1.005  0.00  0.00     0.045 C 
BRANCH  17  18
ATOM     18  C   UNL d   1       1.101   4.410   0.648  0.00  0.00     0.076 C 
BRANCH  18  19
ATOM     19  S   UNL d   1       0.389   5.335   2.048  0.00  0.00    -0.173 SA
ATOM     20  C   UNL d   1       1.808   6.368   2.505  0.00  0.00     0.089 C 
ENDBRANCH  18  19
ENDBRANCH  17  18
ENDBRANCH  16  17
BRANCH  16  21
ATOM     21  N   UNL d   1       2.559   1.141   2.260  0.00  0.00    -0.323 N 
ATOM     22  C   UNL d   1       3.304   0.378   1.400  0.00  0.00     0.362 C 
ATOM     23  O   UNL d   1       3.195   0.354   0.188  0.00  0.00    -0.238 OA
ATOM     24  H   UNL d   1       2.736   0.946   3.236  0.00  0.00     0.165 HD
BRANCH  22  25
ATOM     25  O   UNL d   1       4.191  -0.341   2.134  0.00  0.00    -0.294 OA
BRANCH  25  26
ATOM     26  C   UNL d   1       5.173  -1.281   1.592  0.00  0.00     0.061 C 
ATOM     27  C   UNL d   1       6.252  -0.598   0.741  0.00  0.00     0.046 C 
ATOM     28  C   UNL d   1       5.845  -1.874   2.846  0.00  0.00     0.046 C 
ATOM     29  C   UNL d   1       4.514  -2.423   0.813  0.00  0.00     0.046 C 
ENDBRANCH  25  26
ENDBRANCH  22  25
ENDBRANCH  16  21
ENDBRANCH   1  16
TORSDOF 13
