REMARK  5 active torsions:
REMARK  status: ('A' for Active; 'I' for Inactive)
REMARK    1  A    between atoms: C_5  and  S_17 
REMARK    2  A    between atoms: N_11  and  C_6 
REMARK    3  A    between atoms: N_12  and  C_7 
REMARK    4  A    between atoms: S_17  and  C_8 
REMARK    5  A    between atoms: C_16  and  C_18 
ROOT
ATOM      1  C   UNL d   1       4.432  -2.652   0.033  0.00  0.00     0.074 A 
ATOM      2  C   UNL d   1       4.478  -3.379  -1.174  0.00  0.00     0.123 A 
ATOM      3  C   UNL d   1       4.665  -3.407   1.199  0.00  0.00     0.123 A 
ATOM      4  C   UNL d   1       5.000  -5.480  -0.046  0.00  0.00     0.052 A 
ATOM      5  C   UNL d   1       4.753  -4.763  -1.222  0.00  0.00     0.053 A 
ATOM      6  C   UNL d   1       4.957  -4.788   1.169  0.00  0.00     0.053 A 
ENDROOT
BRANCH   1   7
ATOM      7  S   UNL d   1       4.262  -0.873   0.066  0.00  0.00    -0.047 SA
BRANCH   7   8
ATOM      8  C   UNL d   1       2.538  -0.608   0.131  0.00  0.00     0.180 A 
ATOM      9  N   UNL d   1       1.599  -1.593   0.183  0.00  0.00    -0.167 N 
ATOM     10  C   UNL d   1       0.461  -0.926   0.142  0.00  0.00     0.706 A 
ATOM     11  HN  UNL d   1       1.741  -2.602   0.240  1.00  0.00     0.186 HD
ATOM     12  N   UNL d   1       0.739   0.449   0.098  0.00  0.00    -0.089 N 
ATOM     13  N   UNL d   1      -0.825  -1.394   0.129  0.00  0.00    -0.194 N 
ATOM     14  N   UNL d   1       2.074   0.638   0.120  0.00  0.00    -0.258 N 
ATOM     15  C   UNL d   1      -0.284   1.402   0.034  0.00  0.00     0.050 A 
ATOM     16  HN  UNL d   1       2.596   1.514   0.126  1.00  0.00     0.190 HD
ATOM     17  C   UNL d   1       0.070   2.857  -0.012  0.00  0.00     0.071 C 
ATOM     18  C   UNL d   1      -1.557   0.978   0.003  0.00  0.00     0.052 A 
ATOM     19  C   UNL d   1      -1.770  -0.506   0.057  0.00  0.00     0.024 A 
ATOM     20  C   UNL d   1      -3.203  -0.986   0.026  0.00  0.00     0.068 C 
ATOM     21  HN  UNL d   1      -1.031  -2.392   0.172  1.00  0.00     0.184 HD
ENDBRANCH   7   8
ENDBRANCH   1   7
BRANCH   2  22
ATOM     22  N   UNL d   1       4.276  -2.732  -2.463  0.00  0.00    -0.114 N 
ATOM     23  O   UNL d   1       3.191  -2.178  -2.666  0.00  0.00    -0.532 OA
ATOM     24  O   UNL d   1       5.191  -2.852  -3.290  0.00  0.00    -0.532 OA
ENDBRANCH   2  22
BRANCH   3  25
ATOM     25  N   UNL d   1       4.614  -2.806   2.525  0.00  0.00    -0.114 N 
ATOM     26  O   UNL d   1       5.418  -1.899   2.775  0.00  0.00    -0.532 OA
ATOM     27  O   UNL d   1       3.825  -3.311   3.333  0.00  0.00    -0.532 OA
ENDBRANCH   3  25
BRANCH   4  28
ATOM     28  C   UNL d   1       5.298  -6.962  -0.071  0.00  0.00     0.417 C 
ATOM     29  F   UNL d   1       5.243  -7.501  -1.318  0.00  0.00    -0.166 F 
ATOM     30  F   UNL d   1       6.538  -7.245   0.410  0.00  0.00    -0.166 F 
ATOM     31  F   UNL d   1       4.424  -7.672   0.689  0.00  0.00    -0.166 F 
ENDBRANCH   4  28
TORSDOF 5
