REMARK  6 active torsions:
REMARK  status: ('A' for Active; 'I' for Inactive)
REMARK    1  A    between atoms: C_3  and  C_1 
REMARK    2  A    between atoms: C_4  and  CA_2 
REMARK       I    between atoms: N_5  and  C_3 
REMARK    3  A    between atoms: OXT_13  and  C_4 
REMARK    4  A    between atoms: C_12  and  N_5 
REMARK    5  A    between atoms: O_19  and  C_14 
REMARK    6  A    between atoms: C_22  and  O_19 
ROOT
ATOM      1  C   UNL d   1      -1.710  -2.683   0.751  0.00  0.00     0.275 C 
ATOM      2  N   UNL d   1      -0.957  -3.706   0.200  0.00  0.00    -0.322 N 
ATOM      3  O   UNL d   1      -1.409  -1.959   1.694  0.00  0.00    -0.266 OA
ATOM      4  H   UNL d   1      -1.417  -4.269  -0.507  0.00  0.00     0.169 HD
ENDROOT
BRANCH   1   5
ATOM      5  C   UNL d   1      -3.059  -2.524   0.154  0.00  0.00     0.134 A 
ATOM      6  CA  UNL d   1      -3.698  -1.295   0.078  0.00  0.00     0.139 A 
ATOM      7  N   UNL d   1      -5.039  -1.181  -0.215  0.00  0.00    -0.357 N 
ATOM      8  C   UNL d   1      -5.671  -2.349  -0.480  0.00  0.00     0.105 A 
ATOM      9  HN  UNL d   1      -5.521  -0.282  -0.231  1.00  0.00     0.165 HD
ATOM     10  C   UNL d   1      -5.012  -3.570  -0.480  0.00  0.00     0.105 A 
ATOM     11  N   UNL d   1      -3.699  -3.693  -0.168  0.00  0.00    -0.358 N 
ATOM     12  HN  UNL d   1      -3.220  -4.593  -0.172  1.00  0.00     0.165 HD
BRANCH   6  13
ATOM     13  C   UNL d   1      -2.982   0.009   0.138  0.00  0.00     0.196 C 
ATOM     14  O   UNL d   1      -1.790   0.183  -0.035  0.00  0.00    -0.645 OA
BRANCH  13  15
ATOM     15  OXT UNL d   1      -3.874   1.026   0.273  0.00  0.00    -0.772 OA
ATOM     16  HXT UNL d   1      -4.792   0.669   0.244  0.00  0.00     0.167 HD
ENDBRANCH  13  15
ENDBRANCH   6  13
ENDBRANCH   1   5
BRANCH   2  17
ATOM     17  C   UNL d   1       0.415  -3.950   0.430  0.00  0.00     0.035 A 
ATOM     18  C   UNL d   1       1.164  -3.259   1.383  0.00  0.00     0.032 A 
ATOM     19  C   UNL d   1       2.550  -3.415   1.452  0.00  0.00     0.039 A 
ATOM     20  C   UNL d   1       3.208  -4.256   0.559  0.00  0.00     0.068 A 
ATOM     21  C   UNL d   1       2.458  -5.033  -0.322  0.00  0.00     0.039 A 
ATOM     22  C   UNL d   1       1.065  -4.882  -0.387  0.00  0.00     0.032 A 
BRANCH  20  23
ATOM     23  O   UNL d   1       4.571  -4.382   0.485  0.00  0.00    -0.352 OA
BRANCH  23  24
ATOM     24  C   UNL d   1       5.276  -3.162   0.747  0.00  0.00     0.171 C 
ATOM     25  C   UNL d   1       6.735  -3.340   0.370  0.00  0.00     0.034 C 
ENDBRANCH  23  24
ENDBRANCH  20  23
ENDBRANCH   2  17
TORSDOF 6
