REMARK  4 active torsions:
REMARK  status: ('A' for Active; 'I' for Inactive)
REMARK    1  A    between atoms: N_2  and  S_1 
REMARK    2  A    between atoms: C_9  and  S_1 
REMARK    3  A    between atoms: C_3  and  N_2 
REMARK    4  A    between atoms: C_12  and  C_6 
ROOT
ATOM      1  N   UNL d   1       0.495  -0.324  -1.636  0.00  0.00    -0.160 NA
ATOM      2  H   UNL d   1      -0.240  -0.962  -1.938  0.00  0.00     0.148 HD
ENDROOT
BRANCH   1   3
ATOM      3  S   UNL d   1      -0.089   0.340  -0.192  0.00  0.00     0.247 S 
ATOM      4  O   UNL d   1      -1.326  -0.373   0.060  0.00  0.00    -0.205 OA
ATOM      5  O   UNL d   1      -0.046   1.782  -0.200  0.00  0.00    -0.205 OA
BRANCH   3   6
ATOM      6  C   UNL d   1       1.105  -0.219   0.999  0.00  0.00     0.075 A 
ATOM      7  C   UNL d   1       2.442   0.155   0.844  0.00  0.00     0.026 A 
ATOM      8  C   UNL d   1       3.379  -0.222   1.808  0.00  0.00     0.025 A 
ATOM      9  C   UNL d   1       2.974  -0.964   2.918  0.00  0.00     0.034 A 
ATOM     10  C   UNL d   1       1.640  -1.347   3.067  0.00  0.00     0.025 A 
ATOM     11 CL   UNL d   1       4.126  -1.397   4.121  0.00  0.00    -0.084 Cl
ATOM     12  C   UNL d   1       0.697  -0.976   2.105  0.00  0.00     0.026 A 
ENDBRANCH   3   6
ENDBRANCH   1   3
BRANCH   1  13
ATOM     13  C   UNL d   1       0.716   0.668  -2.620  0.00  0.00     0.137 A 
ATOM     14  N   UNL d   1       1.894   1.223  -2.752  0.00  0.00    -0.343 N 
ATOM     15  C   UNL d   1       1.914   2.029  -3.890  0.00  0.00     0.025 A 
ATOM     16  HN  UNL d   1       2.681   1.086  -2.117  1.00  0.00     0.167 HD
ATOM     17  C   UNL d   1       0.701   2.076  -4.563  0.00  0.00     0.078 A 
ATOM     18  S   UNL d   1      -0.437   1.032  -3.819  0.00  0.00    -0.069 SA
BRANCH  15  19
ATOM     19  C   UNL d   1       3.208   2.720  -4.310  0.00  0.00    -0.008 C 
ATOM     20  C   UNL d   1       4.360   2.392  -3.339  0.00  0.00     0.021 C 
ATOM     21  C   UNL d   1       3.625   2.246  -5.719  0.00  0.00     0.021 C 
ATOM     22  C   UNL d   1       3.027   4.250  -4.341  0.00  0.00     0.021 C 
ENDBRANCH  15  19
ENDBRANCH   1  13
TORSDOF 4
