REMARK  3 active torsions:
REMARK  status: ('A' for Active; 'I' for Inactive)
REMARK       I    between atoms: N_2  and  C_1 
REMARK    1  A    between atoms: C_3  and  C_1 
REMARK    2  A    between atoms: C_4  and  N_2 
REMARK    3  A    between atoms: O_10  and  N_5 
ROOT
ATOM      1  C   UNL d   1      -1.077  -0.572  -0.913  0.00  0.00     0.263 C 
ATOM      2  N   UNL d   1       0.164  -1.118  -0.697  0.00  0.00    -0.321 N 
ATOM      3  O   UNL d   1      -1.845  -0.742  -1.847  0.00  0.00    -0.267 OA
ATOM      4  H   UNL d   1       0.606  -0.919   0.198  0.00  0.00     0.169 HD
ENDROOT
BRANCH   2   5
ATOM      5  C   UNL d   1       0.879  -1.983  -1.565  0.00  0.00     0.056 A 
ATOM      6  C   UNL d   1       2.106  -2.526  -1.139  0.00  0.00     0.060 A 
ATOM      7 CL   UNL d   1       2.752  -2.149   0.423  0.00  0.00    -0.082 Cl
ATOM      8  C   UNL d   1       2.837  -3.387  -1.964  0.00  0.00     0.026 A 
ATOM      9  C   UNL d   1       2.360  -3.709  -3.233  0.00  0.00     0.002 A 
ATOM     10  C   UNL d   1       1.157  -3.167  -3.674  0.00  0.00     0.002 A 
ATOM     11  C   UNL d   1       0.421  -2.312  -2.846  0.00  0.00     0.031 A 
ENDBRANCH   2   5
BRANCH   1  12
ATOM     12  C   UNL d   1      -1.506   0.402   0.142  0.00  0.00     0.188 C 
ATOM     13  N   UNL d   1      -1.550   0.063   1.389  0.00  0.00    -0.275 N 
ATOM     14  HN  UNL d   1      -1.285  -0.845   1.772  1.00  0.00     0.193 HD
BRANCH  13  15
ATOM     15  O   UNL d   1      -2.025   1.158   2.126  0.00  0.00    -0.290 OA
ATOM     16  H   UNL d   1      -2.215   0.768   3.000  0.00  0.00     0.244 HD
ENDBRANCH  13  15
ENDBRANCH   1  12
TORSDOF 3
