REMARK  3 active torsions:
REMARK  status: ('A' for Active; 'I' for Inactive)
REMARK    1  A    between atoms: N_17  and  C_7 
REMARK    2  A    between atoms: C_12  and  C_11 
REMARK    3  A    between atoms: O_19  and  C_12 
ROOT
ATOM      1  S   UNL d   1      -2.434   0.779  -0.915  0.00  0.00     0.270 S 
ATOM      2  C   UNL d   1      -2.459  -0.478   0.244  0.00  0.00     0.145 C 
ATOM      3  N   UNL d   1      -1.044   1.643  -0.418  0.00  0.00    -0.275 N 
ATOM      4  C   UNL d   1       0.127   0.816  -0.210  0.00  0.00     0.059 A 
ATOM      5  C   UNL d   1      -1.228  -1.300   0.219  0.00  0.00     0.209 C 
ATOM      6  C   UNL d   1       0.063  -0.576   0.006  0.00  0.00     0.043 A 
ATOM      7  C   UNL d   1      -3.395  -0.755   1.166  0.00  0.00     0.114 C 
ATOM      8  C   UNL d   1       1.374   1.452  -0.194  0.00  0.00     0.049 A 
ATOM      9  O   UNL d   1      -2.090   0.189  -2.198  0.00  0.00    -0.200 OA
ATOM     10  O   UNL d   1      -3.563   1.683  -0.845  0.00  0.00    -0.200 OA
ATOM     11  C   UNL d   1       2.555   0.719  -0.015  0.00  0.00     0.041 A 
ATOM     12  C   UNL d   1       1.251  -1.315   0.131  0.00  0.00     0.019 A 
ATOM     13  O   UNL d   1      -1.238  -2.502   0.470  0.00  0.00    -0.286 OA
ATOM     14  C   UNL d   1       2.492  -0.672   0.116  0.00  0.00     0.018 A 
ATOM     15  C   UNL d   1      -1.236   2.798   0.482  0.00  0.00     0.170 C 
ENDROOT
BRANCH   7  16
ATOM     16  N   UNL d   1      -4.555  -0.143   1.624  0.00  0.00    -0.397 N 
ATOM     17  C   UNL d   1      -4.712   1.308   1.742  0.00  0.00     0.148 C 
ATOM     18  C   UNL d   1      -5.579  -0.902   2.348  0.00  0.00     0.148 C 
ENDBRANCH   7  16
BRANCH  11  19
ATOM     19  C   UNL d   1       3.828   1.484   0.052  0.00  0.00     0.293 C 
ATOM     20  O   UNL d   1       3.872   2.700   0.096  0.00  0.00    -0.259 OA
BRANCH  19  21
ATOM     21  O   UNL d   1       4.894   0.646   0.075  0.00  0.00    -0.323 OA
ATOM     22  C   UNL d   1       6.148   1.327   0.143  0.00  0.00     0.213 C 
ENDBRANCH  19  21
ENDBRANCH  11  19
TORSDOF 3
