REMARK  4 active torsions:
REMARK  status: ('A' for Active; 'I' for Inactive)
REMARK    1  A    between atoms: N_8  and  C_1 
REMARK    2  A    between atoms: C_2  and  C_6 
REMARK    3  A    between atoms: N_3  and  N_8 
REMARK    4  A    between atoms: C_6  and  N_3 
ROOT
ATOM      1  N   UNL d   1      -1.224   0.494   1.082  0.00  0.00    -0.308 N 
ATOM      2  HN  UNL d   1      -1.718  -0.159   0.474  1.00  0.00     0.186 HD
ENDROOT
BRANCH   1   3
ATOM      3  N   UNL d   1       0.137   0.617   1.065  0.00  0.00    -0.277 N 
ATOM      4  H   UNL d   1       0.613   1.283   1.667  0.00  0.00     0.189 HD
BRANCH   3   5
ATOM      5  C   UNL d   1       0.894  -0.143   0.215  0.00  0.00     0.184 C 
ATOM      6  S   UNL d   1       2.545  -0.017   0.141  0.00  0.00    -0.040 SA
ATOM      7  N   UNL d   1       0.201  -1.008  -0.562  0.00  0.00    -0.375 N 
ATOM      8  H   UNL d   1       0.657  -1.605  -1.235  0.00  0.00     0.158 HD
ATOM      9  H   UNL d   1      -0.807  -1.003  -0.470  0.00  0.00     0.158 HD
ENDBRANCH   3   5
ENDBRANCH   1   3
BRANCH   1  10
ATOM     10  C   UNL d   1      -1.848   1.262   1.920  0.00  0.00     0.126 C 
BRANCH  10  11
ATOM     11  C   UNL d   1      -3.286   1.213   2.003  0.00  0.00     0.021 A 
ATOM     12  S   UNL d   1      -4.104   2.244   3.093  0.00  0.00    -0.101 SA
ATOM     13  C   UNL d   1      -5.633   1.641   2.613  0.00  0.00     0.050 A 
ATOM     14  C   UNL d   1      -5.523   0.667   1.644  0.00  0.00     0.008 A 
ATOM     15  C   UNL d   1      -4.165   0.419   1.294  0.00  0.00     0.021 A 
ENDBRANCH  10  11
ENDBRANCH   1  10
TORSDOF 4
