REMARK  7 active torsions:
REMARK  status: ('A' for Active; 'I' for Inactive)
REMARK    1  A    between atoms: C_3  and  C_1 
REMARK    2  A    between atoms: C_10  and  C_2 
REMARK    3  A    between atoms: O_20  and  C_10 
REMARK    4  A    between atoms: C_16  and  C_12 
REMARK    5  A    between atoms: O_17  and  C_16 
REMARK    6  A    between atoms: C_18  and  O_17 
REMARK    7  A    between atoms: C_26  and  O_20 
ROOT
ATOM      1  C   UNL d   1      -2.537  -1.664   0.037  0.00  0.00     0.076 A 
ATOM      2  N   UNL d   1      -2.693  -2.683   0.962  0.00  0.00    -0.349 N 
ATOM      3  HN  UNL d   1      -2.001  -2.948   1.662  1.00  0.00     0.166 HD
ATOM      4  C   UNL d   1      -3.567  -1.552  -0.875  0.00  0.00     0.084 A 
ATOM      5  C   UNL d   1      -3.869  -3.259   0.804  0.00  0.00     0.075 A 
ATOM      6  S   UNL d   1      -4.795  -2.692  -0.532  0.00  0.00    -0.084 SA
ENDROOT
BRANCH   1   7
ATOM      7  C   UNL d   1      -1.302  -0.818   0.041  0.00  0.00     0.144 A 
ATOM      8  C   UNL d   1      -1.110   0.457  -0.468  0.00  0.00     0.101 A 
ATOM      9  C   UNL d   1       0.283   0.694  -0.297  0.00  0.00     0.048 A 
ATOM     10  C   UNL d   1       1.100   1.879  -0.656  0.00  0.00     0.071 C 
ATOM     11  N   UNL d   1       0.877  -0.331   0.323  0.00  0.00    -0.264 N 
ATOM     12  O   UNL d   1      -0.122  -1.249   0.575  0.00  0.00    -0.234 OA
ATOM     13  HN  UNL d   1       1.865  -0.417   0.561  1.00  0.00     0.194 HD
BRANCH   8  14
ATOM     14  C   UNL d   1      -2.132   1.327  -0.994  0.00  0.00     0.298 C 
ATOM     15  O   UNL d   1      -3.289   1.324  -0.590  0.00  0.00    -0.259 OA
BRANCH  14  16
ATOM     16  O   UNL d   1      -1.692   2.084  -2.035  0.00  0.00    -0.318 OA
BRANCH  16  17
ATOM     17  C   UNL d   1      -2.725   2.732  -2.795  0.00  0.00     0.174 C 
ATOM     18  C   UNL d   1      -3.135   1.811  -3.929  0.00  0.00     0.034 C 
ENDBRANCH  16  17
ENDBRANCH  14  16
ENDBRANCH   8  14
ENDBRANCH   1   7
BRANCH   5  19
ATOM     19  C   UNL d   1      -4.446  -4.308   1.704  0.00  0.00     0.240 C 
BRANCH  19  20
ATOM     20  O   UNL d   1      -4.099  -5.576   1.146  0.00  0.00    -0.345 OA
BRANCH  20  21
ATOM     21  C   UNL d   1      -4.514  -6.664   1.862  0.00  0.00     0.070 A 
ATOM     22  C   UNL d   1      -5.688  -6.731   2.613  0.00  0.00     0.060 A 
ATOM     23  C   UNL d   1      -6.024  -7.917   3.264  0.00  0.00     0.036 A 
ATOM     24 CL   UNL d   1      -7.481  -8.000   4.179  0.00  0.00    -0.084 Cl
ATOM     25  C   UNL d   1      -5.202  -9.039   3.175  0.00  0.00     0.024 A 
ATOM     26  C   UNL d   1      -4.034  -8.976   2.417  0.00  0.00     0.004 A 
ATOM     27  C   UNL d   1      -3.697  -7.794   1.756  0.00  0.00     0.037 A 
ENDBRANCH  20  21
ENDBRANCH  19  20
ENDBRANCH   5  19
TORSDOF 7
