REMARK  3 active torsions:
REMARK  status: ('A' for Active; 'I' for Inactive)
REMARK    1  A    between atoms: C_2  and  C_1 
REMARK       I    between atoms: N_5  and  C_2 
REMARK    2  A    between atoms: N_10  and  C_3 
REMARK    3  A    between atoms: C_7  and  N_5 
ROOT
ATOM      1  C   UNL d   1       0.862  -0.093   0.010  0.00  0.00     0.127 C 
ATOM      2  C   UNL d   1       0.227   0.786  -0.790  0.00  0.00     0.113 C 
ATOM      3  C   UNL d   1       0.184  -1.129   0.700  0.00  0.00     0.106 C 
ATOM      4  N   UNL d   1      -0.297  -2.009   1.289  0.00  0.00    -0.191 NA
ENDROOT
BRANCH   1   5
ATOM      5  C   UNL d   1       2.364   0.011   0.087  0.00  0.00     0.268 C 
ATOM      6  N   UNL d   1       2.997  -0.975   0.830  0.00  0.00    -0.322 N 
ATOM      7  H   UNL d   1       2.437  -1.718   1.234  0.00  0.00     0.169 HD
ATOM      8  O   UNL d   1       2.943   0.918  -0.507  0.00  0.00    -0.266 OA
BRANCH   6   9
ATOM      9  C   UNL d   1       4.394  -1.123   1.020  0.00  0.00     0.036 A 
ATOM     10  C   UNL d   1       5.343  -0.181   0.616  0.00  0.00     0.053 A 
ATOM     11  C   UNL d   1       6.705  -0.430   0.801  0.00  0.00     0.036 A 
ATOM     12 CL   UNL d   1       7.864   0.737   0.288  0.00  0.00    -0.084 Cl
ATOM     13  C   UNL d   1       7.138  -1.612   1.393  0.00  0.00     0.024 A 
ATOM     14  C   UNL d   1       6.200  -2.547   1.822  0.00  0.00     0.004 A 
ATOM     15  C   UNL d   1       4.835  -2.300   1.643  0.00  0.00     0.029 A 
ENDBRANCH   6   9
ENDBRANCH   1   5
BRANCH   2  16
ATOM     16  N   UNL d   1      -1.120   0.974  -1.109  0.00  0.00    -0.397 N 
ATOM     17  C   UNL d   1      -2.205   0.877  -0.127  0.00  0.00     0.148 C 
ATOM     18  C   UNL d   1      -1.493   1.742  -2.304  0.00  0.00     0.148 C 
ENDBRANCH   2  16
TORSDOF 3
