REMARK  2 active torsions:
REMARK  status: ('A' for Active; 'I' for Inactive)
REMARK    1  A    between atoms: C_7  and  N_1 
REMARK    2  A    between atoms: N_11  and  C_5 
ROOT
ATOM      1  N   UNL d   1      -0.393   1.025   0.009  0.00  0.00    -0.263 N 
ATOM      2  N   UNL d   1       0.795   0.661  -0.545  0.00  0.00    -0.278 N 
ATOM      3  HN  UNL d   1       1.483   1.267  -0.992  1.00  0.00     0.189 HD
ATOM      4  C   UNL d   1      -0.319  -1.173   0.173  0.00  0.00     0.106 A 
ATOM      5  C   UNL d   1       0.865  -0.655  -0.378  0.00  0.00     0.136 A 
ATOM      6  C   UNL d   1      -1.123  -0.079   0.387  0.00  0.00     0.143 A 
ATOM      7  C   UNL d   1      -0.662  -2.526   0.446  0.00  0.00     0.105 C 
ATOM      8  N   UNL d   1      -0.940  -3.629   0.672  0.00  0.00    -0.191 NA
ENDROOT
BRANCH   5   9
ATOM      9  N   UNL d   1       1.944  -1.372  -0.719  0.00  0.00    -0.383 N 
ATOM     10  H   UNL d   1       2.799  -0.861  -0.921  0.00  0.00     0.157 HD
ATOM     11  H   UNL d   1       2.103  -2.314  -0.377  0.00  0.00     0.157 HD
ENDBRANCH   5   9
BRANCH   1  12
ATOM     12  C   UNL d   1      -0.767   2.394   0.074  0.00  0.00     0.077 A 
ATOM     13  C   UNL d   1      -1.605   2.919   1.071  0.00  0.00     0.062 A 
ATOM     14 CL   UNL d   1      -2.126   2.050   2.474  0.00  0.00    -0.082 Cl
ATOM     15  C   UNL d   1      -1.964   4.273   1.031  0.00  0.00     0.026 A 
ATOM     16  C   UNL d   1      -1.497   5.106   0.015  0.00  0.00     0.002 A 
ATOM     17  C   UNL d   1      -0.643   4.597  -0.959  0.00  0.00     0.002 A 
ATOM     18  C   UNL d   1      -0.266   3.253  -0.923  0.00  0.00     0.033 A 
ENDBRANCH   1  12
TORSDOF 2
