REMARK  5 active torsions:
REMARK  status: ('A' for Active; 'I' for Inactive)
REMARK    1  A    between atoms: C_4  and  S_1 
REMARK    2  A    between atoms: C_7  and  S_1 
REMARK    3  A    between atoms: C_2  and  S_11 
REMARK    4  A    between atoms: C_12  and  C_4 
REMARK    5  A    between atoms: S_11  and  C_12 
ROOT
ATOM      1  S   UNL d   1       0.925   0.017   0.021  0.00  0.00     0.176 S 
ATOM      2  O   UNL d   1       0.340   1.346  -0.003  0.00  0.00    -0.223 OA
ATOM      3  O   UNL d   1       2.358  -0.157   0.145  0.00  0.00    -0.223 OA
ENDROOT
BRANCH   1   4
ATOM      4  C   UNL d   1       0.382  -0.850  -1.433  0.00  0.00     0.156 C 
BRANCH   4   5
ATOM      5  C   UNL d   1       0.855  -0.124  -2.683  0.00  0.00     0.095 C 
BRANCH   5   6
ATOM      6  S   UNL d   1       0.286  -1.046  -4.143  0.00  0.00    -0.122 SA
BRANCH   6   7
ATOM      7  C   UNL d   1       0.876  -0.083  -5.491  0.00  0.00     0.041 A 
ATOM      8  S   UNL d   1       1.295  -0.841  -6.972  0.00  0.00    -0.095 SA
ATOM      9  C   UNL d   1       1.655   0.653  -7.718  0.00  0.00     0.051 A 
ATOM     10  C   UNL d   1       1.466   1.713  -6.861  0.00  0.00     0.009 A 
ATOM     11  C   UNL d   1       1.017   1.287  -5.573  0.00  0.00     0.026 A 
ENDBRANCH   6   7
ENDBRANCH   5   6
ENDBRANCH   4   5
ENDBRANCH   1   4
BRANCH   1  12
ATOM     12  C   UNL d   1       0.159  -0.875   1.359  0.00  0.00     0.059 A 
ATOM     13  C   UNL d   1       0.830  -1.952   1.946  0.00  0.00     0.023 A 
ATOM     14  C   UNL d   1       0.250  -2.612   3.030  0.00  0.00     0.002 A 
ATOM     15  C   UNL d   1      -0.985  -2.192   3.528  0.00  0.00     0.000 A 
ATOM     16  C   UNL d   1      -1.646  -1.111   2.943  0.00  0.00     0.002 A 
ATOM     17  C   UNL d   1      -1.074  -0.445   1.858  0.00  0.00     0.023 A 
ENDBRANCH   1  12
TORSDOF 5
