REMARK  2 active torsions:
REMARK  status: ('A' for Active; 'I' for Inactive)
REMARK    1  A    between atoms: C_2  and  S_1 
REMARK    2  A    between atoms: N_3  and  S_1 
ROOT
ATOM      1  S   UNL d   1       1.258   0.029   0.151  0.00  0.00     0.262 S 
ATOM      2  O   UNL d   1       0.785   0.664   1.363  0.00  0.00    -0.200 OA
ATOM      3  O   UNL d   1       1.169  -1.408   0.012  0.00  0.00    -0.200 OA
ENDROOT
BRANCH   1   4
ATOM      4  C   UNL d   1       2.960   0.483  -0.053  0.00  0.00     0.102 A 
ATOM      5  C   UNL d   1       3.903  -0.542  -0.239  0.00  0.00     0.050 A 
ATOM      6  C   UNL d   1       5.251  -0.223  -0.376  0.00  0.00     0.035 A 
ATOM      7 CL   UNL d   1       6.409  -1.474  -0.607  0.00  0.00    -0.084 Cl
ATOM      8  C   UNL d   1       5.670   1.103  -0.326  0.00  0.00     0.025 A 
ATOM      9  C   UNL d   1       4.730   2.119  -0.134  0.00  0.00     0.027 A 
ATOM     10  C   UNL d   1       3.369   1.816   0.005  0.00  0.00     0.057 A 
ATOM     11 CL   UNL d   1       2.302   3.154   0.225  0.00  0.00    -0.083 Cl
ENDBRANCH   1   4
BRANCH   1  12
ATOM     12  N   UNL d   1       0.491   0.740  -1.197  0.00  0.00    -0.307 N 
ATOM     13  C   UNL d   1       0.802   0.206  -2.543  0.00  0.00     0.135 C 
ATOM     14  C   UNL d   1       0.043  -1.089  -2.819  0.00  0.00     0.025 C 
ATOM     15  C   UNL d   1      -1.464  -0.980  -2.531  0.00  0.00    -0.015 C 
ATOM     16  C   UNL d   1      -1.767  -0.260  -1.207  0.00  0.00     0.025 C 
ATOM     17  C   UNL d   1      -2.100  -2.371  -2.521  0.00  0.00     0.010 C 
ATOM     18  C   UNL d   1      -0.958   1.020  -1.052  0.00  0.00     0.135 C 
ENDBRANCH   1  12
TORSDOF 2
