REMARK  6 active torsions:
REMARK  status: ('A' for Active; 'I' for Inactive)
REMARK    1  A    between atoms: C_19  and  C_3 
REMARK    2  A    between atoms: C_20  and  C_6 
REMARK    3  A    between atoms: C_7  and  O_10 
REMARK    4  A    between atoms: C_9  and  S_16 
REMARK    5  A    between atoms: O_10  and  C_19 
REMARK    6  A    between atoms: S_16  and  C_20 
ROOT
ATOM      1  N   UNL d   1       0.993  -0.057  -1.086  0.00  0.00    -0.324 N 
ATOM      2  HN  UNL d   1       1.538  -0.185  -1.939  1.00  0.00     0.169 HD
ATOM      3  C   UNL d   1       0.348   1.071  -0.640  0.00  0.00     0.128 A 
ATOM      4  N   UNL d   1      -0.341   0.904   0.502  0.00  0.00    -0.245 N 
ATOM      5  HN  UNL d   1      -0.908   1.586   1.006  1.00  0.00     0.196 HD
ATOM      6  C   UNL d   1       0.733  -0.932  -0.136  0.00  0.00     0.158 A 
ATOM      7  O   UNL d   1      -0.092  -0.435   0.833  0.00  0.00    -0.222 OA
ENDROOT
BRANCH   6   8
ATOM      8  C   UNL d   1       1.247  -2.315   0.045  0.00  0.00     0.166 C 
BRANCH   8   9
ATOM      9  S   UNL d   1       3.082  -2.306   0.004  0.00  0.00    -0.121 SA
BRANCH   9  10
ATOM     10  C   UNL d   1       3.459  -3.998   0.446  0.00  0.00     0.007 A 
ATOM     11  C   UNL d   1       4.117  -4.181   1.677  0.00  0.00     0.027 A 
ATOM     12  C   UNL d   1       4.542  -5.448   2.111  0.00  0.00    -0.039 A 
ATOM     13  C   UNL d   1       5.286  -5.577   3.411  0.00  0.00     0.050 C 
ATOM     14  C   UNL d   1       4.290  -6.550   1.290  0.00  0.00     0.040 A 
ATOM     15  C   UNL d   1       3.643  -6.381   0.062  0.00  0.00     0.032 A 
ATOM     16 CL   UNL d   1       4.784  -8.144   1.733  0.00  0.00    -0.084 Cl
ATOM     17  C   UNL d   1       3.240  -5.108  -0.388  0.00  0.00    -0.044 A 
ATOM     18  C   UNL d   1       2.618  -5.038  -1.755  0.00  0.00     0.049 C 
ENDBRANCH   9  10
ENDBRANCH   8   9
ENDBRANCH   6   8
BRANCH   3  19
ATOM     19  C   UNL d   1       0.591   2.405  -1.273  0.00  0.00     0.254 C 
BRANCH  19  20
ATOM     20  O   UNL d   1      -0.262   2.651  -2.390  0.00  0.00    -0.340 OA
BRANCH  20  21
ATOM     21  C   UNL d   1      -0.191   3.853  -3.053  0.00  0.00     0.112 A 
ATOM     22  C   UNL d   1       0.938   4.667  -3.266  0.00  0.00     0.069 A 
ATOM     23 CL   UNL d   1       2.532   4.361  -2.669  0.00  0.00    -0.081 Cl
ATOM     24  C   UNL d   1       0.846   5.822  -4.063  0.00  0.00     0.027 A 
ATOM     25  C   UNL d   1      -0.353   6.192  -4.661  0.00  0.00     0.003 A 
ATOM     26  C   UNL d   1      -1.480   5.409  -4.458  0.00  0.00     0.027 A 
ATOM     27  C   UNL d   1      -1.399   4.254  -3.667  0.00  0.00     0.069 A 
ATOM     28 CL   UNL d   1      -2.860   3.341  -3.468  0.00  0.00    -0.081 Cl
ENDBRANCH  20  21
ENDBRANCH  19  20
ENDBRANCH   3  19
TORSDOF 6
