REMARK  4 active torsions:
REMARK  status: ('A' for Active; 'I' for Inactive)
REMARK    1  A    between atoms: S_18  and  C_6 
REMARK       I    between atoms: N_10  and  C_14 
REMARK    2  A    between atoms: C_11  and  N_10 
REMARK    3  A    between atoms: C_14  and  C_23 
REMARK    4  A    between atoms: C_23  and  S_18 
ROOT
ATOM      1  C   UNL d   1       0.031  -0.869   0.067  0.00  0.00     0.048 A 
ATOM      2  C   UNL d   1       0.135   0.497  -0.095  0.00  0.00     0.027 A 
ATOM      3  N   UNL d   1       1.320   1.098  -0.351  0.00  0.00    -0.339 N 
ATOM      4  HN  UNL d   1       1.395   2.110  -0.447  1.00  0.00     0.168 HD
ATOM      5  C   UNL d   1      -1.258  -1.544   0.245  0.00  0.00     0.163 C 
ATOM      6  C   UNL d   1       2.395   0.297  -0.472  0.00  0.00     0.144 A 
ATOM      7  N   UNL d   1       2.391  -1.039  -0.296  0.00  0.00    -0.346 N 
ATOM      8  HN  UNL d   1       3.241  -1.597  -0.372  1.00  0.00     0.167 HD
ATOM      9  C   UNL d   1       1.196  -1.593  -0.015  0.00  0.00     0.107 A 
ATOM     10  C   UNL d   1      -2.378   0.644  -0.421  0.00  0.00    -0.036 C 
ATOM     11  C   UNL d   1      -1.087   1.378   0.007  0.00  0.00     0.067 C 
ATOM     12  C   UNL d   1      -2.495  -0.685   0.352  0.00  0.00     0.093 C 
ATOM     13  O   UNL d   1      -1.295  -2.768   0.334  0.00  0.00    -0.292 OA
ATOM     14  C   UNL d   1      -2.381   0.398  -1.945  0.00  0.00     0.015 C 
ATOM     15  C   UNL d   1      -3.605   1.509  -0.077  0.00  0.00     0.015 C 
ENDROOT
BRANCH   6  16
ATOM     16  S   UNL d   1       3.916   1.020  -1.021  0.00  0.00    -0.085 SA
BRANCH  16  17
ATOM     17  C   UNL d   1       4.416  -0.284  -2.196  0.00  0.00     0.185 C 
BRANCH  17  18
ATOM     18  C   UNL d   1       3.339  -0.512  -3.252  0.00  0.00     0.232 C 
ATOM     19  N   UNL d   1       2.843  -1.811  -3.274  0.00  0.00    -0.324 N 
ATOM     20  H   UNL d   1       2.988  -2.352  -2.427  0.00  0.00     0.169 HD
ATOM     21  O   UNL d   1       2.939   0.412  -3.958  0.00  0.00    -0.272 OA
BRANCH  19  22
ATOM     22  C   UNL d   1       1.843  -2.283  -4.162  0.00  0.00     0.073 A 
ATOM     23  C   UNL d   1       1.607  -1.753  -5.441  0.00  0.00     0.145 A 
ATOM     24  C   UNL d   1       0.541  -2.191  -6.222  0.00  0.00     0.086 A 
ATOM     25  F   UNL d   1       2.446  -0.868  -5.996  0.00  0.00    -0.204 F 
ATOM     26  C   UNL d   1      -0.278  -3.199  -5.742  0.00  0.00     0.119 A 
ATOM     27  C   UNL d   1      -0.026  -3.798  -4.513  0.00  0.00     0.044 A 
ATOM     28  F   UNL d   1      -1.316  -3.614  -6.478  0.00  0.00    -0.206 F 
ATOM     29  C   UNL d   1       1.042  -3.350  -3.727  0.00  0.00     0.036 A 
ENDBRANCH  19  22
ENDBRANCH  17  18
ENDBRANCH  16  17
ENDBRANCH   6  16
TORSDOF 4
