REMARK  7 active torsions:
REMARK  status: ('A' for Active; 'I' for Inactive)
REMARK    1  A    between atoms: C_3  and  C_1 
REMARK    2  A    between atoms: C_5  and  C_1 
REMARK    3  A    between atoms: C_7  and  C_1 
REMARK    4  A    between atoms: O_18  and  C_1 
REMARK       I    between atoms: C_2  and  N_4 
REMARK       I    between atoms: N_6  and  C_2 
REMARK    5  A    between atoms: N_4  and  C_8 
REMARK    6  A    between atoms: O_20  and  C_5 
REMARK    7  A    between atoms: C_19  and  N_6 
ROOT
ATOM      1  C   UNL d   1       0.565   0.010   1.358  0.00  0.00    -0.005 A 
ATOM      2  C   UNL d   1      -0.351   0.067   4.094  0.00  0.00     0.038 A 
ATOM      3  C   UNL d   1       0.424  -1.164   2.107  0.00  0.00     0.013 A 
ATOM      4  C   UNL d   1       0.321   1.214   2.026  0.00  0.00     0.013 A 
ATOM      5  C   UNL d   1      -0.006  -1.131   3.444  0.00  0.00     0.030 A 
ATOM      6  C   UNL d   1      -0.126   1.237   3.357  0.00  0.00     0.030 A 
ENDROOT
BRANCH   2   7
ATOM      7  N   UNL d   1      -0.957   0.055   5.427  0.00  0.00    -0.304 N 
ATOM      8  C   UNL d   1      -1.213   1.253   6.145  0.00  0.00     0.327 C 
ATOM      9  N   UNL d   1      -1.834   1.091   7.376  0.00  0.00    -0.309 N 
ATOM     10  O   UNL d   1      -0.913   2.373   5.738  0.00  0.00    -0.246 OA
ATOM     11  H   UNL d   1      -1.809   0.178   7.791  0.00  0.00     0.170 HD
ATOM     12  C   UNL d   1      -1.315  -1.274   5.945  0.00  0.00     0.161 C 
BRANCH   9  13
ATOM     13  C   UNL d   1      -2.268   2.110   8.259  0.00  0.00     0.036 A 
ATOM     14  C   UNL d   1      -2.260   3.476   7.960  0.00  0.00     0.031 A 
ATOM     15  C   UNL d   1      -2.620   4.422   8.927  0.00  0.00     0.026 A 
ATOM     16  C   UNL d   1      -3.019   4.004  10.193  0.00  0.00     0.034 A 
ATOM     17  C   UNL d   1      -3.090   2.646  10.488  0.00  0.00     0.026 A 
ATOM     18 CL   UNL d   1      -3.414   5.165  11.396  0.00  0.00    -0.084 Cl
ATOM     19  C   UNL d   1      -2.719   1.703   9.523  0.00  0.00     0.031 A 
ENDBRANCH   9  13
ENDBRANCH   2   7
BRANCH   1  20
ATOM     20  C   UNL d   1       0.936  -0.025  -0.130  0.00  0.00     0.271 C 
BRANCH  20  21
ATOM     21  C   UNL d   1      -0.082  -0.818  -0.995  0.00  0.00     0.432 C 
ATOM     22  F   UNL d   1       0.466  -1.883  -1.627  0.00  0.00    -0.167 F 
ATOM     23  F   UNL d   1      -1.147  -1.284  -0.303  0.00  0.00    -0.167 F 
ATOM     24  F   UNL d   1      -0.583  -0.021  -1.980  0.00  0.00    -0.167 F 
ENDBRANCH  20  21
BRANCH  20  25
ATOM     25  C   UNL d   1       2.288  -0.712  -0.375  0.00  0.00     0.307 C 
ATOM     26  O   UNL d   1       2.773  -1.611   0.294  0.00  0.00    -0.261 OA
BRANCH  25  27
ATOM     27  O   UNL d   1       2.877  -0.197  -1.503  0.00  0.00    -0.324 OA
ATOM     28  C   UNL d   1       4.152  -0.773  -1.803  0.00  0.00     0.213 C 
ENDBRANCH  25  27
ENDBRANCH  20  25
BRANCH  20  29
ATOM     29  O   UNL d   1       1.041   1.355  -0.592  0.00  0.00    -0.368 OA
ATOM     30  H   UNL d   1       1.181   1.316  -1.557  0.00  0.00     0.212 HD
ENDBRANCH  20  29
ENDBRANCH   1  20
TORSDOF 7
