REMARK  6 active torsions:
REMARK  status: ('A' for Active; 'I' for Inactive)
REMARK    1  A    between atoms: S_10  and  C_2 
REMARK    2  A    between atoms: C_14  and  C_3 
REMARK    3  A    between atoms: C_8  and  C_11 
REMARK    4  A    between atoms: C_9  and  S_13 
REMARK    5  A    between atoms: C_11  and  S_10 
REMARK    6  A    between atoms: S_13  and  C_14 
ROOT
ATOM      1  N   UNL d   1       0.844   0.025  -0.015  0.00  0.00    -0.319 N 
ATOM      2  C   UNL d   1      -0.060   1.052  -0.075  0.00  0.00     0.162 A 
ATOM      3  C   UNL d   1       0.090  -1.134   0.011  0.00  0.00     0.109 A 
ATOM      4  N   UNL d   1      -1.278   0.567  -0.075  0.00  0.00    -0.278 N 
ATOM      5  HN  UNL d   1      -2.141   1.110  -0.107  1.00  0.00     0.189 HD
ATOM      6  N   UNL d   1      -1.187  -0.802  -0.023  0.00  0.00    -0.286 N 
ATOM      7  HN  UNL d   1      -1.973  -1.453  -0.013  1.00  0.00     0.188 HD
ATOM      8  C   UNL d   1       2.281   0.097   0.008  0.00  0.00     0.159 C 
ENDROOT
BRANCH   2   9
ATOM      9  S   UNL d   1       0.364   2.732  -0.168  0.00  0.00    -0.088 SA
BRANCH   9  10
ATOM     10  C   UNL d   1      -1.290   3.496  -0.185  0.00  0.00     0.124 C 
BRANCH  10  11
ATOM     11  C   UNL d   1      -1.240   4.996  -0.395  0.00  0.00    -0.005 A 
ATOM     12  C   UNL d   1      -1.263   5.556  -1.689  0.00  0.00     0.042 A 
ATOM     13 CL   UNL d   1      -1.288   4.575  -3.116  0.00  0.00    -0.084 Cl
ATOM     14  C   UNL d   1      -1.270   6.943  -1.884  0.00  0.00     0.024 A 
ATOM     15  C   UNL d   1      -1.240   7.808  -0.795  0.00  0.00     0.003 A 
ATOM     16  C   UNL d   1      -1.186   7.280   0.491  0.00  0.00     0.024 A 
ATOM     17  C   UNL d   1      -1.179   5.893   0.691  0.00  0.00     0.042 A 
ATOM     18 CL   UNL d   1      -1.095   5.347   2.332  0.00  0.00    -0.084 Cl
ENDBRANCH  10  11
ENDBRANCH   9  10
ENDBRANCH   2   9
BRANCH   3  19
ATOM     19  C   UNL d   1       0.622  -2.532   0.019  0.00  0.00     0.158 C 
BRANCH  19  20
ATOM     20  S   UNL d   1       1.354  -2.957   1.626  0.00  0.00    -0.115 SA
BRANCH  20  21
ATOM     21  C   UNL d   1       1.954  -4.601   1.435  0.00  0.00     0.041 A 
ATOM     22  S   UNL d   1       1.588  -5.661   0.143  0.00  0.00    -0.095 SA
ATOM     23  C   UNL d   1       2.502  -6.935   0.829  0.00  0.00     0.051 A 
ATOM     24  C   UNL d   1       3.094  -6.562   2.013  0.00  0.00     0.009 A 
ATOM     25  C   UNL d   1       2.779  -5.216   2.359  0.00  0.00     0.026 A 
ENDBRANCH  20  21
ENDBRANCH  19  20
ENDBRANCH   3  19
TORSDOF 6
