REMARK  2 active torsions:
REMARK  status: ('A' for Active; 'I' for Inactive)
REMARK       I    between atoms: C_3  and  N_1 
REMARK    1  A    between atoms: C_4  and  C_2 
REMARK    2  A    between atoms: O_8  and  C_4 
ROOT
ATOM      1  N   UNL d   1      -1.097   0.402   0.377  0.00  0.00    -0.338 N 
ATOM      2  C   UNL d   1      -0.892  -0.992  -0.053  0.00  0.00     0.185 C 
ATOM      3  C   UNL d   1      -2.286   1.115   0.354  0.00  0.00     0.216 C 
ATOM      4  O   UNL d   1      -2.312   2.328   0.550  0.00  0.00    -0.274 OA
ATOM      5  C   UNL d   1       0.141   1.164   0.263  0.00  0.00     0.127 C 
ATOM      6  C   UNL d   1       0.616  -1.186   0.123  0.00  0.00     0.038 C 
ATOM      7  C   UNL d   1      -3.570   0.347   0.172  0.00  0.00     0.117 C 
ATOM      8  C   UNL d   1       1.208   0.178  -0.187  0.00  0.00     0.022 C 
ENDROOT
BRANCH   2   9
ATOM      9  C   UNL d   1      -1.585  -2.057   0.799  0.00  0.00     0.163 C 
ATOM     10  O   UNL d   1      -1.761  -3.207   0.437  0.00  0.00    -0.648 OA
BRANCH   9  11
ATOM     11  O   UNL d   1      -1.891  -1.628   2.047  0.00  0.00    -0.775 OA
ATOM     12  H   UNL d   1      -1.607  -0.697   2.178  0.00  0.00     0.167 HD
ENDBRANCH   9  11
ENDBRANCH   2   9
TORSDOF 2
