REMARK  5 active torsions:
REMARK  status: ('A' for Active; 'I' for Inactive)
REMARK    1  A    between atoms: C_7  and  C_1 
REMARK    2  A    between atoms: N_2  and  C_6 
REMARK    3  A    between atoms: O_8  and  C_3 
REMARK    4  A    between atoms: C_4  and  O_8 
REMARK    5  A    between atoms: C_12  and  C_4 
ROOT
ATOM      1  C   UNL d   1       1.291  -0.634  -0.422  0.00  0.00     0.002 A 
ATOM      2  C   UNL d   1       0.431  -1.750  -0.475  0.00  0.00     0.087 A 
ATOM      3  C   UNL d   1       0.700   0.646  -0.276  0.00  0.00     0.048 A 
ATOM      4  C   UNL d   1      -0.690   0.776  -0.126  0.00  0.00     0.103 A 
ATOM      5  C   UNL d   1      -0.955  -1.616  -0.338  0.00  0.00     0.040 A 
ATOM      6  C   UNL d   1      -1.519  -0.352  -0.141  0.00  0.00     0.039 A 
ENDROOT
BRANCH   2   7
ATOM      7  O   UNL d   1       1.022  -3.004  -0.800  0.00  0.00    -0.274 OA
BRANCH   7   8
ATOM      8  C   UNL d   1       0.553  -4.208  -0.292  0.00  0.00     0.298 C 
ATOM      9  O   UNL d   1      -0.334  -4.352   0.534  0.00  0.00    -0.259 OA
BRANCH   8  10
ATOM     10  C   UNL d   1       1.322  -5.351  -0.868  0.00  0.00     0.040 A 
ATOM     11  C   UNL d   1       2.181  -5.222  -1.969  0.00  0.00     0.019 A 
ATOM     12  C   UNL d   1       2.859  -6.344  -2.468  0.00  0.00     0.025 A 
ATOM     13  C   UNL d   1       2.678  -7.592  -1.871  0.00  0.00     0.034 A 
ATOM     14  C   UNL d   1       1.826  -7.732  -0.779  0.00  0.00     0.025 A 
ATOM     15 CL   UNL d   1       3.507  -8.967  -2.489  0.00  0.00    -0.084 Cl
ATOM     16  C   UNL d   1       1.149  -6.615  -0.281  0.00  0.00     0.019 A 
ENDBRANCH   8  10
ENDBRANCH   7   8
ENDBRANCH   2   7
BRANCH   1  17
ATOM     17  C   UNL d   1       2.789  -0.819  -0.558  0.00  0.00     0.144 C 
ATOM     18  S   UNL d   1       3.823   0.365   0.356  0.00  0.00    -0.148 SA
ATOM     19  C   UNL d   1       5.282   0.296  -0.727  0.00  0.00     0.085 C 
ATOM     20  C   UNL d   1       5.081  -0.641  -1.909  0.00  0.00     0.085 C 
ATOM     21  S   UNL d   1       3.322  -0.786  -2.290  0.00  0.00    -0.148 SA
ENDBRANCH   1  17
BRANCH   4  22
ATOM     22  N   UNL d   1      -1.283   2.112   0.037  0.00  0.00    -0.116 N 
ATOM     23  O   UNL d   1      -0.532   3.092  -0.049  0.00  0.00    -0.532 OA
ATOM     24  O   UNL d   1      -2.504   2.179   0.245  0.00  0.00    -0.532 OA
ENDBRANCH   4  22
TORSDOF 5
