REMARK  7 active torsions:
REMARK  status: ('A' for Active; 'I' for Inactive)
REMARK    1  A    between atoms: S_15  and  C_3 
REMARK    2  A    between atoms: S_16  and  C_4 
REMARK    3  A    between atoms: S_17  and  C_5 
REMARK    4  A    between atoms: C_6  and  S_18 
REMARK    5  A    between atoms: C_20  and  S_17 
REMARK    6  A    between atoms: S_18  and  C_19 
REMARK    7  A    between atoms: C_19  and  C_20 
ROOT
ATOM      1  C   UNL d   1       6.440   0.700  -0.015  0.00  0.00     0.092 C 
ENDROOT
BRANCH   1   2
ATOM      2  S   UNL d   1       7.355   2.276  -0.016  0.00  0.00    -0.103 SA
BRANCH   2   3
ATOM      3  C   UNL d   1       9.016   1.723  -0.024  0.00  0.00     0.129 A 
ATOM      4  S   UNL d   1      10.341   2.817  -0.028  0.00  0.00    -0.038 SA
ATOM      5  C   UNL d   1      11.369   1.450  -0.035  0.00  0.00     0.126 A 
ATOM      6  N   UNL d   1      10.738   0.294  -0.034  0.00  0.00    -0.287 N 
ATOM      7  N   UNL d   1       9.360   0.455  -0.028  0.00  0.00    -0.287 N 
ATOM      8  HN  UNL d   1      11.207  -0.612  -0.038  1.00  0.00     0.188 HD
ATOM      9  HN  UNL d   1       8.695  -0.318  -0.026  1.00  0.00     0.188 HD
BRANCH   5  10
ATOM     10  S   UNL d   1      13.109   1.554  -0.043  0.00  0.00    -0.117 SA
ATOM     11  H   UNL d   1      13.201   2.890  -0.042  0.00  0.00     0.109 HD
ENDBRANCH   5  10
ENDBRANCH   2   3
ENDBRANCH   1   2
BRANCH   1  12
ATOM     12  C   UNL d   1       4.934   0.979  -0.010  0.00  0.00     0.092 C 
BRANCH  12  13
ATOM     13  S   UNL d   1       4.017  -0.596  -0.009  0.00  0.00    -0.103 SA
BRANCH  13  14
ATOM     14  C   UNL d   1       2.357  -0.041  -0.003  0.00  0.00     0.129 A 
ATOM     15  S   UNL d   1       1.031  -1.133  -0.000  0.00  0.00    -0.038 SA
ATOM     16  C   UNL d   1       0.006   0.237   0.005  0.00  0.00     0.126 A 
ATOM     17  N   UNL d   1       0.636   1.391   0.004  0.00  0.00    -0.287 N 
ATOM     18  N   UNL d   1       2.013   1.228  -0.000  0.00  0.00    -0.287 N 
ATOM     19  HN  UNL d   1       0.168   2.297   0.007  1.00  0.00     0.188 HD
ATOM     20  HN  UNL d   1       2.679   2.000  -0.002  1.00  0.00     0.188 HD
BRANCH  16  21
ATOM     21  S   UNL d   1      -1.736   0.128   0.011  0.00  0.00    -0.117 SA
ATOM     22  H   UNL d   1      -1.825  -1.209   0.010  0.00  0.00     0.109 HD
ENDBRANCH  16  21
ENDBRANCH  13  14
ENDBRANCH  12  13
ENDBRANCH   1  12
TORSDOF 7
