REMARK  3 active torsions:
REMARK  status: ('A' for Active; 'I' for Inactive)
REMARK    1  A    between atoms: C_2  and  N_1 
REMARK    2  A    between atoms: O_12  and  C_6 
REMARK    3  A    between atoms: C_14  and  O_12 
ROOT
ATOM      1  C   UNL d   1       0.282  -1.225  -0.038  0.00  0.00     0.118 A 
ATOM      2  N   UNL d   1      -1.583  -2.562  -0.769  0.00  0.00    -0.344 N 
ATOM      3  HN  UNL d   1      -2.395  -2.695  -1.372  1.00  0.00     0.167 HD
ATOM      4  C   UNL d   1      -1.205  -3.507   0.125  0.00  0.00     0.148 A 
ATOM      5  C   UNL d   1      -0.837  -1.432  -0.829  0.00  0.00     0.126 A 
ATOM      6  C   UNL d   1       0.682  -2.228   0.849  0.00  0.00     0.041 A 
ATOM      7  C   UNL d   1      -0.076  -3.397   0.926  0.00  0.00     0.059 A 
ENDROOT
BRANCH   4   8
ATOM      8  O   UNL d   1      -1.949  -4.672   0.254  0.00  0.00    -0.293 OA
BRANCH   8   9
ATOM      9  C   UNL d   1      -3.289  -4.613  -0.035  0.00  0.00     0.093 A 
ATOM     10  C   UNL d   1      -3.866  -5.715  -0.652  0.00  0.00     0.124 A 
ATOM     11  N   UNL d   1      -5.181  -5.810  -0.966  0.00  0.00    -0.373 N 
ATOM     12  C   UNL d   1      -5.955  -4.751  -0.643  0.00  0.00     0.088 A 
ATOM     13  HN  UNL d   1      -5.566  -6.637  -1.422  1.00  0.00     0.164 HD
ATOM     14  C   UNL d   1      -5.480  -3.618  -0.001  0.00  0.00     0.020 A 
ATOM     15  C   UNL d   1      -4.128  -3.559   0.323  0.00  0.00     0.040 A 
ENDBRANCH   8   9
ENDBRANCH   4   8
BRANCH   1  16
ATOM     16  N   UNL d   1       1.008   0.033  -0.131  0.00  0.00    -0.114 N 
ATOM     17  O   UNL d   1       0.567   0.898  -0.899  0.00  0.00    -0.532 OA
ATOM     18  O   UNL d   1       2.018   0.165   0.575  0.00  0.00    -0.532 OA
ENDBRANCH   1  16
TORSDOF 3
