REMARK  3 active torsions:
REMARK  status: ('A' for Active; 'I' for Inactive)
REMARK       I    between atoms: N_4  and  C_1 
REMARK    1  A    between atoms: C_6  and  C_1 
REMARK    2  A    between atoms: C_3  and  C_7 
REMARK    3  A    between atoms: C_7  and  N_4 
ROOT
ATOM      1  C   UNL d   1       1.031   0.020   0.086  0.00  0.00     0.251 C 
ATOM      2  N   UNL d   1       0.282  -1.083  -0.277  0.00  0.00    -0.353 N 
ATOM      3  O   UNL d   1       2.244   0.090  -0.074  0.00  0.00    -0.268 OA
ATOM      4  H   UNL d   1      -0.713  -0.971  -0.415  0.00  0.00     0.163 HD
ENDROOT
BRANCH   2   5
ATOM      5  C   UNL d   1       0.944  -2.206  -0.911  0.00  0.00     0.164 C 
BRANCH   5   6
ATOM      6  C   UNL d   1       0.006  -3.342  -1.215  0.00  0.00    -0.002 A 
ATOM      7  C   UNL d   1      -0.182  -3.774  -2.535  0.00  0.00     0.127 A 
ATOM      8  C   UNL d   1      -1.011  -4.848  -2.842  0.00  0.00     0.085 A 
ATOM      9  F   UNL d   1       0.453  -3.151  -3.538  0.00  0.00    -0.205 F 
ATOM     10  C   UNL d   1      -1.661  -5.509  -1.811  0.00  0.00     0.119 A 
ATOM     11  C   UNL d   1      -1.492  -5.113  -0.488  0.00  0.00     0.043 A 
ATOM     12  F   UNL d   1      -2.459  -6.547  -2.091  0.00  0.00    -0.206 F 
ATOM     13  C   UNL d   1      -0.659  -4.032  -0.187  0.00  0.00     0.015 A 
ENDBRANCH   5   6
ENDBRANCH   2   5
BRANCH   1  14
ATOM     14  C   UNL d   1       0.293   1.167   0.683  0.00  0.00     0.032 A 
ATOM     15  C   UNL d   1      -0.874   0.979   1.438  0.00  0.00     0.020 A 
ATOM     16  C   UNL d   1      -1.502   2.077   2.033  0.00  0.00     0.043 A 
ATOM     17  C   UNL d   1      -0.966   3.351   1.871  0.00  0.00     0.116 A 
ATOM     18  C   UNL d   1       0.191   3.552   1.129  0.00  0.00     0.043 A 
ATOM     19  F   UNL d   1      -1.567   4.397   2.454  0.00  0.00    -0.206 F 
ATOM     20  C   UNL d   1       0.827   2.456   0.537  0.00  0.00     0.020 A 
ENDBRANCH   1  14
TORSDOF 3
