REMARK  5 active torsions:
REMARK  status: ('A' for Active; 'I' for Inactive)
REMARK    1  A    between atoms: C_6  and  N_1 
REMARK    2  A    between atoms: C_2  and  C_10 
REMARK       I    between atoms: N_5  and  C_2 
REMARK       I    between atoms: C_3  and  N_4 
REMARK    3  A    between atoms: C_9  and  C_3 
REMARK    4  A    between atoms: N_4  and  N_5 
REMARK    5  A    between atoms: C_11  and  C_12 
ROOT
ATOM      1  C   UNL d   1      -4.559  -2.889   3.796  0.00  0.00     0.270 C 
ATOM      2  N   UNL d   1      -4.186  -1.662   3.285  0.00  0.00    -0.263 N 
ATOM      3  O   UNL d   1      -4.098  -3.937   3.344  0.00  0.00    -0.266 OA
ATOM      4  H   UNL d   1      -4.620  -0.770   3.510  0.00  0.00     0.190 HD
ENDROOT
BRANCH   2   5
ATOM      5  N   UNL d   1      -3.204  -1.640   2.280  0.00  0.00    -0.263 N 
ATOM      6  C   UNL d   1      -3.026  -0.469   1.570  0.00  0.00     0.270 C 
ATOM      7  O   UNL d   1      -3.732   0.517   1.769  0.00  0.00    -0.266 OA
ATOM      8  H   UNL d   1      -2.733  -2.524   2.109  0.00  0.00     0.190 HD
BRANCH   6   9
ATOM      9  C   UNL d   1      -1.923  -0.415   0.560  0.00  0.00     0.033 A 
ATOM     10  C   UNL d   1      -0.952  -1.416   0.412  0.00  0.00     0.019 A 
ATOM     11  C   UNL d   1       0.101  -1.254  -0.504  0.00  0.00     0.037 A 
ATOM     12  C   UNL d   1       0.182  -0.086  -1.276  0.00  0.00     0.102 A 
ATOM     13  C   UNL d   1      -0.789   0.911  -1.152  0.00  0.00     0.037 A 
ATOM     14  C   UNL d   1      -1.834   0.741  -0.236  0.00  0.00     0.019 A 
BRANCH  12  15
ATOM     15  N   UNL d   1       1.304   0.102  -2.206  0.00  0.00    -0.116 N 
ATOM     16  O   UNL d   1       1.314   1.131  -2.898  0.00  0.00    -0.532 OA
ATOM     17  O   UNL d   1       2.178  -0.775  -2.239  0.00  0.00    -0.532 OA
ENDBRANCH  12  15
ENDBRANCH   6   9
ENDBRANCH   2   5
BRANCH   1  18
ATOM     18  C   UNL d   1      -5.517  -2.914   4.945  0.00  0.00     0.033 A 
ATOM     19  C   UNL d   1      -5.856  -1.791   5.703  0.00  0.00     0.017 A 
ATOM     20  C   UNL d   1      -6.654  -1.927   6.854  0.00  0.00     0.009 A 
ATOM     21  C   UNL d   1      -7.131  -3.181   7.284  0.00  0.00    -0.051 A 
ATOM     22  C   UNL d   1      -6.821  -4.288   6.480  0.00  0.00     0.009 A 
ATOM     23  C   UNL d   1      -6.026  -4.158   5.333  0.00  0.00     0.017 A 
BRANCH  21  24
ATOM     24  C   UNL d   1      -7.912  -3.318   8.607  0.00  0.00    -0.024 C 
ATOM     25  C   UNL d   1      -8.330  -4.771   8.934  0.00  0.00     0.019 C 
ATOM     26  C   UNL d   1      -7.029  -2.832   9.780  0.00  0.00     0.019 C 
ATOM     27  C   UNL d   1      -9.200  -2.471   8.566  0.00  0.00     0.019 C 
ENDBRANCH  21  24
ENDBRANCH   1  18
TORSDOF 5
