REMARK  7 active torsions:
REMARK  status: ('A' for Active; 'I' for Inactive)
REMARK    1  A    between atoms: C_5  and  C_1 
REMARK    2  A    between atoms: C_12  and  C_4 
REMARK    3  A    between atoms: C_9  and  C_13 
REMARK    4  A    between atoms: S_18  and  C_11 
REMARK    5  A    between atoms: C_14  and  C_28 
REMARK       I    between atoms: N_17  and  C_14 
REMARK    6  A    between atoms: C_29  and  N_17 
REMARK    7  A    between atoms: C_28  and  S_18 
ROOT
ATOM      1  C   UNL d   1       0.376  -2.724   0.200  0.00  0.00     0.050 A 
ATOM      2  N   UNL d   1      -0.314  -3.615  -0.533  0.00  0.00    -0.336 N 
ATOM      3  HN  UNL d   1      -1.089  -3.328  -1.131  1.00  0.00     0.168 HD
ATOM      4  C   UNL d   1       0.063  -4.895  -0.443  0.00  0.00     0.145 A 
ATOM      5  N   UNL d   1       1.040  -5.361   0.343  0.00  0.00    -0.347 N 
ATOM      6  HN  UNL d   1       1.277  -6.352   0.380  1.00  0.00     0.167 HD
ATOM      7  C   UNL d   1       1.400  -3.102   1.042  0.00  0.00     0.047 A 
ATOM      8  C   UNL d   1       1.689  -4.446   1.079  0.00  0.00     0.092 A 
ENDROOT
BRANCH   4   9
ATOM      9  S   UNL d   1      -0.997  -6.050  -1.259  0.00  0.00    -0.085 SA
BRANCH   9  10
ATOM     10  C   UNL d   1      -1.431  -7.039   0.189  0.00  0.00     0.185 C 
BRANCH  10  11
ATOM     11  C   UNL d   1      -2.146  -6.312   1.322  0.00  0.00     0.231 C 
ATOM     12  N   UNL d   1      -2.549  -5.009   1.111  0.00  0.00    -0.327 N 
ATOM     13  H   UNL d   1      -2.444  -4.641   0.168  0.00  0.00     0.169 HD
ATOM     14  O   UNL d   1      -2.344  -6.941   2.369  0.00  0.00    -0.272 OA
BRANCH  12  15
ATOM     15  C   UNL d   1      -3.030  -4.096   2.082  0.00  0.00     0.034 A 
ATOM     16  C   UNL d   1      -3.079  -4.386   3.446  0.00  0.00     0.030 A 
ATOM     17  C   UNL d   1      -3.515  -3.433   4.371  0.00  0.00     0.018 A 
ATOM     18  C   UNL d   1      -3.915  -2.160   3.950  0.00  0.00     0.048 A 
ATOM     19  C   UNL d   1      -3.881  -1.869   2.578  0.00  0.00     0.018 A 
ATOM     20  C   UNL d   1      -3.436  -2.827   1.654  0.00  0.00     0.030 A 
BRANCH  18  21
ATOM     21  C   UNL d   1      -4.350  -1.120   4.954  0.00  0.00     0.417 C 
ATOM     22  F   UNL d   1      -4.303  -1.555   6.244  0.00  0.00    -0.166 F 
ATOM     23  F   UNL d   1      -3.566  -0.006   4.913  0.00  0.00    -0.166 F 
ATOM     24  F   UNL d   1      -5.625  -0.690   4.751  0.00  0.00    -0.166 F 
ENDBRANCH  18  21
ENDBRANCH  12  15
ENDBRANCH  10  11
ENDBRANCH   9  10
ENDBRANCH   4   9
BRANCH   1  25
ATOM     25  C   UNL d   1      -0.038  -1.343   0.026  0.00  0.00     0.051 A 
ATOM     26  C   UNL d   1      -0.562  -0.651  -1.122  0.00  0.00     0.080 A 
ATOM     27  N   UNL d   1      -0.878   0.613  -0.794  0.00  0.00    -0.259 N 
ATOM     28  O   UNL d   1      -0.587   0.760   0.540  0.00  0.00    -0.241 OA
ATOM     29  HN  UNL d   1      -1.259   1.326  -1.416  1.00  0.00     0.195 HD
ATOM     30  C   UNL d   1      -0.104  -0.404   1.041  0.00  0.00     0.087 A 
ATOM     31  C   UNL d   1       0.185  -0.397   2.489  0.00  0.00     0.080 C 
BRANCH  26  32
ATOM     32  C   UNL d   1      -0.795  -1.132  -2.490  0.00  0.00    -0.006 A 
ATOM     33  C   UNL d   1       0.060  -2.066  -3.095  0.00  0.00     0.015 A 
ATOM     34  C   UNL d   1      -0.229  -2.589  -4.359  0.00  0.00     0.024 A 
ATOM     35  C   UNL d   1      -1.354  -2.150  -5.050  0.00  0.00     0.034 A 
ATOM     36  C   UNL d   1      -2.182  -1.178  -4.496  0.00  0.00     0.024 A 
ATOM     37 CL   UNL d   1      -1.722  -2.815  -6.593  0.00  0.00    -0.084 Cl
ATOM     38  C   UNL d   1      -1.904  -0.672  -3.221  0.00  0.00     0.015 A 
ENDBRANCH  26  32
ENDBRANCH   1  25
TORSDOF 7
