REMARK  7 active torsions:
REMARK  status: ('A' for Active; 'I' for Inactive)
REMARK    1  A    between atoms: C_7  and  C_1 
REMARK    2  A    between atoms: O_8  and  C_4 
REMARK    3  A    between atoms: C_9  and  C_6 
REMARK    4  A    between atoms: O_12  and  C_7 
REMARK    5  A    between atoms: C_11  and  O_8 
REMARK    6  A    between atoms: C_14  and  C_11 
REMARK    7  A    between atoms: C_22  and  O_12 
ROOT
ATOM      1  C   UNL d   1       0.086   1.338   0.002  0.00  0.00     0.133 A 
ATOM      2  N   UNL d   1       1.469  -0.547  -0.046  0.00  0.00    -0.329 N 
ATOM      3  HN  UNL d   1       2.344  -1.069  -0.103  1.00  0.00     0.168 HD
ATOM      4  C   UNL d   1       1.372   0.833   0.001  0.00  0.00     0.167 A 
ATOM      5  S   UNL d   1      -1.029   0.040  -0.002  0.00  0.00    -0.061 SA
ATOM      6  C   UNL d   1       0.268  -1.092  -0.007  0.00  0.00     0.087 A 
ENDROOT
BRANCH   4   7
ATOM      7  O   UNL d   1       2.432   1.673   0.053  0.00  0.00    -0.330 OA
BRANCH   7   8
ATOM      8  C   UNL d   1       3.621   1.133  -0.510  0.00  0.00     0.216 C 
BRANCH   8   9
ATOM      9  C   UNL d   1       4.686   2.205  -0.406  0.00  0.00    -0.034 A 
ATOM     10  C   UNL d   1       5.878   1.969   0.290  0.00  0.00     0.011 A 
ATOM     11  C   UNL d   1       6.841   2.975   0.414  0.00  0.00     0.024 A 
ATOM     12  C   UNL d   1       6.617   4.226  -0.160  0.00  0.00     0.034 A 
ATOM     13  C   UNL d   1       5.444   4.477  -0.864  0.00  0.00     0.024 A 
ATOM     14 CL   UNL d   1       7.794   5.470   0.012  0.00  0.00    -0.084 Cl
ATOM     15  C   UNL d   1       4.484   3.468  -0.989  0.00  0.00     0.011 A 
ENDBRANCH   8   9
ENDBRANCH   7   8
ENDBRANCH   4   7
BRANCH   1  16
ATOM     16  C   UNL d   1      -0.409   2.691  -0.061  0.00  0.00     0.304 C 
ATOM     17  O   UNL d   1      -1.587   3.019  -0.154  0.00  0.00    -0.259 OA
BRANCH  16  18
ATOM     18  O   UNL d   1       0.628   3.573  -0.112  0.00  0.00    -0.317 OA
BRANCH  18  19
ATOM     19  C   UNL d   1       0.330   4.869  -0.640  0.00  0.00     0.174 C 
ATOM     20  C   UNL d   1       0.497   4.806  -2.148  0.00  0.00     0.034 C 
ENDBRANCH  18  19
ENDBRANCH  16  18
ENDBRANCH   1  16
BRANCH   6  21
ATOM     21  C   UNL d   1      -0.001  -2.542  -0.013  0.00  0.00    -0.002 A 
ATOM     22  C   UNL d   1       0.937  -3.420  -0.579  0.00  0.00     0.014 A 
ATOM     23  C   UNL d   1       0.706  -4.799  -0.607  0.00  0.00     0.001 A 
ATOM     24  C   UNL d   1      -0.462  -5.324  -0.059  0.00  0.00     0.000 A 
ATOM     25  C   UNL d   1      -1.400  -4.473   0.517  0.00  0.00     0.001 A 
ATOM     26  C   UNL d   1      -1.170  -3.094   0.541  0.00  0.00     0.014 A 
ENDBRANCH   6  21
TORSDOF 7
