REMARK  5 active torsions:
REMARK  status: ('A' for Active; 'I' for Inactive)
REMARK    1  A    between atoms: C_6  and  C_1 
REMARK    2  A    between atoms: C_7  and  C_2 
REMARK    3  A    between atoms: C_11  and  C_5 
REMARK       I    between atoms: N_8  and  C_6 
REMARK    4  A    between atoms: C_14  and  N_8 
REMARK    5  A    between atoms: O_28  and  C_25 
ROOT
ATOM      1  C   UNL d   1       1.112   0.705   0.127  0.00  0.00     0.073 A 
ATOM      2  C   UNL d   1      -0.184   1.163  -0.064  0.00  0.00     0.175 A 
ATOM      3  O   UNL d   1      -1.058   0.103  -0.065  0.00  0.00    -0.304 OA
ATOM      4  C   UNL d   1       0.977  -0.703   0.356  0.00  0.00     0.058 A 
ATOM      5  C   UNL d   1      -0.346  -1.034   0.183  0.00  0.00     0.087 A 
ENDROOT
BRANCH   1   6
ATOM      6  C   UNL d   1       2.394   1.408   0.153  0.00  0.00     0.259 C 
ATOM      7  N   UNL d   1       2.476   2.580  -0.578  0.00  0.00    -0.323 N 
ATOM      8  H   UNL d   1       1.621   3.007  -0.912  0.00  0.00     0.169 HD
ATOM      9  O   UNL d   1       3.329   0.897   0.761  0.00  0.00    -0.267 OA
BRANCH   7  10
ATOM     10  C   UNL d   1       3.666   3.258  -0.936  0.00  0.00     0.037 A 
ATOM     11  C   UNL d   1       4.943   2.721  -0.736  0.00  0.00     0.069 A 
ATOM     12  C   UNL d   1       6.032   3.421  -1.209  0.00  0.00     0.107 A 
ATOM     13  O   UNL d   1       7.327   3.011  -1.130  0.00  0.00    -0.323 OA
ATOM     14  C   UNL d   1       5.901   4.629  -1.850  0.00  0.00     0.105 A 
ATOM     15  C   UNL d   1       7.991   4.076  -1.838  0.00  0.00     0.352 A 
ATOM     16  O   UNL d   1       7.097   5.130  -2.256  0.00  0.00    -0.323 OA
ATOM     17  C   UNL d   1       4.667   5.208  -2.039  0.00  0.00     0.042 A 
ATOM     18  C   UNL d   1       3.539   4.509  -1.584  0.00  0.00     0.032 A 
ENDBRANCH   7  10
ENDBRANCH   1   6
BRANCH   2  19
ATOM     19  C   UNL d   1      -0.803   2.501  -0.216  0.00  0.00     0.440 C 
ATOM     20  F   UNL d   1       0.112   3.498  -0.079  0.00  0.00    -0.164 F 
ATOM     21  F   UNL d   1      -1.358   2.673  -1.441  0.00  0.00    -0.164 F 
ATOM     22  F   UNL d   1      -1.770   2.734   0.705  0.00  0.00    -0.164 F 
ENDBRANCH   2  19
BRANCH   5  23
ATOM     23  C   UNL d   1      -1.086  -2.291   0.231  0.00  0.00    -0.002 A 
ATOM     24  C   UNL d   1      -2.473  -2.314   0.424  0.00  0.00     0.017 A 
ATOM     25  C   UNL d   1      -3.166  -3.528   0.534  0.00  0.00     0.037 A 
ATOM     26  C   UNL d   1      -2.481  -4.738   0.444  0.00  0.00     0.068 A 
ATOM     27  C   UNL d   1      -1.108  -4.727   0.203  0.00  0.00     0.037 A 
ATOM     28  C   UNL d   1      -0.414  -3.516   0.107  0.00  0.00     0.017 A 
BRANCH  26  29
ATOM     29  O   UNL d   1      -3.053  -5.977   0.529  0.00  0.00    -0.356 OA
ATOM     30  C   UNL d   1      -4.205  -6.062   1.362  0.00  0.00     0.210 C 
ENDBRANCH  26  29
ENDBRANCH   5  23
TORSDOF 5
