REMARK  7 active torsions:
REMARK  status: ('A' for Active; 'I' for Inactive)
REMARK    1  A    between atoms: C_4  and  C_1 
REMARK    2  A    between atoms: C_6  and  C_2 
REMARK    3  A    between atoms: N_9  and  C_3 
REMARK    4  A    between atoms: O_15  and  C_4 
REMARK    5  A    between atoms: C_5  and  N_9 
REMARK    6  A    between atoms: O_16  and  C_6 
REMARK    7  A    between atoms: C_17  and  O_16 
ROOT
ATOM      1  C   UNL d   1       3.706   4.049  -0.277  0.00  0.00     0.135 C 
ATOM      2  C   UNL d   1       2.618   3.253  -0.199  0.00  0.00     0.117 C 
ATOM      3  C   UNL d   1       3.606   5.457  -0.327  0.00  0.00     0.107 C 
ATOM      4  N   UNL d   1       3.477   6.613  -0.359  0.00  0.00    -0.191 NA
ENDROOT
BRANCH   1   5
ATOM      5  C   UNL d   1       5.040   3.382  -0.298  0.00  0.00     0.305 C 
ATOM      6  O   UNL d   1       5.207   2.178  -0.161  0.00  0.00    -0.258 OA
BRANCH   5   7
ATOM      7  O   UNL d   1       6.035   4.288  -0.481  0.00  0.00    -0.317 OA
BRANCH   7   8
ATOM      8  C   UNL d   1       7.381   3.777  -0.435  0.00  0.00     0.174 C 
ATOM      9  C   UNL d   1       7.808   3.233  -1.786  0.00  0.00     0.034 C 
ENDBRANCH   7   8
ENDBRANCH   5   7
ENDBRANCH   1   5
BRANCH   2  10
ATOM     10  N   UNL d   1       1.260   3.548  -0.146  0.00  0.00    -0.363 N 
ATOM     11  H   UNL d   1       1.037   4.549  -0.131  0.00  0.00     0.165 HD
BRANCH  10  12
ATOM     12  C   UNL d   1       0.216   2.660  -0.086  0.00  0.00     0.055 A 
ATOM     13  C   UNL d   1      -1.129   3.003   0.027  0.00  0.00     0.106 A 
ATOM     14  S   UNL d   1      -2.126   1.590   0.102  0.00  0.00    -0.094 SA
ATOM     15  C   UNL d   1      -0.801   0.544  -0.052  0.00  0.00     0.053 A 
ATOM     16  C   UNL d   1       0.383   1.235  -0.145  0.00  0.00     0.038 A 
BRANCH  13  17
ATOM     17  C   UNL d   1      -1.839   4.272   0.089  0.00  0.00     0.302 C 
ATOM     18  O   UNL d   1      -3.056   4.407   0.178  0.00  0.00    -0.259 OA
BRANCH  17  19
ATOM     19  O   UNL d   1      -0.977   5.334   0.015  0.00  0.00    -0.322 OA
ATOM     20  C   UNL d   1      -1.654   6.596   0.028  0.00  0.00     0.213 C 
ENDBRANCH  17  19
ENDBRANCH  13  17
ENDBRANCH  10  12
ENDBRANCH   2  10
TORSDOF 7
