REMARK  4 active torsions:
REMARK  status: ('A' for Active; 'I' for Inactive)
REMARK    1  A    between atoms: C_10  and  C_1 
REMARK    2  A    between atoms: C_4  and  C_2 
REMARK    3  A    between atoms: O_15  and  C_10 
REMARK    4  A    between atoms: C_18  and  O_15 
ROOT
ATOM      1  C   UNL d   1      -0.162  -1.120  -0.056  0.00  0.00     0.104 A 
ATOM      2  C   UNL d   1       0.664   1.162   0.047  0.00  0.00     0.102 A 
ATOM      3  S   UNL d   1       1.387  -0.377  -0.149  0.00  0.00    -0.062 SA
ATOM      4  N   UNL d   1      -0.642   1.153   0.213  0.00  0.00    -0.351 N 
ATOM      5  HN  UNL d   1      -1.213   1.981   0.387  1.00  0.00     0.166 HD
ATOM      6  C   UNL d   1      -1.132  -0.141   0.119  0.00  0.00     0.029 A 
ATOM      7  C   UNL d   1      -2.610  -0.314   0.174  0.00  0.00     0.070 C 
ENDROOT
BRANCH   2   8
ATOM      8  C   UNL d   1       1.448   2.443   0.000  0.00  0.00     0.073 A 
ATOM      9  N   UNL d   1       2.799   2.489  -0.307  0.00  0.00    -0.352 N 
ATOM     10  C   UNL d   1       3.207   3.739  -0.341  0.00  0.00     0.047 A 
ATOM     11  HN  UNL d   1       3.389   1.675  -0.480  1.00  0.00     0.166 HD
ATOM     12  C   UNL d   1       4.584   4.168  -0.698  0.00  0.00     0.076 C 
ATOM     13  S   UNL d   1       2.015   4.918   0.054  0.00  0.00    -0.087 SA
ATOM     14  C   UNL d   1       0.857   3.669   0.231  0.00  0.00     0.083 A 
ENDBRANCH   2   8
BRANCH   1  15
ATOM     15  C   UNL d   1      -0.267  -2.552  -0.221  0.00  0.00     0.302 C 
ATOM     16  O   UNL d   1       0.639  -3.316  -0.532  0.00  0.00    -0.259 OA
BRANCH  15  17
ATOM     17  O   UNL d   1      -1.562  -2.943  -0.041  0.00  0.00    -0.317 OA
BRANCH  17  18
ATOM     18  C   UNL d   1      -1.893  -4.259  -0.503  0.00  0.00     0.174 C 
ATOM     19  C   UNL d   1      -2.277  -4.165  -1.968  0.00  0.00     0.034 C 
ENDBRANCH  17  18
ENDBRANCH  15  17
ENDBRANCH   1  15
TORSDOF 4
