REMARK  7 active torsions:
REMARK  status: ('A' for Active; 'I' for Inactive)
REMARK    1  A    between atoms: S_2  and  C_1 
REMARK    2  A    between atoms: C_5  and  C_1 
REMARK    3  A    between atoms: C_6  and  C_1 
REMARK    4  A    between atoms: C_9  and  S_2 
REMARK    5  A    between atoms: C_3  and  C_4 
REMARK    6  A    between atoms: C_4  and  C_6 
REMARK    7  A    between atoms: N_18  and  C_14 
ROOT
ATOM      1  C   UNL d   1       0.930   0.175   0.339  0.00  0.00     0.099 C 
ENDROOT
BRANCH   1   2
ATOM      2  S   UNL d   1       0.467   0.366   2.120  0.00  0.00    -0.118 SA
BRANCH   2   3
ATOM      3  C   UNL d   1      -1.328   0.535   2.016  0.00  0.00     0.022 A 
ATOM      4  C   UNL d   1      -1.966   1.682   2.537  0.00  0.00     0.022 A 
ATOM      5  C   UNL d   1      -3.369   1.756   2.512  0.00  0.00     0.024 A 
ATOM      6  C   UNL d   1      -4.123   0.751   1.905  0.00  0.00     0.002 A 
ATOM      7  C   UNL d   1      -3.488  -0.359   1.359  0.00  0.00     0.001 A 
ATOM      8  C   UNL d   1      -2.098  -0.476   1.424  0.00  0.00     0.020 A 
BRANCH   4   9
ATOM      9  N   UNL d   1      -1.260   2.659   3.269  0.00  0.00    -0.302 NA
ATOM     10  H   UNL d   1      -0.272   2.654   3.018  0.00  0.00     0.124 HD
ATOM     11  H   UNL d   1      -1.673   3.583   3.213  0.00  0.00     0.124 HD
ENDBRANCH   4   9
ENDBRANCH   2   3
ENDBRANCH   1   2
BRANCH   1  12
ATOM     12  C   UNL d   1       0.497   1.350  -0.539  0.00  0.00    -0.003 A 
ATOM     13  S   UNL d   1       0.505   2.982   0.009  0.00  0.00    -0.105 SA
ATOM     14  C   UNL d   1       0.012   3.577  -1.510  0.00  0.00     0.050 A 
ATOM     15  C   UNL d   1      -0.077   2.578  -2.450  0.00  0.00     0.008 A 
ATOM     16  C   UNL d   1       0.193   1.295  -1.891  0.00  0.00     0.016 A 
ENDBRANCH   1  12
BRANCH   1  17
ATOM     17  C   UNL d   1       2.449   0.024   0.154  0.00  0.00     0.105 C 
BRANCH  17  18
ATOM     18  C   UNL d   1       3.106  -1.237   0.697  0.00  0.00     0.167 C 
ATOM     19  O   UNL d   1       2.434  -2.152   1.172  0.00  0.00    -0.292 OA
BRANCH  18  20
ATOM     20  C   UNL d   1       4.569  -1.324   0.587  0.00  0.00     0.050 A 
ATOM     21  S   UNL d   1       5.478  -0.205  -0.349  0.00  0.00    -0.098 SA
ATOM     22  C   UNL d   1       6.960  -0.938   0.061  0.00  0.00     0.050 A 
ATOM     23  C   UNL d   1       6.782  -2.037   0.867  0.00  0.00     0.009 A 
ATOM     24  C   UNL d   1       5.402  -2.272   1.155  0.00  0.00     0.023 A 
ENDBRANCH  18  20
ENDBRANCH  17  18
ENDBRANCH   1  17
TORSDOF 7
