REMARK  4 active torsions:
REMARK  status: ('A' for Active; 'I' for Inactive)
REMARK    1  A    between atoms: C_14  and  C_4 
REMARK    2  A    between atoms: O_13  and  C_7 
REMARK    3  A    between atoms: C_20  and  C_14 
REMARK    4  A    between atoms: C_22  and  C_20 
ROOT
ATOM      1  N   UNL d   1       0.652   0.249   0.010  0.00  0.00    -0.280 N 
ATOM      2  C   UNL d   1       1.605   1.271   0.101  0.00  0.00     0.261 A 
ATOM      3  C   UNL d   1      -0.724   0.312  -0.035  0.00  0.00     0.027 A 
ATOM      4  C   UNL d   1       3.036   0.801   0.090  0.00  0.00     0.044 A 
ATOM      5  C   UNL d   1       1.020  -1.079  -0.059  0.00  0.00     0.066 A 
ATOM      6  C   UNL d   1      -1.224  -0.981  -0.050  0.00  0.00    -0.022 A 
ATOM      7  C   UNL d   1       3.357  -0.510   0.019  0.00  0.00     0.089 A 
ATOM      8  C   UNL d   1       2.329  -1.562  -0.069  0.00  0.00     0.026 A 
ATOM      9  C   UNL d   1      -0.118  -1.869  -0.128  0.00  0.00     0.000 A 
ATOM     10  C   UNL d   1      -1.535   1.564  -0.013  0.00  0.00     0.059 C 
ATOM     11  O   UNL d   1       1.254   2.441   0.182  0.00  0.00    -0.267 OA
ATOM     12  C   UNL d   1      -2.689  -1.276  -0.020  0.00  0.00     0.045 C 
ATOM     13  C   UNL d   1       2.471  -2.950  -0.192  0.00  0.00     0.017 A 
ATOM     14  C   UNL d   1       0.048  -3.258  -0.248  0.00  0.00     0.014 A 
ATOM     15  C   UNL d   1      -3.017   1.235  -0.278  0.00  0.00     0.010 C 
ATOM     16  C   UNL d   1      -3.502  -0.043   0.449  0.00  0.00    -0.014 C 
ATOM     17  C   UNL d   1       1.348  -3.782  -0.288  0.00  0.00     0.002 A 
ATOM     18  C   UNL d   1      -3.448   0.126   1.972  0.00  0.00     0.010 C 
ENDROOT
BRANCH   4  19
ATOM     19  C   UNL d   1       4.057   1.914   0.092  0.00  0.00     0.047 C 
BRANCH  19  20
ATOM     20  C   UNL d   1       4.339   2.476   1.490  0.00  0.00     0.004 C 
BRANCH  20  21
ATOM     21  C   UNL d   1       5.251   3.703   1.405  0.00  0.00    -0.004 C 
ATOM     22  C   UNL d   1       5.588   4.254   2.781  0.00  0.00     0.005 C 
ENDBRANCH  20  21
ENDBRANCH  19  20
ENDBRANCH   4  19
BRANCH   7  23
ATOM     23  O   UNL d   1       4.683  -0.901   0.021  0.00  0.00    -0.359 OA
ATOM     24  H   UNL d   1       4.739  -1.864   0.103  0.00  0.00     0.217 HD
ENDBRANCH   7  23
TORSDOF 4
