REMARK  5 active torsions:
REMARK  status: ('A' for Active; 'I' for Inactive)
REMARK    1  A    between atoms: C_9  and  C_7 
REMARK    2  A    between atoms: O_18  and  C_8 
REMARK    3  A    between atoms: O_14  and  C_10 
REMARK    4  A    between atoms: C_17  and  O_14 
REMARK    5  A    between atoms: C_21  and  C_17 
ROOT
ATOM      1  C   UNL d   1      -2.925   3.220  -2.575  0.00  0.00     0.102 A 
ATOM      2  C   UNL d   1      -3.028   1.241  -1.168  0.00  0.00    -0.032 A 
ATOM      3  C   UNL d   1      -4.209   3.591  -2.136  0.00  0.00     0.102 A 
ATOM      4  C   UNL d   1      -2.356   2.027  -2.108  0.00  0.00     0.051 A 
ATOM      5  C   UNL d   1      -4.850   2.822  -1.155  0.00  0.00     0.040 A 
ATOM      6  C   UNL d   1      -4.267   1.651  -0.679  0.00  0.00     0.014 A 
ENDROOT
BRANCH   2   7
ATOM      7  C   UNL d   1      -2.448  -0.008  -0.680  0.00  0.00     0.035 C 
ATOM      8  C   UNL d   1      -2.603  -1.221  -1.248  0.00  0.00     0.115 C 
ATOM      9  C   UNL d   1      -3.325  -1.455  -2.505  0.00  0.00     0.302 C 
ATOM     10  C   UNL d   1      -2.071  -2.368  -0.504  0.00  0.00     0.302 C 
ATOM     11  O   UNL d   1      -3.921  -2.660  -2.598  0.00  0.00    -0.280 OA
ATOM     12  O   UNL d   1      -3.372  -0.652  -3.428  0.00  0.00    -0.259 OA
ATOM     13  C   UNL d   1      -3.926  -3.520  -1.459  0.00  0.00     0.175 C 
ATOM     14  O   UNL d   1      -2.680  -3.543  -0.763  0.00  0.00    -0.280 OA
ATOM     15  C   UNL d   1      -5.071  -3.149  -0.508  0.00  0.00     0.080 C 
ATOM     16  C   UNL d   1      -4.152  -4.934  -1.993  0.00  0.00     0.080 C 
ATOM     17  O   UNL d   1      -1.160  -2.279   0.310  0.00  0.00    -0.259 OA
ENDBRANCH   2   7
BRANCH   1  18
ATOM     18  O   UNL d   1      -2.303   4.036  -3.490  0.00  0.00    -0.353 OA
ATOM     19  C   UNL d   1      -0.876   3.992  -3.475  0.00  0.00     0.210 C 
ENDBRANCH   1  18
BRANCH   3  20
ATOM     20  O   UNL d   1      -4.781   4.716  -2.686  0.00  0.00    -0.344 OA
BRANCH  20  21
ATOM     21  C   UNL d   1      -6.213   4.737  -2.650  0.00  0.00     0.214 C 
BRANCH  21  22
ATOM     22  C   UNL d   1      -6.805   5.651  -3.696  0.00  0.00    -0.034 A 
ATOM     23  C   UNL d   1      -6.162   5.866  -4.922  0.00  0.00     0.009 A 
ATOM     24  C   UNL d   1      -6.772   6.633  -5.914  0.00  0.00     0.001 A 
ATOM     25  C   UNL d   1      -8.035   7.182  -5.699  0.00  0.00     0.000 A 
ATOM     26  C   UNL d   1      -8.691   6.967  -4.488  0.00  0.00     0.001 A 
ATOM     27  C   UNL d   1      -8.081   6.202  -3.493  0.00  0.00     0.009 A 
ENDBRANCH  21  22
ENDBRANCH  20  21
ENDBRANCH   3  20
TORSDOF 5
