REMARK  5 active torsions:
REMARK  status: ('A' for Active; 'I' for Inactive)
REMARK    1  A    between atoms: N_3  and  C_1 
REMARK    2  A    between atoms: O_9  and  C_2 
REMARK    3  A    between atoms: O_11  and  C_5 
REMARK    4  A    between atoms: C_14  and  O_9 
REMARK    5  A    between atoms: C_15  and  O_11 
ROOT
ATOM      1  C   UNL d   1       1.463   1.182  -0.025  0.00  0.00     0.138 C 
ATOM      2  C   UNL d   1       0.074   1.210   0.160  0.00  0.00     0.132 C 
ATOM      3  C   UNL d   1      -0.600  -0.014   0.305  0.00  0.00     0.114 C 
ATOM      4  C   UNL d   1       0.083  -1.216   0.030  0.00  0.00     0.099 C 
ATOM      5  C   UNL d   1      -1.937  -0.059   0.814  0.00  0.00     0.105 C 
ATOM      6  N   UNL d   1      -3.015  -0.090   1.242  0.00  0.00    -0.191 NA
ATOM      7  C   UNL d   1       2.173  -0.017  -0.160  0.00  0.00     0.042 C 
ATOM      8  C   UNL d   1       1.469  -1.218  -0.164  0.00  0.00     0.041 C 
ENDROOT
BRANCH   2   9
ATOM      9  O   UNL d   1      -0.540   2.434   0.316  0.00  0.00    -0.307 OA
BRANCH   9  10
ATOM     10  C   UNL d   1      -1.681   2.732  -0.406  0.00  0.00     0.076 A 
ATOM     11  C   UNL d   1      -2.486   3.731   0.152  0.00  0.00     0.040 A 
ATOM     12  C   UNL d   1      -3.682   4.103  -0.465  0.00  0.00     0.045 A 
ATOM     13  C   UNL d   1      -4.069   3.473  -1.641  0.00  0.00     0.116 A 
ATOM     14  C   UNL d   1      -3.270   2.495  -2.221  0.00  0.00     0.045 A 
ATOM     15  F   UNL d   1      -5.221   3.820  -2.229  0.00  0.00    -0.206 F 
ATOM     16  C   UNL d   1      -2.058   2.138  -1.617  0.00  0.00     0.040 A 
ENDBRANCH   9  10
ENDBRANCH   2   9
BRANCH   4  17
ATOM     17  O   UNL d   1      -0.520  -2.456   0.029  0.00  0.00    -0.309 OA
BRANCH  17  18
ATOM     18  C   UNL d   1      -1.597  -2.684  -0.806  0.00  0.00     0.076 A 
ATOM     19  C   UNL d   1      -1.926  -1.924  -1.937  0.00  0.00     0.040 A 
ATOM     20  C   UNL d   1      -3.075  -2.227  -2.673  0.00  0.00     0.045 A 
ATOM     21  C   UNL d   1      -3.860  -3.315  -2.309  0.00  0.00     0.116 A 
ATOM     22  C   UNL d   1      -3.519  -4.106  -1.219  0.00  0.00     0.045 A 
ATOM     23  F   UNL d   1      -4.951  -3.611  -3.026  0.00  0.00    -0.206 F 
ATOM     24  C   UNL d   1      -2.387  -3.788  -0.466  0.00  0.00     0.040 A 
ENDBRANCH  17  18
ENDBRANCH   4  17
BRANCH   1  25
ATOM     25  N   UNL d   1       2.223   2.416  -0.028  0.00  0.00    -0.113 N 
ATOM     26  O   UNL d   1       2.004   3.209  -0.956  0.00  0.00    -0.532 OA
ATOM     27  O   UNL d   1       3.067   2.555   0.863  0.00  0.00    -0.532 OA
ENDBRANCH   1  25
TORSDOF 5
