REMARK  9 active torsions:
REMARK  status: ('A' for Active; 'I' for Inactive)
REMARK    1  A    between atoms: C_8  and  C_1 
REMARK    2  A    between atoms: C_10  and  C_2 
REMARK    3  A    between atoms: C_9  and  C_3 
REMARK    4  A    between atoms: O_19  and  C_9 
REMARK    5  A    between atoms: O_18  and  C_10 
REMARK    6  A    between atoms: O_20  and  C_12 
REMARK    7  A    between atoms: O_21  and  C_14 
REMARK    8  A    between atoms: C_25  and  O_18 
REMARK    9  A    between atoms: C_24  and  O_19 
ROOT
ATOM      1  C   UNL d   1       0.005  -1.833  -0.005  0.00  0.00     0.011 A 
ATOM      2  C   UNL d   1       1.188  -1.051  -0.177  0.00  0.00     0.073 A 
ATOM      3  C   UNL d   1      -1.209  -1.099   0.146  0.00  0.00     0.073 A 
ATOM      4  N   UNL d   1      -0.072   1.006  -0.177  0.00  0.00    -0.362 N 
ATOM      5  HN  UNL d   1      -0.106   2.020  -0.283  1.00  0.00     0.165 HD
ATOM      6  C   UNL d   1      -1.206   0.302   0.038  0.00  0.00     0.022 A 
ATOM      7  C   UNL d   1       1.106   0.350  -0.251  0.00  0.00     0.022 A 
ATOM      8  C   UNL d   1      -2.432   1.158   0.151  0.00  0.00     0.069 C 
ATOM      9  C   UNL d   1       2.290   1.279  -0.316  0.00  0.00     0.069 C 
ENDROOT
BRANCH   1  10
ATOM     10  C   UNL d   1       0.009  -3.338   0.012  0.00  0.00    -0.021 C 
ATOM     11  C   UNL d   1       0.945  -4.095   0.742  0.00  0.00     0.052 C 
ATOM     12  C   UNL d   1       0.973  -5.498   0.684  0.00  0.00     0.102 C 
ATOM     13  C   UNL d   1      -0.038  -6.182   0.015  0.00  0.00     0.099 C 
ATOM     14  C   UNL d   1      -1.005  -5.473  -0.684  0.00  0.00     0.040 C 
ATOM     15  C   UNL d   1      -0.949  -4.072  -0.721  0.00  0.00     0.015 C 
BRANCH  12  16
ATOM     16  O   UNL d   1       1.950  -6.231   1.309  0.00  0.00    -0.353 OA
ATOM     17  C   UNL d   1       3.265  -5.794   0.966  0.00  0.00     0.210 C 
ENDBRANCH  12  16
BRANCH  13  18
ATOM     18  O   UNL d   1      -0.061  -7.548   0.034  0.00  0.00    -0.358 OA
ATOM     19  H   UNL d   1      -0.910  -7.853  -0.321  0.00  0.00     0.217 HD
ENDBRANCH  13  18
ENDBRANCH   1  10
BRANCH   2  20
ATOM     20  C   UNL d   1       2.536  -1.661  -0.150  0.00  0.00     0.296 C 
ATOM     21  O   UNL d   1       2.949  -2.581  -0.837  0.00  0.00    -0.259 OA
BRANCH  20  22
ATOM     22  O   UNL d   1       3.136  -1.099   0.918  0.00  0.00    -0.318 OA
BRANCH  22  23
ATOM     23  C   UNL d   1       4.144  -1.831   1.621  0.00  0.00     0.174 C 
ATOM     24  C   UNL d   1       3.675  -1.810   3.064  0.00  0.00     0.034 C 
ENDBRANCH  22  23
ENDBRANCH  20  22
ENDBRANCH   2  20
BRANCH   3  25
ATOM     25  C   UNL d   1      -2.464  -1.775   0.558  0.00  0.00     0.296 C 
ATOM     26  O   UNL d   1      -2.534  -2.570   1.479  0.00  0.00    -0.259 OA
BRANCH  25  27
ATOM     27  O   UNL d   1      -3.477  -1.395  -0.257  0.00  0.00    -0.318 OA
BRANCH  27  28
ATOM     28  C   UNL d   1      -4.761  -1.992  -0.014  0.00  0.00     0.174 C 
ATOM     29  C   UNL d   1      -5.390  -1.531   1.291  0.00  0.00     0.034 C 
ENDBRANCH  27  28
ENDBRANCH  25  27
ENDBRANCH   3  25
TORSDOF 9
