REMARK  7 active torsions:
REMARK  status: ('A' for Active; 'I' for Inactive)
REMARK    1  A    between atoms: N_2  and  C_1 
REMARK    2  A    between atoms: S_3  and  C_8 
REMARK    3  A    between atoms: C_11  and  S_3 
REMARK    4  A    between atoms: N_6  and  C_4 
REMARK    5  A    between atoms: C_5  and  C_9 
REMARK    6  A    between atoms: C_8  and  C_20 
REMARK    7  A    between atoms: C_20  and  N_10 
ROOT
ATOM      1  N   UNL d   1       1.096  -2.545  -0.403  0.00  0.00    -0.376 N 
ATOM      2  N   UNL d   1       2.007  -5.299  -1.027  0.00  0.00     0.092 N 
ATOM      3  C   UNL d   1       1.888  -3.293   0.596  0.00  0.00     0.153 C 
ATOM      4  C   UNL d   1       0.279  -3.435  -1.255  0.00  0.00     0.153 C 
ATOM      5  C   UNL d   1       1.207  -4.457  -1.951  0.00  0.00     0.292 C 
ATOM      6  C   UNL d   1       2.740  -4.391  -0.102  0.00  0.00     0.292 C 
ENDROOT
BRANCH   1   7
ATOM      7  C   UNL d   1       0.566  -1.293  -0.095  0.00  0.00     0.063 A 
ATOM      8  C   UNL d   1       0.281  -0.308  -1.065  0.00  0.00     0.130 A 
ATOM      9  C   UNL d   1      -0.270   0.950  -0.752  0.00  0.00     0.054 A 
ATOM     10  C   UNL d   1      -0.538   1.282   0.577  0.00  0.00     0.050 A 
ATOM     11  C   UNL d   1      -0.244   0.335   1.566  0.00  0.00     0.018 A 
ATOM     12  C   UNL d   1       0.296  -0.920   1.235  0.00  0.00     0.032 A 
BRANCH   8  13
ATOM     13  N   UNL d   1       0.603  -0.523  -2.466  0.00  0.00    -0.113 N 
ATOM     14  O   UNL d   1       1.793  -0.669  -2.774  0.00  0.00    -0.532 OA
ATOM     15  O   UNL d   1      -0.347  -0.501  -3.263  0.00  0.00    -0.532 OA
ENDBRANCH   8  13
BRANCH  10  16
ATOM     16  C   UNL d   1      -1.121   2.624   0.950  0.00  0.00     0.417 C 
ATOM     17  F   UNL d   1      -1.318   3.442  -0.120  0.00  0.00    -0.166 F 
ATOM     18  F   UNL d   1      -2.329   2.511   1.565  0.00  0.00    -0.166 F 
ATOM     19  F   UNL d   1      -0.323   3.316   1.808  0.00  0.00    -0.166 F 
ENDBRANCH  10  16
ENDBRANCH   1   7
BRANCH   2  20
ATOM     20  C   UNL d   1       1.205  -6.291  -0.284  0.00  0.00     0.287 C 
BRANCH  20  21
ATOM     21  C   UNL d   1       0.580  -7.348  -1.194  0.00  0.00     0.176 C 
BRANCH  21  22
ATOM     22  S   UNL d   1      -0.355  -8.516  -0.233  0.00  0.00     0.177 S 
ATOM     23  O   UNL d   1       0.565  -9.300   0.569  0.00  0.00    -0.223 OA
ATOM     24  O   UNL d   1      -1.460  -7.807   0.387  0.00  0.00    -0.223 OA
BRANCH  22  25
ATOM     25  C   UNL d   1      -1.045  -9.594  -1.469  0.00  0.00     0.059 A 
ATOM     26  C   UNL d   1      -0.347 -10.740  -1.854  0.00  0.00     0.024 A 
ATOM     27  C   UNL d   1      -0.902 -11.593  -2.809  0.00  0.00     0.008 A 
ATOM     28  C   UNL d   1      -2.153 -11.312  -3.375  0.00  0.00    -0.062 A 
ATOM     29  C   UNL d   1      -2.848 -10.165  -2.969  0.00  0.00     0.008 A 
ATOM     30  C   UNL d   1      -2.744 -12.253  -4.385  0.00  0.00     0.048 C 
ATOM     31  C   UNL d   1      -2.300  -9.306  -2.014  0.00  0.00     0.024 A 
ENDBRANCH  22  25
ENDBRANCH  21  22
ENDBRANCH  20  21
ENDBRANCH   2  20
TORSDOF 7
