REMARK  11 active torsions:
REMARK  status: ('A' for Active; 'I' for Inactive)
REMARK    1  A    between atoms: N_2  and  S_1 
REMARK    2  A    between atoms: C_3  and  S_1 
REMARK    3  A    between atoms: C_7  and  N_2 
REMARK    4  A    between atoms: C_4  and  C_9 
REMARK    5  A    between atoms: C_5  and  C_10 
REMARK    6  A    between atoms: C_6  and  C_7 
REMARK       I    between atoms: N_12  and  C_6 
REMARK    7  A    between atoms: C_28  and  C_7 
REMARK    8  A    between atoms: C_8  and  C_11 
REMARK       I    between atoms: C_11  and  N_13 
REMARK    9  A    between atoms: N_13  and  N_12 
REMARK   10  A    between atoms: C_32  and  C_28 
REMARK   11  A    between atoms: S_30  and  C_32 
ROOT
ATOM      1  C   UNL d   1       1.023   2.620   0.527  0.00  0.00     0.165 C 
ENDROOT
BRANCH   1   2
ATOM      2  C   UNL d   1       2.521   2.995   0.430  0.00  0.00     0.254 C 
ATOM      3  N   UNL d   1       3.055   3.500   1.603  0.00  0.00    -0.266 N 
ATOM      4  H   UNL d   1       2.523   3.674   2.452  0.00  0.00     0.190 HD
ATOM      5  O   UNL d   1       3.186   2.877  -0.599  0.00  0.00    -0.270 OA
BRANCH   3   6
ATOM      6  N   UNL d   1       4.431   3.776   1.671  0.00  0.00    -0.263 N 
ATOM      7  C   UNL d   1       4.881   4.602   2.681  0.00  0.00     0.271 C 
ATOM      8  O   UNL d   1       4.089   5.125   3.467  0.00  0.00    -0.266 OA
ATOM      9  H   UNL d   1       5.028   3.334   0.971  0.00  0.00     0.190 HD
BRANCH   7  10
ATOM     10  C   UNL d   1       6.356   4.819   2.856  0.00  0.00     0.055 A 
ATOM     11  C   UNL d   1       7.362   4.521   1.926  0.00  0.00     0.049 A 
ATOM     12 CL   UNL d   1       7.066   3.887   0.347  0.00  0.00    -0.083 Cl
ATOM     13  C   UNL d   1       8.712   4.763   2.244  0.00  0.00     0.025 A 
ATOM     14  C   UNL d   1       9.072   5.307   3.476  0.00  0.00     0.002 A 
ATOM     15  C   UNL d   1       8.086   5.617   4.403  0.00  0.00     0.001 A 
ATOM     16  C   UNL d   1       6.743   5.375   4.094  0.00  0.00     0.019 A 
ENDBRANCH   7  10
ENDBRANCH   3   6
ENDBRANCH   1   2
BRANCH   1  17
ATOM     17  N   UNL d   1       0.689   1.510  -0.405  0.00  0.00    -0.202 NA
ATOM     18  H   UNL d   1      -0.295   1.437  -0.641  0.00  0.00     0.141 HD
BRANCH  17  19
ATOM     19  S   UNL d   1       1.323  -0.016  -0.052  0.00  0.00     0.242 S 
ATOM     20  O   UNL d   1       2.503   0.128   0.760  0.00  0.00    -0.206 OA
ATOM     21  O   UNL d   1       1.294  -0.788  -1.271  0.00  0.00    -0.206 OA
BRANCH  19  22
ATOM     22  C   UNL d   1       0.047  -0.729   0.982  0.00  0.00     0.076 A 
ATOM     23  C   UNL d   1      -1.222  -0.969   0.440  0.00  0.00     0.041 A 
ATOM     24  C   UNL d   1      -2.210  -1.600   1.211  0.00  0.00     0.050 A 
ATOM     25  C   UNL d   1      -1.891  -2.008   2.519  0.00  0.00     0.032 A 
ATOM     26  C   UNL d   1      -0.608  -1.800   3.058  0.00  0.00     0.050 A 
ATOM     27  C   UNL d   1       0.358  -1.141   2.282  0.00  0.00     0.041 A 
BRANCH  24  28
ATOM     28  C   UNL d   1      -3.589  -1.870   0.651  0.00  0.00     0.417 C 
ATOM     29  F   UNL d   1      -3.743  -1.439  -0.631  0.00  0.00    -0.166 F 
ATOM     30  F   UNL d   1      -3.902  -3.193   0.648  0.00  0.00    -0.166 F 
ATOM     31  F   UNL d   1      -4.566  -1.251   1.370  0.00  0.00    -0.166 F 
ENDBRANCH  24  28
BRANCH  26  32
ATOM     32  C   UNL d   1      -0.277  -2.323   4.439  0.00  0.00     0.417 C 
ATOM     33  F   UNL d   1       1.013  -2.102   4.810  0.00  0.00    -0.166 F 
ATOM     34  F   UNL d   1      -1.050  -1.759   5.405  0.00  0.00    -0.166 F 
ATOM     35  F   UNL d   1      -0.471  -3.667   4.538  0.00  0.00    -0.166 F 
ENDBRANCH  26  32
ENDBRANCH  19  22
ENDBRANCH  17  19
ENDBRANCH   1  17
BRANCH   1  36
ATOM     36  C   UNL d   1       0.169   3.861   0.182  0.00  0.00     0.040 C 
BRANCH  36  37
ATOM     37  C   UNL d   1      -1.352   3.647   0.144  0.00  0.00     0.075 C 
BRANCH  37  38
ATOM     38  S   UNL d   1      -1.974   2.845   1.659  0.00  0.00    -0.173 SA
ATOM     39  C   UNL d   1      -3.701   2.596   1.182  0.00  0.00     0.089 C 
ENDBRANCH  37  38
ENDBRANCH  36  37
ENDBRANCH   1  36
TORSDOF 11
