REMARK  3 active torsions:
REMARK  status: ('A' for Active; 'I' for Inactive)
REMARK    1  A    between atoms: O_7  and  C_1 
REMARK    2  A    between atoms: C_12  and  O_7 
REMARK    3  A    between atoms: O_21  and  C_11 
ROOT
ATOM      1  C   UNL d   1       2.482   0.557  -0.072  0.00  0.00     0.156 A 
ATOM      2  C   UNL d   1       1.248   1.392  -0.148  0.00  0.00     0.221 A 
ATOM      3  C   UNL d   1      -0.041   0.694  -0.062  0.00  0.00     0.051 A 
ATOM      4  C   UNL d   1       2.333  -0.767   0.184  0.00  0.00     0.087 A 
ATOM      5  C   UNL d   1      -0.042  -0.685   0.102  0.00  0.00     0.092 A 
ATOM      6  O   UNL d   1       1.105  -1.415   0.237  0.00  0.00    -0.311 OA
ATOM      7  C   UNL d   1      -1.247  -1.388   0.150  0.00  0.00     0.074 A 
ATOM      8  C   UNL d   1      -1.249   1.394  -0.155  0.00  0.00     0.021 A 
ATOM      9  O   UNL d   1       1.293   2.611  -0.280  0.00  0.00    -0.284 OA
ATOM     10  C   UNL d   1      -2.446  -0.690   0.041  0.00  0.00     0.068 A 
ATOM     11  C   UNL d   1      -2.456   0.695  -0.102  0.00  0.00     0.037 A 
ATOM     12  C   UNL d   1       3.451  -1.730   0.474  0.00  0.00     0.080 C 
ENDROOT
BRANCH   1  13
ATOM     13  O   UNL d   1       3.674   1.263  -0.148  0.00  0.00    -0.304 OA
BRANCH  13  14
ATOM     14  C   UNL d   1       4.750   0.768  -0.844  0.00  0.00     0.076 A 
ATOM     15  C   UNL d   1       4.657  -0.051  -1.973  0.00  0.00     0.039 A 
ATOM     16  C   UNL d   1       5.815  -0.602  -2.526  0.00  0.00     0.026 A 
ATOM     17  C   UNL d   1       7.062  -0.290  -1.984  0.00  0.00     0.034 A 
ATOM     18  C   UNL d   1       7.164   0.595  -0.912  0.00  0.00     0.026 A 
ATOM     19 CL   UNL d   1       8.482  -1.013  -2.632  0.00  0.00    -0.084 Cl
ATOM     20  C   UNL d   1       6.005   1.129  -0.347  0.00  0.00     0.039 A 
ENDBRANCH  13  14
ENDBRANCH   1  13
BRANCH  10  21
ATOM     21  O   UNL d   1      -3.646  -1.333   0.069  0.00  0.00    -0.361 OA
ATOM     22  H   UNL d   1      -3.493  -2.290   0.140  0.00  0.00     0.217 HD
ENDBRANCH  10  21
TORSDOF 3
