REMARK  9 active torsions:
REMARK  status: ('A' for Active; 'I' for Inactive)
REMARK    1  A    between atoms: C_6  and  S_1 
REMARK    2  A    between atoms: O_10  and  S_1 
REMARK    3  A    between atoms: C_8  and  C_2 
REMARK    4  A    between atoms: C_3  and  N_9 
REMARK    5  A    between atoms: C_11  and  N_5 
REMARK    6  A    between atoms: O_19  and  C_8 
REMARK    7  A    between atoms: N_9  and  C_17 
REMARK    8  A    between atoms: C_18  and  O_10 
REMARK    9  A    between atoms: C_30  and  O_19 
ROOT
ATOM      1  C   UNL d   1       0.919  -0.844  -7.689  0.00  0.00     0.013 A 
ATOM      2  C   UNL d   1      -1.231  -1.190  -9.460  0.00  0.00     0.089 A 
ATOM      3  C   UNL d   1      -0.397  -0.666  -7.254  0.00  0.00     0.026 A 
ATOM      4  C   UNL d   1       1.143  -1.277  -9.001  0.00  0.00     0.026 A 
ATOM      5  C   UNL d   1      -1.469  -0.829  -8.135  0.00  0.00     0.040 A 
ATOM      6  C   UNL d   1       0.074  -1.444  -9.884  0.00  0.00     0.040 A 
ENDROOT
BRANCH   1   7
ATOM      7  N   UNL d   1       1.971  -0.683  -6.762  0.00  0.00    -0.254 NA
ATOM      8  H   UNL d   1       2.123  -1.552  -6.241  0.00  0.00     0.134 HD
BRANCH   7   9
ATOM      9  C   UNL d   1       3.178  -0.129  -7.123  0.00  0.00     0.095 A 
ATOM     10  C   UNL d   1       3.554   0.983  -7.767  0.00  0.00     0.062 A 
ATOM     11  C   UNL d   1       5.023   1.154  -7.871  0.00  0.00     0.174 A 
ATOM     12  N   UNL d   1       5.508   0.001  -7.146  0.00  0.00    -0.334 N 
ATOM     13  C   UNL d   1       4.455  -0.781  -6.710  0.00  0.00     0.266 A 
ATOM     14  O   UNL d   1       4.484  -1.830  -6.088  0.00  0.00    -0.266 OA
BRANCH  10  15
ATOM     15  C   UNL d   1       2.699   2.069  -8.254  0.00  0.00     0.292 C 
ATOM     16  O   UNL d   1       3.094   2.917  -9.039  0.00  0.00    -0.259 OA
BRANCH  15  17
ATOM     17  O   UNL d   1       1.533   2.081  -7.574  0.00  0.00    -0.318 OA
BRANCH  17  18
ATOM     18  C   UNL d   1       0.772   3.291  -7.595  0.00  0.00     0.174 C 
ATOM     19  C   UNL d   1       1.266   4.158  -6.452  0.00  0.00     0.034 C 
ENDBRANCH  17  18
ENDBRANCH  15  17
ENDBRANCH  10  15
BRANCH  12  20
ATOM     20  C   UNL d   1       6.938  -0.281  -6.887  0.00  0.00     0.025 C 
ATOM     21  C   UNL d   1       7.335  -1.619  -7.537  0.00  0.00     0.037 C 
ATOM     22  C   UNL d   1       7.864   0.814  -7.457  0.00  0.00     0.037 C 
ATOM     23  C   UNL d   1       7.187  -0.359  -5.368  0.00  0.00     0.037 C 
ENDBRANCH  12  20
ENDBRANCH   7   9
ENDBRANCH   1   7
BRANCH   2  24
ATOM     24  O   UNL d   1      -2.206  -1.333 -10.415  0.00  0.00    -0.229 OA
BRANCH  24  25
ATOM     25  S   UNL d   1      -3.648  -0.585 -10.278  0.00  0.00     0.304 S 
ATOM     26  O   UNL d   1      -4.513  -1.443  -9.486  0.00  0.00    -0.193 OA
ATOM     27  O   UNL d   1      -3.469   0.808  -9.908  0.00  0.00    -0.193 OA
BRANCH  25  28
ATOM     28  C   UNL d   1      -4.295  -0.576 -11.928  0.00  0.00     0.108 A 
ATOM     29  C   UNL d   1      -3.561  -0.043 -12.989  0.00  0.00     0.057 A 
ATOM     30 CL   UNL d   1      -1.982   0.634 -12.829  0.00  0.00    -0.083 Cl
ATOM     31  C   UNL d   1      -4.123  -0.036 -14.271  0.00  0.00     0.025 A 
ATOM     32  C   UNL d   1      -5.402  -0.553 -14.488  0.00  0.00     0.002 A 
ATOM     33  C   UNL d   1      -6.130  -1.082 -13.426  0.00  0.00     0.002 A 
ATOM     34  C   UNL d   1      -5.580  -1.095 -12.145  0.00  0.00     0.027 A 
ENDBRANCH  25  28
ENDBRANCH  24  25
ENDBRANCH   2  24
TORSDOF 9
