REMARK  6 active torsions:
REMARK  status: ('A' for Active; 'I' for Inactive)
REMARK    1  A    between atoms: C_9  and  C_1 
REMARK    2  A    between atoms: C_10  and  C_1 
REMARK    3  A    between atoms: N_11  and  C_6 
REMARK    4  A    between atoms: C_14  and  C_7 
REMARK    5  A    between atoms: S_22  and  C_13 
REMARK    6  A    between atoms: S_23  and  C_13 
ROOT
ATOM      1  C   UNL d   1       1.511  -0.389   0.166  0.00  0.00     0.308 A 
ATOM      2  N   UNL d   1       1.027   0.990   0.049  0.00  0.00    -0.328 N 
ATOM      3  HN  UNL d   1       1.694   1.757   0.132  1.00  0.00     0.164 HD
ATOM      4  N   UNL d   1       0.418  -1.365  -0.036  0.00  0.00    -0.314 N 
ATOM      5  HN  UNL d   1       0.612  -2.366  -0.004  1.00  0.00     0.166 HD
ATOM      6  C   UNL d   1      -0.765  -0.949  -0.252  0.00  0.00     0.229 A 
ATOM      7  C   UNL d   1      -0.201   1.258  -0.154  0.00  0.00     0.160 A 
ATOM      8  O   UNL d   1      -1.157   0.340  -0.285  0.00  0.00    -0.261 OA
ENDROOT
BRANCH   1   9
ATOM      9  C   UNL d   1       2.624  -0.630  -0.917  0.00  0.00     0.441 C 
ATOM     10  F   UNL d   1       2.933   0.510  -1.592  0.00  0.00    -0.166 F 
ATOM     11  F   UNL d   1       3.793  -1.133  -0.482  0.00  0.00    -0.166 F 
ATOM     12  F   UNL d   1       2.184  -1.494  -1.878  0.00  0.00    -0.166 F 
ENDBRANCH   1   9
BRANCH   1  13
ATOM     13  C   UNL d   1       2.143  -0.536   1.588  0.00  0.00     0.441 C 
ATOM     14  F   UNL d   1       2.075   0.635   2.284  0.00  0.00    -0.166 F 
ATOM     15  F   UNL d   1       1.451  -1.435   2.345  0.00  0.00    -0.166 F 
ATOM     16  F   UNL d   1       3.433  -0.914   1.635  0.00  0.00    -0.166 F 
ENDBRANCH   1  13
BRANCH   7  17
ATOM     17  C   UNL d   1      -0.693   2.651  -0.314  0.00  0.00     0.021 A 
ATOM     18  C   UNL d   1       0.119   3.663  -0.880  0.00  0.00    -0.048 A 
ATOM     19  C   UNL d   1       1.527   3.466  -1.377  0.00  0.00     0.049 C 
ATOM     20  C   UNL d   1      -0.389   4.973  -0.979  0.00  0.00     0.007 A 
ATOM     21  C   UNL d   1      -1.674   5.279  -0.544  0.00  0.00     0.001 A 
ATOM     22  C   UNL d   1      -2.472   4.286   0.018  0.00  0.00     0.001 A 
ATOM     23  C   UNL d   1      -1.983   2.979   0.139  0.00  0.00     0.016 A 
ENDBRANCH   7  17
BRANCH   6  24
ATOM     24  N   UNL d   1      -1.826  -1.739  -0.508  0.00  0.00    -0.311 N 
ATOM     25  C   UNL d   1      -1.867  -3.030  -0.526  0.00  0.00     0.110 C 
ATOM     26  HN  UNL d   1      -2.703  -1.259  -0.713  1.00  0.00     0.170 HD
BRANCH  25  27
ATOM     27  S   UNL d   1      -0.615  -4.196  -0.187  0.00  0.00    -0.110 SA
ATOM     28  C   UNL d   1      -0.057  -4.661  -1.845  0.00  0.00     0.097 C 
ENDBRANCH  25  27
BRANCH  25  29
ATOM     29  S   UNL d   1      -3.452  -3.765  -0.830  0.00  0.00    -0.110 SA
ATOM     30  C   UNL d   1      -4.510  -2.294  -0.926  0.00  0.00     0.097 C 
ENDBRANCH  25  29
ENDBRANCH   6  24
TORSDOF 6
