REMARK  5 active torsions:
REMARK  status: ('A' for Active; 'I' for Inactive)
REMARK    1  A    between atoms: N_4  and  C_1 
REMARK    2  A    between atoms: C_2  and  C_3 
REMARK       I    between atoms: N_6  and  C_2 
REMARK    3  A    between atoms: O_19  and  C_5 
REMARK       I    between atoms: C_7  and  N_6 
REMARK       I    between atoms: N_9  and  C_7 
REMARK    4  A    between atoms: C_8  and  N_9 
REMARK    5  A    between atoms: O_22  and  C_11 
ROOT
ATOM      1  C   UNL d   1      -1.557  -2.772   0.714  0.00  0.00     0.244 C 
ATOM      2  N   UNL d   1      -1.055  -3.814   1.477  0.00  0.00    -0.175 NA
ATOM      3  C   UNL d   1      -1.395  -5.113   1.198  0.00  0.00     0.305 C 
ATOM      4  N   UNL d   1      -2.740  -5.354   1.098  0.00  0.00    -0.308 N 
ATOM      5  O   UNL d   1      -2.746  -2.741   0.409  0.00  0.00    -0.273 OA
ATOM      6  O   UNL d   1      -0.482  -5.912   1.000  0.00  0.00    -0.253 OA
ATOM      7  H   UNL d   1      -0.054  -3.778   1.626  0.00  0.00     0.141 HD
ATOM      8  H   UNL d   1      -3.309  -4.517   0.955  0.00  0.00     0.170 HD
ENDROOT
BRANCH   1   9
ATOM      9  C   UNL d   1      -0.609  -1.643   0.359  0.00  0.00     0.096 A 
ATOM     10  C   UNL d   1       0.781  -1.700   0.614  0.00  0.00     0.119 A 
ATOM     11  C   UNL d   1       1.570  -0.555   0.388  0.00  0.00     0.137 A 
ATOM     12  C   UNL d   1       1.044   0.609  -0.174  0.00  0.00     0.042 A 
ATOM     13  C   UNL d   1      -0.302   0.640  -0.503  0.00  0.00     0.040 A 
ATOM     14  C   UNL d   1      -1.118  -0.477  -0.257  0.00  0.00     0.086 A 
BRANCH  10  15
ATOM     15  O   UNL d   1       1.320  -2.858   1.118  0.00  0.00    -0.352 OA
ATOM     16  C   UNL d   1       2.272  -3.477   0.238  0.00  0.00     0.210 C 
ENDBRANCH  10  15
BRANCH  11  17
ATOM     17  N   UNL d   1       2.965  -0.524   0.780  0.00  0.00    -0.113 N 
ATOM     18  O   UNL d   1       3.231  -0.744   1.967  0.00  0.00    -0.532 OA
ATOM     19  O   UNL d   1       3.787  -0.261  -0.110  0.00  0.00    -0.532 OA
ENDBRANCH  11  17
BRANCH  14  20
ATOM     20  O   UNL d   1      -2.443  -0.324  -0.571  0.00  0.00    -0.355 OA
ATOM     21  C   UNL d   1      -2.670  -0.496  -1.974  0.00  0.00     0.210 C 
ENDBRANCH  14  20
ENDBRANCH   1   9
BRANCH   4  22
ATOM     22  C   UNL d   1      -3.341  -6.588   0.757  0.00  0.00     0.113 A 
ATOM     23  C   UNL d   1      -2.764  -7.845   0.959  0.00  0.00     0.146 A 
ATOM     24  F   UNL d   1      -1.639  -7.998   1.669  0.00  0.00    -0.204 F 
ATOM     25  C   UNL d   1      -3.382  -9.007   0.488  0.00  0.00     0.045 A 
ATOM     26  C   UNL d   1      -4.608  -8.933  -0.171  0.00  0.00     0.006 A 
ATOM     27  C   UNL d   1      -5.232  -7.697  -0.317  0.00  0.00     0.045 A 
ATOM     28  C   UNL d   1      -4.603  -6.545   0.156  0.00  0.00     0.146 A 
ATOM     29  F   UNL d   1      -5.221  -5.364  -0.011  0.00  0.00    -0.204 F 
ENDBRANCH   4  22
TORSDOF 5
