REMARK  3 active torsions:
REMARK  status: ('A' for Active; 'I' for Inactive)
REMARK    1  A    between atoms: C_2  and  N_1 
REMARK    2  A    between atoms: O_4  and  C_3 
REMARK    3  A    between atoms: C_5  and  O_4 
ROOT
ATOM      1  C   UNL d   1      -1.332   0.254  -2.131  0.00  0.00     0.154 A 
ATOM      2  C   UNL d   1      -0.573   0.914  -1.182  0.00  0.00     0.181 A 
ATOM      3  N   UNL d   1       0.783   0.964  -1.254  0.00  0.00    -0.345 N 
ATOM      4  HN  UNL d   1       1.331   1.509  -0.588  1.00  0.00     0.167 HD
ATOM      5  C   UNL d   1      -0.707  -0.466  -3.151  0.00  0.00     0.042 A 
ATOM      6  C   UNL d   1       1.377   0.260  -2.245  0.00  0.00     0.090 A 
ATOM      7  C   UNL d   1       0.683  -0.472  -3.198  0.00  0.00     0.020 A 
ENDROOT
BRANCH   2   8
ATOM      8  O   UNL d   1      -1.206   1.549  -0.127  0.00  0.00    -0.288 OA
BRANCH   8   9
ATOM      9  C   UNL d   1      -0.546   1.607   1.081  0.00  0.00     0.116 A 
ATOM     10  C   UNL d   1       0.180   0.549   1.635  0.00  0.00     0.150 A 
ATOM     11  F   UNL d   1       0.272  -0.632   1.007  0.00  0.00    -0.203 F 
ATOM     12  C   UNL d   1       0.798   0.683   2.877  0.00  0.00     0.045 A 
ATOM     13  C   UNL d   1       0.657   1.869   3.597  0.00  0.00     0.003 A 
ATOM     14  C   UNL d   1      -0.105   2.914   3.072  0.00  0.00     0.003 A 
ATOM     15  C   UNL d   1      -0.708   2.783   1.818  0.00  0.00     0.040 A 
ENDBRANCH   8   9
ENDBRANCH   2   8
BRANCH   1  16
ATOM     16  N   UNL d   1      -2.769   0.307  -2.078  0.00  0.00    -0.111 N 
ATOM     17  O   UNL d   1      -3.301   1.424  -2.112  0.00  0.00    -0.532 OA
ATOM     18  O   UNL d   1      -3.371  -0.776  -2.068  0.00  0.00    -0.532 OA
ENDBRANCH   1  16
TORSDOF 3
