REMARK  5 active torsions:
REMARK  status: ('A' for Active; 'I' for Inactive)
REMARK    1  A    between atoms: C_8  and  C_3 
REMARK    2  A    between atoms: S_4  and  C_12 
REMARK    3  A    between atoms: C_10  and  S_4 
REMARK    4  A    between atoms: C_11  and  C_5 
REMARK    5  A    between atoms: C_12  and  C_17 
ROOT
ATOM      1  C   UNL d   1       0.525   2.491   0.056  0.00  0.00     0.010 A 
ATOM      2  C   UNL d   1       1.219   3.008  -1.050  0.00  0.00     0.023 A 
ATOM      3  C   UNL d   1       1.498   4.379  -1.157  0.00  0.00    -0.043 A 
ATOM      4  C   UNL d   1       0.082   3.374   1.049  0.00  0.00     0.015 A 
ATOM      5  C   UNL d   1       0.349   4.741   0.952  0.00  0.00     0.002 A 
ATOM      6  C   UNL d   1       1.060   5.239  -0.140  0.00  0.00     0.008 A 
ENDROOT
BRANCH   1   7
ATOM      7  C   UNL d   1       0.271   1.060   0.172  0.00  0.00     0.138 A 
ATOM      8  N   UNL d   1      -0.479   0.528   1.195  0.00  0.00    -0.318 N 
ATOM      9  C   UNL d   1      -0.473  -0.757   0.926  0.00  0.00     0.183 A 
ATOM     10  HN  UNL d   1      -0.930   1.013   1.971  1.00  0.00     0.169 HD
ATOM     11  O   UNL d   1       0.258  -1.060  -0.188  0.00  0.00    -0.217 OA
ATOM     12  N   UNL d   1       0.747   0.144  -0.687  0.00  0.00    -0.242 N 
ATOM     13  HN  UNL d   1       1.330   0.295  -1.510  1.00  0.00     0.196 HD
BRANCH   9  14
ATOM     14  C   UNL d   1      -1.110  -1.877   1.605  0.00  0.00     0.039 A 
ATOM     15  C   UNL d   1      -2.351  -1.757   2.252  0.00  0.00     0.048 A 
ATOM     16 CL   UNL d   1      -3.269  -0.289   2.268  0.00  0.00    -0.083 Cl
ATOM     17  C   UNL d   1      -2.927  -2.861   2.896  0.00  0.00     0.025 A 
ATOM     18  C   UNL d   1      -2.275  -4.093   2.903  0.00  0.00     0.002 A 
ATOM     19  C   UNL d   1      -1.045  -4.229   2.268  0.00  0.00     0.001 A 
ATOM     20  C   UNL d   1      -0.468  -3.132   1.622  0.00  0.00     0.017 A 
ENDBRANCH   9  14
ENDBRANCH   1   7
BRANCH   3  21
ATOM     21  C   UNL d   1       2.225   4.917  -2.361  0.00  0.00     0.184 C 
BRANCH  21  22
ATOM     22  S   UNL d   1       3.986   5.001  -2.101  0.00  0.00     0.179 S 
ATOM     23  O   UNL d   1       4.580   5.472  -3.342  0.00  0.00    -0.222 OA
ATOM     24  O   UNL d   1       4.263   5.706  -0.863  0.00  0.00    -0.222 OA
BRANCH  22  25
ATOM     25  C   UNL d   1       4.535   3.316  -1.899  0.00  0.00     0.059 A 
ATOM     26  C   UNL d   1       4.871   2.561  -3.029  0.00  0.00     0.025 A 
ATOM     27  C   UNL d   1       5.381   1.270  -2.868  0.00  0.00     0.025 A 
ATOM     28  C   UNL d   1       5.560   0.748  -1.587  0.00  0.00     0.034 A 
ATOM     29  C   UNL d   1       5.233   1.505  -0.461  0.00  0.00     0.025 A 
ATOM     30 CL   UNL d   1       6.212  -0.833  -1.393  0.00  0.00    -0.084 Cl
ATOM     31  C   UNL d   1       4.726   2.798  -0.614  0.00  0.00     0.025 A 
ENDBRANCH  22  25
ENDBRANCH  21  22
ENDBRANCH   3  21
TORSDOF 5
