REMARK  4 active torsions:
REMARK  status: ('A' for Active; 'I' for Inactive)
REMARK    1  A    between atoms: N_2  and  S_1 
REMARK    2  A    between atoms: C_4  and  S_1 
REMARK    3  A    between atoms: S_6  and  N_2 
REMARK    4  A    between atoms: C_17  and  S_6 
ROOT
ATOM      1  S   UNL d   1       1.056  -0.015  -0.071  0.00  0.00     0.271 S 
ATOM      2  O   UNL d   1       2.469  -0.048   0.266  0.00  0.00    -0.200 OA
ATOM      3  O   UNL d   1       0.571  -0.838  -1.161  0.00  0.00    -0.200 OA
ENDROOT
BRANCH   1   4
ATOM      4  N   UNL d   1       0.615   1.580  -0.363  0.00  0.00    -0.236 N 
ATOM      5  HN  UNL d   1       0.135   1.794  -1.237  1.00  0.00     0.189 HD
BRANCH   4   6
ATOM      6  S   UNL d   1       0.918   2.822   0.688  0.00  0.00     0.061 S 
ATOM      7  O   UNL d   1       0.353   2.579   1.994  0.00  0.00    -0.244 OA
ATOM      8  C   UNL d   1       0.158   4.225  -0.079  0.00  0.00     0.143 C 
BRANCH   6   9
ATOM      9  C   UNL d   1       2.640   3.105   0.771  0.00  0.00     0.038 A 
ATOM     10  C   UNL d   1       3.356   3.483  -0.369  0.00  0.00     0.022 A 
ATOM     11  C   UNL d   1       4.725   3.749  -0.264  0.00  0.00     0.001 A 
ATOM     12  C   UNL d   1       5.371   3.636   0.969  0.00  0.00     0.000 A 
ATOM     13  C   UNL d   1       4.651   3.261   2.102  0.00  0.00     0.001 A 
ATOM     14  C   UNL d   1       3.284   2.997   2.006  0.00  0.00     0.022 A 
ENDBRANCH   6   9
ENDBRANCH   4   6
ENDBRANCH   1   4
BRANCH   1  15
ATOM     15  C   UNL d   1       0.169  -0.522   1.354  0.00  0.00     0.111 A 
ATOM     16  C   UNL d   1      -1.230  -0.482   1.444  0.00  0.00     0.108 A 
ATOM     17  C   UNL d   1      -1.933  -1.050   2.596  0.00  0.00     0.086 A 
ATOM     18  N   UNL d   1      -2.155   0.003   0.603  0.00  0.00    -0.238 N 
ATOM     19  N   UNL d   1      -3.248  -0.895   2.410  0.00  0.00    -0.239 N 
ATOM     20  C   UNL d   1      -1.260  -1.661   3.673  0.00  0.00     0.034 A 
ATOM     21  O   UNL d   1      -3.382  -0.247   1.195  0.00  0.00    -0.156 OA
ATOM     22  HN  UNL d   1      -3.998  -1.193   3.034  1.00  0.00     0.197 HD
ATOM     23  C   UNL d   1       0.142  -1.669   3.563  0.00  0.00     0.004 A 
ATOM     24  C   UNL d   1       0.832  -1.122   2.449  0.00  0.00     0.028 A 
ATOM     25  HN  UNL d   1      -1.989   0.463  -0.292  1.00  0.00     0.197 HD
ENDBRANCH   1  15
TORSDOF 4
