REMARK  4 active torsions:
REMARK  status: ('A' for Active; 'I' for Inactive)
REMARK    1  A    between atoms: C_7  and  C_1 
REMARK    2  A    between atoms: N_11  and  C_4 
REMARK       I    between atoms: C_10  and  N_12 
REMARK       I    between atoms: N_13  and  C_10 
REMARK    3  A    between atoms: N_12  and  N_11 
REMARK    4  A    between atoms: C_18  and  N_13 
ROOT
ATOM      1  C   UNL d   1      -0.725   1.165   0.158  0.00  0.00     0.192 A 
ATOM      2  N   UNL d   1      -1.387  -0.015   0.150  0.00  0.00    -0.328 N 
ATOM      3  HN  UNL d   1      -2.385  -0.065   0.356  1.00  0.00     0.168 HD
ATOM      4  C   UNL d   1      -0.673  -1.124  -0.142  0.00  0.00     0.107 A 
ATOM      5  N   UNL d   1       0.606   1.278  -0.069  0.00  0.00    -0.342 N 
ATOM      6  HN  UNL d   1       1.066   2.188  -0.039  1.00  0.00     0.167 HD
ATOM      7  C   UNL d   1       0.699  -1.090  -0.430  0.00  0.00     0.000 A 
ATOM      8  C   UNL d   1       1.310   0.156  -0.336  0.00  0.00     0.016 A 
ATOM      9  C   UNL d   1       1.461  -2.350  -0.715  0.00  0.00     0.054 C 
ATOM     10  C   UNL d   1       2.785   0.389  -0.497  0.00  0.00     0.069 C 
ENDROOT
BRANCH   4  11
ATOM     11  N   UNL d   1      -1.294  -2.395  -0.051  0.00  0.00    -0.186 NA
ATOM     12  H   UNL d   1      -1.138  -2.957  -0.894  0.00  0.00     0.154 HD
BRANCH  11  13
ATOM     13  N   UNL d   1      -2.671  -2.411   0.284  0.00  0.00    -0.267 N 
ATOM     14  C   UNL d   1      -3.378  -3.456  -0.311  0.00  0.00     0.335 C 
ATOM     15  N   UNL d   1      -4.687  -3.523   0.110  0.00  0.00    -0.308 N 
ATOM     16  O   UNL d   1      -2.813  -4.223  -1.090  0.00  0.00    -0.246 OA
ATOM     17  H   UNL d   1      -4.966  -2.836   0.795  0.00  0.00     0.170 HD
ATOM     18  H   UNL d   1      -3.093  -1.490   0.379  0.00  0.00     0.186 HD
BRANCH  15  19
ATOM     19  C   UNL d   1      -5.653  -4.489  -0.257  0.00  0.00     0.036 A 
ATOM     20  C   UNL d   1      -5.401  -5.554  -1.128  0.00  0.00     0.029 A 
ATOM     21  C   UNL d   1      -6.418  -6.449  -1.482  0.00  0.00     0.002 A 
ATOM     22  C   UNL d   1      -7.699  -6.292  -0.964  0.00  0.00     0.000 A 
ATOM     23  C   UNL d   1      -7.959  -5.252  -0.075  0.00  0.00     0.002 A 
ATOM     24  C   UNL d   1      -6.940  -4.360   0.280  0.00  0.00     0.029 A 
ENDBRANCH  15  19
ENDBRANCH  11  13
ENDBRANCH   4  11
BRANCH   1  25
ATOM     25  C   UNL d   1      -1.492   2.458   0.461  0.00  0.00     0.449 C 
ATOM     26  F   UNL d   1      -2.835   2.273   0.647  0.00  0.00    -0.163 F 
ATOM     27  F   UNL d   1      -1.056   3.091   1.592  0.00  0.00    -0.163 F 
ATOM     28  F   UNL d   1      -1.393   3.388  -0.539  0.00  0.00    -0.163 F 
ENDBRANCH   1  25
TORSDOF 4
