REMARK  5 active torsions:
REMARK  status: ('A' for Active; 'I' for Inactive)
REMARK    1  A    between atoms: C_2  and  S_1 
REMARK    2  A    between atoms: N_6  and  S_1 
REMARK    3  A    between atoms: C_15  and  N_10 
REMARK    4  A    between atoms: C_19  and  C_15 
REMARK    5  A    between atoms: C_20  and  C_19 
ROOT
ATOM      1  N   UNL d   1       0.469  -1.495   0.329  0.00  0.00    -0.205 NA
ATOM      2  N   UNL d   1      -1.253  -4.162  -0.001  0.00  0.00     0.089 N 
ATOM      3  C   UNL d   1      -1.024  -1.593   0.150  0.00  0.00     0.138 C 
ATOM      4  C   UNL d   1      -1.655  -2.904   0.646  0.00  0.00     0.287 C 
ATOM      5  C   UNL d   1       1.310  -3.875   0.164  0.00  0.00     0.046 C 
ATOM      6  C   UNL d   1       1.229  -2.497  -0.476  0.00  0.00     0.109 C 
ATOM      7  C   UNL d   1       0.028  -4.628   0.511  0.00  0.00     0.273 C 
ENDROOT
BRANCH   1   8
ATOM      8  S   UNL d   1       1.022   0.114  -0.012  0.00  0.00     0.245 S 
ATOM      9  O   UNL d   1       2.468   0.144   0.011  0.00  0.00    -0.206 OA
ATOM     10  O   UNL d   1       0.280   0.608  -1.150  0.00  0.00    -0.206 OA
BRANCH   8  11
ATOM     11  C   UNL d   1       0.591   1.162   1.282  0.00  0.00     0.105 A 
ATOM     12  C   UNL d   1       0.972   0.977   2.587  0.00  0.00     0.099 A 
ATOM     13  S   UNL d   1       0.469   2.243   3.606  0.00  0.00    -0.064 SA
ATOM     14 CL   UNL d   1       1.874  -0.313   3.280  0.00  0.00    -0.075 Cl
ATOM     15  C   UNL d   1      -0.258   3.048   2.306  0.00  0.00     0.077 A 
ATOM     16  C   UNL d   1      -0.146   2.379   1.114  0.00  0.00     0.058 A 
ATOM     17 CL   UNL d   1      -1.026   4.562   2.562  0.00  0.00    -0.076 Cl
ENDBRANCH   8  11
ENDBRANCH   1   8
BRANCH   2  18
ATOM     18  C   UNL d   1      -1.455  -4.173  -1.457  0.00  0.00     0.277 C 
BRANCH  18  19
ATOM     19  C   UNL d   1      -1.086  -5.484  -2.174  0.00  0.00     0.068 C 
BRANCH  19  20
ATOM     20  C   UNL d   1      -1.222  -5.344  -3.674  0.00  0.00    -0.057 A 
ATOM     21  C   UNL d   1      -0.142  -4.886  -4.444  0.00  0.00     0.007 A 
ATOM     22  C   UNL d   1      -0.268  -4.738  -5.826  0.00  0.00     0.001 A 
ATOM     23  C   UNL d   1      -1.475  -5.041  -6.452  0.00  0.00     0.000 A 
ATOM     24  C   UNL d   1      -2.558  -5.487  -5.696  0.00  0.00     0.001 A 
ATOM     25  C   UNL d   1      -2.434  -5.636  -4.313  0.00  0.00     0.007 A 
ENDBRANCH  19  20
ENDBRANCH  18  19
ENDBRANCH   2  18
TORSDOF 5
