REMARK  6 active torsions:
REMARK  status: ('A' for Active; 'I' for Inactive)
REMARK    1  A    between atoms: C_15  and  C_2 
REMARK    2  A    between atoms: N_21  and  C_6 
REMARK    3  A    between atoms: C_7  and  C_10 
REMARK       I    between atoms: C_10  and  N_20 
REMARK    4  A    between atoms: N_20  and  C_24 
REMARK    5  A    between atoms: C_25  and  N_21 
REMARK    6  A    between atoms: C_24  and  C_25 
ROOT
ATOM      1  C   UNL d   1       0.267   0.969  -0.021  0.00  0.00     0.053 A 
ATOM      2  C   UNL d   1      -0.982   1.736  -0.017  0.00  0.00    -0.003 A 
ATOM      3  C   UNL d   1      -2.080   0.891  -0.015  0.00  0.00     0.065 A 
ATOM      4  C   UNL d   1       0.002  -0.395  -0.020  0.00  0.00     0.089 A 
ATOM      5  S   UNL d   1      -1.658  -0.760   0.014  0.00  0.00    -0.082 SA
ATOM      6  C   UNL d   1       1.643   1.309  -0.056  0.00  0.00     0.116 A 
ATOM      7  N   UNL d   1       0.898  -1.394  -0.043  0.00  0.00    -0.346 N 
ATOM      8  HN  UNL d   1       0.648  -2.382  -0.012  1.00  0.00     0.167 HD
ATOM      9  N   UNL d   1       2.563   0.327  -0.148  0.00  0.00    -0.338 N 
ATOM     10  HN  UNL d   1       3.554   0.551  -0.244  1.00  0.00     0.168 HD
ATOM     11  C   UNL d   1       2.153  -0.949  -0.111  0.00  0.00     0.182 A 
ENDROOT
BRANCH   6  12
ATOM     12  N   UNL d   1       2.069   2.619  -0.009  0.00  0.00    -0.374 N 
ATOM     13  H   UNL d   1       1.666   3.170   0.741  0.00  0.00     0.161 HD
BRANCH  12  14
ATOM     14  C   UNL d   1       3.334   3.030  -0.582  0.00  0.00     0.141 C 
BRANCH  14  15
ATOM     15  C   UNL d   1       3.448   4.561  -0.497  0.00  0.00     0.142 C 
BRANCH  15  16
ATOM     16  N   UNL d   1       4.646   5.083  -1.117  0.00  0.00    -0.355 N 
ATOM     17  C   UNL d   1       5.266   6.233  -0.648  0.00  0.00     0.258 C 
ATOM     18  O   UNL d   1       4.861   6.814   0.355  0.00  0.00    -0.267 OA
ATOM     19  H   UNL d   1       4.895   4.776  -2.046  0.00  0.00     0.162 HD
BRANCH  17  20
ATOM     20  C   UNL d   1       6.411   6.685  -1.433  0.00  0.00     0.072 A 
ATOM     21  S   UNL d   1       6.963   5.850  -2.826  0.00  0.00    -0.097 SA
ATOM     22  C   UNL d   1       8.256   6.944  -3.056  0.00  0.00     0.050 A 
ATOM     23  C   UNL d   1       8.265   7.938  -2.105  0.00  0.00     0.009 A 
ATOM     24  C   UNL d   1       7.198   7.791  -1.173  0.00  0.00     0.025 A 
ENDBRANCH  17  20
ENDBRANCH  15  16
ENDBRANCH  14  15
ENDBRANCH  12  14
ENDBRANCH   6  12
BRANCH   2  25
ATOM     25  C   UNL d   1      -1.182   3.195  -0.033  0.00  0.00    -0.024 A 
ATOM     26  C   UNL d   1      -0.355   4.031  -0.792  0.00  0.00     0.012 A 
ATOM     27  C   UNL d   1      -0.435   5.422  -0.687  0.00  0.00     0.001 A 
ATOM     28  C   UNL d   1      -1.417   6.002   0.107  0.00  0.00     0.000 A 
ATOM     29  C   UNL d   1      -2.321   5.190   0.786  0.00  0.00     0.001 A 
ATOM     30  C   UNL d   1      -2.195   3.797   0.730  0.00  0.00     0.012 A 
ENDBRANCH   2  25
TORSDOF 6
