REMARK  4 active torsions:
REMARK  status: ('A' for Active; 'I' for Inactive)
REMARK    1  A    between atoms: C_5  and  C_3 
REMARK    2  A    between atoms: C_11  and  N_4 
REMARK       I    between atoms: N_10  and  C_5 
REMARK       I    between atoms: C_9  and  N_12 
REMARK       I    between atoms: N_13  and  C_9 
REMARK    3  A    between atoms: N_12  and  N_10 
REMARK    4  A    between atoms: C_16  and  N_13 
ROOT
ATOM      1  C   UNL d   1       2.309   1.487   0.123  0.00  0.00     0.292 C 
ATOM      2  N   UNL d   1       2.220   2.862   0.128  0.00  0.00    -0.260 N 
ATOM      3  O   UNL d   1       3.366   0.872   0.164  0.00  0.00    -0.264 OA
ATOM      4  H   UNL d   1       1.335   3.352   0.272  0.00  0.00     0.190 HD
ENDROOT
BRANCH   1   5
ATOM      5  C   UNL d   1       0.978   0.749   0.071  0.00  0.00     0.168 C 
ATOM      6  N   UNL d   1      -0.073   1.327   0.601  0.00  0.00    -0.286 N 
ATOM      7  N   UNL d   1      -1.262   0.613   0.629  0.00  0.00    -0.267 N 
ATOM      8  HN  UNL d   1      -0.018   2.272   0.981  1.00  0.00     0.188 HD
ATOM      9  C   UNL d   1      -1.347  -0.691   0.174  0.00  0.00     0.120 C 
ATOM     10  C   UNL d   1      -0.357  -1.368  -0.407  0.00  0.00     0.076 C 
ATOM     11  C   UNL d   1       0.886  -0.616  -0.585  0.00  0.00     0.206 C 
ATOM     12  O   UNL d   1       1.788  -1.055  -1.282  0.00  0.00    -0.286 OA
BRANCH   7  13
ATOM     13  C   UNL d   1      -2.410   1.326   1.108  0.00  0.00     0.056 A 
ATOM     14  C   UNL d   1      -2.509   2.721   0.936  0.00  0.00     0.034 A 
ATOM     15  C   UNL d   1      -3.661   3.419   1.316  0.00  0.00     0.044 A 
ATOM     16  C   UNL d   1      -4.720   2.735   1.894  0.00  0.00     0.116 A 
ATOM     17  C   UNL d   1      -4.646   1.367   2.112  0.00  0.00     0.044 A 
ATOM     18  F   UNL d   1      -5.828   3.401   2.245  0.00  0.00    -0.206 F 
ATOM     19  C   UNL d   1      -3.497   0.670   1.725  0.00  0.00     0.034 A 
ENDBRANCH   7  13
ENDBRANCH   1   5
BRANCH   2  20
ATOM     20  N   UNL d   1       3.406   3.628   0.262  0.00  0.00    -0.248 N 
ATOM     21  C   UNL d   1       3.244   5.007   0.286  0.00  0.00     0.339 C 
ATOM     22  N   UNL d   1       4.440   5.689   0.321  0.00  0.00    -0.308 N 
ATOM     23  O   UNL d   1       2.113   5.496   0.295  0.00  0.00    -0.245 OA
ATOM     24  H   UNL d   1       5.275   5.128   0.427  0.00  0.00     0.170 HD
ATOM     25  H   UNL d   1       4.219   3.232  -0.202  0.00  0.00     0.192 HD
BRANCH  22  26
ATOM     26  C   UNL d   1       4.620   7.091   0.241  0.00  0.00     0.038 A 
ATOM     27  C   UNL d   1       3.565   7.996   0.101  0.00  0.00     0.053 A 
ATOM     28  C   UNL d   1       3.816   9.357  -0.083  0.00  0.00     0.036 A 
ATOM     29 CL   UNL d   1       2.499  10.445  -0.306  0.00  0.00    -0.084 Cl
ATOM     30  C   UNL d   1       5.120   9.842  -0.109  0.00  0.00     0.024 A 
ATOM     31  C   UNL d   1       6.180   8.958   0.081  0.00  0.00     0.004 A 
ATOM     32  C   UNL d   1       5.932   7.591   0.260  0.00  0.00     0.029 A 
ENDBRANCH  22  26
ENDBRANCH   2  20
TORSDOF 4
