REMARK  7 active torsions:
REMARK  status: ('A' for Active; 'I' for Inactive)
REMARK    1  A    between atoms: C_6  and  C_1 
REMARK    2  A    between atoms: N_7  and  C_2 
REMARK    3  A    between atoms: C_10  and  C_4 
REMARK    4  A    between atoms: O_21  and  C_6 
REMARK       I    between atoms: C_8  and  N_7 
REMARK    5  A    between atoms: C_13  and  C_8 
REMARK    6  A    between atoms: N_9  and  C_13 
REMARK    7  A    between atoms: C_11  and  C_12 
ROOT
ATOM      1  C   UNL d   1       0.357   1.305   1.384  0.00  0.00     0.107 C 
ATOM      2  C   UNL d   1       1.560   0.920   0.798  0.00  0.00     0.059 C 
ATOM      3  S   UNL d   1      -0.684  -0.073   1.585  0.00  0.00    -0.081 SA
ATOM      4  C   UNL d   1       0.407  -1.141   0.840  0.00  0.00     0.018 C 
ATOM      5  C   UNL d   1       1.603  -0.502   0.588  0.00  0.00     0.051 C 
ENDROOT
BRANCH   2   6
ATOM      6  N   UNL d   1       2.666   1.677   0.404  0.00  0.00    -0.324 N 
ATOM      7  C   UNL d   1       2.596   2.860  -0.317  0.00  0.00     0.250 C 
ATOM      8  O   UNL d   1       1.581   3.459  -0.651  0.00  0.00    -0.271 OA
ATOM      9  H   UNL d   1       3.496   1.141   0.152  0.00  0.00     0.169 HD
BRANCH   7  10
ATOM     10  C   UNL d   1       3.990   3.301  -0.807  0.00  0.00     0.375 C 
BRANCH  10  11
ATOM     11  N   UNL d   1       4.607   2.230  -1.633  0.00  0.00     0.101 N 
ATOM     12  C   UNL d   1       3.824   1.963  -2.872  0.00  0.00     0.299 C 
ATOM     13  C   UNL d   1       3.924   3.065  -3.939  0.00  0.00     0.198 C 
ATOM     14  O   UNL d   1       5.290   3.297  -4.303  0.00  0.00    -0.388 OA
ATOM     15  C   UNL d   1       6.063   3.669  -3.157  0.00  0.00     0.198 C 
ATOM     16  C   UNL d   1       5.984   2.601  -2.049  0.00  0.00     0.299 C 
ENDBRANCH  10  11
ENDBRANCH   7  10
ENDBRANCH   2   6
BRANCH   1  17
ATOM     17  C   UNL d   1      -0.206   2.561   1.867  0.00  0.00     0.302 C 
ATOM     18  O   UNL d   1      -1.357   2.711   2.276  0.00  0.00    -0.259 OA
BRANCH  17  19
ATOM     19  O   UNL d   1       0.693   3.583   1.830  0.00  0.00    -0.322 OA
ATOM     20  C   UNL d   1       0.091   4.877   1.921  0.00  0.00     0.213 C 
ENDBRANCH  17  19
ENDBRANCH   1  17
BRANCH   4  21
ATOM     21  C   UNL d   1       0.004  -2.502   0.464  0.00  0.00    -0.019 A 
ATOM     22  C   UNL d   1       0.324  -2.965  -0.816  0.00  0.00     0.013 A 
ATOM     23  C   UNL d   1      -0.075  -4.234  -1.248  0.00  0.00     0.009 A 
ATOM     24  C   UNL d   1      -0.806  -5.099  -0.414  0.00  0.00    -0.051 A 
ATOM     25  C   UNL d   1      -1.117  -4.630   0.871  0.00  0.00     0.009 A 
ATOM     26  C   UNL d   1      -0.721  -3.352   1.306  0.00  0.00     0.013 A 
BRANCH  24  27
ATOM     27  C   UNL d   1      -1.228  -6.482  -0.941  0.00  0.00    -0.024 C 
ATOM     28  C   UNL d   1      -2.005  -7.338   0.084  0.00  0.00     0.019 C 
ATOM     29  C   UNL d   1      -2.137  -6.316  -2.179  0.00  0.00     0.019 C 
ATOM     30  C   UNL d   1       0.028  -7.286  -1.347  0.00  0.00     0.019 C 
ENDBRANCH  24  27
ENDBRANCH   4  21
TORSDOF 7
