REMARK  3 active torsions:
REMARK  status: ('A' for Active; 'I' for Inactive)
REMARK    1  A    between atoms: S_8  and  C_1 
REMARK    2  A    between atoms: N_7  and  C_2 
REMARK    3  A    between atoms: C_11  and  S_8 
ROOT
ATOM      1  C   UNL d   1       0.624  -1.353  -0.065  0.00  0.00     0.127 A 
ATOM      2  C   UNL d   1      -0.751  -1.295   0.060  0.00  0.00     0.161 A 
ATOM      3  N   UNL d   1       1.033  -0.043  -0.107  0.00  0.00    -0.287 N 
ATOM      4  N   UNL d   1       0.006   0.836  -0.135  0.00  0.00    -0.300 N 
ATOM      5  HN  UNL d   1       0.054   1.850  -0.229  1.00  0.00     0.187 HD
ATOM      6  C   UNL d   1      -1.090   0.075  -0.012  0.00  0.00     0.058 A 
ATOM      7  C   UNL d   1       2.367   0.513  -0.067  0.00  0.00     0.178 C 
ATOM      8  C   UNL d   1      -2.426   0.720   0.024  0.00  0.00     0.072 C 
ENDROOT
BRANCH   1   9
ATOM      9  S   UNL d   1       1.739  -2.686  -0.010  0.00  0.00    -0.069 SA
BRANCH   9  10
ATOM     10  C   UNL d   1       1.966  -2.974  -1.759  0.00  0.00     0.007 A 
ATOM     11  C   UNL d   1       2.958  -2.293  -2.478  0.00  0.00     0.020 A 
ATOM     12  C   UNL d   1       3.198  -2.599  -3.822  0.00  0.00     0.025 A 
ATOM     13  C   UNL d   1       2.456  -3.596  -4.449  0.00  0.00     0.034 A 
ATOM     14  C   UNL d   1       1.468  -4.282  -3.747  0.00  0.00     0.025 A 
ATOM     15 CL   UNL d   1       2.778  -3.997  -6.091  0.00  0.00    -0.084 Cl
ATOM     16  C   UNL d   1       1.225  -3.971  -2.404  0.00  0.00     0.020 A 
ENDBRANCH   9  10
ENDBRANCH   1   9
BRANCH   2  17
ATOM     17  N   UNL d   1      -1.645  -2.385   0.257  0.00  0.00    -0.111 N 
ATOM     18  O   UNL d   1      -1.618  -3.298  -0.577  0.00  0.00    -0.532 OA
ATOM     19  O   UNL d   1      -2.398  -2.311   1.234  0.00  0.00    -0.532 OA
ENDBRANCH   2  17
TORSDOF 3
