REMARK  6 active torsions:
REMARK  status: ('A' for Active; 'I' for Inactive)
REMARK    1  A    between atoms: C_4  and  C_1 
REMARK    2  A    between atoms: C_2  and  C_8 
REMARK    3  A    between atoms: C_10  and  C_3 
REMARK    4  A    between atoms: C_5  and  C_4 
REMARK    5  A    between atoms: C_8  and  O_11 
REMARK    6  A    between atoms: O_11  and  C_14 
ROOT
ATOM      1  C   UNL d   1      -0.732  -1.362   0.363  0.00  0.00     0.096 C 
ATOM      2  C   UNL d   1       0.349  -1.179  -0.425  0.00  0.00     0.041 C 
ATOM      3  C   UNL d   1      -1.329  -0.214   0.965  0.00  0.00     0.103 C 
ATOM      4  N   UNL d   1      -1.811   0.737   1.421  0.00  0.00    -0.191 NA
ENDROOT
BRANCH   1   5
ATOM      5  C   UNL d   1      -1.303  -2.721   0.673  0.00  0.00     0.209 C 
ATOM      6  O   UNL d   1      -0.569  -3.712   0.657  0.00  0.00    -0.285 OA
BRANCH   5   7
ATOM      7  C   UNL d   1      -2.694  -2.859   1.092  0.00  0.00     0.056 A 
ATOM      8  S   UNL d   1      -3.983  -2.088   0.273  0.00  0.00    -0.098 SA
ATOM      9  C   UNL d   1      -5.151  -2.791   1.312  0.00  0.00     0.050 A 
ATOM     10  C   UNL d   1      -4.575  -3.631   2.240  0.00  0.00     0.009 A 
ATOM     11  C   UNL d   1      -3.162  -3.689   2.094  0.00  0.00     0.023 A 
ENDBRANCH   5   7
ENDBRANCH   1   5
BRANCH   2  12
ATOM     12  C   UNL d   1       1.067  -2.194  -1.212  0.00  0.00    -0.001 A 
ATOM     13  C   UNL d   1       2.158  -2.938  -0.717  0.00  0.00     0.079 A 
ATOM     14  C   UNL d   1       2.778  -3.863  -1.574  0.00  0.00     0.037 A 
ATOM     15  C   UNL d   1       2.332  -4.050  -2.884  0.00  0.00     0.003 A 
ATOM     16  C   UNL d   1       1.268  -3.304  -3.371  0.00  0.00     0.001 A 
ATOM     17  C   UNL d   1       0.640  -2.378  -2.540  0.00  0.00     0.014 A 
BRANCH  13  18
ATOM     18  O   UNL d   1       2.534  -2.719   0.594  0.00  0.00    -0.346 OA
BRANCH  18  19
ATOM     19  C   UNL d   1       3.751  -3.339   1.019  0.00  0.00     0.217 C 
BRANCH  19  20
ATOM     20  C   UNL d   1       4.011  -3.472   2.511  0.00  0.00     0.009 A 
ATOM     21  C   UNL d   1       5.046  -4.355   2.914  0.00  0.00     0.044 A 
ATOM     22 CL   UNL d   1       6.114  -5.103   1.766  0.00  0.00    -0.084 Cl
ATOM     23  C   UNL d   1       5.270  -4.669   4.258  0.00  0.00     0.024 A 
ATOM     24  C   UNL d   1       4.487  -4.084   5.242  0.00  0.00     0.003 A 
ATOM     25  C   UNL d   1       3.519  -3.149   4.878  0.00  0.00     0.024 A 
ATOM     26  C   UNL d   1       3.289  -2.832   3.528  0.00  0.00     0.044 A 
ATOM     27 CL   UNL d   1       2.108  -1.606   3.232  0.00  0.00    -0.084 Cl
ENDBRANCH  19  20
ENDBRANCH  18  19
ENDBRANCH  13  18
ENDBRANCH   2  12
TORSDOF 6
