REMARK  7 active torsions:
REMARK  status: ('A' for Active; 'I' for Inactive)
REMARK    1  A    between atoms: C_6  and  N_1 
REMARK    2  A    between atoms: C_7  and  C_6 
REMARK    3  A    between atoms: C_12  and  C_6 
REMARK    4  A    between atoms: O_24  and  C_7 
REMARK    5  A    between atoms: C_11  and  C_23 
REMARK       I    between atoms: N_14  and  C_11 
REMARK    6  A    between atoms: C_23  and  C_12 
REMARK    7  A    between atoms: C_17  and  N_14 
ROOT
ATOM      1  C   UNL d   1       3.214   1.508  -1.482  0.00  0.00     0.194 C 
ENDROOT
BRANCH   1   2
ATOM      2  N   UNL d   1       3.718   0.927  -2.733  0.00  0.00    -0.265 N 
ATOM      3  C   UNL d   1       4.055   1.673  -3.831  0.00  0.00     0.262 A 
ATOM      4  C   UNL d   1       4.473   0.731  -4.866  0.00  0.00     0.048 A 
ATOM      5  O   UNL d   1       4.092   2.881  -3.957  0.00  0.00    -0.267 OA
ATOM      6  C   UNL d   1       4.868   0.947  -6.173  0.00  0.00     0.018 A 
ATOM      7  C   UNL d   1       4.434  -0.536  -4.316  0.00  0.00     0.048 A 
ATOM      8  C   UNL d   1       5.251  -0.175  -6.915  0.00  0.00     0.001 A 
ATOM      9  C   UNL d   1       5.245  -1.463  -6.338  0.00  0.00     0.001 A 
ATOM     10  C   UNL d   1       4.826  -1.658  -5.019  0.00  0.00     0.018 A 
ATOM     11  C   UNL d   1       3.909  -0.402  -2.965  0.00  0.00     0.262 A 
ATOM     12  O   UNL d   1       3.626  -1.325  -2.219  0.00  0.00    -0.267 OA
ENDBRANCH   1   2
BRANCH   1  13
ATOM     13  C   UNL d   1       1.726   1.178  -1.301  0.00  0.00     0.164 C 
ATOM     14  O   UNL d   1       0.876   2.021  -1.042  0.00  0.00    -0.648 OA
BRANCH  13  15
ATOM     15  O   UNL d   1       1.404  -0.137  -1.361  0.00  0.00    -0.775 OA
ATOM     16  H   UNL d   1       2.159  -0.758  -1.487  0.00  0.00     0.167 HD
ENDBRANCH  13  15
ENDBRANCH   1  13
BRANCH   1  17
ATOM     17  C   UNL d   1       4.016   1.067  -0.244  0.00  0.00     0.046 C 
BRANCH  17  18
ATOM     18  C   UNL d   1       5.504   1.440  -0.314  0.00  0.00     0.105 C 
BRANCH  18  19
ATOM     19  C   UNL d   1       5.743   2.935  -0.178  0.00  0.00     0.222 C 
ATOM     20  N   UNL d   1       6.944   3.347  -0.729  0.00  0.00    -0.327 N 
ATOM     21  H   UNL d   1       7.423   2.704  -1.346  0.00  0.00     0.169 HD
ATOM     22  O   UNL d   1       4.933   3.645   0.408  0.00  0.00    -0.273 OA
BRANCH  20  23
ATOM     23  C   UNL d   1       7.538   4.622  -0.584  0.00  0.00     0.035 A 
ATOM     24  C   UNL d   1       7.128   5.549   0.378  0.00  0.00     0.041 A 
ATOM     25  C   UNL d   1       7.807   6.766   0.541  0.00  0.00     0.001 A 
ATOM     26  C   UNL d   1       7.393   7.740   1.597  0.00  0.00     0.212 C 
ATOM     27  C   UNL d   1       8.874   7.078  -0.296  0.00  0.00     0.080 A 
ATOM     28  O   UNL d   1       8.499   8.568   1.938  0.00  0.00    -0.362 OA
ATOM     29  C   UNL d   1       9.028   9.164   0.759  0.00  0.00     0.345 C 
ATOM     30  O   UNL d   1       9.584   8.240  -0.181  0.00  0.00    -0.326 OA
ATOM     31  C   UNL d   1       9.282   6.173  -1.272  0.00  0.00     0.040 A 
ATOM     32  C   UNL d   1       8.625   4.943  -1.407  0.00  0.00     0.032 A 
ENDBRANCH  20  23
ENDBRANCH  18  19
ENDBRANCH  17  18
ENDBRANCH   1  17
TORSDOF 7
