REMARK  5 active torsions:
REMARK  status: ('A' for Active; 'I' for Inactive)
REMARK    1  A    between atoms: C_8  and  C_1 
REMARK    2  A    between atoms: S_9  and  C_5 
REMARK    3  A    between atoms: C_12  and  S_9 
REMARK    4  A    between atoms: C_10  and  C_12 
REMARK    5  A    between atoms: C_11  and  C_10 
ROOT
ATOM      1  C   UNL d   1      -0.786   0.927   0.222  0.00  0.00     0.209 A 
ATOM      2  N   UNL d   1      -0.928  -0.370   0.672  0.00  0.00    -0.312 N 
ATOM      3  N   UNL d   1       0.414   1.043  -0.329  0.00  0.00    -0.279 N 
ATOM      4  HN  UNL d   1       0.803   1.896  -0.732  1.00  0.00     0.188 HD
ATOM      5  C   UNL d   1       0.233  -1.010   0.316  0.00  0.00     0.163 A 
ATOM      6  N   UNL d   1       1.048  -0.169  -0.269  0.00  0.00    -0.278 N 
ATOM      7  HN  UNL d   1       1.983  -0.378  -0.616  1.00  0.00     0.189 HD
ATOM      8  C   UNL d   1      -2.021  -0.978   1.390  0.00  0.00     0.160 C 
ENDROOT
BRANCH   5   9
ATOM      9  S   UNL d   1       0.536  -2.688   0.601  0.00  0.00    -0.085 SA
BRANCH   9  10
ATOM     10  C   UNL d   1       2.212  -2.844  -0.091  0.00  0.00     0.166 C 
BRANCH  10  11
ATOM     11  C   UNL d   1       2.689  -4.288  -0.116  0.00  0.00     0.169 C 
ATOM     12  O   UNL d   1       1.980  -5.251   0.173  0.00  0.00    -0.291 OA
BRANCH  11  13
ATOM     13  C   UNL d   1       4.106  -4.553  -0.528  0.00  0.00     0.011 A 
ATOM     14  C   UNL d   1       4.964  -3.537  -0.975  0.00  0.00     0.017 A 
ATOM     15  C   UNL d   1       6.286  -3.836  -1.328  0.00  0.00     0.025 A 
ATOM     16  C   UNL d   1       6.754  -5.146  -1.241  0.00  0.00     0.034 A 
ATOM     17  C   UNL d   1       5.909  -6.166  -0.812  0.00  0.00     0.025 A 
ATOM     18 CL   UNL d   1       8.383  -5.502  -1.663  0.00  0.00    -0.084 Cl
ATOM     19  C   UNL d   1       4.589  -5.870  -0.458  0.00  0.00     0.017 A 
ENDBRANCH  11  13
ENDBRANCH  10  11
ENDBRANCH   9  10
ENDBRANCH   5   9
BRANCH   1  20
ATOM     20  C   UNL d   1      -1.787   2.027   0.312  0.00  0.00     0.450 C 
ATOM     21  F   UNL d   1      -2.957   1.665   0.898  0.00  0.00    -0.163 F 
ATOM     22  F   UNL d   1      -1.319   3.079   1.032  0.00  0.00    -0.163 F 
ATOM     23  F   UNL d   1      -2.120   2.507  -0.915  0.00  0.00    -0.163 F 
ENDBRANCH   1  20
TORSDOF 5
