REMARK  7 active torsions:
REMARK  status: ('A' for Active; 'I' for Inactive)
REMARK    1  A    between atoms: C_6  and  N_1 
REMARK    2  A    between atoms: C_10  and  C_2 
REMARK    3  A    between atoms: C_8  and  C_3 
REMARK    4  A    between atoms: O_25  and  C_8 
REMARK    5  A    between atoms: C_11  and  O_19 
REMARK    6  A    between atoms: C_16  and  C_11 
REMARK    7  A    between atoms: O_19  and  N_13 
ROOT
ATOM      1  N   UNL d   1       0.930  -0.517  -0.068  0.00  0.00    -0.251 N 
ATOM      2  C   UNL d   1       1.077   0.866  -0.033  0.00  0.00     0.092 C 
ATOM      3  C   UNL d   1      -0.218   1.378  -0.010  0.00  0.00     0.086 C 
ATOM      4  N   UNL d   1      -0.360  -0.882  -0.278  0.00  0.00    -0.303 N 
ATOM      5  HN  UNL d   1      -0.719  -1.809  -0.507  1.00  0.00     0.186 HD
ATOM      6  C   UNL d   1      -1.048   0.246  -0.117  0.00  0.00     0.127 C 
ENDROOT
BRANCH   2   7
ATOM      7  C   UNL d   1       2.352   1.543  -0.036  0.00  0.00     0.147 C 
ATOM      8  N   UNL d   1       2.528   2.654   0.598  0.00  0.00    -0.266 N 
ATOM      9  HN  UNL d   1       1.800   3.161   1.101  1.00  0.00     0.194 HD
BRANCH   8  10
ATOM     10  O   UNL d   1       3.879   3.068   0.494  0.00  0.00    -0.195 OA
BRANCH  10  11
ATOM     11  C   UNL d   1       4.171   3.886   1.552  0.00  0.00     0.315 C 
ATOM     12  O   UNL d   1       3.438   4.144   2.499  0.00  0.00    -0.257 OA
BRANCH  11  13
ATOM     13  C   UNL d   1       5.544   4.463   1.462  0.00  0.00     0.041 A 
ATOM     14  C   UNL d   1       6.003   5.191   2.574  0.00  0.00     0.019 A 
ATOM     15  C   UNL d   1       7.253   5.813   2.558  0.00  0.00     0.025 A 
ATOM     16  C   UNL d   1       8.057   5.712   1.427  0.00  0.00     0.034 A 
ATOM     17  C   UNL d   1       7.623   4.982   0.319  0.00  0.00     0.025 A 
ATOM     18 CL   UNL d   1       9.584   6.503   1.394  0.00  0.00    -0.084 Cl
ATOM     19  C   UNL d   1       6.368   4.355   0.333  0.00  0.00     0.019 A 
ENDBRANCH  11  13
ENDBRANCH  10  11
ENDBRANCH   8  10
ENDBRANCH   2   7
BRANCH   1  20
ATOM     20  C   UNL d   1       1.915  -1.529   0.070  0.00  0.00     0.095 A 
ATOM     21  C   UNL d   1       3.030  -1.348   0.893  0.00  0.00     0.147 A 
ATOM     22  C   UNL d   1       4.013  -2.325   0.991  0.00  0.00     0.087 A 
ATOM     23  F   UNL d   1       3.158  -0.261   1.664  0.00  0.00    -0.203 F 
ATOM     24  C   UNL d   1       3.873  -3.497   0.264  0.00  0.00     0.119 A 
ATOM     25  C   UNL d   1       2.752  -3.721  -0.529  0.00  0.00     0.045 A 
ATOM     26  F   UNL d   1       4.830  -4.431   0.334  0.00  0.00    -0.206 F 
ATOM     27  C   UNL d   1       1.756  -2.745  -0.614  0.00  0.00     0.038 A 
ENDBRANCH   1  20
BRANCH   3  28
ATOM     28  C   UNL d   1      -0.679   2.751   0.040  0.00  0.00     0.296 C 
ATOM     29  O   UNL d   1      -1.780   3.060   0.484  0.00  0.00    -0.259 OA
BRANCH  28  30
ATOM     30  O   UNL d   1       0.185   3.618  -0.551  0.00  0.00    -0.322 OA
ATOM     31  C   UNL d   1      -0.209   4.985  -0.477  0.00  0.00     0.213 C 
ENDBRANCH  28  30
ENDBRANCH   3  28
TORSDOF 7
