REMARK  3 active torsions:
REMARK  status: ('A' for Active; 'I' for Inactive)
REMARK       I    between atoms: C_6  and  N_1 
REMARK    1  A    between atoms: C_8  and  N_3 
REMARK    2  A    between atoms: C_10  and  C_6 
REMARK    3  A    between atoms: O_22  and  C_13 
ROOT
ATOM      1  N   UNL d   1       0.559   1.366  -0.328  0.00  0.00    -0.222 N 
ATOM      2  C   UNL d   1       1.345   0.242  -0.052  0.00  0.00     0.191 C 
ATOM      3  N   UNL d   1       0.698  -0.997  -0.253  0.00  0.00    -0.320 N 
ATOM      4  C   UNL d   1      -0.783   1.290  -0.000  0.00  0.00     0.242 C 
ATOM      5  C   UNL d   1      -1.512   0.071  -0.536  0.00  0.00     0.051 C 
ATOM      6  C   UNL d   1       1.082   2.394  -1.139  0.00  0.00     0.267 C 
ATOM      7  C   UNL d   1      -0.735  -1.117   0.017  0.00  0.00     0.150 C 
ATOM      8  S   UNL d   1       2.920   0.322   0.574  0.00  0.00    -0.040 SA
ATOM      9  O   UNL d   1      -1.301   2.016   0.851  0.00  0.00    -0.272 OA
ATOM     10  O   UNL d   1       2.219   2.372  -1.615  0.00  0.00    -0.267 OA
ATOM     11  C   UNL d   1      -1.538   0.085  -2.069  0.00  0.00     0.027 C 
ATOM     12  C   UNL d   1      -2.956   0.027  -0.011  0.00  0.00     0.027 C 
ENDROOT
BRANCH   6  13
ATOM     13  C   UNL d   1       0.215   3.479  -1.690  0.00  0.00     0.033 A 
ATOM     14  C   UNL d   1      -0.702   4.222  -0.944  0.00  0.00     0.018 A 
ATOM     15  C   UNL d   1      -1.487   5.204  -1.563  0.00  0.00     0.025 A 
ATOM     16  C   UNL d   1      -1.315   5.490  -2.916  0.00  0.00     0.034 A 
ATOM     17  C   UNL d   1      -0.360   4.806  -3.659  0.00  0.00     0.025 A 
ATOM     18 CL   UNL d   1      -2.269   6.708  -3.664  0.00  0.00    -0.084 Cl
ATOM     19  C   UNL d   1       0.396   3.802  -3.049  0.00  0.00     0.018 A 
ENDBRANCH   6  13
BRANCH   3  20
ATOM     20  C   UNL d   1       1.331  -2.066  -0.982  0.00  0.00     0.070 A 
ATOM     21  C   UNL d   1       1.068  -3.426  -0.730  0.00  0.00     0.095 A 
ATOM     22  C   UNL d   1       1.604  -4.421  -1.555  0.00  0.00     0.039 A 
ATOM     23  C   UNL d   1       2.434  -4.082  -2.623  0.00  0.00     0.003 A 
ATOM     24  C   UNL d   1       2.724  -2.745  -2.872  0.00  0.00     0.002 A 
ATOM     25  C   UNL d   1       2.179  -1.748  -2.059  0.00  0.00     0.033 A 
BRANCH  21  26
ATOM     26  O   UNL d   1       0.281  -3.869   0.301  0.00  0.00    -0.354 OA
ATOM     27  C   UNL d   1       0.911  -3.675   1.569  0.00  0.00     0.210 C 
ENDBRANCH  21  26
ENDBRANCH   3  20
TORSDOF 3
