REMARK  6 active torsions:
REMARK  status: ('A' for Active; 'I' for Inactive)
REMARK    1  A    between atoms: C_2  and  C_1 
REMARK    2  A    between atoms: C_4  and  C_2 
REMARK    3  A    between atoms: N_7  and  C_3 
REMARK    4  A    between atoms: O_6  and  C_10 
REMARK    5  A    between atoms: C_11  and  O_6 
REMARK    6  A    between atoms: O_19  and  C_12 
ROOT
ATOM      1  C   UNL d   1       0.926  -0.665   2.595  0.00  0.00     0.014 A 
ATOM      2  C   UNL d   1       1.966   0.156   3.050  0.00  0.00     0.018 A 
ATOM      3  C   UNL d   1       0.526  -1.767   3.360  0.00  0.00     0.018 A 
ATOM      4  C   UNL d   1       2.288  -1.305   4.953  0.00  0.00     0.076 A 
ATOM      5  C   UNL d   1       2.634  -0.156   4.236  0.00  0.00     0.038 A 
ATOM      6  C   UNL d   1       1.210  -2.088   4.536  0.00  0.00     0.038 A 
ENDROOT
BRANCH   4   7
ATOM      7  O   UNL d   1       2.922  -1.698   6.111  0.00  0.00    -0.311 OA
BRANCH   7   8
ATOM      8  C   UNL d   1       4.288  -1.544   6.201  0.00  0.00     0.076 A 
ATOM      9  C   UNL d   1       4.794  -1.196   7.454  0.00  0.00     0.040 A 
ATOM     10  C   UNL d   1       6.168  -1.000   7.629  0.00  0.00     0.039 A 
ATOM     11  C   UNL d   1       7.038  -1.154   6.548  0.00  0.00     0.068 A 
ATOM     12  C   UNL d   1       6.535  -1.562   5.312  0.00  0.00     0.039 A 
ATOM     13  C   UNL d   1       5.166  -1.772   5.138  0.00  0.00     0.040 A 
BRANCH  11  14
ATOM     14  O   UNL d   1       8.391  -0.963   6.591  0.00  0.00    -0.356 OA
ATOM     15  C   UNL d   1       8.853  -0.050   7.580  0.00  0.00     0.210 C 
ENDBRANCH  11  14
ENDBRANCH   7   8
ENDBRANCH   4   7
BRANCH   1  16
ATOM     16  C   UNL d   1       0.211  -0.378   1.325  0.00  0.00     0.183 C 
ATOM     17  O   UNL d   1      -0.984  -0.629   1.216  0.00  0.00    -0.288 OA
BRANCH  16  18
ATOM     18  C   UNL d   1       1.027   0.165   0.205  0.00  0.00     0.072 C 
ATOM     19  C   UNL d   1       0.434   0.729  -0.854  0.00  0.00     0.088 C 
BRANCH  19  20
ATOM     20  N   UNL d   1       1.000   1.288  -1.993  0.00  0.00    -0.398 N 
ATOM     21  C   UNL d   1       2.432   1.324  -2.283  0.00  0.00     0.148 C 
ATOM     22  C   UNL d   1       0.175   1.969  -2.994  0.00  0.00     0.148 C 
ENDBRANCH  19  20
ENDBRANCH  16  18
ENDBRANCH   1  16
TORSDOF 6
