REMARK  3 active torsions:
REMARK  status: ('A' for Active; 'I' for Inactive)
REMARK    1  A    between atoms: C_6  and  N_1 
REMARK    2  A    between atoms: N_17  and  C_5 
REMARK    3  A    between atoms: C_8  and  C_11 
ROOT
ATOM      1  N   UNL d   1      -0.365   1.034  -0.025  0.00  0.00    -0.248 N 
ATOM      2  N   UNL d   1      -0.816   0.151   0.905  0.00  0.00    -0.277 N 
ATOM      3  HN  UNL d   1      -1.436   0.340   1.692  1.00  0.00     0.189 HD
ATOM      4  C   UNL d   1       0.548  -0.893  -0.577  0.00  0.00     0.106 A 
ATOM      5  C   UNL d   1      -0.271  -1.011   0.562  0.00  0.00     0.136 A 
ATOM      6  C   UNL d   1       0.469   0.431  -0.940  0.00  0.00     0.145 A 
ATOM      7  C   UNL d   1       1.306  -1.900  -1.236  0.00  0.00     0.105 C 
ATOM      8  N   UNL d   1       1.920  -2.728  -1.770  0.00  0.00    -0.191 NA
ENDROOT
BRANCH   5   9
ATOM      9  N   UNL d   1      -0.500  -2.135   1.251  0.00  0.00    -0.383 N 
ATOM     10  H   UNL d   1      -1.192  -2.122   1.992  0.00  0.00     0.157 HD
ATOM     11  H   UNL d   1      -0.210  -3.058   0.950  0.00  0.00     0.157 HD
ENDBRANCH   5   9
BRANCH   1  12
ATOM     12  C   UNL d   1      -0.751   2.408  -0.015  0.00  0.00     0.127 A 
ATOM     13  N   UNL d   1      -0.319   3.207  -1.028  0.00  0.00    -0.345 N 
ATOM     14  C   UNL d   1      -0.706   4.503  -1.024  0.00  0.00     0.007 A 
ATOM     15  HN  UNL d   1       0.280   2.839  -1.768  1.00  0.00     0.167 HD
ATOM     16  C   UNL d   1      -0.253   5.362  -2.167  0.00  0.00     0.068 C 
ATOM     17  C   UNL d   1      -1.505   5.041  -0.021  0.00  0.00     0.041 A 
ATOM     18  C   UNL d   1      -1.934   4.220   1.028  0.00  0.00     0.053 A 
ATOM     19  C   UNL d   1      -1.555   2.874   1.021  0.00  0.00     0.066 A 
BRANCH  18  20
ATOM     20  C   UNL d   1      -2.782   4.783   2.137  0.00  0.00     0.417 C 
ATOM     21  F   UNL d   1      -3.126   3.866   3.083  0.00  0.00    -0.166 F 
ATOM     22  F   UNL d   1      -2.155   5.790   2.804  0.00  0.00    -0.166 F 
ATOM     23  F   UNL d   1      -3.952   5.308   1.681  0.00  0.00    -0.166 F 
ENDBRANCH  18  20
ENDBRANCH   1  12
TORSDOF 3
