REMARK  9 active torsions:
REMARK  status: ('A' for Active; 'I' for Inactive)
REMARK    1  A    between atoms: C_2  and  C_1 
REMARK       I    between atoms: N_13  and  C_2 
REMARK    2  A    between atoms: N_3  and  C_5 
REMARK    3  A    between atoms: O_22  and  C_6 
REMARK    4  A    between atoms: N_10  and  C_7 
REMARK    5  A    between atoms: C_17  and  C_8 
REMARK    6  A    between atoms: O_24  and  C_9 
REMARK    7  A    between atoms: C_25  and  N_13 
REMARK    8  A    between atoms: C_18  and  C_29 
REMARK    9  A    between atoms: C_29  and  C_25 
ROOT
ATOM      1  C   UNL d   1       1.519  -0.171   0.119  0.00  0.00     0.058 A 
ATOM      2  C   UNL d   1       0.669  -1.295   0.238  0.00  0.00     0.047 A 
ATOM      3  C   UNL d   1       0.970   1.120   0.004  0.00  0.00     0.019 A 
ATOM      4  C   UNL d   1      -0.718  -1.083   0.173  0.00  0.00     0.030 A 
ATOM      5  C   UNL d   1      -0.415   1.301  -0.025  0.00  0.00     0.001 A 
ATOM      6  C   UNL d   1      -1.258   0.198   0.043  0.00  0.00     0.002 A 
ENDROOT
BRANCH   1   7
ATOM      7  C   UNL d   1       3.000  -0.318   0.060  0.00  0.00     0.253 C 
ATOM      8  O   UNL d   1       3.524  -1.195  -0.620  0.00  0.00    -0.268 OA
ATOM      9  N   UNL d   1       3.746   0.572   0.818  0.00  0.00    -0.356 N 
ATOM     10  H   UNL d   1       3.286   1.304   1.344  0.00  0.00     0.162 HD
BRANCH   9  11
ATOM     11  C   UNL d   1       5.195   0.481   0.828  0.00  0.00     0.127 C 
BRANCH  11  12
ATOM     12  C   UNL d   1       5.862   1.176   2.019  0.00  0.00     0.058 C 
BRANCH  12  13
ATOM     13  C   UNL d   1       5.451   0.636   3.371  0.00  0.00    -0.054 A 
ATOM     14  C   UNL d   1       5.688  -0.704   3.728  0.00  0.00     0.046 A 
ATOM     15  C   UNL d   1       5.273  -1.208   4.973  0.00  0.00     0.102 A 
ATOM     16  C   UNL d   1       4.641  -0.347   5.884  0.00  0.00     0.101 A 
ATOM     17  C   UNL d   1       4.411   0.986   5.529  0.00  0.00     0.040 A 
ATOM     18  C   UNL d   1       4.814   1.477   4.287  0.00  0.00     0.010 A 
BRANCH  15  19
ATOM     19  O   UNL d   1       5.340  -2.541   5.282  0.00  0.00    -0.353 OA
ATOM     20  C   UNL d   1       6.497  -3.241   4.843  0.00  0.00     0.210 C 
ENDBRANCH  15  19
BRANCH  16  21
ATOM     21  O   UNL d   1       4.165  -0.665   7.130  0.00  0.00    -0.353 OA
ATOM     22  C   UNL d   1       4.850  -1.697   7.830  0.00  0.00     0.210 C 
ENDBRANCH  16  21
ENDBRANCH  12  13
ENDBRANCH  11  12
ENDBRANCH   9  11
ENDBRANCH   1   7
BRANCH   2  23
ATOM     23  N   UNL d   1       1.069  -2.638   0.443  0.00  0.00    -0.364 N 
ATOM     24  C   UNL d   1       1.949  -2.855   1.365  0.00  0.00     0.099 C 
ATOM     25  HN  UNL d   1       0.681  -3.400  -0.112  1.00  0.00     0.165 HD
BRANCH  24  26
ATOM     26  C   UNL d   1       2.418  -4.195   1.756  0.00  0.00    -0.021 A 
ATOM     27  C   UNL d   1       1.801  -5.361   1.309  0.00  0.00     0.015 A 
ATOM     28  C   UNL d   1       2.184  -6.593   1.859  0.00  0.00     0.030 A 
ATOM     29  C   UNL d   1       3.190  -6.691   2.838  0.00  0.00     0.029 A 
ATOM     30  C   UNL d   1       3.834  -5.501   3.207  0.00  0.00     0.030 A 
ATOM     31  C   UNL d   1       3.454  -4.266   2.680  0.00  0.00     0.015 A 
BRANCH  29  32
ATOM     32  N   UNL d   1       3.509  -7.884   3.460  0.00  0.00    -0.390 N 
ATOM     33  C   UNL d   1       2.515  -8.932   3.637  0.00  0.00     0.149 C 
ATOM     34  C   UNL d   1       4.893  -8.229   3.748  0.00  0.00     0.149 C 
ENDBRANCH  29  32
ENDBRANCH  24  26
ENDBRANCH   2  23
TORSDOF 9
