REMARK  5 active torsions:
REMARK  status: ('A' for Active; 'I' for Inactive)
REMARK    1  A    between atoms: C_7  and  C_3 
REMARK    2  A    between atoms: C_6  and  O_11 
REMARK    3  A    between atoms: C_8  and  C_6 
REMARK    4  A    between atoms: C_18  and  C_7 
REMARK    5  A    between atoms: O_11  and  C_19 
ROOT
ATOM      1  C   UNL d   1      -3.140   1.059  -0.244  0.00  0.00    -0.034 A 
ATOM      2  C   UNL d   1      -5.699  -0.065  -0.117  0.00  0.00     0.079 A 
ATOM      3  C   UNL d   1      -3.412   0.010   0.644  0.00  0.00     0.014 A 
ATOM      4  C   UNL d   1      -4.158   1.538  -1.075  0.00  0.00     0.014 A 
ATOM      5  C   UNL d   1      -5.440   0.980  -1.007  0.00  0.00     0.038 A 
ATOM      6  C   UNL d   1      -4.692  -0.551   0.713  0.00  0.00     0.038 A 
ENDROOT
BRANCH   2   7
ATOM      7  O   UNL d   1      -7.047  -0.486  -0.026  0.00  0.00    -0.275 OA
BRANCH   7   8
ATOM      8  C   UNL d   1      -7.405  -1.779   0.336  0.00  0.00     0.298 C 
ATOM      9  O   UNL d   1      -6.666  -2.742   0.447  0.00  0.00    -0.259 OA
BRANCH   8  10
ATOM     10  C   UNL d   1      -8.871  -1.838   0.625  0.00  0.00     0.041 A 
ATOM     11  C   UNL d   1      -9.413  -3.064   1.046  0.00  0.00     0.044 A 
ATOM     12  C   UNL d   1     -10.758  -3.148   1.416  0.00  0.00     0.073 A 
ATOM     13 CL   UNL d   1     -11.397  -4.652   1.958  0.00  0.00    -0.081 Cl
ATOM     14  C   UNL d   1     -11.567  -2.015   1.361  0.00  0.00     0.138 A 
ATOM     15  C   UNL d   1     -11.050  -0.801   0.917  0.00  0.00     0.045 A 
ATOM     16  F   UNL d   1     -12.851  -2.068   1.741  0.00  0.00    -0.204 F 
ATOM     17  C   UNL d   1      -9.705  -0.711   0.545  0.00  0.00     0.021 A 
ENDBRANCH   8  10
ENDBRANCH   7   8
ENDBRANCH   2   7
BRANCH   1  18
ATOM     18  C   UNL d   1      -1.791   1.626  -0.291  0.00  0.00     0.046 C 
BRANCH  18  19
ATOM     19  C   UNL d   1      -0.823   1.145  -1.074  0.00  0.00     0.105 A 
ATOM     20  C   UNL d   1       0.598   1.615  -1.093  0.00  0.00     0.276 A 
ATOM     21  N   UNL d   1       1.208   0.812  -2.016  0.00  0.00    -0.274 N 
ATOM     22  O   UNL d   1       1.094   2.498  -0.422  0.00  0.00    -0.266 OA
ATOM     23  C   UNL d   1       0.327  -0.085  -2.562  0.00  0.00     0.327 A 
ATOM     24  H   UNL d   1       2.183   0.855  -2.256  0.00  0.00     0.173 HD
ATOM     25  N   UNL d   1      -0.908   0.131  -1.981  0.00  0.00    -0.304 N 
ATOM     26  O   UNL d   1       0.585  -0.924  -3.408  0.00  0.00    -0.247 OA
ATOM     27  H   UNL d   1      -1.738  -0.402  -2.203  0.00  0.00     0.171 HD
ENDBRANCH  18  19
ENDBRANCH   1  18
TORSDOF 5
