REMARK  6 active torsions:
REMARK  status: ('A' for Active; 'I' for Inactive)
REMARK    1  A    between atoms: N_3  and  C_1 
REMARK    2  A    between atoms: N_4  and  C_1 
REMARK    3  A    between atoms: C_8  and  N_2 
REMARK    4  A    between atoms: C_14  and  N_3 
REMARK    5  A    between atoms: C_11  and  N_4 
REMARK    6  A    between atoms: C_15  and  C_8 
ROOT
ATOM      1  N   UNL d   1      -2.151   0.045   2.390  0.00  0.00     0.092 N 
ATOM      2  C   UNL d   1      -2.027   0.116  -0.107  0.00  0.00     0.055 C 
ATOM      3  C   UNL d   1      -1.736  -2.037   1.060  0.00  0.00     0.055 C 
ATOM      4  C   UNL d   1      -1.278  -1.213  -0.153  0.00  0.00     0.087 C 
ATOM      5  C   UNL d   1      -1.497  -1.274   2.372  0.00  0.00     0.275 C 
ATOM      6  C   UNL d   1      -1.788   0.849   1.206  0.00  0.00     0.275 C 
ENDROOT
BRANCH   4   7
ATOM      7  N   UNL d   1       0.193  -1.149  -0.139  0.00  0.00    -0.362 N 
ATOM      8  H   UNL d   1       0.626  -1.764   0.539  0.00  0.00     0.162 HD
BRANCH   7   9
ATOM      9  C   UNL d   1       1.109  -0.581  -0.985  0.00  0.00     0.172 C 
ATOM     10  S   UNL d   1       0.878   0.700  -2.017  0.00  0.00    -0.041 SA
BRANCH   9  11
ATOM     11  N   UNL d   1       2.374  -1.114  -0.849  0.00  0.00    -0.332 N 
ATOM     12  H   UNL d   1       3.143  -0.517  -1.126  0.00  0.00     0.168 HD
BRANCH  11  13
ATOM     13  C   UNL d   1       2.670  -2.480  -0.633  0.00  0.00     0.049 A 
ATOM     14  C   UNL d   1       1.788  -3.506  -0.972  0.00  0.00     0.117 A 
ATOM     15  N   UNL d   1       2.021  -4.820  -0.747  0.00  0.00    -0.373 N 
ATOM     16  C   UNL d   1       3.200  -5.127  -0.171  0.00  0.00     0.088 A 
ATOM     17  HN  UNL d   1       1.342  -5.538  -0.998  1.00  0.00     0.164 HD
ATOM     18  C   UNL d   1       4.158  -4.184   0.173  0.00  0.00     0.019 A 
ATOM     19  C   UNL d   1       3.895  -2.838  -0.081  0.00  0.00     0.032 A 
ENDBRANCH  11  13
ENDBRANCH   9  11
ENDBRANCH   7   9
ENDBRANCH   4   7
BRANCH   1  20
ATOM     20  C   UNL d   1      -1.780   0.824   3.594  0.00  0.00     0.311 C 
BRANCH  20  21
ATOM     21  C   UNL d   1      -2.063   0.152   4.919  0.00  0.00    -0.030 A 
ATOM     22  C   UNL d   1      -1.006  -0.169   5.786  0.00  0.00     0.009 A 
ATOM     23  C   UNL d   1      -1.257  -0.762   7.023  0.00  0.00     0.001 A 
ATOM     24  C   UNL d   1      -2.566  -1.043   7.406  0.00  0.00     0.000 A 
ATOM     25  C   UNL d   1      -3.625  -0.731   6.553  0.00  0.00     0.001 A 
ATOM     26  C   UNL d   1      -3.375  -0.137   5.314  0.00  0.00     0.009 A 
ENDBRANCH  20  21
ENDBRANCH   1  20
TORSDOF 6
