REMARK  7 active torsions:
REMARK  status: ('A' for Active; 'I' for Inactive)
REMARK    1  A    between atoms: N_4  and  C_1 
REMARK    2  A    between atoms: N_6  and  C_1 
REMARK    3  A    between atoms: C_2  and  O_10 
REMARK       I    between atoms: C_3  and  N_5 
REMARK    4  A    between atoms: C_9  and  C_3 
REMARK    5  A    between atoms: C_7  and  N_4 
REMARK    6  A    between atoms: N_5  and  N_6 
REMARK    7  A    between atoms: O_10  and  C_18 
ROOT
ATOM      1  C   UNL d   1      -1.823   1.194   2.143  0.00  0.00     0.270 C 
ATOM      2  N   UNL d   1      -1.220   0.536   1.098  0.00  0.00    -0.264 N 
ATOM      3  O   UNL d   1      -1.222   1.624   3.127  0.00  0.00    -0.266 OA
ATOM      4  H   UNL d   1      -1.730  -0.004   0.402  0.00  0.00     0.190 HD
ENDROOT
BRANCH   2   5
ATOM      5  N   UNL d   1       0.156   0.356   1.169  0.00  0.00    -0.273 N 
ATOM      6  H   UNL d   1       0.664   1.095   1.653  0.00  0.00     0.189 HD
BRANCH   5   7
ATOM      7  C   UNL d   1       0.840  -0.579   0.433  0.00  0.00     0.191 C 
ATOM      8  S   UNL d   1       0.148  -1.595  -0.701  0.00  0.00    -0.039 SA
BRANCH   7   9
ATOM      9  N   UNL d   1       2.199  -0.594   0.625  0.00  0.00    -0.331 N 
ATOM     10  H   UNL d   1       2.754  -0.944  -0.150  0.00  0.00     0.168 HD
BRANCH   9  11
ATOM     11  C   UNL d   1       2.912  -0.236   1.795  0.00  0.00     0.056 A 
ATOM     12  C   UNL d   1       4.262   0.135   1.714  0.00  0.00     0.060 A 
ATOM     13 CL   UNL d   1       5.071   0.247   0.190  0.00  0.00    -0.082 Cl
ATOM     14  C   UNL d   1       4.974   0.475   2.869  0.00  0.00     0.026 A 
ATOM     15  C   UNL d   1       4.353   0.416   4.117  0.00  0.00     0.002 A 
ATOM     16  C   UNL d   1       3.023   0.014   4.212  0.00  0.00     0.002 A 
ATOM     17  C   UNL d   1       2.309  -0.311   3.059  0.00  0.00     0.031 A 
ENDBRANCH   9  11
ENDBRANCH   7   9
ENDBRANCH   5   7
ENDBRANCH   2   5
BRANCH   1  18
ATOM     18  C   UNL d   1      -3.291   1.376   2.030  0.00  0.00     0.033 A 
ATOM     19  C   UNL d   1      -4.079   1.326   3.186  0.00  0.00     0.020 A 
ATOM     20  C   UNL d   1      -5.459   1.555   3.113  0.00  0.00     0.038 A 
ATOM     21  C   UNL d   1      -6.048   1.883   1.893  0.00  0.00     0.078 A 
ATOM     22  C   UNL d   1      -5.261   1.899   0.736  0.00  0.00     0.038 A 
ATOM     23  C   UNL d   1      -3.889   1.655   0.798  0.00  0.00     0.020 A 
BRANCH  21  24
ATOM     24  O   UNL d   1      -7.359   2.174   1.677  0.00  0.00    -0.255 OA
BRANCH  24  25
ATOM     25  C   UNL d   1      -8.149   2.725   2.721  0.00  0.00     0.530 C 
ATOM     26  F   UNL d   1      -7.435   3.189   3.768  0.00  0.00    -0.144 F 
ATOM     27  F   UNL d   1      -8.856   3.761   2.216  0.00  0.00    -0.144 F 
ATOM     28  F   UNL d   1      -9.022   1.794   3.161  0.00  0.00    -0.144 F 
ENDBRANCH  24  25
ENDBRANCH  21  24
ENDBRANCH   1  18
TORSDOF 7
