REMARK  6 active torsions:
REMARK  status: ('A' for Active; 'I' for Inactive)
REMARK    1  A    between atoms: S_8  and  C_2 
REMARK    2  A    between atoms: S_9  and  C_3 
REMARK    3  A    between atoms: C_10  and  S_9 
REMARK    4  A    between atoms: C_11  and  C_10 
REMARK    5  A    between atoms: C_13  and  C_11 
REMARK    6  A    between atoms: C_12  and  C_13 
ROOT
ATOM      1  S   UNL d   1       0.880  -1.155  -0.006  0.00  0.00    -0.038 SA
ATOM      2  C   UNL d   1      -0.151   0.207  -0.001  0.00  0.00     0.126 A 
ATOM      3  C   UNL d   1       2.200  -0.056  -0.007  0.00  0.00     0.129 A 
ATOM      4  N   UNL d   1       0.470   1.365   0.000  0.00  0.00    -0.287 N 
ATOM      5  HN  UNL d   1      -0.005   2.268   0.003  1.00  0.00     0.188 HD
ATOM      6  N   UNL d   1       1.848   1.213  -0.003  0.00  0.00    -0.287 N 
ATOM      7  HN  UNL d   1       2.509   1.990  -0.003  1.00  0.00     0.188 HD
ENDROOT
BRANCH   3   8
ATOM      8  S   UNL d   1       3.858  -0.607  -0.012  0.00  0.00    -0.103 SA
BRANCH   8   9
ATOM      9  C   UNL d   1       4.792   0.954  -0.010  0.00  0.00     0.081 C 
BRANCH   9  10
ATOM     10  C   UNL d   1       6.290   0.629  -0.015  0.00  0.00     0.010 C 
BRANCH  10  11
ATOM     11  C   UNL d   1       7.159   1.890  -0.014  0.00  0.00     0.000 C 
BRANCH  11  12
ATOM     12  C   UNL d   1       8.650   1.535  -0.017  0.00  0.00    -0.005 C 
ATOM     13  C   UNL d   1       9.529   2.776  -0.016  0.00  0.00     0.005 C 
ENDBRANCH  11  12
ENDBRANCH  10  11
ENDBRANCH   9  10
ENDBRANCH   8   9
ENDBRANCH   3   8
BRANCH   2  14
ATOM     14  S   UNL d   1      -1.894   0.087   0.004  0.00  0.00    -0.117 SA
ATOM     15  H   UNL d   1      -1.975  -1.250   0.007  0.00  0.00     0.109 HD
ENDBRANCH   2  14
TORSDOF 6
