REMARK  4 active torsions:
REMARK  status: ('A' for Active; 'I' for Inactive)
REMARK    1  A    between atoms: C_5  and  C_1 
REMARK    2  A    between atoms: C_7  and  C_6 
REMARK    3  A    between atoms: N_15  and  C_7 
REMARK    4  A    between atoms: O_16  and  N_13 
ROOT
ATOM      1  S   UNL d   1       6.065  -7.652   0.596  0.00  0.00    -0.085 SA
ATOM      2  C   UNL d   1       6.005  -8.489  -0.890  0.00  0.00     0.033 A 
ATOM      3  C   UNL d   1       5.009  -6.421   0.037  0.00  0.00     0.045 A 
ATOM      4  C   UNL d   1       5.165  -7.868  -1.790  0.00  0.00     0.023 A 
ATOM      5  C   UNL d   1       4.587  -6.680  -1.254  0.00  0.00     0.024 A 
ENDROOT
BRANCH   3   6
ATOM      6  C   UNL d   1       4.671  -5.292   0.896  0.00  0.00     0.115 C 
ATOM      7  N   UNL d   1       3.848  -4.406   0.396  0.00  0.00    -0.257 N 
ATOM      8  HN  UNL d   1       3.455  -4.453  -0.544  1.00  0.00     0.195 HD
BRANCH   7   9
ATOM      9  O   UNL d   1       3.571  -3.380   1.320  0.00  0.00    -0.289 OA
ATOM     10  H   UNL d   1       3.033  -2.767   0.785  0.00  0.00     0.244 HD
ENDBRANCH   7   9
BRANCH   6  11
ATOM     11  N   UNL d   1       5.162  -5.144   2.173  0.00  0.00    -0.286 NA
ATOM     12  H   UNL d   1       5.314  -6.010   2.674  0.00  0.00     0.125 HD
ATOM     13  H   UNL d   1       4.614  -4.457   2.682  0.00  0.00     0.125 HD
ENDBRANCH   6  11
ENDBRANCH   3   6
BRANCH   2  14
ATOM     14  C   UNL d   1       6.772  -9.737  -1.212  0.00  0.00     0.056 A 
ATOM     15  N   UNL d   1       6.719 -10.296  -2.481  0.00  0.00    -0.353 N 
ATOM     16  C   UNL d   1       7.501 -11.352  -2.540  0.00  0.00     0.047 A 
ATOM     17  HN  UNL d   1       6.157  -9.939  -3.254  1.00  0.00     0.166 HD
ATOM     18  C   UNL d   1       7.720 -12.168  -3.765  0.00  0.00     0.076 C 
ATOM     19  S   UNL d   1       8.300 -11.766  -1.076  0.00  0.00    -0.087 SA
ATOM     20  C   UNL d   1       7.579 -10.408  -0.316  0.00  0.00     0.082 A 
ENDBRANCH   2  14
TORSDOF 4
