REMARK  4 active torsions:
REMARK  status: ('A' for Active; 'I' for Inactive)
REMARK    1  A    between atoms: C_6  and  C_1 
REMARK    2  A    between atoms: N_9  and  C_2 
REMARK    3  A    between atoms: C_12  and  N_3 
REMARK       I    between atoms: C_8  and  N_9 
REMARK       I    between atoms: N_10  and  C_8 
REMARK    4  A    between atoms: C_11  and  N_10 
ROOT
ATOM      1  C   UNL d   1       1.206  -0.969   0.233  0.00  0.00     0.168 C 
ATOM      2  C   UNL d   1      -0.123  -1.293   0.447  0.00  0.00     0.087 C 
ATOM      3  N   UNL d   1       1.334   0.361   0.584  0.00  0.00    -0.250 N 
ATOM      4  N   UNL d   1       0.292   0.750   1.369  0.00  0.00    -0.302 N 
ATOM      5  HN  UNL d   1       0.218   1.590   1.943  1.00  0.00     0.186 HD
ATOM      6  C   UNL d   1      -0.610  -0.218   1.216  0.00  0.00     0.139 C 
ENDROOT
BRANCH   2   7
ATOM      7  N   UNL d   1      -0.837  -2.432   0.101  0.00  0.00    -0.305 N 
ATOM      8  C   UNL d   1      -0.521  -3.239  -0.949  0.00  0.00     0.325 C 
ATOM      9  N   UNL d   1      -1.358  -4.264  -1.253  0.00  0.00    -0.307 N 
ATOM     10  O   UNL d   1       0.396  -3.014  -1.746  0.00  0.00    -0.247 OA
ATOM     11  H   UNL d   1      -1.156  -4.584  -2.195  0.00  0.00     0.170 HD
ATOM     12  H   UNL d   1      -1.771  -2.525   0.475  0.00  0.00     0.171 HD
BRANCH   9  13
ATOM     13  C   UNL d   1      -2.434  -4.902  -0.610  0.00  0.00     0.058 A 
ATOM     14  C   UNL d   1      -2.572  -5.175   0.761  0.00  0.00     0.062 A 
ATOM     15  C   UNL d   1      -3.649  -5.952   1.218  0.00  0.00     0.050 A 
ATOM     16 CL   UNL d   1      -1.399  -4.740   1.949  0.00  0.00    -0.082 Cl
ATOM     17  C   UNL d   1      -4.595  -6.442   0.320  0.00  0.00     0.035 A 
ATOM     18  C   UNL d   1      -4.493  -6.151  -1.033  0.00  0.00     0.026 A 
ATOM     19 CL   UNL d   1      -5.875  -7.446   0.877  0.00  0.00    -0.084 Cl
ATOM     20  C   UNL d   1      -3.409  -5.401  -1.493  0.00  0.00     0.033 A 
ENDBRANCH   9  13
ENDBRANCH   2   7
BRANCH   1  21
ATOM     21  C   UNL d   1       2.384  -1.791  -0.089  0.00  0.00     0.436 C 
ATOM     22  F   UNL d   1       2.197  -3.108   0.191  0.00  0.00    -0.164 F 
ATOM     23  F   UNL d   1       2.778  -1.705  -1.382  0.00  0.00    -0.164 F 
ATOM     24  F   UNL d   1       3.458  -1.421   0.664  0.00  0.00    -0.164 F 
ENDBRANCH   1  21
BRANCH   3  25
ATOM     25  C   UNL d   1       2.321   1.325   0.216  0.00  0.00     0.057 A 
ATOM     26  C   UNL d   1       3.039   1.219  -0.982  0.00  0.00     0.033 A 
ATOM     27  C   UNL d   1       3.970   2.204  -1.336  0.00  0.00     0.026 A 
ATOM     28  C   UNL d   1       4.180   3.298  -0.501  0.00  0.00     0.034 A 
ATOM     29  C   UNL d   1       3.458   3.426   0.682  0.00  0.00     0.026 A 
ATOM     30 CL   UNL d   1       5.318   4.508  -0.949  0.00  0.00    -0.084 Cl
ATOM     31  C   UNL d   1       2.520   2.450   1.035  0.00  0.00     0.033 A 
ENDBRANCH   3  25
TORSDOF 4
