REMARK  4 active torsions:
REMARK  status: ('A' for Active; 'I' for Inactive)
REMARK    1  A    between atoms: O_12  and  C_1 
REMARK    2  A    between atoms: N_4  and  C_6 
REMARK    3  A    between atoms: C_9  and  O_12 
REMARK    4  A    between atoms: N_13  and  C_14 
ROOT
ATOM      1  C   UNL d   1       4.252   2.256   1.024  0.00  0.00     0.136 A 
ATOM      2  C   UNL d   1       4.388   1.383  -0.058  0.00  0.00     0.113 A 
ATOM      3  C   UNL d   1       5.301   1.709  -1.081  0.00  0.00     0.069 A 
ATOM      4  C   UNL d   1       6.055   2.892  -1.090  0.00  0.00     0.033 A 
ATOM      5  C   UNL d   1       4.979   3.456   1.039  0.00  0.00     0.041 A 
ATOM      6  C   UNL d   1       5.858   3.762  -0.009  0.00  0.00     0.032 A 
ENDROOT
BRANCH   2   7
ATOM      7  O   UNL d   1       3.726   0.176  -0.092  0.00  0.00    -0.285 OA
BRANCH   7   8
ATOM      8  C   UNL d   1       3.286  -0.344  -1.243  0.00  0.00     0.193 A 
ATOM      9  N   UNL d   1       2.923   0.382  -2.272  0.00  0.00    -0.328 N 
ATOM     10  C   UNL d   1       2.569  -0.437  -3.340  0.00  0.00     0.074 A 
ATOM     11  HN  UNL d   1       2.903   1.402  -2.288  1.00  0.00     0.168 HD
ATOM     12  C   UNL d   1       2.134  -0.056  -4.628  0.00  0.00     0.063 A 
ATOM     13  C   UNL d   1       2.674  -1.807  -3.079  0.00  0.00     0.039 A 
ATOM     14  C   UNL d   1       1.812  -0.993  -5.606  0.00  0.00     0.050 A 
ATOM     15 CL   UNL d   1       2.029   1.625  -4.927  0.00  0.00    -0.082 Cl
ATOM     16  C   UNL d   1       1.935  -2.342  -5.309  0.00  0.00     0.037 A 
ATOM     17  C   UNL d   1       2.372  -2.777  -4.053  0.00  0.00     0.045 A 
ATOM     18 CL   UNL d   1       1.539  -3.512  -6.509  0.00  0.00    -0.084 Cl
ATOM     19  S   UNL d   1       3.197  -2.037  -1.453  0.00  0.00    -0.044 SA
ENDBRANCH   7   8
ENDBRANCH   2   7
BRANCH   1  20
ATOM     20  N   UNL d   1       3.389   1.951   2.176  0.00  0.00    -0.113 N 
ATOM     21  O   UNL d   1       2.824   0.852   2.228  0.00  0.00    -0.532 OA
ATOM     22  O   UNL d   1       3.287   2.821   3.056  0.00  0.00    -0.532 OA
ENDBRANCH   1  20
BRANCH   4  23
ATOM     23  N   UNL d   1       6.979   3.161  -2.083  0.00  0.00    -0.379 N 
ATOM     24  C   UNL d   1       7.638   2.083  -2.841  0.00  0.00     0.133 C 
ATOM     25  C   UNL d   1       7.095   1.959  -4.266  0.00  0.00     0.093 C 
ATOM     26  S   UNL d   1       7.374   3.487  -5.225  0.00  0.00    -0.166 SA
ATOM     27  C   UNL d   1       6.599   4.649  -4.047  0.00  0.00     0.093 C 
ATOM     28  C   UNL d   1       7.156   4.521  -2.622  0.00  0.00     0.133 C 
ENDBRANCH   4  23
TORSDOF 4
