REMARK  5 active torsions:
REMARK  status: ('A' for Active; 'I' for Inactive)
REMARK    1  A    between atoms: C_2  and  S_1 
REMARK    2  A    between atoms: C_7  and  S_1 
REMARK    3  A    between atoms: S_3  and  N_4 
REMARK    4  A    between atoms: C_10  and  S_3 
REMARK    5  A    between atoms: N_4  and  C_6 
ROOT
ATOM      1  C   UNL d   1       0.496  -0.613  -1.417  0.00  0.00     0.161 C 
ATOM      2  C   UNL d   1      -0.287  -1.695  -1.542  0.00  0.00     0.132 C 
ATOM      3  C   UNL d   1       0.907  -0.067  -0.182  0.00  0.00     0.113 C 
ATOM      4  N   UNL d   1       1.255   0.394   0.825  0.00  0.00    -0.191 NA
ENDROOT
BRANCH   1   5
ATOM      5  S   UNL d   1       0.931   0.233  -2.856  0.00  0.00     0.233 S 
ATOM      6  O   UNL d   1       0.450   1.601  -2.761  0.00  0.00    -0.215 OA
ATOM      7  O   UNL d   1       0.570  -0.558  -4.025  0.00  0.00    -0.215 OA
BRANCH   5   8
ATOM      8  C   UNL d   1       2.712   0.324  -2.877  0.00  0.00     0.134 A 
ATOM      9  N   UNL d   1       3.340  -0.322  -1.862  0.00  0.00    -0.356 N 
ATOM     10  C   UNL d   1       4.687  -0.227  -1.853  0.00  0.00     0.089 A 
ATOM     11  HN  UNL d   1       2.827  -0.845  -1.152  1.00  0.00     0.166 HD
ATOM     12  C   UNL d   1       5.419   0.448  -2.820  0.00  0.00     0.017 A 
ATOM     13  C   UNL d   1       4.737   1.077  -3.860  0.00  0.00     0.004 A 
ATOM     14  C   UNL d   1       3.349   1.023  -3.891  0.00  0.00     0.042 A 
ENDBRANCH   5   8
ENDBRANCH   1   5
BRANCH   2  15
ATOM     15  N   UNL d   1      -0.794  -2.371  -0.374  0.00  0.00    -0.321 N 
ATOM     16  HN  UNL d   1      -0.619  -1.976   0.551  1.00  0.00     0.175 HD
BRANCH  15  17
ATOM     17  S   UNL d   1      -1.599  -3.686  -0.501  0.00  0.00     0.052 S 
ATOM     18  O   UNL d   1      -1.164  -4.820  -1.295  0.00  0.00    -0.245 OA
ATOM     19  C   UNL d   1      -1.918  -4.292   1.137  0.00  0.00     0.142 C 
BRANCH  17  20
ATOM     20  C   UNL d   1      -3.215  -3.228  -1.115  0.00  0.00     0.038 A 
ATOM     21  C   UNL d   1      -3.685  -3.797  -2.303  0.00  0.00     0.023 A 
ATOM     22  C   UNL d   1      -4.925  -3.404  -2.813  0.00  0.00     0.025 A 
ATOM     23  C   UNL d   1      -5.683  -2.450  -2.135  0.00  0.00     0.034 A 
ATOM     24  C   UNL d   1      -5.218  -1.890  -0.944  0.00  0.00     0.025 A 
ATOM     25 CL   UNL d   1      -7.196  -1.947  -2.781  0.00  0.00    -0.084 Cl
ATOM     26  C   UNL d   1      -3.977  -2.276  -0.429  0.00  0.00     0.023 A 
ENDBRANCH  17  20
ENDBRANCH  15  17
ENDBRANCH   2  15
TORSDOF 5
