REMARK  3 active torsions:
REMARK  status: ('A' for Active; 'I' for Inactive)
REMARK    1  A    between atoms: C_5  and  O_8 
REMARK    2  A    between atoms: C_6  and  N_17 
REMARK    3  A    between atoms: O_8  and  C_9 
ROOT
ATOM      1  C   UNL d   1      -4.929  -2.423  -1.834  0.00  0.00     0.020 A 
ATOM      2  C   UNL d   1      -4.478  -3.436  -1.009  0.00  0.00     0.090 A 
ATOM      3  N   UNL d   1      -3.262  -3.432  -0.424  0.00  0.00    -0.345 N 
ATOM      4  HN  UNL d   1      -2.976  -4.191   0.194  1.00  0.00     0.167 HD
ATOM      5  C   UNL d   1      -2.425  -2.387  -0.682  0.00  0.00     0.181 A 
ATOM      6  C   UNL d   1      -2.812  -1.311  -1.472  0.00  0.00     0.154 A 
ATOM      7  C   UNL d   1      -4.086  -1.339  -2.063  0.00  0.00     0.042 A 
ENDROOT
BRANCH   5   8
ATOM      8  O   UNL d   1      -1.174  -2.432  -0.090  0.00  0.00    -0.291 OA
BRANCH   8   9
ATOM      9  C   UNL d   1      -0.549  -3.661   0.005  0.00  0.00     0.084 A 
ATOM     10  C   UNL d   1       0.227  -3.927   1.145  0.00  0.00    -0.026 A 
ATOM     11  C   UNL d   1       0.906  -5.156   1.235  0.00  0.00     0.033 A 
ATOM     12  C   UNL d   1       0.387  -2.945   2.272  0.00  0.00     0.051 C 
ATOM     13  C   UNL d   1       0.803  -6.099   0.213  0.00  0.00     0.034 A 
ATOM     14  C   UNL d   1       0.049  -5.827  -0.922  0.00  0.00     0.026 A 
ATOM     15 CL   UNL d   1       1.623  -7.606   0.350  0.00  0.00    -0.084 Cl
ATOM     16  C   UNL d   1      -0.609  -4.602  -1.035  0.00  0.00     0.039 A 
ENDBRANCH   8   9
ENDBRANCH   5   8
BRANCH   6  17
ATOM     17  N   UNL d   1      -1.938  -0.172  -1.733  0.00  0.00    -0.111 N 
ATOM     18  O   UNL d   1      -0.789  -0.173  -1.276  0.00  0.00    -0.532 OA
ATOM     19  O   UNL d   1      -2.405   0.752  -2.416  0.00  0.00    -0.532 OA
ENDBRANCH   6  17
TORSDOF 3
