REMARK  5 active torsions:
REMARK  status: ('A' for Active; 'I' for Inactive)
REMARK    1  A    between atoms: C_5  and  C_2 
REMARK    2  A    between atoms: O_14  and  C_4 
REMARK       I    between atoms: N_11  and  C_5 
REMARK    3  A    between atoms: C_8  and  O_13 
REMARK    4  A    between atoms: C_15  and  N_11 
REMARK    5  A    between atoms: O_13  and  C_20 
ROOT
ATOM      1  S   UNL d   1       2.622   0.868  -0.225  0.00  0.00     0.273 S 
ATOM      2  C   UNL d   1       2.455  -0.779   0.188  0.00  0.00     0.181 C 
ATOM      3  N   UNL d   1       1.213   1.675   0.290  0.00  0.00    -0.275 N 
ATOM      4  C   UNL d   1       1.244  -1.253   0.522  0.00  0.00     0.107 C 
ATOM      5  C   UNL d   1      -0.009  -0.478   0.333  0.00  0.00     0.026 A 
ATOM      6  C   UNL d   1      -0.015   0.923   0.138  0.00  0.00     0.057 A 
ATOM      7  O   UNL d   1       2.674   0.958  -1.674  0.00  0.00    -0.200 OA
ATOM      8  O   UNL d   1       3.717   1.437   0.535  0.00  0.00    -0.200 OA
ATOM      9  C   UNL d   1       1.228   3.128   0.025  0.00  0.00     0.170 C 
ATOM     10  C   UNL d   1      -1.236  -1.170   0.301  0.00  0.00     0.016 A 
ATOM     11  C   UNL d   1      -1.244   1.583  -0.028  0.00  0.00     0.031 A 
ATOM     12  C   UNL d   1      -2.442  -0.503   0.092  0.00  0.00     0.001 A 
ATOM     13  C   UNL d   1      -2.446   0.874  -0.071  0.00  0.00     0.002 A 
ENDROOT
BRANCH   2  14
ATOM     14  C   UNL d   1       3.636  -1.667   0.173  0.00  0.00     0.272 C 
ATOM     15  N   UNL d   1       4.603  -1.377  -0.782  0.00  0.00    -0.322 N 
ATOM     16  H   UNL d   1       4.451  -0.591  -1.405  0.00  0.00     0.169 HD
ATOM     17  O   UNL d   1       3.650  -2.620   0.947  0.00  0.00    -0.266 OA
BRANCH  15  18
ATOM     18  C   UNL d   1       5.860  -2.006  -0.918  0.00  0.00     0.035 A 
ATOM     19  C   UNL d   1       6.223  -3.161  -0.236  0.00  0.00     0.032 A 
ATOM     20  C   UNL d   1       7.526  -3.660  -0.332  0.00  0.00     0.039 A 
ATOM     21  C   UNL d   1       8.490  -3.025  -1.117  0.00  0.00     0.078 A 
ATOM     22  C   UNL d   1       8.126  -1.889  -1.833  0.00  0.00     0.039 A 
ATOM     23  C   UNL d   1       6.808  -1.398  -1.752  0.00  0.00     0.032 A 
BRANCH  21  24
ATOM     24  O   UNL d   1       9.706  -3.636  -1.069  0.00  0.00    -0.255 OA
BRANCH  24  25
ATOM     25  C   UNL d   1      10.748  -3.245  -1.941  0.00  0.00     0.530 C 
ATOM     26  F   UNL d   1      10.304  -2.877  -3.162  0.00  0.00    -0.144 F 
ATOM     27  F   UNL d   1      11.461  -2.234  -1.399  0.00  0.00    -0.144 F 
ATOM     28  F   UNL d   1      11.573  -4.301  -2.106  0.00  0.00    -0.144 F 
ENDBRANCH  24  25
ENDBRANCH  21  24
ENDBRANCH  15  18
ENDBRANCH   2  14
BRANCH   4  29
ATOM     29  O   UNL d   1       1.048  -2.548   0.997  0.00  0.00    -0.358 OA
ATOM     30  H   UNL d   1       1.924  -2.933   1.229  0.00  0.00     0.217 HD
ENDBRANCH   4  29
TORSDOF 5
