REMARK  7 active torsions:
REMARK  status: ('A' for Active; 'I' for Inactive)
REMARK    1  A    between atoms: N_5  and  S_1 
REMARK    2  A    between atoms: C_14  and  S_1 
REMARK    3  A    between atoms: C_10  and  C_2 
REMARK    4  A    between atoms: C_4  and  C_3 
REMARK    5  A    between atoms: N_9  and  N_5 
REMARK    6  A    between atoms: C_8  and  N_9 
REMARK    7  A    between atoms: O_23  and  C_10 
ROOT
ATOM      1  C   UNL d   1      -0.203   6.580  -1.058  0.00  0.00     0.087 A 
ATOM      2  C   UNL d   1       1.120   6.274  -0.809  0.00  0.00     0.150 A 
ATOM      3  N   UNL d   1       1.490   5.004  -0.454  0.00  0.00    -0.184 N 
ATOM      4  HN  UNL d   1       2.461   4.798  -0.217  1.00  0.00     0.184 HD
ATOM      5  C   UNL d   1       0.566   4.036  -0.420  0.00  0.00     0.697 A 
ATOM      6  N   UNL d   1      -0.728   4.246  -0.689  0.00  0.00    -0.199 N 
ATOM      7  HN  UNL d   1      -1.410   3.488  -0.666  1.00  0.00     0.183 HD
ATOM      8  C   UNL d   1      -1.084   5.515  -0.992  0.00  0.00     0.126 A 
ENDROOT
BRANCH   5   9
ATOM      9  N   UNL d   1       1.028   2.765  -0.117  0.00  0.00    -0.122 N 
ATOM     10  H   UNL d   1       2.034   2.715   0.013  0.00  0.00     0.206 HD
BRANCH   9  11
ATOM     11  N   UNL d   1       0.294   1.525  -0.281  0.00  0.00    -0.208 N 
ATOM     12  H   UNL d   1      -0.669   1.514  -0.621  0.00  0.00     0.201 HD
BRANCH  11  13
ATOM     13  S   UNL d   1       1.070   0.049  -0.025  0.00  0.00     0.276 S 
ATOM     14  O   UNL d   1       2.423   0.166  -0.517  0.00  0.00    -0.199 OA
ATOM     15  O   UNL d   1       0.172  -0.998  -0.471  0.00  0.00    -0.199 OA
BRANCH  13  16
ATOM     16  C   UNL d   1       1.133   0.014   1.749  0.00  0.00     0.081 A 
ATOM     17  C   UNL d   1       0.090  -0.565   2.473  0.00  0.00     0.026 A 
ATOM     18  C   UNL d   1       0.155  -0.585   3.868  0.00  0.00     0.008 A 
ATOM     19  C   UNL d   1       1.257  -0.034   4.538  0.00  0.00    -0.062 A 
ATOM     20  C   UNL d   1       2.300   0.535   3.797  0.00  0.00     0.008 A 
ATOM     21  C   UNL d   1       1.316  -0.074   6.038  0.00  0.00     0.048 C 
ATOM     22  C   UNL d   1       2.245   0.554   2.404  0.00  0.00     0.026 A 
ENDBRANCH  13  16
ENDBRANCH  11  13
ENDBRANCH   9  11
ENDBRANCH   5   9
BRANCH   2  23
ATOM     23  C   UNL d   1       2.270   7.249  -0.958  0.00  0.00     0.434 C 
ATOM     24  F   UNL d   1       1.999   8.400  -1.630  0.00  0.00    -0.165 F 
ATOM     25  F   UNL d   1       2.794   7.622   0.244  0.00  0.00    -0.165 F 
ATOM     26  F   UNL d   1       3.311   6.696  -1.652  0.00  0.00    -0.165 F 
ENDBRANCH   2  23
BRANCH   1  27
ATOM     27  C   UNL d   1      -0.766   7.879  -1.441  0.00  0.00     0.296 C 
ATOM     28  O   UNL d   1      -1.688   7.984  -2.231  0.00  0.00    -0.259 OA
BRANCH  27  29
ATOM     29  O   UNL d   1      -0.190   8.880  -0.741  0.00  0.00    -0.322 OA
ATOM     30  C   UNL d   1      -0.631  10.183  -1.138  0.00  0.00     0.213 C 
ENDBRANCH  27  29
ENDBRANCH   1  27
TORSDOF 7
