REMARK  2 active torsions:
REMARK  status: ('A' for Active; 'I' for Inactive)
REMARK    1  A    between atoms: C_2  and  S_1 
REMARK    2  A    between atoms: N_3  and  S_1 
ROOT
ATOM      1  S   UNL d   1       1.003   0.068   0.339  0.00  0.00     0.262 S 
ATOM      2  O   UNL d   1       2.443   0.080   0.462  0.00  0.00    -0.200 OA
ATOM      3  O   UNL d   1       0.178   0.757   1.312  0.00  0.00    -0.200 OA
ENDROOT
BRANCH   1   4
ATOM      4  C   UNL d   1       0.497  -1.638   0.338  0.00  0.00     0.102 A 
ATOM      5  C   UNL d   1       1.491  -2.619   0.503  0.00  0.00     0.050 A 
ATOM      6  C   UNL d   1       1.147  -3.970   0.496  0.00  0.00     0.035 A 
ATOM      7 CL   UNL d   1       2.356  -5.166   0.746  0.00  0.00    -0.084 Cl
ATOM      8  C   UNL d   1      -0.174  -4.359   0.302  0.00  0.00     0.025 A 
ATOM      9  C   UNL d   1      -1.166  -3.385   0.176  0.00  0.00     0.027 A 
ATOM     10  C   UNL d   1      -0.843  -2.021   0.221  0.00  0.00     0.057 A 
ATOM     11 CL   UNL d   1      -2.174  -0.928   0.157  0.00  0.00    -0.083 Cl
ENDBRANCH   1   4
BRANCH   1  12
ATOM     12  N   UNL d   1       0.604   0.590  -1.228  0.00  0.00    -0.306 N 
ATOM     13  C   UNL d   1       1.655   0.578  -2.267  0.00  0.00     0.139 C 
ATOM     14  C   UNL d   1       2.463   1.881  -2.185  0.00  0.00     0.000 C 
ATOM     15  C   UNL d   1       3.580   1.906  -3.226  0.00  0.00     0.011 C 
ATOM     16  C   UNL d   1       1.540   3.099  -2.343  0.00  0.00     0.007 C 
ATOM     17  C   UNL d   1       0.332   3.043  -1.405  0.00  0.00     0.021 C 
ATOM     18  C   UNL d   1      -0.369   1.688  -1.405  0.00  0.00     0.135 C 
ENDBRANCH   1  12
TORSDOF 2
