REMARK  4 active torsions:
REMARK  status: ('A' for Active; 'I' for Inactive)
REMARK    1  A    between atoms: C_2  and  C_1 
REMARK       I    between atoms: N_6  and  C_2 
REMARK    2  A    between atoms: C_3  and  O_5 
REMARK       I    between atoms: N_9  and  C_3 
REMARK    3  A    between atoms: O_5  and  C_4 
REMARK    4  A    between atoms: C_11  and  N_6 
ROOT
ATOM      1  C   UNL d   1       2.388  -1.159  -0.629  0.00  0.00     0.067 C 
ATOM      2  C   UNL d   1       2.582  -0.484   0.588  0.00  0.00     0.096 C 
ATOM      3  C   UNL d   1       1.216  -0.910  -1.351  0.00  0.00     0.039 C 
ATOM      4  C   UNL d   1       1.736   0.548   0.997  0.00  0.00     0.040 C 
ATOM      5  C   UNL d   1       0.313   0.052  -0.881  0.00  0.00     0.012 C 
ATOM      6  C   UNL d   1       0.590   0.816   0.254  0.00  0.00     0.022 C 
ATOM      7 BR   UNL d   1      -1.324   0.319  -1.790  0.00  0.00    -0.051 Br
ENDROOT
BRANCH   1   8
ATOM      8  C   UNL d   1       3.457  -2.050  -1.144  0.00  0.00     0.259 C 
ATOM      9  N   UNL d   1       3.053  -3.195  -1.819  0.00  0.00    -0.323 N 
ATOM     10  H   UNL d   1       2.068  -3.428  -1.774  0.00  0.00     0.169 HD
ATOM     11  O   UNL d   1       4.615  -1.708  -0.951  0.00  0.00    -0.267 OA
BRANCH   9  12
ATOM     12  C   UNL d   1       3.897  -4.132  -2.460  0.00  0.00     0.036 A 
ATOM     13  C   UNL d   1       5.284  -3.974  -2.588  0.00  0.00     0.056 A 
ATOM     14  C   UNL d   1       6.058  -4.950  -3.225  0.00  0.00     0.074 A 
ATOM     15 CL   UNL d   1       7.763  -4.734  -3.352  0.00  0.00    -0.081 Cl
ATOM     16  C   UNL d   1       5.454  -6.088  -3.748  0.00  0.00     0.138 A 
ATOM     17  C   UNL d   1       4.075  -6.255  -3.644  0.00  0.00     0.046 A 
ATOM     18  F   UNL d   1       6.176  -7.037  -4.356  0.00  0.00    -0.204 F 
ATOM     19  C   UNL d   1       3.300  -5.279  -3.002  0.00  0.00     0.032 A 
ENDBRANCH   9  12
ENDBRANCH   1   8
BRANCH   2  20
ATOM     20  O   UNL d   1       3.537  -0.896   1.525  0.00  0.00    -0.260 OA
BRANCH  20  21
ATOM     21  C   UNL d   1       3.117  -2.080   2.135  0.00  0.00     0.367 C 
ATOM     22  N   UNL d   1       3.858  -2.421   3.255  0.00  0.00    -0.336 N 
ATOM     23  C   UNL d   1       3.536  -3.644   3.966  0.00  0.00     0.154 C 
ATOM     24  C   UNL d   1       4.958  -1.627   3.769  0.00  0.00     0.154 C 
ATOM     25  O   UNL d   1       2.164  -2.756   1.746  0.00  0.00    -0.238 OA
ENDBRANCH  20  21
ENDBRANCH   2  20
TORSDOF 4
