REMARK  10 active torsions:
REMARK  status: ('A' for Active; 'I' for Inactive)
REMARK    1  A    between atoms: C_8  and  C_1 
REMARK    2  A    between atoms: C_2  and  S_3 
REMARK    3  A    between atoms: C_5  and  C_2 
REMARK    4  A    between atoms: S_3  and  C_22 
REMARK    5  A    between atoms: C_4  and  C_9 
REMARK    6  A    between atoms: O_27  and  C_7 
REMARK    7  A    between atoms: N_10  and  O_23 
REMARK    8  A    between atoms: O_28  and  C_12 
REMARK    9  A    between atoms: O_23  and  C_31 
REMARK   10  A    between atoms: C_31  and  C_24 
ROOT
ATOM      1  C   UNL d   1       3.061  -4.841   7.285  0.00  0.00     0.022 A 
ATOM      2  C   UNL d   1       2.892  -3.487   6.944  0.00  0.00     0.025 A 
ATOM      3  C   UNL d   1       2.381  -3.122   5.687  0.00  0.00    -0.031 A 
ATOM      4  C   UNL d   1       2.748  -5.825   6.335  0.00  0.00     0.016 A 
ATOM      5  C   UNL d   1       2.294  -5.468   5.066  0.00  0.00     0.002 A 
ATOM      6  C   UNL d   1       2.110  -4.123   4.744  0.00  0.00     0.009 A 
ENDROOT
BRANCH   3   7
ATOM      7  C   UNL d   1       2.093  -1.675   5.362  0.00  0.00     0.239 C 
BRANCH   7   8
ATOM      8  O   UNL d   1       3.205  -1.105   4.674  0.00  0.00    -0.276 OA
BRANCH   8   9
ATOM      9  N   UNL d   1       2.908   0.235   4.361  0.00  0.00    -0.270 N 
ATOM     10  C   UNL d   1       3.625   0.640   3.356  0.00  0.00     0.038 C 
ATOM     11  C   UNL d   1       4.606  -0.261   2.640  0.00  0.00     0.071 C 
ATOM     12  HN  UNL d   1       2.223   0.808   4.854  1.00  0.00     0.194 HD
BRANCH  10  13
ATOM     13  C   UNL d   1       3.471   2.046   2.869  0.00  0.00    -0.009 A 
ATOM     14  C   UNL d   1       3.172   3.067   3.787  0.00  0.00     0.053 A 
ATOM     15  C   UNL d   1       3.060   4.406   3.381  0.00  0.00     0.102 A 
ATOM     16  C   UNL d   1       3.217   4.720   2.017  0.00  0.00     0.101 A 
ATOM     17  C   UNL d   1       3.490   3.691   1.104  0.00  0.00     0.040 A 
ATOM     18  C   UNL d   1       3.611   2.365   1.519  0.00  0.00     0.016 A 
BRANCH  15  19
ATOM     19  O   UNL d   1       2.811   5.433   4.253  0.00  0.00    -0.353 OA
ATOM     20  C   UNL d   1       2.641   5.129   5.631  0.00  0.00     0.210 C 
ENDBRANCH  15  19
BRANCH  16  21
ATOM     21  O   UNL d   1       3.137   5.939   1.397  0.00  0.00    -0.353 OA
ATOM     22  C   UNL d   1       2.866   7.096   2.171  0.00  0.00     0.210 C 
ENDBRANCH  16  21
ENDBRANCH  10  13
ENDBRANCH   8   9
ENDBRANCH   7   8
ENDBRANCH   3   7
BRANCH   1  23
ATOM     23  C   UNL d   1       3.477  -5.314   8.642  0.00  0.00     0.224 C 
ATOM     24  O   UNL d   1       3.163  -6.435   9.028  0.00  0.00    -0.279 OA
BRANCH  23  25
ATOM     25  S   UNL d   1       4.354  -4.183   9.660  0.00  0.00    -0.048 SA
BRANCH  25  26
ATOM     26  C   UNL d   1       5.710  -5.082  10.389  0.00  0.00     0.008 A 
ATOM     27  C   UNL d   1       6.814  -4.312  10.783  0.00  0.00     0.020 A 
ATOM     28  C   UNL d   1       7.884  -4.881  11.482  0.00  0.00     0.017 A 
ATOM     29  C   UNL d   1       7.875  -6.242  11.811  0.00  0.00     0.048 A 
ATOM     30  C   UNL d   1       6.793  -7.024  11.383  0.00  0.00     0.017 A 
ATOM     31  C   UNL d   1       5.723  -6.449  10.680  0.00  0.00     0.020 A 
BRANCH  29  32
ATOM     32  C   UNL d   1       8.994  -6.817  12.643  0.00  0.00     0.417 C 
ATOM     33  F   UNL d   1       8.839  -8.139  12.935  0.00  0.00    -0.166 F 
ATOM     34  F   UNL d   1       9.122  -6.185  13.844  0.00  0.00    -0.166 F 
ATOM     35  F   UNL d   1      10.209  -6.707  12.036  0.00  0.00    -0.166 F 
ENDBRANCH  29  32
ENDBRANCH  25  26
ENDBRANCH  23  25
ENDBRANCH   1  23
TORSDOF 10
