REMARK  3 active torsions:
REMARK  status: ('A' for Active; 'I' for Inactive)
REMARK    1  A    between atoms: C_4  and  C_1 
REMARK    2  A    between atoms: O_7  and  C_4 
REMARK    3  A    between atoms: C_8  and  O_7 
ROOT
ATOM      1  C   UNL d   1      -0.526  -2.618   0.240  0.00  0.00     0.318 C 
ATOM      2  O   UNL d   1      -1.557  -2.971   0.793  0.00  0.00    -0.257 OA
ENDROOT
BRANCH   1   3
ATOM      3  C   UNL d   1      -0.095  -1.194   0.093  0.00  0.00     0.144 A 
ATOM      4  C   UNL d   1       1.167  -0.750  -0.004  0.00  0.00     0.050 A 
ATOM      5  C   UNL d   1       1.054   0.727  -0.054  0.00  0.00     0.313 A 
ATOM      6  C   UNL d   1       2.510  -1.375   0.000  0.00  0.00     0.057 C 
ATOM      7  O   UNL d   1       1.993   1.506  -0.111  0.00  0.00    -0.258 OA
ATOM      8  O   UNL d   1      -0.275   1.062   0.008  0.00  0.00    -0.192 OA
ATOM      9  N   UNL d   1      -0.993  -0.140   0.050  0.00  0.00    -0.247 N 
ATOM     10  C   UNL d   1      -2.266  -0.003   0.731  0.00  0.00     0.186 C 
ENDBRANCH   1   3
BRANCH   1  11
ATOM     11  O   UNL d   1       0.410  -3.455  -0.355  0.00  0.00    -0.274 OA
BRANCH  11  12
ATOM     12  C   UNL d   1       0.314  -4.858  -0.246  0.00  0.00     0.082 A 
ATOM     13  C   UNL d   1      -0.882  -5.559  -0.389  0.00  0.00     0.061 A 
ATOM     14  C   UNL d   1      -0.863  -6.951  -0.294  0.00  0.00     0.038 A 
ATOM     15 CL   UNL d   1      -2.330  -7.837  -0.453  0.00  0.00    -0.084 Cl
ATOM     16  C   UNL d   1       0.332  -7.639  -0.079  0.00  0.00     0.048 A 
ATOM     17  C   UNL d   1       1.520  -6.922   0.036  0.00  0.00     0.038 A 
ATOM     18  C   UNL d   1       1.520  -5.532  -0.052  0.00  0.00     0.061 A 
ATOM     19 CL   UNL d   1       3.003  -7.758   0.287  0.00  0.00    -0.084 Cl
ENDBRANCH  11  12
ENDBRANCH   1  11
TORSDOF 3
