REMARK  6 active torsions:
REMARK  status: ('A' for Active; 'I' for Inactive)
REMARK    1  A    between atoms: C_3  and  S_1 
REMARK    2  A    between atoms: O_4  and  S_1 
REMARK    3  A    between atoms: S_2  and  C_3 
REMARK    4  A    between atoms: O_5  and  S_2 
REMARK    5  A    between atoms: C_10  and  O_4 
REMARK    6  A    between atoms: C_11  and  O_5 
ROOT
ATOM      1  C   UNL d   1       0.654  -0.897   1.394  0.00  0.00     0.341 C 
ENDROOT
BRANCH   1   2
ATOM      2  S   UNL d   1       1.020  -2.588   1.145  0.00  0.00     0.285 S 
ATOM      3  O   UNL d   1       0.176  -3.095   0.082  0.00  0.00    -0.197 OA
ATOM      4  O   UNL d   1       2.456  -2.786   1.150  0.00  0.00    -0.197 OA
BRANCH   2   5
ATOM      5  O   UNL d   1       0.433  -3.154   2.569  0.00  0.00    -0.232 OA
BRANCH   5   6
ATOM      6  C   UNL d   1       0.559  -4.490   2.886  0.00  0.00     0.089 A 
ATOM      7  C   UNL d   1       0.598  -4.819   4.245  0.00  0.00     0.040 A 
ATOM      8  C   UNL d   1       0.744  -6.154   4.642  0.00  0.00     0.026 A 
ATOM      9  C   UNL d   1       0.836  -7.160   3.682  0.00  0.00     0.034 A 
ATOM     10  C   UNL d   1       0.771  -6.844   2.330  0.00  0.00     0.026 A 
ATOM     11 CL   UNL d   1       1.030  -8.800   4.163  0.00  0.00    -0.084 Cl
ATOM     12  C   UNL d   1       0.626  -5.513   1.934  0.00  0.00     0.040 A 
ENDBRANCH   5   6
ENDBRANCH   2   5
ENDBRANCH   1   2
BRANCH   1  13
ATOM     13  S   UNL d   1       1.126   0.042  -0.016  0.00  0.00     0.285 S 
ATOM     14  O   UNL d   1       2.525  -0.170  -0.312  0.00  0.00    -0.197 OA
ATOM     15  O   UNL d   1       0.615   1.386   0.195  0.00  0.00    -0.197 OA
BRANCH  13  16
ATOM     16  O   UNL d   1       0.196  -0.695  -1.131  0.00  0.00    -0.232 OA
BRANCH  16  17
ATOM     17  C   UNL d   1       0.279  -0.411  -2.468  0.00  0.00     0.089 A 
ATOM     18  C   UNL d   1      -0.034  -1.467  -3.332  0.00  0.00     0.040 A 
ATOM     19  C   UNL d   1      -0.070  -1.263  -4.713  0.00  0.00     0.026 A 
ATOM     20  C   UNL d   1       0.200   0.003  -5.229  0.00  0.00     0.034 A 
ATOM     21  C   UNL d   1       0.521   1.056  -4.373  0.00  0.00     0.026 A 
ATOM     22 CL   UNL d   1       0.115   0.273  -6.925  0.00  0.00    -0.084 Cl
ATOM     23  C   UNL d   1       0.561   0.851  -2.990  0.00  0.00     0.040 A 
ENDBRANCH  16  17
ENDBRANCH  13  16
ENDBRANCH   1  13
TORSDOF 6
