REMARK  2 active torsions:
REMARK  status: ('A' for Active; 'I' for Inactive)
REMARK    1  A    between atoms: C_3  and  O_11 
REMARK    2  A    between atoms: C_4  and  C_7 
ROOT
ATOM      1  C   UNL d   1      -1.194   1.537  -0.241  0.00  0.00     0.193 C 
ATOM      2  O   UNL d   1      -1.146  -1.327  -0.055  0.00  0.00    -0.337 OA
ATOM      3  C   UNL d   1      -2.442   0.690  -0.438  0.00  0.00     0.226 C 
ATOM      4  C   UNL d   1      -2.289  -0.572   0.434  0.00  0.00     0.198 C 
ATOM      5  C   UNL d   1       0.072   0.785  -0.132  0.00  0.00     0.046 A 
ATOM      6  C   UNL d   1       0.023  -0.607  -0.098  0.00  0.00     0.083 A 
ATOM      7  O   UNL d   1      -1.208   2.763  -0.205  0.00  0.00    -0.289 OA
ATOM      8  C   UNL d   1       1.298   1.453  -0.092  0.00  0.00     0.018 A 
ATOM      9  C   UNL d   1       1.205  -1.345  -0.094  0.00  0.00     0.038 A 
ATOM     10  C   UNL d   1       2.481   0.711  -0.053  0.00  0.00     0.001 A 
ATOM     11  C   UNL d   1       2.434  -0.683  -0.069  0.00  0.00     0.003 A 
ENDROOT
BRANCH   4  12
ATOM     12  C   UNL d   1      -2.231  -0.352   1.950  0.00  0.00    -0.026 A 
ATOM     13  C   UNL d   1      -2.917   0.708   2.569  0.00  0.00     0.011 A 
ATOM     14  C   UNL d   1      -2.787   0.945   3.942  0.00  0.00     0.024 A 
ATOM     15  C   UNL d   1      -1.989   0.111   4.718  0.00  0.00     0.034 A 
ATOM     16  C   UNL d   1      -1.345  -0.977   4.139  0.00  0.00     0.024 A 
ATOM     17 CL   UNL d   1      -1.794   0.431   6.396  0.00  0.00    -0.084 Cl
ATOM     18  C   UNL d   1      -1.480  -1.216   2.768  0.00  0.00     0.011 A 
ENDBRANCH   4  12
BRANCH   3  19
ATOM     19  O   UNL d   1      -2.624   0.344  -1.814  0.00  0.00    -0.385 OA
ATOM     20  H   UNL d   1      -1.917  -0.282  -2.059  0.00  0.00     0.210 HD
ENDBRANCH   3  19
TORSDOF 2
