REMARK  0 active torsions:
REMARK  status: ('A' for Active; 'I' for Inactive)
ROOT
ATOM      1  N   UNL d   1      -1.230   0.342  -0.407  0.00  0.00    -0.297 N 
ATOM      2  C   UNL d   1       0.647   0.922   1.074  0.00  0.00     0.045 C 
ATOM      3  C   UNL d   1      -0.857   1.007   0.740  0.00  0.00     0.233 C 
ATOM      4  C   UNL d   1      -0.362   0.086  -1.440  0.00  0.00     0.229 C 
ATOM      5  C   UNL d   1       1.468   1.282  -0.201  0.00  0.00    -0.020 C 
ATOM      6  C   UNL d   1       1.115   0.036  -1.043  0.00  0.00     0.087 C 
ATOM      7  C   UNL d   1       0.958  -0.582   1.308  0.00  0.00     0.020 C 
ATOM      8  C   UNL d   1       1.348  -1.131  -0.074  0.00  0.00     0.016 C 
ATOM      9  O   UNL d   1      -1.675   1.637   1.397  0.00  0.00    -0.272 OA
ATOM     10  O   UNL d   1      -0.748  -0.016  -2.597  0.00  0.00    -0.273 OA
ATOM     11  C   UNL d   1       0.965   1.762   2.309  0.00  0.00     0.026 C 
ATOM     12  C   UNL d   1       2.994   1.351   0.054  0.00  0.00     0.017 C 
ATOM     13  C   UNL d   1       1.072   2.604  -0.886  0.00  0.00     0.017 C 
ATOM     14  H   UNL d   1      -2.198   0.461  -0.675  0.00  0.00     0.171 HD
ENDROOT
TORSDOF 0
