REMARK  1 active torsions:
REMARK  status: ('A' for Active; 'I' for Inactive)
REMARK    1  A    between atoms: C_4  and  C_8 
ROOT
ATOM      1  O   UNL d   1      -0.825   1.055  -0.134  0.00  0.00    -0.340 OA
ATOM      2  C   UNL d   1       0.436   0.533  -0.082  0.00  0.00     0.076 A 
ATOM      3  C   UNL d   1       0.723  -0.833  -0.089  0.00  0.00    -0.024 A 
ATOM      4  C   UNL d   1       3.110  -0.319   0.035  0.00  0.00    -0.007 A 
ATOM      5  C   UNL d   1       2.062  -1.252  -0.022  0.00  0.00     0.023 A 
ATOM      6  C   UNL d   1      -1.920   0.143   0.057  0.00  0.00     0.061 C 
ATOM      7  C   UNL d   1       1.470   1.468  -0.044  0.00  0.00     0.038 A 
ATOM      8  C   UNL d   1       2.798   1.047   0.017  0.00  0.00     0.016 A 
ATOM      9  C   UNL d   1      -0.380  -1.848  -0.134  0.00  0.00     0.044 C 
ATOM     10  C   UNL d   1      -1.667  -1.206  -0.634  0.00  0.00     0.042 C 
ATOM     11  C   UNL d   1      -3.135   0.818  -0.596  0.00  0.00     0.046 C 
ATOM     12  C   UNL d   1      -2.192  -0.000   1.562  0.00  0.00     0.046 C 
ENDROOT
BRANCH   4  13
ATOM     13  C   UNL d   1       4.502  -0.761   0.108  0.00  0.00     0.059 A 
ATOM     14  N   UNL d   1       4.909  -1.925  -0.426  0.00  0.00    -0.300 N 
ATOM     15  N   UNL d   1       6.230  -1.961  -0.193  0.00  0.00    -0.311 N 
ATOM     16  HN  UNL d   1       4.340  -2.625  -0.902  1.00  0.00     0.187 HD
ATOM     17  C   UNL d   1       6.691  -0.886   0.502  0.00  0.00     0.109 A 
ATOM     18  H   UNL d   1       6.755  -2.756  -0.539  0.00  0.00     0.186 HD
ATOM     19  C   UNL d   1       5.597  -0.086   0.716  0.00  0.00     0.050 A 
ENDBRANCH   4  13
TORSDOF 1
