REMARK  3 active torsions:
REMARK  status: ('A' for Active; 'I' for Inactive)
REMARK    1  A    between atoms: S_7  and  N_9 
REMARK    2  A    between atoms: C_15  and  S_7 
REMARK    3  A    between atoms: N_9  and  C_8 
ROOT
ATOM      1  S   UNL d   1       0.962  -1.732  -0.073  0.00  0.00     0.270 S 
ATOM      2  C   UNL d   1       2.140  -0.540  -0.467  0.00  0.00     0.147 C 
ATOM      3  N   UNL d   1       1.445  -2.193   1.502  0.00  0.00    -0.275 N 
ATOM      4  C   UNL d   1       1.859  -1.163   2.374  0.00  0.00     0.066 A 
ATOM      5  C   UNL d   1       2.229   0.093   1.927  0.00  0.00     0.084 A 
ATOM      6  C   UNL d   1       2.313   0.530   0.541  0.00  0.00     0.215 C 
ATOM      7  C   UNL d   1       2.957  -0.796  -1.492  0.00  0.00     0.126 C 
ATOM      8  S   UNL d   1       2.630   1.146   3.209  0.00  0.00    -0.096 SA
ATOM      9  O   UNL d   1      -0.341  -1.110   0.048  0.00  0.00    -0.200 OA
ATOM     10  O   UNL d   1       1.124  -2.895  -0.928  0.00  0.00    -0.200 OA
ATOM     11  C   UNL d   1       1.965  -1.264   3.793  0.00  0.00     0.039 A 
ATOM     12  C   UNL d   1       2.365  -0.079   4.372  0.00  0.00     0.053 A 
ATOM     13  O   UNL d   1       2.492   1.694   0.197  0.00  0.00    -0.285 OA
ATOM     14  C   UNL d   1       1.176  -3.567   1.938  0.00  0.00     0.170 C 
ENDROOT
BRANCH   7  15
ATOM     15  N   UNL d   1       4.179  -0.067  -1.680  0.00  0.00    -0.322 N 
ATOM     16  HN  UNL d   1       4.435   0.684  -1.039  1.00  0.00     0.175 HD
BRANCH  15  17
ATOM     17  S   UNL d   1       5.103  -0.432  -2.867  0.00  0.00     0.052 S 
ATOM     18  O   UNL d   1       4.618  -0.683  -4.212  0.00  0.00    -0.245 OA
ATOM     19  C   UNL d   1       6.351   0.818  -3.002  0.00  0.00     0.142 C 
BRANCH  17  20
ATOM     20  C   UNL d   1       5.988  -1.904  -2.369  0.00  0.00     0.038 A 
ATOM     21  C   UNL d   1       5.838  -3.073  -3.119  0.00  0.00     0.022 A 
ATOM     22  C   UNL d   1       6.509  -4.235  -2.731  0.00  0.00     0.008 A 
ATOM     23  C   UNL d   1       7.331  -4.237  -1.595  0.00  0.00    -0.062 A 
ATOM     24  C   UNL d   1       7.468  -3.058  -0.850  0.00  0.00     0.008 A 
ATOM     25  C   UNL d   1       8.039  -5.499  -1.198  0.00  0.00     0.048 C 
ATOM     26  C   UNL d   1       6.797  -1.892  -1.230  0.00  0.00     0.022 A 
ENDBRANCH  17  20
ENDBRANCH  15  17
ENDBRANCH   7  15
TORSDOF 3
