REMARK  3 active torsions:
REMARK  status: ('A' for Active; 'I' for Inactive)
REMARK    1  A    between atoms: S_10  and  C_1 
REMARK    2  A    between atoms: C_5  and  C_14 
REMARK    3  A    between atoms: C_14  and  S_10 
ROOT
ATOM      1  S   UNL d   1      -3.960   0.098  -0.001  0.00  0.00    -0.089 SA
ENDROOT
BRANCH   1   2
ATOM      2  C   UNL d   1      -2.253  -0.157  -0.023  0.00  0.00     0.145 A 
ATOM      3  N   UNL d   1      -1.594  -1.290  -0.027  0.00  0.00    -0.335 N 
ATOM      4  C   UNL d   1      -0.264  -0.924  -0.042  0.00  0.00     0.061 A 
ATOM      5  HN  UNL d   1      -1.980  -2.234  -0.020  1.00  0.00     0.168 HD
ATOM      6  C   UNL d   1       0.894  -1.720  -0.046  0.00  0.00     0.032 A 
ATOM      7  C   UNL d   1      -0.126   0.463  -0.054  0.00  0.00     0.061 A 
ATOM      8  C   UNL d   1       2.148  -1.092  -0.060  0.00  0.00     0.002 A 
ATOM      9  C   UNL d   1       2.252   0.301  -0.072  0.00  0.00     0.002 A 
ATOM     10  C   UNL d   1       1.112   1.114  -0.070  0.00  0.00     0.032 A 
ATOM     11  N   UNL d   1      -1.417   0.923  -0.045  0.00  0.00    -0.335 N 
ATOM     12  H   UNL d   1      -1.715   1.887  -0.050  0.00  0.00     0.168 HD
ENDBRANCH   1   2
BRANCH   1  13
ATOM     13  C   UNL d   1      -4.594  -1.608   0.047  0.00  0.00     0.123 C 
BRANCH  13  14
ATOM     14  C   UNL d   1      -6.111  -1.640   0.010  0.00  0.00    -0.011 A 
ATOM     15  C   UNL d   1      -6.891  -1.626   1.183  0.00  0.00     0.087 A 
ATOM     16  C   UNL d   1      -8.294  -1.657   1.120  0.00  0.00     0.003 A 
ATOM     17  O   UNL d   1      -6.235  -1.606   2.386  0.00  0.00    -0.325 OA
ATOM     18  C   UNL d   1      -9.102  -1.638   2.383  0.00  0.00     0.212 C 
ATOM     19  C   UNL d   1      -8.931  -1.669  -0.124  0.00  0.00     0.054 A 
ATOM     20  O   UNL d   1      -8.305  -2.024   3.495  0.00  0.00    -0.362 OA
ATOM     21  C   UNL d   1      -7.087  -1.292   3.488  0.00  0.00     0.345 C 
ATOM     22  C   UNL d   1      -8.165  -1.670  -1.284  0.00  0.00     0.117 A 
ATOM     23  C   UNL d   1      -6.775  -1.656  -1.229  0.00  0.00     0.053 A 
ATOM     24  F   UNL d   1      -8.779  -1.683  -2.475  0.00  0.00    -0.206 F 
ENDBRANCH  13  14
ENDBRANCH   1  13
TORSDOF 3
