REMARK  10 active torsions:
REMARK  status: ('A' for Active; 'I' for Inactive)
REMARK    1  A    between atoms: C_4  and  N_1 
REMARK    2  A    between atoms: N_2  and  C_3 
REMARK    3  A    between atoms: C_9  and  O_11 
REMARK    4  A    between atoms: C_26  and  C_9 
REMARK    5  A    between atoms: C_10  and  C_25 
REMARK    6  A    between atoms: O_12  and  C_10 
REMARK    7  A    between atoms: O_11  and  C_19 
REMARK    8  A    between atoms: C_20  and  O_12 
REMARK    9  A    between atoms: C_25  and  C_27 
REMARK   10  A    between atoms: C_27  and  C_26 
ROOT
ATOM      1  C   UNL d   1      -2.023   7.776   2.623  0.00  0.00     0.019 C 
ENDROOT
BRANCH   1   2
ATOM      2  C   UNL d   1      -2.847   8.996   3.037  0.00  0.00     0.112 C 
BRANCH   2   3
ATOM      3  C   UNL d   1      -2.110  10.277   2.667  0.00  0.00     0.264 C 
ATOM      4  O   UNL d   1      -0.987  10.322   2.187  0.00  0.00    -0.265 OA
BRANCH   3   5
ATOM      5  O   UNL d   1      -2.921  11.377   2.961  0.00  0.00    -0.279 OA
BRANCH   5   6
ATOM      6  C   UNL d   1      -2.484  12.722   2.854  0.00  0.00     0.079 A 
ATOM      7  C   UNL d   1      -3.497  13.671   2.684  0.00  0.00     0.040 A 
ATOM      8  C   UNL d   1      -3.189  15.036   2.700  0.00  0.00     0.039 A 
ATOM      9  C   UNL d   1      -1.861  15.443   2.892  0.00  0.00     0.103 A 
ATOM     10  C   UNL d   1      -0.841  14.491   3.035  0.00  0.00     0.039 A 
ATOM     11  C   UNL d   1      -1.157  13.125   3.021  0.00  0.00     0.040 A 
BRANCH   9  12
ATOM     12  N   UNL d   1      -1.544  16.874   2.984  0.00  0.00    -0.116 N 
ATOM     13  O   UNL d   1      -0.371  17.192   3.222  0.00  0.00    -0.532 OA
ATOM     14  O   UNL d   1      -2.474  17.681   2.832  0.00  0.00    -0.532 OA
ENDBRANCH   9  12
ENDBRANCH   5   6
ENDBRANCH   3   5
ENDBRANCH   2   3
ENDBRANCH   1   2
BRANCH   1  15
ATOM     15  C   UNL d   1      -2.651   6.424   2.961  0.00  0.00     0.112 C 
BRANCH  15  16
ATOM     16  C   UNL d   1      -1.657   5.342   2.594  0.00  0.00     0.264 C 
ATOM     17  O   UNL d   1      -0.899   4.810   3.387  0.00  0.00    -0.265 OA
BRANCH  16  18
ATOM     18  O   UNL d   1      -1.690   5.162   1.207  0.00  0.00    -0.279 OA
BRANCH  18  19
ATOM     19  C   UNL d   1      -0.642   4.623   0.424  0.00  0.00     0.079 A 
ATOM     20  C   UNL d   1      -0.758   4.880  -0.947  0.00  0.00     0.040 A 
ATOM     21  C   UNL d   1       0.276   4.525  -1.815  0.00  0.00     0.039 A 
ATOM     22  C   UNL d   1       1.421   3.903  -1.301  0.00  0.00     0.103 A 
ATOM     23  C   UNL d   1       1.518   3.608   0.067  0.00  0.00     0.039 A 
ATOM     24  C   UNL d   1       0.477   3.967   0.932  0.00  0.00     0.040 A 
BRANCH  22  25
ATOM     25  N   UNL d   1       2.538   3.579  -2.199  0.00  0.00    -0.116 N 
ATOM     26  O   UNL d   1       3.539   3.043  -1.704  0.00  0.00    -0.532 OA
ATOM     27  O   UNL d   1       2.415   3.866  -3.398  0.00  0.00    -0.532 OA
ENDBRANCH  22  25
ENDBRANCH  18  19
ENDBRANCH  16  18
ENDBRANCH  15  16
ENDBRANCH   1  15
TORSDOF 10
