REMARK  7 active torsions:
REMARK  status: ('A' for Active; 'I' for Inactive)
REMARK    1  A    between atoms: C_7  and  C_1 
REMARK       I    between atoms: C_6  and  N_8 
REMARK    2  A    between atoms: C_19  and  C_6 
REMARK    3  A    between atoms: N_8  and  C_7 
REMARK    4  A    between atoms: C_9  and  C_20 
REMARK    5  A    between atoms: O_16  and  C_9 
REMARK    6  A    between atoms: S_14  and  C_19 
REMARK    7  A    between atoms: C_20  and  S_14 
ROOT
ATOM      1  C   UNL d   1       2.200  -2.449  -0.001  0.00  0.00     0.162 C 
ENDROOT
BRANCH   1   2
ATOM      2  C   UNL d   1       1.770  -1.013   0.026  0.00  0.00    -0.022 A 
ATOM      3  C   UNL d   1       1.511  -0.233   1.223  0.00  0.00    -0.009 A 
ATOM      4  C   UNL d   1       1.077   1.061   0.913  0.00  0.00     0.015 A 
ATOM      5  C   UNL d   1       1.619  -0.578   2.596  0.00  0.00     0.037 A 
ATOM      6  C   UNL d   1       0.752   1.999   1.915  0.00  0.00     0.021 A 
ATOM      7  S   UNL d   1       1.002   1.311  -0.786  0.00  0.00    -0.101 SA
ATOM      8  C   UNL d   1       0.872   1.629   3.255  0.00  0.00     0.025 A 
ATOM      9  C   UNL d   1       1.300   0.354   3.589  0.00  0.00     0.035 A 
ATOM     10 CL   UNL d   1       1.438  -0.094   5.245  0.00  0.00    -0.084 Cl
ATOM     11  C   UNL d   1       1.527  -0.272  -1.115  0.00  0.00     0.060 A 
ENDBRANCH   1   2
BRANCH   1  12
ATOM     12  N   UNL d   1       3.644  -2.531  -0.032  0.00  0.00    -0.356 N 
ATOM     13  C   UNL d   1       4.336  -2.602  -1.222  0.00  0.00     0.227 C 
ATOM     14  O   UNL d   1       3.779  -2.591  -2.317  0.00  0.00    -0.273 OA
ATOM     15  H   UNL d   1       4.142  -2.418   0.843  0.00  0.00     0.162 HD
BRANCH  13  16
ATOM     16  C   UNL d   1       5.848  -2.709  -1.077  0.00  0.00     0.177 C 
BRANCH  16  17
ATOM     17  S   UNL d   1       6.716  -1.328  -1.905  0.00  0.00    -0.149 SA
BRANCH  17  18
ATOM     18  C   UNL d   1       6.037   0.076  -0.962  0.00  0.00     0.184 C 
BRANCH  18  19
ATOM     19  C   UNL d   1       6.446  -0.023   0.492  0.00  0.00     0.149 C 
ATOM     20  O   UNL d   1       5.657  -0.142   1.413  0.00  0.00    -0.649 OA
BRANCH  19  21
ATOM     21  O   UNL d   1       7.788  -0.024   0.675  0.00  0.00    -0.776 OA
ATOM     22  H   UNL d   1       8.278  -0.030  -0.173  0.00  0.00     0.167 HD
ENDBRANCH  19  21
ENDBRANCH  18  19
ENDBRANCH  17  18
ENDBRANCH  16  17
ENDBRANCH  13  16
ENDBRANCH   1  12
TORSDOF 7
