REMARK  3 active torsions:
REMARK  status: ('A' for Active; 'I' for Inactive)
REMARK    1  A    between atoms: C_7  and  C_1 
REMARK    2  A    between atoms: C_8  and  N_2 
REMARK    3  A    between atoms: O_12  and  C_7 
ROOT
ATOM      1  C   UNL d   1      -0.346   1.223   0.039  0.00  0.00     0.078 C 
ATOM      2  N   UNL d   1       1.001  -0.559  -0.049  0.00  0.00    -0.260 N 
ATOM      3  C   UNL d   1       0.991   0.828   0.034  0.00  0.00     0.049 C 
ATOM      4  N   UNL d   1      -0.251  -1.042  -0.258  0.00  0.00    -0.304 N 
ATOM      5  HN  UNL d   1      -0.520  -2.004  -0.465  1.00  0.00     0.186 HD
ATOM      6  C   UNL d   1      -1.048   0.015  -0.133  0.00  0.00     0.128 C 
ATOM      7  C   UNL d   1       2.199   1.702  -0.003  0.00  0.00     0.071 C 
ENDROOT
BRANCH   2   8
ATOM      8  C   UNL d   1       2.098  -1.464   0.012  0.00  0.00     0.056 A 
ATOM      9  C   UNL d   1       3.243  -1.173   0.765  0.00  0.00     0.034 A 
ATOM     10  C   UNL d   1       4.340  -2.037   0.731  0.00  0.00     0.044 A 
ATOM     11  C   UNL d   1       4.283  -3.192  -0.039  0.00  0.00     0.116 A 
ATOM     12  C   UNL d   1       3.133  -3.524  -0.746  0.00  0.00     0.044 A 
ATOM     13  F   UNL d   1       5.350  -3.999  -0.097  0.00  0.00    -0.206 F 
ATOM     14  C   UNL d   1       2.028  -2.670  -0.706  0.00  0.00     0.034 A 
ENDBRANCH   2   8
BRANCH   1  15
ATOM     15  C   UNL d   1      -0.829   2.594   0.147  0.00  0.00     0.179 C 
ATOM     16  O   UNL d   1      -0.089   3.563   0.270  0.00  0.00    -0.646 OA
BRANCH  15  17
ATOM     17  O   UNL d   1      -2.174   2.754   0.100  0.00  0.00    -0.773 OA
ATOM     18  H   UNL d   1      -2.685   1.932   0.002  0.00  0.00     0.167 HD
ENDBRANCH  15  17
ENDBRANCH   1  15
TORSDOF 3
