REMARK  6 active torsions:
REMARK  status: ('A' for Active; 'I' for Inactive)
REMARK    1  A    between atoms: C_2  and  C_1 
REMARK    2  A    between atoms: N_5  and  C_1 
REMARK    3  A    between atoms: C_3  and  C_2 
REMARK       I    between atoms: N_6  and  C_3 
REMARK    4  A    between atoms: C_4  and  C_9 
REMARK    5  A    between atoms: C_10  and  N_5 
REMARK    6  A    between atoms: C_13  and  N_6 
ROOT
ATOM      1  C   UNL d   1       0.210  -0.868  -1.036  0.00  0.00     0.246 C 
ATOM      2  C   UNL d   1       1.294  -1.726  -1.542  0.00  0.00     0.080 C 
ATOM      3  N   UNL d   1       2.169  -2.421  -1.867  0.00  0.00    -0.196 NA
ENDROOT
BRANCH   1   4
ATOM      4  C   UNL d   1       0.826   0.218  -0.152  0.00  0.00     0.105 C 
ATOM      5  S   UNL d   1       1.388   1.682  -0.772  0.00  0.00    -0.063 SA
BRANCH   4   6
ATOM      6  N   UNL d   1       0.967  -0.170   1.180  0.00  0.00    -0.348 N 
ATOM      7  H   UNL d   1       1.359  -1.099   1.347  0.00  0.00     0.166 HD
BRANCH   6   8
ATOM      8  C   UNL d   1       0.959   0.669   2.326  0.00  0.00     0.054 A 
ATOM      9  C   UNL d   1       1.697   0.308   3.466  0.00  0.00     0.060 A 
ATOM     10 CL   UNL d   1       2.701  -1.098   3.470  0.00  0.00    -0.082 Cl
ATOM     11  C   UNL d   1       1.654   1.099   4.618  0.00  0.00     0.026 A 
ATOM     12  C   UNL d   1       0.847   2.236   4.653  0.00  0.00     0.002 A 
ATOM     13  C   UNL d   1       0.088   2.584   3.538  0.00  0.00     0.002 A 
ATOM     14  C   UNL d   1       0.146   1.805   2.380  0.00  0.00     0.031 A 
ENDBRANCH   6   8
ENDBRANCH   4   6
ENDBRANCH   1   4
BRANCH   1  15
ATOM     15  C   UNL d   1      -0.690  -0.421  -2.188  0.00  0.00     0.246 C 
ATOM     16  N   UNL d   1      -1.531   0.655  -1.917  0.00  0.00    -0.326 N 
ATOM     17  H   UNL d   1      -1.575   1.008  -0.969  0.00  0.00     0.169 HD
ATOM     18  O   UNL d   1      -0.708  -1.050  -3.244  0.00  0.00    -0.271 OA
BRANCH  16  19
ATOM     19  C   UNL d   1      -2.187   1.458  -2.883  0.00  0.00     0.035 A 
ATOM     20  C   UNL d   1      -2.088   1.243  -4.260  0.00  0.00     0.045 A 
ATOM     21  C   UNL d   1      -2.625   2.155  -5.184  0.00  0.00     0.050 A 
ATOM     22  C   UNL d   1      -3.315   3.278  -4.709  0.00  0.00     0.016 A 
ATOM     23  C   UNL d   1      -3.458   3.482  -3.338  0.00  0.00     0.003 A 
ATOM     24  C   UNL d   1      -2.894   2.580  -2.431  0.00  0.00     0.029 A 
BRANCH  21  25
ATOM     25  C   UNL d   1      -2.418   1.953  -6.665  0.00  0.00     0.417 C 
ATOM     26  F   UNL d   1      -1.712   0.831  -6.977  0.00  0.00    -0.166 F 
ATOM     27  F   UNL d   1      -3.592   1.856  -7.349  0.00  0.00    -0.166 F 
ATOM     28  F   UNL d   1      -1.739   2.987  -7.235  0.00  0.00    -0.166 F 
ENDBRANCH  21  25
ENDBRANCH  16  19
ENDBRANCH   1  15
TORSDOF 6
