REMARK  7 active torsions:
REMARK  status: ('A' for Active; 'I' for Inactive)
REMARK    1  A    between atoms: N_2  and  C_1 
REMARK    2  A    between atoms: C_3  and  C_5 
REMARK    3  A    between atoms: N_20  and  C_5 
REMARK    4  A    between atoms: N_7  and  O_18 
REMARK    5  A    between atoms: C_12  and  C_9 
REMARK    6  A    between atoms: C_11  and  C_13 
REMARK    7  A    between atoms: O_18  and  C_11 
ROOT
ATOM      1  C   UNL d   1       3.715  -4.992  -0.407  0.00  0.00     0.115 C 
ATOM      2  N   UNL d   1       3.840  -3.816   0.131  0.00  0.00    -0.245 N 
ATOM      3  HN  UNL d   1       4.739  -3.429   0.420  1.00  0.00     0.196 HD
ENDROOT
BRANCH   2   4
ATOM      4  O   UNL d   1       2.620  -3.122   0.280  0.00  0.00    -0.194 OA
BRANCH   4   5
ATOM      5  C   UNL d   1       2.857  -1.801   0.029  0.00  0.00     0.304 C 
ATOM      6  O   UNL d   1       3.509  -1.352  -0.908  0.00  0.00    -0.258 OA
BRANCH   5   7
ATOM      7  C   UNL d   1       2.247  -0.888   1.025  0.00  0.00     0.085 C 
ATOM      8  C   UNL d   1       1.600  -1.236   2.145  0.00  0.00     0.018 C 
BRANCH   8   9
ATOM      9  C   UNL d   1       1.105  -0.319   3.140  0.00  0.00    -0.027 A 
ATOM     10  C   UNL d   1       1.248   1.109   3.151  0.00  0.00     0.055 A 
ATOM     11  C   UNL d   1       0.670   1.678   4.269  0.00  0.00     0.144 A 
ATOM     12  S   UNL d   1      -0.038   0.529   5.297  0.00  0.00    -0.077 SA
ATOM     13  C   UNL d   1       0.424  -0.757   4.260  0.00  0.00     0.063 A 
BRANCH  11  14
ATOM     14  N   UNL d   1       0.633   3.081   4.599  0.00  0.00    -0.108 N 
ATOM     15  O   UNL d   1       1.175   3.848   3.792  0.00  0.00    -0.531 OA
ATOM     16  O   UNL d   1       0.071   3.425   5.647  0.00  0.00    -0.531 OA
ENDBRANCH  11  14
ENDBRANCH   8   9
ENDBRANCH   5   7
ENDBRANCH   4   5
ENDBRANCH   2   4
BRANCH   1  17
ATOM     17  C   UNL d   1       4.953  -5.828  -0.485  0.00  0.00     0.081 A 
ATOM     18  C   UNL d   1       5.938  -5.721   0.501  0.00  0.00     0.133 A 
ATOM     19  F   UNL d   1       5.789  -4.905   1.554  0.00  0.00    -0.205 F 
ATOM     20  C   UNL d   1       7.098  -6.497   0.450  0.00  0.00     0.043 A 
ATOM     21  C   UNL d   1       7.293  -7.394  -0.598  0.00  0.00     0.006 A 
ATOM     22  C   UNL d   1       6.319  -7.513  -1.589  0.00  0.00     0.043 A 
ATOM     23  C   UNL d   1       5.159  -6.735  -1.526  0.00  0.00     0.133 A 
ATOM     24  F   UNL d   1       4.247  -6.881  -2.501  0.00  0.00    -0.205 F 
ENDBRANCH   1  17
BRANCH   1  25
ATOM     25  N   UNL d   1       2.534  -5.488  -0.911  0.00  0.00    -0.286 NA
ATOM     26  H   UNL d   1       2.621  -6.163  -1.668  0.00  0.00     0.125 HD
ATOM     27  H   UNL d   1       1.854  -4.766  -1.119  0.00  0.00     0.125 HD
ENDBRANCH   1  25
TORSDOF 7
