REMARK  4 active torsions:
REMARK  status: ('A' for Active; 'I' for Inactive)
REMARK    1  A    between atoms: C_8  and  C_4 
REMARK    2  A    between atoms: C_9  and  C_7 
REMARK    3  A    between atoms: C_11  and  C_8 
REMARK    4  A    between atoms: C_12  and  C_13 
ROOT
ATOM      1  C   UNL d   1      -4.753   0.122  -1.860  0.00  0.00     0.081 A 
ATOM      2  N   UNL d   1      -5.496   0.873  -1.006  0.00  0.00    -0.317 N 
ATOM      3  C   UNL d   1      -6.407   1.562  -3.042  0.00  0.00     0.076 A 
ATOM      4  C   UNL d   1      -3.844  -0.792  -1.518  0.00  0.00     0.092 C 
ATOM      5  C   UNL d   1      -6.450   1.699  -1.549  0.00  0.00     0.263 A 
ATOM      6  S   UNL d   1      -5.166   0.430  -3.516  0.00  0.00    -0.067 SA
ATOM      7  C   UNL d   1      -7.171   2.180  -3.955  0.00  0.00     0.043 C 
ATOM      8  O   UNL d   1      -7.205   2.397  -0.897  0.00  0.00    -0.267 OA
ATOM      9  H   UNL d   1      -5.361   0.834   0.000  0.00  0.00     0.169 HD
ENDROOT
BRANCH   4  10
ATOM     10  C   UNL d   1      -3.528  -1.185  -0.115  0.00  0.00     0.184 C 
ATOM     11  O   UNL d   1      -3.745  -0.453   0.839  0.00  0.00    -0.287 OA
BRANCH  10  12
ATOM     12  C   UNL d   1      -2.906  -2.530   0.045  0.00  0.00     0.014 A 
ATOM     13  C   UNL d   1      -1.938  -2.758   1.024  0.00  0.00     0.016 A 
ATOM     14  C   UNL d   1      -1.286  -4.004   1.090  0.00  0.00     0.009 A 
ATOM     15  C   UNL d   1      -1.594  -5.046   0.192  0.00  0.00    -0.051 A 
ATOM     16  C   UNL d   1      -2.624  -4.812  -0.731  0.00  0.00     0.009 A 
ATOM     17  C   UNL d   1      -3.277  -3.581  -0.801  0.00  0.00     0.016 A 
BRANCH  15  18
ATOM     18  C   UNL d   1      -0.808  -6.372   0.203  0.00  0.00    -0.024 C 
ATOM     19  C   UNL d   1      -1.288  -7.376  -0.873  0.00  0.00     0.019 C 
ATOM     20  C   UNL d   1       0.685  -6.093  -0.076  0.00  0.00     0.019 C 
ATOM     21  C   UNL d   1      -0.939  -7.074   1.569  0.00  0.00     0.019 C 
ENDBRANCH  15  18
ENDBRANCH  10  12
ENDBRANCH   4  10
BRANCH   7  22
ATOM     22  C   UNL d   1      -8.173   3.122  -3.612  0.00  0.00     0.006 A 
ATOM     23  S   UNL d   1      -7.771   4.785  -3.447  0.00  0.00    -0.102 SA
ATOM     24  C   UNL d   1      -9.366   5.195  -2.994  0.00  0.00     0.050 A 
ATOM     25  C   UNL d   1     -10.209   4.109  -3.030  0.00  0.00     0.008 A 
ATOM     26  C   UNL d   1      -9.525   2.917  -3.407  0.00  0.00     0.019 A 
ENDBRANCH   7  22
TORSDOF 4
