REMARK  6 active torsions:
REMARK  status: ('A' for Active; 'I' for Inactive)
REMARK    1  A    between atoms: C_8  and  C_3 
REMARK    2  A    between atoms: C_16  and  C_7 
REMARK    3  A    between atoms: O_15  and  C_8 
REMARK    4  A    between atoms: N_14  and  C_10 
REMARK    5  A    between atoms: C_17  and  O_15 
REMARK    6  A    between atoms: C_18  and  C_16 
ROOT
ATOM      1  C   UNL d   1      -0.023  -0.624   0.119  0.00  0.00     0.098 A 
ATOM      2  O   UNL d   1       1.153  -1.344   0.157  0.00  0.00    -0.303 OA
ATOM      3  C   UNL d   1       2.356  -0.656   0.085  0.00  0.00     0.154 A 
ATOM      4  C   UNL d   1      -0.014   0.774   0.063  0.00  0.00     0.049 A 
ATOM      5  C   UNL d   1       2.477   0.677   0.093  0.00  0.00     0.099 A 
ATOM      6  C   UNL d   1       1.262   1.494   0.120  0.00  0.00     0.187 A 
ATOM      7  C   UNL d   1      -1.247  -1.333   0.117  0.00  0.00    -0.002 A 
ATOM      8  C   UNL d   1      -1.202   1.486  -0.064  0.00  0.00     0.020 A 
ATOM      9  C   UNL d   1      -2.454  -0.603   0.006  0.00  0.00     0.015 A 
ATOM     10  O   UNL d   1       1.327   2.715   0.159  0.00  0.00    -0.287 OA
ATOM     11  C   UNL d   1      -2.406   0.794  -0.133  0.00  0.00     0.025 A 
ENDROOT
BRANCH   3  12
ATOM     12  C   UNL d   1       3.620  -1.414  -0.123  0.00  0.00     0.317 C 
ATOM     13  O   UNL d   1       4.738  -0.936  -0.009  0.00  0.00    -0.257 OA
BRANCH  12  14
ATOM     14  O   UNL d   1       3.326  -2.648  -0.608  0.00  0.00    -0.316 OA
BRANCH  14  15
ATOM     15  C   UNL d   1       4.411  -3.308  -1.277  0.00  0.00     0.175 C 
ATOM     16  C   UNL d   1       4.407  -2.881  -2.735  0.00  0.00     0.034 C 
ENDBRANCH  14  15
ENDBRANCH  12  14
ENDBRANCH   3  12
BRANCH   7  17
ATOM     17  C   UNL d   1      -1.240  -2.842   0.290  0.00  0.00     0.043 C 
BRANCH  17  18
ATOM     18  C   UNL d   1      -1.005  -3.660  -0.981  0.00  0.00     0.000 C 
ATOM     19  C   UNL d   1      -2.152  -3.600  -1.978  0.00  0.00     0.005 C 
ENDBRANCH  17  18
ENDBRANCH   7  17
BRANCH   9  20
ATOM     20  N   UNL d   1      -3.693  -1.228  -0.199  0.00  0.00    -0.302 NA
ATOM     21  H   UNL d   1      -3.798  -2.143   0.222  0.00  0.00     0.124 HD
ATOM     22  H   UNL d   1      -4.497  -0.635  -0.020  0.00  0.00     0.124 HD
ENDBRANCH   9  20
TORSDOF 6
