REMARK  4 active torsions:
REMARK  status: ('A' for Active; 'I' for Inactive)
REMARK    1  A    between atoms: C_2  and  C_1 
REMARK       I    between atoms: N_3  and  C_1 
REMARK       I    between atoms: C_4  and  N_3 
REMARK       I    between atoms: N_7  and  C_4 
REMARK    2  A    between atoms: C_5  and  N_7 
REMARK    3  A    between atoms: O_19  and  C_6 
REMARK    4  A    between atoms: O_22  and  C_10 
ROOT
ATOM      1  C   UNL d   1       0.996   0.483  -0.445  0.00  0.00     0.265 C 
ATOM      2  N   UNL d   1       0.019   1.127  -1.213  0.00  0.00    -0.275 N 
ATOM      3  C   UNL d   1      -1.351   1.026  -1.355  0.00  0.00     0.327 C 
ATOM      4  N   UNL d   1      -1.990  -0.012  -0.747  0.00  0.00    -0.308 N 
ATOM      5  O   UNL d   1       0.784  -0.470   0.279  0.00  0.00    -0.267 OA
ATOM      6  O   UNL d   1      -1.893   1.916  -2.015  0.00  0.00    -0.247 OA
ATOM      7  H   UNL d   1       0.329   1.924  -1.742  0.00  0.00     0.173 HD
ATOM      8  H   UNL d   1      -1.522  -0.358   0.084  0.00  0.00     0.170 HD
ENDROOT
BRANCH   1   9
ATOM      9  C   UNL d   1       2.343   1.177  -0.569  0.00  0.00     0.100 C 
ATOM     10  C   UNL d   1       2.860   1.473  -1.865  0.00  0.00     0.104 C 
ATOM     11  C   UNL d   1       3.873   2.441  -1.979  0.00  0.00     0.045 C 
ATOM     12 BR   UNL d   1       4.723   3.004  -3.580  0.00  0.00    -0.048 Br
ATOM     13  C   UNL d   1       4.359   3.078  -0.829  0.00  0.00     0.025 C 
ATOM     14  C   UNL d   1       3.919   2.702   0.437  0.00  0.00     0.039 C 
ATOM     15  C   UNL d   1       2.940   1.719   0.587  0.00  0.00     0.086 C 
BRANCH  10  16
ATOM     16  O   UNL d   1       2.399   0.642  -2.850  0.00  0.00    -0.353 OA
ATOM     17  C   UNL d   1       2.125   1.137  -4.152  0.00  0.00     0.210 C 
ENDBRANCH  10  16
BRANCH  15  18
ATOM     18  O   UNL d   1       2.499   1.303   1.811  0.00  0.00    -0.355 OA
ATOM     19  C   UNL d   1       3.409   1.387   2.910  0.00  0.00     0.210 C 
ENDBRANCH  15  18
ENDBRANCH   1   9
BRANCH   4  20
ATOM     20  C   UNL d   1      -3.365  -0.357  -0.937  0.00  0.00     0.048 A 
ATOM     21  C   UNL d   1      -3.985  -0.409  -2.213  0.00  0.00    -0.033 A 
ATOM     22  C   UNL d   1      -5.295  -0.926  -2.336  0.00  0.00     0.028 A 
ATOM     23  C   UNL d   1      -3.373   0.071  -3.503  0.00  0.00     0.050 C 
ATOM     24  C   UNL d   1      -5.985  -1.400  -1.232  0.00  0.00     0.012 A 
ATOM     25  C   UNL d   1      -5.415  -1.305   0.026  0.00  0.00     0.028 A 
ATOM     26 BR   UNL d   1      -7.708  -2.148  -1.443  0.00  0.00    -0.051 Br
ATOM     27  C   UNL d   1      -4.124  -0.757   0.192  0.00  0.00    -0.033 A 
ATOM     28  C   UNL d   1      -3.671  -0.552   1.615  0.00  0.00     0.050 C 
ENDBRANCH   4  20
TORSDOF 4
