REMARK  5 active torsions:
REMARK  status: ('A' for Active; 'I' for Inactive)
REMARK    1  A    between atoms: C_17  and  N_1 
REMARK    2  A    between atoms: C_14  and  C_2 
REMARK    3  A    between atoms: C_5  and  C_7 
REMARK    4  A    between atoms: O_25  and  C_14 
REMARK    5  A    between atoms: C_15  and  C_17 
ROOT
ATOM      1  C   UNL d   1       7.057   4.588  -0.744  0.00  0.00     0.054 A 
ATOM      2  C   UNL d   1       5.731   4.205  -1.445  0.00  0.00     0.122 A 
ATOM      3  C   UNL d   1       4.951   5.421  -1.942  0.00  0.00     0.025 A 
ATOM      4  C   UNL d   1       7.405   5.891  -0.589  0.00  0.00     0.018 A 
ATOM      5  C   UNL d   1       5.406   6.676  -1.772  0.00  0.00     0.020 A 
ATOM      6  N   UNL d   1       6.612   6.886  -1.144  0.00  0.00    -0.362 N 
ATOM      7  C   UNL d   1       3.627   5.221  -2.597  0.00  0.00     0.158 C 
ATOM      8  O   UNL d   1       3.274   4.115  -3.000  0.00  0.00    -0.293 OA
ATOM      9  C   UNL d   1       4.664   7.914  -2.213  0.00  0.00     0.058 C 
ATOM     10  C   UNL d   1       8.590   6.448   0.162  0.00  0.00     0.069 C 
ATOM     11  C   UNL d   1       2.721   6.427  -2.715  0.00  0.00     0.084 C 
ATOM     12  C   UNL d   1       3.529   7.622  -3.185  0.00  0.00     0.014 C 
ATOM     13  H   UNL d   1       6.894   7.849  -0.981  0.00  0.00     0.165 HD
ENDROOT
BRANCH   2  14
ATOM     14  C   UNL d   1       4.876   3.307  -0.578  0.00  0.00     0.067 A 
ATOM     15  O   UNL d   1       4.489   3.792   0.637  0.00  0.00    -0.317 OA
ATOM     16  C   UNL d   1       3.745   2.820   1.238  0.00  0.00     0.071 A 
ATOM     17  C   UNL d   1       3.629   1.729   0.400  0.00  0.00     0.037 A 
ATOM     18  C   UNL d   1       4.392   2.026  -0.751  0.00  0.00     0.036 A 
BRANCH  16  19
ATOM     19  C   UNL d   1       3.280   3.088   2.623  0.00  0.00     0.200 C 
BRANCH  19  20
ATOM     20  N   UNL d   1       1.986   3.731   2.609  0.00  0.00    -0.274 N 
ATOM     21  C   UNL d   1       1.796   5.079   2.706  0.00  0.00     0.262 A 
ATOM     22  C   UNL d   1       0.353   5.298   2.705  0.00  0.00     0.048 A 
ATOM     23  O   UNL d   1       2.617   5.976   2.811  0.00  0.00    -0.267 OA
ATOM     24  C   UNL d   1      -0.376   6.468   2.784  0.00  0.00     0.018 A 
ATOM     25  C   UNL d   1      -0.259   4.059   2.625  0.00  0.00     0.048 A 
ATOM     26  C   UNL d   1      -1.770   6.357   2.767  0.00  0.00     0.001 A 
ATOM     27  C   UNL d   1      -2.394   5.095   2.680  0.00  0.00     0.001 A 
ATOM     28  C   UNL d   1      -1.635   3.923   2.613  0.00  0.00     0.018 A 
ATOM     29  C   UNL d   1       0.799   3.051   2.579  0.00  0.00     0.262 A 
ATOM     30  O   UNL d   1       0.597   1.848   2.555  0.00  0.00    -0.267 OA
ENDBRANCH  19  20
ENDBRANCH  16  19
ENDBRANCH   2  14
BRANCH   1  31
ATOM     31  C   UNL d   1       7.868   3.450  -0.210  0.00  0.00     0.292 C 
ATOM     32  O   UNL d   1       8.658   3.515   0.718  0.00  0.00    -0.260 OA
BRANCH  31  33
ATOM     33  O   UNL d   1       7.612   2.322  -0.927  0.00  0.00    -0.323 OA
ATOM     34  C   UNL d   1       8.276   1.137  -0.479  0.00  0.00     0.213 C 
ENDBRANCH  31  33
ENDBRANCH   1  31
TORSDOF 5
