REMARK  6 active torsions:
REMARK  status: ('A' for Active; 'I' for Inactive)
REMARK    1  A    between atoms: S_8  and  C_2 
REMARK    2  A    between atoms: C_10  and  C_4 
REMARK    3  A    between atoms: C_7  and  C_9 
REMARK    4  A    between atoms: C_14  and  S_8 
REMARK    5  A    between atoms: O_25  and  C_10 
REMARK    6  A    between atoms: C_28  and  O_25 
ROOT
ATOM      1  C   UNL d   1       0.099  -0.808   0.166  0.00  0.00     0.042 A 
ATOM      2  C   UNL d   1       1.208  -1.628   0.112  0.00  0.00     0.062 A 
ATOM      3  C   UNL d   1       0.447   0.593   0.051  0.00  0.00    -0.018 A 
ATOM      4  C   UNL d   1       1.818   0.780  -0.072  0.00  0.00     0.088 A 
ATOM      5  S   UNL d   1       2.650  -0.717   0.019  0.00  0.00    -0.075 SA
ATOM      6  C   UNL d   1      -1.293  -1.240   0.270  0.00  0.00     0.162 C 
ATOM      7  C   UNL d   1      -0.610   1.675   0.008  0.00  0.00     0.050 C 
ATOM      8  C   UNL d   1      -2.026   1.177   0.415  0.00  0.00    -0.037 C 
ATOM      9  C   UNL d   1      -2.311  -0.216  -0.190  0.00  0.00     0.093 C 
ATOM     10  O   UNL d   1      -1.644  -2.339   0.696  0.00  0.00    -0.292 OA
ATOM     11  C   UNL d   1      -3.085   2.160  -0.119  0.00  0.00     0.015 C 
ATOM     12  C   UNL d   1      -2.156   1.125   1.952  0.00  0.00     0.015 C 
ENDROOT
BRANCH   2  13
ATOM     13  S   UNL d   1       1.292  -3.383   0.142  0.00  0.00    -0.064 SA
BRANCH  13  14
ATOM     14  C   UNL d   1       0.463  -3.803  -1.391  0.00  0.00     0.074 A 
ATOM     15  N   UNL d   1      -0.045  -2.829  -2.186  0.00  0.00    -0.359 N 
ATOM     16  C   UNL d   1      -0.649  -3.206  -3.339  0.00  0.00     0.105 A 
ATOM     17  HN  UNL d   1       0.025  -1.845  -1.925  1.00  0.00     0.166 HD
ATOM     18  C   UNL d   1      -0.759  -4.521  -3.766  0.00  0.00     0.063 A 
ATOM     19  C   UNL d   1      -0.230  -5.509  -2.935  0.00  0.00     0.020 A 
ATOM     20  C   UNL d   1       0.384  -5.149  -1.735  0.00  0.00     0.038 A 
BRANCH  18  21
ATOM     21  C   UNL d   1      -1.404  -4.856  -5.075  0.00  0.00     0.418 C 
ATOM     22  F   UNL d   1      -1.890  -3.771  -5.739  0.00  0.00    -0.166 F 
ATOM     23  F   UNL d   1      -0.540  -5.461  -5.936  0.00  0.00    -0.166 F 
ATOM     24  F   UNL d   1      -2.454  -5.712  -4.940  0.00  0.00    -0.166 F 
ENDBRANCH  18  21
ENDBRANCH  13  14
ENDBRANCH   2  13
BRANCH   4  25
ATOM     25  C   UNL d   1       2.535   2.029  -0.299  0.00  0.00     0.300 C 
ATOM     26  O   UNL d   1       2.001   3.125  -0.437  0.00  0.00    -0.259 OA
BRANCH  25  27
ATOM     27  O   UNL d   1       3.878   1.820  -0.409  0.00  0.00    -0.317 OA
BRANCH  27  28
ATOM     28  C   UNL d   1       4.651   2.904  -0.938  0.00  0.00     0.174 C 
ATOM     29  C   UNL d   1       4.672   2.788  -2.453  0.00  0.00     0.034 C 
ENDBRANCH  27  28
ENDBRANCH  25  27
ENDBRANCH   4  25
TORSDOF 6
