REMARK  2 active torsions:
REMARK  status: ('A' for Active; 'I' for Inactive)
REMARK    1  A    between atoms: S_9  and  C_5 
REMARK    2  A    between atoms: C_12  and  S_9 
ROOT
ATOM      1  N   UNL d   1      -2.067   2.521   3.704  0.00  0.00    -0.197 NA
ATOM      2  C   UNL d   1      -2.701   2.415   2.738  0.00  0.00     0.069 C 
ATOM      3  C   UNL d   1      -3.528   2.271   1.533  0.00  0.00     0.203 C 
ENDROOT
BRANCH   3   4
ATOM      4  S   UNL d   1      -2.637   2.559  -0.038  0.00  0.00    -0.114 SA
BRANCH   4   5
ATOM      5  C   UNL d   1      -1.280   1.389   0.067  0.00  0.00     0.023 A 
ATOM      6  C   UNL d   1      -1.405  -0.009   0.040  0.00  0.00     0.052 A 
ATOM      7  C   UNL d   1      -0.267  -0.822   0.041  0.00  0.00     0.049 A 
ATOM      8 CL   UNL d   1      -2.936  -0.807  -0.046  0.00  0.00    -0.083 Cl
ATOM      9  C   UNL d   1       1.008  -0.254   0.050  0.00  0.00     0.041 A 
ATOM     10  C   UNL d   1       1.164   1.138   0.065  0.00  0.00    -0.039 A 
ATOM     11 CL   UNL d   1       2.369  -1.316   0.017  0.00  0.00    -0.084 Cl
ATOM     12  C   UNL d   1       0.012   1.944   0.075  0.00  0.00     0.028 A 
ATOM     13  C   UNL d   1       2.521   1.787   0.052  0.00  0.00     0.050 C 
ENDBRANCH   4   5
ENDBRANCH   3   4
TORSDOF 2
