REMARK  6 active torsions:
REMARK  status: ('A' for Active; 'I' for Inactive)
REMARK    1  A    between atoms: C_6  and  C_1 
REMARK    2  A    between atoms: O_5  and  C_2 
REMARK    3  A    between atoms: C_3  and  C_10 
REMARK    4  A    between atoms: C_4  and  O_5 
REMARK    5  A    between atoms: C_11  and  C_4 
REMARK    6  A    between atoms: O_21  and  C_6 
ROOT
ATOM      1  C   UNL d   1       3.684  -0.881   0.190  0.00  0.00     0.298 C 
ATOM      2  O   UNL d   1       4.397  -1.866   0.281  0.00  0.00    -0.259 OA
ENDROOT
BRANCH   1   3
ATOM      3  O   UNL d   1       2.328  -0.856   0.055  0.00  0.00    -0.273 OA
BRANCH   3   4
ATOM      4  C   UNL d   1       1.642  -1.973   0.393  0.00  0.00     0.102 A 
ATOM      5  C   UNL d   1       1.647  -2.638   1.668  0.00  0.00     0.080 A 
ATOM      6  C   UNL d   1       0.796  -3.734   1.631  0.00  0.00     0.070 A 
ATOM      7  S   UNL d   1      -0.036  -3.892   0.147  0.00  0.00    -0.110 SA
ATOM      8  C   UNL d   1       0.743  -2.516  -0.497  0.00  0.00     0.088 A 
BRANCH   5   9
ATOM      9  C   UNL d   1       2.378  -2.284   2.884  0.00  0.00     0.296 C 
ATOM     10  O   UNL d   1       2.505  -3.048   3.832  0.00  0.00    -0.259 OA
BRANCH   9  11
ATOM     11  O   UNL d   1       2.828  -0.998   2.867  0.00  0.00    -0.322 OA
ATOM     12  C   UNL d   1       3.551  -0.552   4.017  0.00  0.00     0.213 C 
ENDBRANCH   9  11
ENDBRANCH   5   9
ENDBRANCH   3   4
ENDBRANCH   1   3
BRANCH   1  13
ATOM     13  C   UNL d   1       4.194   0.518   0.279  0.00  0.00     0.040 A 
ATOM     14  C   UNL d   1       5.579   0.721   0.326  0.00  0.00     0.018 A 
ATOM     15  C   UNL d   1       6.099   2.012   0.463  0.00  0.00     0.017 A 
ATOM     16  C   UNL d   1       5.242   3.120   0.558  0.00  0.00     0.048 A 
ATOM     17  C   UNL d   1       3.856   2.909   0.530  0.00  0.00     0.017 A 
ATOM     18  C   UNL d   1       3.335   1.619   0.391  0.00  0.00     0.018 A 
BRANCH  16  19
ATOM     19  C   UNL d   1       5.781   4.525   0.690  0.00  0.00     0.417 C 
ATOM     20  F   UNL d   1       7.140   4.595   0.648  0.00  0.00    -0.166 F 
ATOM     21  F   UNL d   1       5.333   5.344  -0.301  0.00  0.00    -0.166 F 
ATOM     22  F   UNL d   1       5.410   5.115   1.859  0.00  0.00    -0.166 F 
ENDBRANCH  16  19
ENDBRANCH   1  13
TORSDOF 6
