REMARK  2 active torsions:
REMARK  status: ('A' for Active; 'I' for Inactive)
REMARK    1  A    between atoms: N_5  and  C_1 
REMARK       I    between atoms: C_6  and  N_5 
REMARK    2  A    between atoms: C_9  and  C_6 
ROOT
ATOM      1  N   UNL d   1      -2.385  -1.623   0.024  0.00  0.00    -0.307 N 
ATOM      2  C   UNL d   1      -2.522  -2.998   0.057  0.00  0.00     0.257 C 
ATOM      3  O   UNL d   1      -3.569  -3.631   0.115  0.00  0.00    -0.267 OA
ATOM      4  H   UNL d   1      -1.472  -1.203   0.078  0.00  0.00     0.170 HD
ENDROOT
BRANCH   1   5
ATOM      5  C   UNL d   1      -3.462  -0.752   0.081  0.00  0.00     0.130 A 
ATOM      6  N   UNL d   1      -4.752  -1.099   0.065  0.00  0.00    -0.245 N 
ATOM      7  O   UNL d   1      -5.477   0.064   0.203  0.00  0.00    -0.241 OA
ATOM      8  HN  UNL d   1      -5.128  -2.042  -0.030  1.00  0.00     0.196 HD
ATOM      9  C   UNL d   1      -4.626   1.116   0.296  0.00  0.00     0.076 A 
ATOM     10  C   UNL d   1      -3.335   0.657   0.186  0.00  0.00     0.084 A 
ATOM     11  C   UNL d   1      -5.246   2.436   0.500  0.00  0.00     0.079 C 
ENDBRANCH   1   5
BRANCH   2  12
ATOM     12  C   UNL d   1      -1.251  -3.782   0.071  0.00  0.00     0.032 A 
ATOM     13  C   UNL d   1      -1.265  -5.032   0.714  0.00  0.00     0.018 A 
ATOM     14  C   UNL d   1      -0.126  -5.839   0.725  0.00  0.00     0.025 A 
ATOM     15  C   UNL d   1       1.032  -5.402   0.088  0.00  0.00     0.034 A 
ATOM     16  C   UNL d   1       1.060  -4.162  -0.555  0.00  0.00     0.025 A 
ATOM     17 CL   UNL d   1       2.430  -6.403   0.077  0.00  0.00    -0.084 Cl
ATOM     18  C   UNL d   1      -0.081  -3.350  -0.568  0.00  0.00     0.018 A 
ENDBRANCH   2  12
TORSDOF 2
