REMARK  5 active torsions:
REMARK  status: ('A' for Active; 'I' for Inactive)
REMARK    1  A    between atoms: C_2  and  C_1 
REMARK    2  A    between atoms: C_6  and  C_2 
REMARK    3  A    between atoms: C_8  and  C_3 
REMARK    4  A    between atoms: O_19  and  C_11 
REMARK    5  A    between atoms: O_20  and  C_12 
ROOT
ATOM      1  C   UNL d   1       0.868   0.025   0.051  0.00  0.00     0.096 C 
ATOM      2  C   UNL d   1       0.222  -1.112   0.380  0.00  0.00     0.038 C 
ATOM      3  C   UNL d   1       0.176   1.226  -0.275  0.00  0.00     0.103 C 
ATOM      4  N   UNL d   1      -0.377   2.208  -0.559  0.00  0.00    -0.191 NA
ENDROOT
BRANCH   1   5
ATOM      5  C   UNL d   1       2.366  -0.003   0.069  0.00  0.00     0.202 C 
ATOM      6  O   UNL d   1       2.985  -0.781   0.791  0.00  0.00    -0.286 OA
BRANCH   5   7
ATOM      7  C   UNL d   1       3.124   0.949  -0.792  0.00  0.00     0.016 A 
ATOM      8  C   UNL d   1       4.343   1.462  -0.326  0.00  0.00     0.018 A 
ATOM      9  C   UNL d   1       5.061   2.393  -1.092  0.00  0.00     0.037 A 
ATOM     10  C   UNL d   1       4.570   2.810  -2.329  0.00  0.00     0.068 A 
ATOM     11  C   UNL d   1       3.381   2.259  -2.811  0.00  0.00     0.037 A 
ATOM     12  C   UNL d   1       2.670   1.320  -2.061  0.00  0.00     0.018 A 
BRANCH  10  13
ATOM     13  O   UNL d   1       5.142   3.728  -3.164  0.00  0.00    -0.356 OA
ATOM     14  C   UNL d   1       6.345   4.345  -2.727  0.00  0.00     0.210 C 
ENDBRANCH  10  13
ENDBRANCH   5   7
ENDBRANCH   1   5
BRANCH   2  15
ATOM     15  C   UNL d   1      -1.239  -1.248   0.353  0.00  0.00    -0.035 A 
ATOM     16  C   UNL d   1      -1.870  -1.717  -0.805  0.00  0.00     0.014 A 
ATOM     17  C   UNL d   1      -3.263  -1.784  -0.867  0.00  0.00     0.037 A 
ATOM     18  C   UNL d   1      -4.021  -1.385   0.226  0.00  0.00     0.065 A 
ATOM     19  C   UNL d   1      -3.410  -0.926   1.389  0.00  0.00     0.037 A 
ATOM     20  C   UNL d   1      -2.014  -0.858   1.452  0.00  0.00     0.014 A 
BRANCH  18  21
ATOM     21  O   UNL d   1      -5.378  -1.455   0.115  0.00  0.00    -0.361 OA
ATOM     22  H   UNL d   1      -5.777  -1.097   0.925  0.00  0.00     0.217 HD
ENDBRANCH  18  21
ENDBRANCH   2  15
TORSDOF 5
