REMARK  3 active torsions:
REMARK  status: ('A' for Active; 'I' for Inactive)
REMARK    1  A    between atoms: C_7  and  C_1 
REMARK       I    between atoms: C_3  and  N_5 
REMARK    2  A    between atoms: C_4  and  C_3 
REMARK    3  A    between atoms: N_5  and  C_17 
ROOT
ATOM      1  C   UNL d   1       0.053  -6.246  -0.219  0.00  0.00     0.251 C 
ATOM      2  N   UNL d   1      -0.442  -7.428   0.316  0.00  0.00    -0.325 N 
ATOM      3  O   UNL d   1      -0.548  -5.176  -0.266  0.00  0.00    -0.270 OA
ATOM      4  H   UNL d   1       0.198  -8.216   0.306  0.00  0.00     0.169 HD
ENDROOT
BRANCH   1   5
ATOM      5  C   UNL d   1       1.526  -6.346  -0.673  0.00  0.00     0.221 C 
ATOM      6  O   UNL d   1       1.934  -7.654  -1.075  0.00  0.00    -0.336 OA
ATOM      7  C   UNL d   1       1.693  -7.975  -2.384  0.00  0.00     0.076 A 
ATOM      8  C   UNL d   1       1.930  -9.303  -2.739  0.00  0.00     0.037 A 
ATOM      9  C   UNL d   1       1.255  -7.057  -3.344  0.00  0.00    -0.025 A 
ATOM     10  C   UNL d   1       1.673  -9.736  -4.039  0.00  0.00     0.003 A 
ATOM     11  C   UNL d   1       1.169  -8.843  -4.982  0.00  0.00     0.001 A 
ATOM     12  C   UNL d   1       0.962  -7.508  -4.638  0.00  0.00     0.010 A 
ATOM     13  C   UNL d   1       1.094  -5.603  -3.006  0.00  0.00     0.044 C 
ATOM     14  C   UNL d   1       1.856  -5.287  -1.725  0.00  0.00     0.047 C 
ENDBRANCH   1   5
BRANCH   2  15
ATOM     15  C   UNL d   1      -1.707  -7.620   0.910  0.00  0.00     0.034 A 
ATOM     16  C   UNL d   1      -2.715  -6.654   0.907  0.00  0.00     0.030 A 
ATOM     17  C   UNL d   1      -3.914  -6.865   1.596  0.00  0.00     0.018 A 
ATOM     18  C   UNL d   1      -4.131  -8.052   2.304  0.00  0.00     0.048 A 
ATOM     19  C   UNL d   1      -3.143  -9.046   2.263  0.00  0.00     0.018 A 
ATOM     20  C   UNL d   1      -1.946  -8.834   1.564  0.00  0.00     0.030 A 
BRANCH  18  21
ATOM     21  C   UNL d   1      -5.396  -8.219   3.108  0.00  0.00     0.417 C 
ATOM     22  F   UNL d   1      -5.478  -9.416   3.755  0.00  0.00    -0.166 F 
ATOM     23  F   UNL d   1      -6.520  -8.129   2.346  0.00  0.00    -0.166 F 
ATOM     24  F   UNL d   1      -5.524  -7.268   4.075  0.00  0.00    -0.166 F 
ENDBRANCH  18  21
ENDBRANCH   2  15
TORSDOF 3
