REMARK  4 active torsions:
REMARK  status: ('A' for Active; 'I' for Inactive)
REMARK    1  A    between atoms: S_14  and  C_7 
REMARK    2  A    between atoms: C_13  and  C_17 
REMARK       I    between atoms: N_15  and  C_13 
REMARK    3  A    between atoms: C_17  and  S_14 
REMARK    4  A    between atoms: C_18  and  N_15 
ROOT
ATOM      1  C   UNL d   1       0.632  -1.167   0.797  0.00  0.00     0.706 A 
ATOM      2  N   UNL d   1       0.331  -0.365  -0.310  0.00  0.00    -0.089 N 
ATOM      3  N   UNL d   1       1.916  -1.448   0.796  0.00  0.00    -0.167 N 
ATOM      4  HN  UNL d   1       2.460  -1.939   1.505  1.00  0.00     0.186 HD
ATOM      5  N   UNL d   1       1.456  -0.171  -1.036  0.00  0.00    -0.258 N 
ATOM      6  HN  UNL d   1       1.592   0.402  -1.869  1.00  0.00     0.190 HD
ATOM      7  C   UNL d   1       2.342  -0.921  -0.383  0.00  0.00     0.175 C 
ATOM      8  N   UNL d   1      -0.322  -1.662   1.626  0.00  0.00    -0.194 N 
ATOM      9  HN  UNL d   1      -0.088  -2.234   2.437  1.00  0.00     0.184 HD
ATOM     10  C   UNL d   1      -0.985   0.047  -0.556  0.00  0.00     0.050 A 
ATOM     11  C   UNL d   1      -1.966  -0.424   0.235  0.00  0.00     0.052 A 
ATOM     12  C   UNL d   1      -1.553  -1.363   1.327  0.00  0.00     0.024 A 
ATOM     13  C   UNL d   1      -1.259   0.987  -1.688  0.00  0.00     0.071 C 
ATOM     14  C   UNL d   1      -2.642  -2.040   2.120  0.00  0.00     0.068 C 
ENDROOT
BRANCH   7  15
ATOM     15  S   UNL d   1       3.885  -1.330  -1.071  0.00  0.00    -0.083 SA
BRANCH  15  16
ATOM     16  C   UNL d   1       4.406  -2.672   0.032  0.00  0.00     0.185 C 
BRANCH  16  17
ATOM     17  C   UNL d   1       3.542  -3.924  -0.100  0.00  0.00     0.231 C 
ATOM     18  N   UNL d   1       2.560  -4.030   0.873  0.00  0.00    -0.327 N 
ATOM     19  H   UNL d   1       2.305  -3.155   1.334  0.00  0.00     0.169 HD
ATOM     20  O   UNL d   1       3.759  -4.747  -0.988  0.00  0.00    -0.272 OA
BRANCH  18  21
ATOM     21  C   UNL d   1       1.734  -5.138   1.149  0.00  0.00     0.034 A 
ATOM     22  C   UNL d   1       1.974  -6.417   0.645  0.00  0.00     0.031 A 
ATOM     23  C   UNL d   1       1.152  -7.489   1.009  0.00  0.00     0.026 A 
ATOM     24  C   UNL d   1       0.078  -7.284   1.872  0.00  0.00     0.034 A 
ATOM     25  C   UNL d   1      -0.187  -6.012   2.369  0.00  0.00     0.026 A 
ATOM     26 CL   UNL d   1      -0.911  -8.610   2.341  0.00  0.00    -0.084 Cl
ATOM     27  C   UNL d   1       0.649  -4.947   2.016  0.00  0.00     0.031 A 
ENDBRANCH  18  21
ENDBRANCH  16  17
ENDBRANCH  15  16
ENDBRANCH   7  15
TORSDOF 4
