REMARK  3 active torsions:
REMARK  status: ('A' for Active; 'I' for Inactive)
REMARK    1  A    between atoms: C_6  and  C_1 
REMARK       I    between atoms: C_2  and  N_3 
REMARK    2  A    between atoms: C_4  and  C_2 
REMARK    3  A    between atoms: N_5  and  C_6 
ROOT
ATOM      1  C   UNL d   1      -4.670   0.421   0.652  0.00  0.00     0.260 C 
ATOM      2  N   UNL d   1      -3.661   1.408   0.548  0.00  0.00    -0.344 N 
ATOM      3  N   UNL d   1      -1.116   2.936   0.270  0.00  0.00     0.096 N 
ATOM      4  O   UNL d   1      -4.627  -0.391   1.579  0.00  0.00    -0.267 OA
ATOM      5  C   UNL d   1      -3.312   2.048  -0.729  0.00  0.00     0.156 C 
ATOM      6  C   UNL d   1      -2.546   1.246   1.489  0.00  0.00     0.156 C 
ATOM      7  C   UNL d   1      -2.259   3.178  -0.623  0.00  0.00     0.292 C 
ATOM      8  C   UNL d   1      -1.616   2.462   1.569  0.00  0.00     0.292 C 
ENDROOT
BRANCH   3   9
ATOM      9  C   UNL d   1      -0.078   2.055  -0.295  0.00  0.00     0.316 C 
BRANCH   9  10
ATOM     10  C   UNL d   1       0.742   2.764  -1.351  0.00  0.00     0.030 A 
ATOM     11  C   UNL d   1       0.567   2.575  -2.729  0.00  0.00     0.045 A 
ATOM     12 CL   UNL d   1      -0.508   1.380  -3.365  0.00  0.00    -0.084 Cl
ATOM     13  C   UNL d   1       1.262   3.364  -3.656  0.00  0.00     0.024 A 
ATOM     14  C   UNL d   1       2.160   4.339  -3.223  0.00  0.00     0.005 A 
ATOM     15  C   UNL d   1       2.386   4.504  -1.861  0.00  0.00     0.043 A 
ATOM     16  C   UNL d   1       1.685   3.721  -0.945  0.00  0.00     0.126 A 
ATOM     17  F   UNL d   1       1.934   3.905   0.361  0.00  0.00    -0.205 F 
ENDBRANCH   9  10
ENDBRANCH   3   9
BRANCH   1  18
ATOM     18  C   UNL d   1      -5.740   0.375  -0.345  0.00  0.00     0.072 A 
ATOM     19  S   UNL d   1      -6.324  -1.170  -0.833  0.00  0.00    -0.097 SA
ATOM     20  C   UNL d   1      -7.469  -0.485  -1.899  0.00  0.00     0.050 A 
ATOM     21  C   UNL d   1      -7.428   0.890  -1.881  0.00  0.00     0.009 A 
ATOM     22  C   UNL d   1      -6.460   1.381  -0.955  0.00  0.00     0.025 A 
ENDBRANCH   1  18
TORSDOF 3
