REMARK  6 active torsions:
REMARK  status: ('A' for Active; 'I' for Inactive)
REMARK    1  A    between atoms: C_6  and  C_1 
REMARK    2  A    between atoms: N_7  and  C_2 
REMARK    3  A    between atoms: C_8  and  N_4 
REMARK    4  A    between atoms: O_12  and  C_6 
REMARK    5  A    between atoms: C_11  and  N_7 
REMARK    6  A    between atoms: C_22  and  O_12 
ROOT
ATOM      1  C   UNL d   1      -1.450   0.859   0.017  0.00  0.00     0.062 A 
ATOM      2  C   UNL d   1      -0.193   1.325   0.020  0.00  0.00     0.095 A 
ATOM      3  C   UNL d   1       0.677   0.117   0.043  0.00  0.00     0.266 A 
ATOM      4  N   UNL d   1      -0.137  -1.005  -0.020  0.00  0.00    -0.334 N 
ATOM      5  C   UNL d   1      -1.535  -0.624  -0.004  0.00  0.00     0.174 A 
ATOM      6  O   UNL d   1       1.895   0.174   0.070  0.00  0.00    -0.266 OA
ENDROOT
BRANCH   2   7
ATOM      7  N   UNL d   1       0.362   2.584  -0.032  0.00  0.00    -0.254 NA
ATOM      8  H   UNL d   1       1.326   2.543   0.321  0.00  0.00     0.134 HD
BRANCH   7   9
ATOM      9  C   UNL d   1       0.388   3.364  -1.223  0.00  0.00     0.013 A 
ATOM     10  C   UNL d   1       0.077   2.848  -2.491  0.00  0.00     0.027 A 
ATOM     11  C   UNL d   1       0.171   3.654  -3.631  0.00  0.00     0.044 A 
ATOM     12  C   UNL d   1       0.568   4.978  -3.504  0.00  0.00     0.116 A 
ATOM     13  C   UNL d   1       0.875   5.513  -2.260  0.00  0.00     0.044 A 
ATOM     14  F   UNL d   1       0.661   5.748  -4.596  0.00  0.00    -0.206 F 
ATOM     15  C   UNL d   1       0.790   4.705  -1.123  0.00  0.00     0.027 A 
ENDBRANCH   7   9
ENDBRANCH   2   7
BRANCH   1  16
ATOM     16  C   UNL d   1      -2.678   1.652  -0.051  0.00  0.00     0.292 C 
ATOM     17  O   UNL d   1      -3.753   1.170  -0.378  0.00  0.00    -0.259 OA
BRANCH  16  18
ATOM     18  O   UNL d   1      -2.442   2.945   0.266  0.00  0.00    -0.318 OA
BRANCH  18  19
ATOM     19  C   UNL d   1      -3.401   3.918  -0.160  0.00  0.00     0.174 C 
ATOM     20  C   UNL d   1      -3.975   4.637   1.042  0.00  0.00     0.034 C 
ENDBRANCH  18  19
ENDBRANCH  16  18
ENDBRANCH   1  16
BRANCH   4  21
ATOM     21  C   UNL d   1       0.348  -2.398  -0.159  0.00  0.00     0.025 C 
ATOM     22  C   UNL d   1      -0.806  -3.422  -0.173  0.00  0.00     0.037 C 
ATOM     23  C   UNL d   1       1.124  -2.554  -1.483  0.00  0.00     0.037 C 
ATOM     24  C   UNL d   1       1.276  -2.756   1.017  0.00  0.00     0.037 C 
ENDBRANCH   4  21
TORSDOF 6
