REMARK  5 active torsions:
REMARK  status: ('A' for Active; 'I' for Inactive)
REMARK    1  A    between atoms: C_5  and  C_1 
REMARK    2  A    between atoms: C_8  and  C_2 
REMARK       I    between atoms: N_12  and  C_8 
REMARK    3  A    between atoms: C_15  and  N_12 
REMARK    4  A    between atoms: C_21  and  C_15 
REMARK    5  A    between atoms: C_17  and  C_21 
ROOT
ATOM      1  C   UNL d   1      -1.154  -0.846   0.565  0.00  0.00     0.086 A 
ATOM      2  C   UNL d   1       0.034  -1.305  -0.107  0.00  0.00     0.092 A 
ATOM      3  N   UNL d   1      -1.077   0.482   0.756  0.00  0.00    -0.259 N 
ATOM      4  HN  UNL d   1      -1.758   1.065   1.244  1.00  0.00     0.195 HD
ATOM      5  O   UNL d   1       0.086   0.907   0.171  0.00  0.00    -0.241 OA
ATOM      6  C   UNL d   1       0.765  -0.153  -0.329  0.00  0.00     0.090 A 
ATOM      7  C   UNL d   1       2.044   0.188  -0.982  0.00  0.00     0.080 C 
ENDROOT
BRANCH   2   8
ATOM      8  C   UNL d   1       0.398  -2.652  -0.496  0.00  0.00     0.256 C 
ATOM      9  O   UNL d   1      -0.422  -3.432  -0.966  0.00  0.00    -0.267 OA
ATOM     10  N   UNL d   1       1.703  -3.010  -0.214  0.00  0.00    -0.356 N 
ATOM     11  H   UNL d   1       2.209  -2.399   0.420  0.00  0.00     0.162 HD
BRANCH  10  12
ATOM     12  C   UNL d   1       2.111  -4.407  -0.261  0.00  0.00     0.127 C 
BRANCH  12  13
ATOM     13  C   UNL d   1       3.618  -4.584  -0.065  0.00  0.00     0.058 C 
BRANCH  13  14
ATOM     14  C   UNL d   1       4.059  -6.023  -0.183  0.00  0.00    -0.057 A 
ATOM     15  C   UNL d   1       4.400  -6.558  -1.434  0.00  0.00     0.007 A 
ATOM     16  C   UNL d   1       4.819  -7.887  -1.548  0.00  0.00     0.001 A 
ATOM     17  C   UNL d   1       4.900  -8.695  -0.418  0.00  0.00     0.000 A 
ATOM     18  C   UNL d   1       4.552  -8.179   0.831  0.00  0.00     0.001 A 
ATOM     19  C   UNL d   1       4.131  -6.850   0.946  0.00  0.00     0.007 A 
ENDBRANCH  13  14
ENDBRANCH  12  13
ENDBRANCH  10  12
ENDBRANCH   2   8
BRANCH   1  20
ATOM     20  C   UNL d   1      -2.315  -1.590   1.089  0.00  0.00     0.037 A 
ATOM     21  C   UNL d   1      -2.163  -2.758   1.867  0.00  0.00     0.048 A 
ATOM     22 CL   UNL d   1      -0.627  -3.352   2.416  0.00  0.00    -0.083 Cl
ATOM     23  C   UNL d   1      -3.277  -3.466   2.347  0.00  0.00     0.025 A 
ATOM     24  C   UNL d   1      -4.564  -2.985   2.143  0.00  0.00     0.003 A 
ATOM     25  C   UNL d   1      -4.741  -1.802   1.437  0.00  0.00     0.025 A 
ATOM     26  C   UNL d   1      -3.638  -1.124   0.890  0.00  0.00     0.048 A 
ATOM     27 CL   UNL d   1      -4.031   0.292  -0.033  0.00  0.00    -0.083 Cl
ENDBRANCH   1  20
TORSDOF 5
