REMARK  11 active torsions:
REMARK  status: ('A' for Active; 'I' for Inactive)
REMARK    1  A    between atoms: N_2  and  C_1 
REMARK    2  A    between atoms: N_12  and  C_4 
REMARK    3  A    between atoms: N_13  and  C_8 
REMARK    4  A    between atoms: C_18  and  N_12 
REMARK    5  A    between atoms: C_19  and  N_13 
REMARK    6  A    between atoms: C_14  and  C_18 
REMARK    7  A    between atoms: C_21  and  C_14 
REMARK    8  A    between atoms: C_15  and  C_19 
REMARK    9  A    between atoms: C_20  and  C_15 
REMARK   10  A    between atoms: O_16  and  C_21 
REMARK   11  A    between atoms: O_17  and  C_20 
ROOT
ATOM      1  C   UNL d   1       1.569   1.232   0.004  0.00  0.00     0.130 A 
ATOM      2  C   UNL d   1      -0.504   0.022   0.060  0.00  0.00     0.099 A 
ATOM      3  C   UNL d   1       0.158   1.284   0.055  0.00  0.00     0.084 A 
ATOM      4  C   UNL d   1      -1.938  -0.069   0.007  0.00  0.00     0.104 C 
ATOM      5  N   UNL d   1      -3.098  -0.184  -0.007  0.00  0.00    -0.191 NA
ATOM      6  C   UNL d   1       2.295   0.039  -0.024  0.00  0.00     0.041 A 
ATOM      7  C   UNL d   1       0.213  -1.216   0.087  0.00  0.00     0.051 A 
ATOM      8  C   UNL d   1       1.613  -1.171   0.009  0.00  0.00     0.033 A 
ENDROOT
BRANCH   3   9
ATOM      9  N   UNL d   1      -0.463   2.533   0.191  0.00  0.00    -0.387 N 
ATOM     10  H   UNL d   1      -0.168   3.233  -0.496  0.00  0.00     0.159 HD
BRANCH   9  11
ATOM     11  C   UNL d   1      -1.794   2.724   0.741  0.00  0.00     0.122 C 
BRANCH  11  12
ATOM     12  C   UNL d   1      -1.985   4.131   1.292  0.00  0.00     0.046 C 
BRANCH  12  13
ATOM     13  C   UNL d   1      -3.350   4.194   1.970  0.00  0.00     0.168 C 
BRANCH  13  14
ATOM     14  O   UNL d   1      -3.577   5.491   2.511  0.00  0.00    -0.396 OA
ATOM     15  C   UNL d   1      -4.845   5.548   3.158  0.00  0.00     0.201 C 
ENDBRANCH  13  14
ENDBRANCH  12  13
ENDBRANCH  11  12
ENDBRANCH   9  11
ENDBRANCH   3   9
BRANCH   7  16
ATOM     16  N   UNL d   1      -0.463  -2.448   0.100  0.00  0.00    -0.389 N 
ATOM     17  H   UNL d   1      -1.459  -2.393   0.312  0.00  0.00     0.159 HD
BRANCH  16  18
ATOM     18  C   UNL d   1       0.146  -3.647   0.672  0.00  0.00     0.122 C 
BRANCH  18  19
ATOM     19  C   UNL d   1       0.418  -3.508   2.169  0.00  0.00     0.046 C 
BRANCH  19  20
ATOM     20  C   UNL d   1       1.087  -4.771   2.696  0.00  0.00     0.168 C 
BRANCH  20  21
ATOM     21  O   UNL d   1       1.354  -4.616   4.087  0.00  0.00    -0.396 OA
ATOM     22  C   UNL d   1       1.992  -5.771   4.619  0.00  0.00     0.201 C 
ENDBRANCH  20  21
ENDBRANCH  19  20
ENDBRANCH  18  19
ENDBRANCH  16  18
ENDBRANCH   7  16
BRANCH   1  23
ATOM     23  N   UNL d   1       2.346   2.462   0.012  0.00  0.00    -0.113 N 
ATOM     24  O   UNL d   1       2.147   3.262  -0.915  0.00  0.00    -0.532 OA
ATOM     25  O   UNL d   1       3.184   2.596   0.914  0.00  0.00    -0.532 OA
ENDBRANCH   1  23
TORSDOF 11
