REMARK  3 active torsions:
REMARK  status: ('A' for Active; 'I' for Inactive)
REMARK    1  A    between atoms: C_2  and  C_1 
REMARK    2  A    between atoms: C_11  and  C_1 
REMARK    3  A    between atoms: O_10  and  C_11 
ROOT
ATOM      1  C   UNL d   1       0.314  -0.557   1.308  0.00  0.00     0.012 A 
ATOM      2  C   UNL d   1      -0.764  -1.443   1.167  0.00  0.00     0.017 A 
ATOM      3  C   UNL d   1       0.666  -0.092   2.580  0.00  0.00     0.017 A 
ATOM      4  C   UNL d   1      -1.082  -1.446   3.560  0.00  0.00     0.034 A 
ATOM      5  C   UNL d   1      -1.456  -1.892   2.295  0.00  0.00     0.025 A 
ATOM      6  C   UNL d   1      -0.031  -0.541   3.707  0.00  0.00     0.025 A 
ATOM      7 CL   UNL d   1      -1.916  -2.017   4.951  0.00  0.00    -0.084 Cl
ENDROOT
BRANCH   1   8
ATOM      8  C   UNL d   1       1.043  -0.133   0.082  0.00  0.00     0.182 C 
ATOM      9  O   UNL d   1       0.435  -0.082  -0.987  0.00  0.00    -0.290 OA
BRANCH   8  10
ATOM     10  C   UNL d   1       2.517   0.259   0.176  0.00  0.00     0.247 C 
BRANCH  10  11
ATOM     11  O   UNL d   1       3.267  -0.417   1.168  0.00  0.00    -0.393 OA
ATOM     12  H   UNL d   1       4.207  -0.311   0.940  0.00  0.00     0.209 HD
ENDBRANCH  10  11
ENDBRANCH   8  10
ENDBRANCH   1   8
TORSDOF 3
