REMARK  5 active torsions:
REMARK  status: ('A' for Active; 'I' for Inactive)
REMARK    1  A    between atoms: C_3  and  C_1 
REMARK    2  A    between atoms: C_12  and  C_2 
REMARK    3  A    between atoms: C_4  and  C_9 
REMARK       I    between atoms: N_21  and  C_12 
REMARK       I    between atoms: C_20  and  N_22 
REMARK       I    between atoms: N_23  and  C_20 
REMARK    4  A    between atoms: N_22  and  N_21 
REMARK    5  A    between atoms: C_26  and  N_23 
ROOT
ATOM      1  C   UNL d   1      -0.035  -1.286  -0.017  0.00  0.00     0.057 A 
ATOM      2  C   UNL d   1      -1.371  -0.764  -0.046  0.00  0.00     0.139 A 
ATOM      3  N   UNL d   1      -1.329   0.581   0.049  0.00  0.00    -0.255 N 
ATOM      4  HN  UNL d   1      -2.129   1.212   0.083  1.00  0.00     0.195 HD
ATOM      5  O   UNL d   1      -0.004   0.938   0.092  0.00  0.00    -0.241 OA
ATOM      6  C   UNL d   1       0.773  -0.172   0.043  0.00  0.00     0.087 A 
ATOM      7  C   UNL d   1       2.230   0.065   0.089  0.00  0.00     0.080 C 
ENDROOT
BRANCH   2   8
ATOM      8  C   UNL d   1      -2.685  -1.415  -0.199  0.00  0.00     0.289 C 
ATOM      9  N   UNL d   1      -2.673  -2.644  -0.827  0.00  0.00    -0.261 N 
ATOM     10  H   UNL d   1      -1.809  -3.171  -0.949  0.00  0.00     0.190 HD
ATOM     11  O   UNL d   1      -3.750  -0.890   0.137  0.00  0.00    -0.264 OA
BRANCH   9  12
ATOM     12  N   UNL d   1      -3.849  -3.411  -0.926  0.00  0.00    -0.248 N 
ATOM     13  C   UNL d   1      -3.715  -4.598  -1.635  0.00  0.00     0.339 C 
ATOM     14  N   UNL d   1      -4.903  -5.284  -1.728  0.00  0.00    -0.308 N 
ATOM     15  O   UNL d   1      -2.617  -4.957  -2.057  0.00  0.00    -0.245 OA
ATOM     16  H   UNL d   1      -5.686  -4.885  -1.231  0.00  0.00     0.170 HD
ATOM     17  H   UNL d   1      -4.706  -2.868  -1.001  0.00  0.00     0.192 HD
BRANCH  14  18
ATOM     18  C   UNL d   1      -5.134  -6.500  -2.406  0.00  0.00     0.036 A 
ATOM     19  C   UNL d   1      -4.152  -7.195  -3.115  0.00  0.00     0.029 A 
ATOM     20  C   UNL d   1      -4.471  -8.360  -3.820  0.00  0.00     0.002 A 
ATOM     21  C   UNL d   1      -5.776  -8.845  -3.816  0.00  0.00     0.000 A 
ATOM     22  C   UNL d   1      -6.757  -8.178  -3.087  0.00  0.00     0.002 A 
ATOM     23  C   UNL d   1      -6.437  -7.014  -2.382  0.00  0.00     0.029 A 
ENDBRANCH  14  18
ENDBRANCH   9  12
ENDBRANCH   2   8
BRANCH   1  24
ATOM     24  C   UNL d   1       0.384  -2.687  -0.014  0.00  0.00     0.055 A 
ATOM     25  N   UNL d   1      -0.522  -3.635   0.424  0.00  0.00    -0.347 N 
ATOM     26  C   UNL d   1       0.032  -4.837   0.413  0.00  0.00     0.102 A 
ATOM     27  HN  UNL d   1      -1.479  -3.437   0.713  1.00  0.00     0.167 HD
ATOM     28  S   UNL d   1       1.647  -4.889  -0.166  0.00  0.00    -0.080 SA
ATOM     29  C   UNL d   1       1.609  -3.192  -0.397  0.00  0.00     0.082 A 
BRANCH  26  30
ATOM     30  C   UNL d   1      -0.695  -6.067   0.886  0.00  0.00     0.073 A 
ATOM     31  N   UNL d   1      -0.079  -7.310   0.945  0.00  0.00    -0.352 N 
ATOM     32  C   UNL d   1      -0.924  -8.204   1.411  0.00  0.00     0.047 A 
ATOM     33  HN  UNL d   1       0.884  -7.502   0.668  1.00  0.00     0.166 HD
ATOM     34  C   UNL d   1      -0.587  -9.636   1.633  0.00  0.00     0.076 C 
ATOM     35  S   UNL d   1      -2.496  -7.617   1.784  0.00  0.00    -0.087 SA
ATOM     36  C   UNL d   1      -2.006  -6.042   1.316  0.00  0.00     0.083 A 
ENDBRANCH  26  30
ENDBRANCH   1  24
TORSDOF 5
