REMARK  0 active torsions:
REMARK  status: ('A' for Active; 'I' for Inactive)
ROOT
ATOM      1  C   UNL d   1      -0.706   1.238   0.001  0.00  0.00     0.019 A 
ATOM      2  C   UNL d   1      -1.431   0.020  -0.001  0.00  0.00    -0.038 A 
ATOM      3  C   UNL d   1       0.712   1.247   0.000  0.00  0.00    -0.038 A 
ATOM      4  C   UNL d   1       0.717  -1.217   0.001  0.00  0.00    -0.049 A 
ATOM      5  C   UNL d   1       1.427   0.008  -0.002  0.00  0.00    -0.048 A 
ATOM      6  C   UNL d   1      -0.710  -1.208   0.001  0.00  0.00    -0.048 A 
ATOM      7  I   UNL d   1      -1.778   3.111   0.006  0.00  0.00    -0.043 I 
ATOM      8  C   UNL d   1      -1.439  -2.541   0.003  0.00  0.00     0.049 C 
ATOM      9  C   UNL d   1       2.942   0.066  -0.009  0.00  0.00     0.049 C 
ATOM     10  C   UNL d   1       1.531   2.524   0.003  0.00  0.00     0.050 C 
ATOM     11  C   UNL d   1      -2.943  -0.040  -0.005  0.00  0.00     0.050 C 
ATOM     12  C   UNL d   1       1.414  -2.564   0.005  0.00  0.00     0.049 C 
ENDROOT
TORSDOF 0
