REMARK  5 active torsions:
REMARK  status: ('A' for Active; 'I' for Inactive)
REMARK    1  A    between atoms: C_5  and  C_1 
REMARK    2  A    between atoms: C_14  and  C_2 
REMARK    3  A    between atoms: C_9  and  C_6 
REMARK    4  A    between atoms: C_16  and  C_10 
REMARK    5  A    between atoms: O_21  and  C_14 
ROOT
ATOM      1  C   UNL d   1       0.268  -4.921   0.947  0.00  0.00     0.070 A 
ATOM      2  C   UNL d   1       0.050  -2.654  -0.006  0.00  0.00     0.021 A 
ATOM      3  C   UNL d   1      -0.438  -5.422  -0.139  0.00  0.00     0.134 A 
ATOM      4  N   UNL d   1      -0.878  -4.581  -1.132  0.00  0.00    -0.354 N 
ATOM      5  HN  UNL d   1      -1.383  -4.965  -1.931  1.00  0.00     0.166 HD
ATOM      6  C   UNL d   1       0.493  -3.530   1.000  0.00  0.00     0.037 A 
ATOM      7  C   UNL d   1      -0.647  -3.238  -1.062  0.00  0.00     0.018 A 
ATOM      8  C   UNL d   1      -1.203  -2.442  -2.211  0.00  0.00     0.069 C 
ENDROOT
BRANCH   2   9
ATOM      9  C   UNL d   1       0.305  -1.204   0.083  0.00  0.00     0.086 A 
ATOM     10  N   UNL d   1      -0.514  -0.257  -0.335  0.00  0.00    -0.349 N 
ATOM     11  C   UNL d   1       0.030   1.002  -0.108  0.00  0.00     0.050 A 
ATOM     12  HN  UNL d   1      -1.423  -0.425  -0.766  1.00  0.00     0.166 HD
ATOM     13  C   UNL d   1       1.268   0.987   0.505  0.00  0.00     0.082 A 
ATOM     14  S   UNL d   1       1.790  -0.620   0.747  0.00  0.00    -0.081 SA
BRANCH  11  15
ATOM     15  C   UNL d   1      -0.677   2.228  -0.457  0.00  0.00    -0.009 A 
ATOM     16  C   UNL d   1      -2.079   2.235  -0.526  0.00  0.00     0.014 A 
ATOM     17  C   UNL d   1      -2.774   3.410  -0.828  0.00  0.00     0.001 A 
ATOM     18  C   UNL d   1      -2.075   4.592  -1.079  0.00  0.00     0.000 A 
ATOM     19  C   UNL d   1      -0.683   4.597  -1.040  0.00  0.00     0.001 A 
ATOM     20  C   UNL d   1       0.011   3.423  -0.737  0.00  0.00     0.014 A 
ENDBRANCH  11  15
ENDBRANCH   2   9
BRANCH   1  21
ATOM     21  C   UNL d   1       0.775  -5.670   2.125  0.00  0.00     0.178 C 
ATOM     22  O   UNL d   1       0.702  -5.187   3.244  0.00  0.00    -0.646 OA
BRANCH  21  23
ATOM     23  O   UNL d   1       1.486  -6.784   1.881  0.00  0.00    -0.773 OA
ATOM     24  H   UNL d   1       1.333  -7.269   1.048  0.00  0.00     0.167 HD
ENDBRANCH  21  23
ENDBRANCH   1  21
BRANCH   3  25
ATOM     25  C   UNL d   1      -0.825  -6.876  -0.309  0.00  0.00     0.433 C 
ATOM     26  F   UNL d   1      -0.218  -7.724   0.568  0.00  0.00    -0.165 F 
ATOM     27  F   UNL d   1      -2.160  -7.102  -0.176  0.00  0.00    -0.165 F 
ATOM     28  F   UNL d   1      -0.476  -7.365  -1.535  0.00  0.00    -0.165 F 
ENDBRANCH   3  25
TORSDOF 5
