REMARK  0 active torsions:
REMARK  status: ('A' for Active; 'I' for Inactive)
ROOT
ATOM      1  C   UNL d   1      -0.330   0.550   0.001  0.00  0.00     0.180 A 
ATOM      2  C   UNL d   1      -0.086  -0.802   0.004  0.00  0.00     0.048 A 
ATOM      3  O   UNL d   1       0.523   1.562  -0.010  0.00  0.00    -0.254 OA
ATOM      4  C   UNL d   1       1.286  -1.185  -0.028  0.00  0.00    -0.018 A 
ATOM      5  N   UNL d   1      -1.681   0.708   0.017  0.00  0.00    -0.274 N 
ATOM      6  N   UNL d   1      -2.339  -0.464   0.046  0.00  0.00    -0.300 N 
ATOM      7  HN  UNL d   1      -3.348  -0.611   0.062  1.00  0.00     0.187 HD
ATOM      8  C   UNL d   1      -1.372  -1.401   0.050  0.00  0.00     0.037 A 
ATOM      9  C   UNL d   1       1.851   1.245  -0.007  0.00  0.00     0.312 A 
ATOM     10  C   UNL d   1       2.225  -0.213  -0.027  0.00  0.00     0.116 A 
ATOM     11  O   UNL d   1       2.698   2.131   0.005  0.00  0.00    -0.258 OA
ATOM     12 CL   UNL d   1       3.924  -0.557  -0.035  0.00  0.00    -0.077 Cl
ATOM     13  C   UNL d   1       1.635  -2.643  -0.084  0.00  0.00     0.051 C 
ATOM     14  C   UNL d   1      -2.432   1.938   0.006  0.00  0.00     0.180 C 
ATOM     15  C   UNL d   1      -1.822  -2.815   0.096  0.00  0.00     0.070 C 
ENDROOT
TORSDOF 0
