REMARK  3 active torsions:
REMARK  status: ('A' for Active; 'I' for Inactive)
REMARK    1  A    between atoms: C_2  and  S_1 
REMARK    2  A    between atoms: C_4  and  S_1 
REMARK    3  A    between atoms: C_3  and  C_2 
ROOT
ATOM      1  S   UNL d   1       0.955   0.025  -0.099  0.00  0.00     0.181 S 
ATOM      2  O   UNL d   1       2.380   0.086   0.183  0.00  0.00    -0.222 OA
ATOM      3  O   UNL d   1       0.050  -0.711   0.758  0.00  0.00    -0.222 OA
ENDROOT
BRANCH   1   4
ATOM      4  C   UNL d   1       0.759  -0.507  -1.782  0.00  0.00     0.214 C 
BRANCH   4   5
ATOM      5  C   UNL d   1       1.270  -1.907  -1.964  0.00  0.00     0.085 C 
ATOM      6  S   UNL d   1       0.285  -3.159  -2.460  0.00  0.00    -0.065 SA
ATOM      7  N   UNL d   1       2.611  -2.119  -1.830  0.00  0.00    -0.393 N 
ATOM      8  H   UNL d   1       3.213  -1.466  -1.331  0.00  0.00     0.156 HD
ATOM      9  H   UNL d   1       2.959  -3.070  -1.912  0.00  0.00     0.156 HD
ENDBRANCH   4   5
ENDBRANCH   1   4
BRANCH   1  10
ATOM     10  C   UNL d   1       0.355   1.703  -0.147  0.00  0.00     0.059 A 
ATOM     11  C   UNL d   1      -0.996   1.930  -0.433  0.00  0.00     0.025 A 
ATOM     12  C   UNL d   1      -1.464   3.241  -0.538  0.00  0.00     0.025 A 
ATOM     13  C   UNL d   1      -0.588   4.309  -0.340  0.00  0.00     0.034 A 
ATOM     14  C   UNL d   1       0.752   4.079  -0.022  0.00  0.00     0.025 A 
ATOM     15 CL   UNL d   1      -1.164   5.922  -0.493  0.00  0.00    -0.084 Cl
ATOM     16  C   UNL d   1       1.229   2.770   0.078  0.00  0.00     0.025 A 
ENDBRANCH   1  10
TORSDOF 3
