REMARK  1 active torsions:
REMARK  status: ('A' for Active; 'I' for Inactive)
REMARK    1  A    between atoms: C_5  and  C_3 
ROOT
ATOM      1  C   UNL d   1      -1.121  -0.852   0.033  0.00  0.00     0.045 A 
ATOM      2  C   UNL d   1       0.380  -0.974  -0.029  0.00  0.00     0.257 A 
ATOM      3  C   UNL d   1      -1.889  -1.953   0.054  0.00  0.00     0.032 C 
ATOM      4  N   UNL d   1       0.838   0.323  -0.170  0.00  0.00    -0.322 N 
ATOM      5  C   UNL d   1      -1.441   0.579  -0.022  0.00  0.00     0.006 A 
ATOM      6  C   UNL d   1      -0.213   1.236  -0.173  0.00  0.00     0.046 A 
ATOM      7  O   UNL d   1       1.042  -1.994   0.018  0.00  0.00    -0.267 OA
ATOM      8  C   UNL d   1      -2.612   1.313   0.051  0.00  0.00     0.015 A 
ATOM      9  C   UNL d   1      -0.111   2.607  -0.302  0.00  0.00     0.030 A 
ATOM     10  C   UNL d   1      -2.532   2.705  -0.074  0.00  0.00     0.001 A 
ATOM     11  C   UNL d   1      -1.294   3.345  -0.260  0.00  0.00     0.002 A 
ATOM     12  H   UNL d   1       1.817   0.549  -0.249  0.00  0.00     0.169 HD
ENDROOT
BRANCH   3  13
ATOM     13  C   UNL d   1      -3.358  -1.958   0.013  0.00  0.00     0.008 A 
ATOM     14  C   UNL d   1      -4.045  -1.964  -1.215  0.00  0.00     0.046 A 
ATOM     15 CL   UNL d   1      -3.212  -2.057  -2.731  0.00  0.00    -0.083 Cl
ATOM     16  C   UNL d   1      -5.443  -1.893  -1.258  0.00  0.00     0.025 A 
ATOM     17  C   UNL d   1      -6.177  -1.829  -0.076  0.00  0.00     0.003 A 
ATOM     18  C   UNL d   1      -5.514  -1.854   1.150  0.00  0.00     0.025 A 
ATOM     19  C   UNL d   1      -4.117  -1.920   1.196  0.00  0.00     0.046 A 
ATOM     20 CL   UNL d   1      -3.374  -1.940   2.760  0.00  0.00    -0.083 Cl
ENDBRANCH   3  13
TORSDOF 1
