REMARK  9 active torsions:
REMARK  status: ('A' for Active; 'I' for Inactive)
REMARK    1  A    between atoms: O_3  and  C_1 
REMARK    2  A    between atoms: C_7  and  C_1 
REMARK       I    between atoms: C_2  and  N_5 
REMARK    3  A    between atoms: C_8  and  C_2 
REMARK    4  A    between atoms: C_4  and  O_3 
REMARK    5  A    between atoms: N_5  and  C_26 
REMARK    6  A    between atoms: O_19  and  C_6 
REMARK    7  A    between atoms: C_27  and  C_17 
REMARK    8  A    between atoms: C_26  and  C_28 
REMARK    9  A    between atoms: C_28  and  C_27 
ROOT
ATOM      1  C   UNL d   1      -0.707  -0.288   0.750  0.00  0.00     0.112 A 
ATOM      2  C   UNL d   1      -1.356  -1.224  -0.065  0.00  0.00     0.102 A 
ATOM      3  C   UNL d   1      -2.756  -1.328  -0.006  0.00  0.00     0.046 A 
ATOM      4  C   UNL d   1      -1.435   0.511   1.632  0.00  0.00     0.041 A 
ATOM      5  C   UNL d   1      -3.508  -0.525   0.865  0.00  0.00    -0.055 A 
ATOM      6  C   UNL d   1      -2.827   0.397   1.678  0.00  0.00     0.010 A 
ENDROOT
BRANCH   5   7
ATOM      7  C   UNL d   1      -5.022  -0.527   0.893  0.00  0.00     0.041 C 
BRANCH   7   8
ATOM      8  C   UNL d   1      -5.775  -1.792   0.467  0.00  0.00     0.029 C 
BRANCH   8   9
ATOM      9  C   UNL d   1      -5.549  -3.053   1.329  0.00  0.00     0.081 C 
ATOM     10  C   UNL d   1      -6.432  -4.184   0.774  0.00  0.00     0.032 C 
BRANCH   9  11
ATOM     11  N   UNL d   1      -5.717  -2.870   2.775  0.00  0.00    -0.353 N 
ATOM     12  C   UNL d   1      -6.891  -2.464   3.374  0.00  0.00     0.251 C 
ATOM     13  O   UNL d   1      -7.900  -2.193   2.722  0.00  0.00    -0.268 OA
ATOM     14  H   UNL d   1      -4.889  -2.963   3.354  0.00  0.00     0.163 HD
BRANCH  12  15
ATOM     15  C   UNL d   1      -6.939  -2.331   4.867  0.00  0.00     0.032 A 
ATOM     16  C   UNL d   1      -7.906  -1.457   5.387  0.00  0.00     0.017 A 
ATOM     17  C   UNL d   1      -8.150  -1.380   6.761  0.00  0.00     0.007 A 
ATOM     18  C   UNL d   1      -7.429  -2.175   7.655  0.00  0.00    -0.062 A 
ATOM     19  C   UNL d   1      -6.425  -3.012   7.148  0.00  0.00     0.007 A 
ATOM     20  C   UNL d   1      -7.833  -2.199   9.103  0.00  0.00     0.048 C 
ATOM     21  C   UNL d   1      -6.175  -3.088   5.761  0.00  0.00     0.017 A 
ENDBRANCH  12  15
ENDBRANCH   9  11
ENDBRANCH   8   9
ENDBRANCH   7   8
ENDBRANCH   5   7
BRANCH   2  22
ATOM     22  O   UNL d   1      -0.571  -2.026  -0.852  0.00  0.00    -0.353 OA
ATOM     23  C   UNL d   1      -1.172  -2.439  -2.075  0.00  0.00     0.210 C 
ENDBRANCH   2  22
BRANCH   1  24
ATOM     24  O   UNL d   1       0.695  -0.144   0.759  0.00  0.00    -0.272 OA
BRANCH  24  25
ATOM     25  C   UNL d   1       1.247   0.306  -0.429  0.00  0.00     0.298 C 
ATOM     26  O   UNL d   1       0.649   0.621  -1.450  0.00  0.00    -0.259 OA
BRANCH  25  27
ATOM     27  C   UNL d   1       2.735   0.410  -0.322  0.00  0.00     0.040 A 
ATOM     28  C   UNL d   1       3.458   0.643  -1.502  0.00  0.00     0.018 A 
ATOM     29  C   UNL d   1       4.842   0.823  -1.467  0.00  0.00     0.007 A 
ATOM     30  C   UNL d   1       5.535   0.775  -0.253  0.00  0.00    -0.062 A 
ATOM     31  C   UNL d   1       4.816   0.524   0.924  0.00  0.00     0.007 A 
ATOM     32  C   UNL d   1       7.015   1.020  -0.228  0.00  0.00     0.048 C 
ATOM     33  C   UNL d   1       3.426   0.339   0.892  0.00  0.00     0.018 A 
ENDBRANCH  25  27
ENDBRANCH  24  25
ENDBRANCH   1  24
TORSDOF 9
