REMARK  7 active torsions:
REMARK  status: ('A' for Active; 'I' for Inactive)
REMARK    1  A    between atoms: C_11  and  S_1 
REMARK    2  A    between atoms: C_15  and  S_1 
REMARK    3  A    between atoms: C_16  and  C_2 
REMARK    4  A    between atoms: C_3  and  C_4 
REMARK    5  A    between atoms: C_10  and  C_11 
REMARK    6  A    between atoms: O_22  and  C_16 
REMARK    7  A    between atoms: C_25  and  O_22 
ROOT
ATOM      1  C   UNL d   1       1.200  -1.107   4.107  0.00  0.00     0.075 A 
ATOM      2  N   UNL d   1       0.863  -0.902   2.783  0.00  0.00    -0.350 N 
ATOM      3  HN  UNL d   1       0.655  -1.641   2.111  1.00  0.00     0.166 HD
ATOM      4  C   UNL d   1       0.851   0.387   2.515  0.00  0.00     0.065 A 
ATOM      5  S   UNL d   1       1.233   1.413   3.846  0.00  0.00    -0.085 SA
ATOM      6  C   UNL d   1       1.444   0.034   4.840  0.00  0.00     0.084 A 
ENDROOT
BRANCH   1   7
ATOM      7  C   UNL d   1       1.272  -2.469   4.686  0.00  0.00     0.128 A 
ATOM      8  C   UNL d   1       1.051  -3.645   4.013  0.00  0.00     0.079 A 
ATOM      9  C   UNL d   1       1.192  -4.660   4.993  0.00  0.00     0.132 A 
ATOM     10  N   UNL d   1       1.506  -4.121   6.186  0.00  0.00    -0.255 N 
ATOM     11  O   UNL d   1       1.555  -2.755   5.986  0.00  0.00    -0.235 OA
ATOM     12  HN  UNL d   1       1.674  -4.619   7.059  1.00  0.00     0.195 HD
BRANCH   9  13
ATOM     13  C   UNL d   1       0.970  -6.090   4.808  0.00  0.00     0.311 C 
ATOM     14  O   UNL d   1       0.648  -6.580   3.733  0.00  0.00    -0.258 OA
BRANCH  13  15
ATOM     15  O   UNL d   1       1.063  -6.789   5.979  0.00  0.00    -0.317 OA
BRANCH  15  16
ATOM     16  C   UNL d   1       0.407  -8.061   5.996  0.00  0.00     0.175 C 
ATOM     17  C   UNL d   1      -1.056  -7.835   6.337  0.00  0.00     0.034 C 
ENDBRANCH  15  16
ENDBRANCH  13  15
ENDBRANCH   9  13
ENDBRANCH   1   7
BRANCH   4  18
ATOM     18  C   UNL d   1       0.464   0.960   1.200  0.00  0.00     0.212 C 
BRANCH  18  19
ATOM     19  S   UNL d   1       1.901   1.107   0.175  0.00  0.00     0.196 S 
ATOM     20  O   UNL d   1       2.917   1.853   0.904  0.00  0.00    -0.221 OA
ATOM     21  O   UNL d   1       1.475   1.593  -1.128  0.00  0.00    -0.221 OA
BRANCH  19  22
ATOM     22  C   UNL d   1       2.501  -0.556  -0.048  0.00  0.00     0.128 A 
ATOM     23  N   UNL d   1       1.595  -1.404  -0.602  0.00  0.00    -0.357 N 
ATOM     24  C   UNL d   1       2.041  -2.656  -0.845  0.00  0.00     0.089 A 
ATOM     25  HN  UNL d   1       0.641  -1.115  -0.819  1.00  0.00     0.166 HD
ATOM     26  C   UNL d   1       3.328  -3.088  -0.552  0.00  0.00     0.017 A 
ATOM     27  C   UNL d   1       4.219  -2.189   0.031  0.00  0.00     0.004 A 
ATOM     28  C   UNL d   1       3.804  -0.888   0.291  0.00  0.00     0.042 A 
ENDBRANCH  19  22
ENDBRANCH  18  19
ENDBRANCH   4  18
TORSDOF 7
