REMARK  1 active torsions:
REMARK  status: ('A' for Active; 'I' for Inactive)
REMARK    1  A    between atoms: C_8  and  C_6 
ROOT
ATOM      1  C   UNL d   1      -1.122  -0.859   0.010  0.00  0.00     0.045 A 
ATOM      2  C   UNL d   1       0.380  -0.974  -0.044  0.00  0.00     0.257 A 
ATOM      3  N   UNL d   1       0.833   0.326  -0.192  0.00  0.00    -0.322 N 
ATOM      4  C   UNL d   1      -1.450   0.566  -0.074  0.00  0.00     0.006 A 
ATOM      5  C   UNL d   1      -0.225   1.232  -0.210  0.00  0.00     0.046 A 
ATOM      6  C   UNL d   1      -1.878  -1.964   0.072  0.00  0.00     0.029 C 
ATOM      7  O   UNL d   1       1.048  -1.988   0.016  0.00  0.00    -0.267 OA
ATOM      8  C   UNL d   1      -2.630   1.288  -0.029  0.00  0.00     0.015 A 
ATOM      9  C   UNL d   1      -0.131   2.603  -0.334  0.00  0.00     0.030 A 
ATOM     10  C   UNL d   1      -2.558   2.681  -0.145  0.00  0.00     0.001 A 
ATOM     11  C   UNL d   1      -1.322   3.332  -0.303  0.00  0.00     0.002 A 
ATOM     12  H   UNL d   1       1.811   0.557  -0.262  0.00  0.00     0.169 HD
ENDROOT
BRANCH   6  13
ATOM     13  C   UNL d   1      -3.338  -2.000   0.039  0.00  0.00    -0.035 A 
ATOM     14  C   UNL d   1      -4.003  -2.084  -1.190  0.00  0.00     0.013 A 
ATOM     15  C   UNL d   1      -5.398  -2.147  -1.232  0.00  0.00     0.024 A 
ATOM     16  C   UNL d   1      -6.127  -2.124  -0.045  0.00  0.00     0.034 A 
ATOM     17  C   UNL d   1      -5.474  -2.030   1.184  0.00  0.00     0.024 A 
ATOM     18 CL   UNL d   1      -7.844  -2.220  -0.095  0.00  0.00    -0.084 Cl
ATOM     19  C   UNL d   1      -4.078  -1.968   1.226  0.00  0.00     0.013 A 
ENDBRANCH   6  13
TORSDOF 1
