REMARK  3 active torsions:
REMARK  status: ('A' for Active; 'I' for Inactive)
REMARK    1  A    between atoms: C_2  and  N_1 
REMARK    2  A    between atoms: O_12  and  C_3 
REMARK    3  A    between atoms: N_5  and  C_6 
ROOT
ATOM      1  C   UNL d   1       0.312   0.119  -1.282  0.00  0.00     0.136 A 
ATOM      2  C   UNL d   1       0.344  -0.862  -2.275  0.00  0.00     0.100 A 
ATOM      3  C   UNL d   1      -0.366  -0.665  -3.465  0.00  0.00     0.068 A 
ATOM      4  C   UNL d   1      -1.104   0.505  -3.711  0.00  0.00     0.033 A 
ATOM      5  C   UNL d   1      -0.417   1.293  -1.492  0.00  0.00     0.041 A 
ATOM      6  C   UNL d   1      -1.108   1.475  -2.697  0.00  0.00     0.032 A 
ENDROOT
BRANCH   4   7
ATOM      7  N   UNL d   1      -1.778   0.691  -4.902  0.00  0.00    -0.379 N 
ATOM      8  C   UNL d   1      -1.947   2.018  -5.511  0.00  0.00     0.133 C 
ATOM      9  C   UNL d   1      -1.358   2.047  -6.928  0.00  0.00     0.093 C 
ATOM     10  S   UNL d   1      -2.140   0.832  -8.046  0.00  0.00    -0.166 SA
ATOM     11  C   UNL d   1      -1.933  -0.644  -6.988  0.00  0.00     0.093 C 
ATOM     12  C   UNL d   1      -2.474  -0.420  -5.573  0.00  0.00     0.133 C 
ENDBRANCH   4   7
BRANCH   2  13
ATOM     13  O   UNL d   1       1.039  -2.041  -2.201  0.00  0.00    -0.358 OA
ATOM     14  H   UNL d   1       1.539  -2.080  -1.359  0.00  0.00     0.217 HD
ENDBRANCH   2  13
BRANCH   1  15
ATOM     15  N   UNL d   1       1.025  -0.057  -0.015  0.00  0.00    -0.113 N 
ATOM     16  O   UNL d   1       1.680  -1.102   0.132  0.00  0.00    -0.532 OA
ATOM     17  O   UNL d   1       0.941   0.842   0.832  0.00  0.00    -0.532 OA
ENDBRANCH   1  15
TORSDOF 3
