REMARK  0 active torsions:
REMARK  status: ('A' for Active; 'I' for Inactive)
ROOT
ATOM      1  N   UNL d   1      -0.688   1.185  -0.001  0.00  0.00    -0.269 N 
ATOM      2  C   UNL d   1      -1.429   0.006  -0.000  0.00  0.00     0.330 A 
ATOM      3  C   UNL d   1       0.701   1.251  -0.002  0.00  0.00     0.270 A 
ATOM      4  C   UNL d   1       1.421  -0.051  -0.003  0.00  0.00     0.094 A 
ATOM      5  N   UNL d   1      -0.680  -1.171   0.001  0.00  0.00    -0.312 N 
ATOM      6  C   UNL d   1       0.697  -1.173  -0.001  0.00  0.00     0.120 A 
ATOM      7  O   UNL d   1      -2.660  -0.003  -0.000  0.00  0.00    -0.246 OA
ATOM      8  O   UNL d   1       1.319   2.315  -0.000  0.00  0.00    -0.266 OA
ATOM      9 BR   UNL d   1       3.284  -0.069  -0.007  0.00  0.00    -0.044 Br
ATOM     10  C   UNL d   1      -1.396   2.451   0.002  0.00  0.00     0.164 C 
ATOM     11  C   UNL d   1      -1.371  -2.455   0.004  0.00  0.00     0.160 C 
ENDROOT
TORSDOF 0
