REMARK  5 active torsions:
REMARK  status: ('A' for Active; 'I' for Inactive)
REMARK    1  A    between atoms: N_5  and  C_1 
REMARK    2  A    between atoms: O_18  and  C_1 
REMARK    3  A    between atoms: C_11  and  C_2 
REMARK    4  A    between atoms: C_3  and  C_10 
REMARK    5  A    between atoms: C_15  and  N_4 
REMARK       I    between atoms: C_10  and  N_5 
ROOT
ATOM      1  N   UNL d   1      -4.431   0.145  -0.774  0.00  0.00    -0.312 N 
ATOM      2  C   UNL d   1      -3.822  -0.962  -1.297  0.00  0.00     0.258 C 
ATOM      3  O   UNL d   1      -3.287  -0.942  -2.397  0.00  0.00    -0.267 OA
ATOM      4  H   UNL d   1      -4.754   0.174   0.179  0.00  0.00     0.166 HD
ENDROOT
BRANCH   2   5
ATOM      5  C   UNL d   1      -3.870  -2.139  -0.446  0.00  0.00     0.082 A 
ATOM      6  C   UNL d   1      -3.961  -3.479  -0.828  0.00  0.00     0.157 A 
ATOM      7  N   UNL d   1      -3.905  -4.239   0.334  0.00  0.00    -0.251 N 
ATOM      8  N   UNL d   1      -3.788  -3.428   1.426  0.00  0.00    -0.303 N 
ATOM      9  C   UNL d   1      -3.794  -2.189   0.956  0.00  0.00     0.127 A 
ATOM     10  HN  UNL d   1      -3.712  -3.716   2.401  1.00  0.00     0.186 HD
BRANCH   6  11
ATOM     11  C   UNL d   1      -4.053  -4.072  -2.174  0.00  0.00     0.435 C 
ATOM     12  F   UNL d   1      -3.840  -3.200  -3.184  0.00  0.00    -0.165 F 
ATOM     13  F   UNL d   1      -3.161  -5.077  -2.354  0.00  0.00    -0.165 F 
ATOM     14  F   UNL d   1      -5.290  -4.584  -2.398  0.00  0.00    -0.165 F 
ENDBRANCH   6  11
BRANCH   7  15
ATOM     15  C   UNL d   1      -3.942  -5.653   0.578  0.00  0.00     0.057 A 
ATOM     16  C   UNL d   1      -3.392  -6.132   1.784  0.00  0.00     0.031 A 
ATOM     17  C   UNL d   1      -3.385  -7.497   2.084  0.00  0.00     0.002 A 
ATOM     18  C   UNL d   1      -3.950  -8.405   1.197  0.00  0.00     0.000 A 
ATOM     19  C   UNL d   1      -4.519  -7.946   0.012  0.00  0.00     0.002 A 
ATOM     20  C   UNL d   1      -4.515  -6.578  -0.299  0.00  0.00     0.031 A 
ENDBRANCH   7  15
ENDBRANCH   2   5
BRANCH   1  21
ATOM     21  C   UNL d   1      -4.439   1.388  -1.485  0.00  0.00     0.269 C 
ATOM     22  C   UNL d   1      -3.070   2.045  -1.751  0.00  0.00     0.224 C 
ATOM     23  C   UNL d   1      -3.065   2.516  -3.143  0.00  0.00     0.029 A 
ATOM     24  O   UNL d   1      -2.140   2.197  -0.977  0.00  0.00    -0.286 OA
ATOM     25  C   UNL d   1      -2.112   3.289  -3.781  0.00  0.00     0.016 A 
ATOM     26  C   UNL d   1      -4.228   2.121  -3.795  0.00  0.00     0.029 A 
ATOM     27  C   UNL d   1      -2.361   3.666  -5.107  0.00  0.00     0.001 A 
ATOM     28  C   UNL d   1      -3.541   3.264  -5.762  0.00  0.00     0.001 A 
ATOM     29  C   UNL d   1      -4.490   2.476  -5.105  0.00  0.00     0.016 A 
ATOM     30  C   UNL d   1      -5.098   1.377  -2.877  0.00  0.00     0.224 C 
ATOM     31  O   UNL d   1      -6.201   0.936  -3.163  0.00  0.00    -0.286 OA
BRANCH  21  32
ATOM     32  O   UNL d   1      -5.234   2.226  -0.661  0.00  0.00    -0.358 OA
ATOM     33  H   UNL d   1      -6.156   1.945  -0.818  0.00  0.00     0.213 HD
ENDBRANCH  21  32
ENDBRANCH   1  21
TORSDOF 5
