REMARK  6 active torsions:
REMARK  status: ('A' for Active; 'I' for Inactive)
REMARK    1  A    between atoms: S_4  and  C_1 
REMARK    2  A    between atoms: N_7  and  C_2 
REMARK    3  A    between atoms: C_8  and  C_3 
REMARK    4  A    between atoms: C_16  and  S_4 
REMARK    5  A    between atoms: O_17  and  C_8 
REMARK    6  A    between atoms: C_19  and  C_16 
ROOT
ATOM      1  C   UNL d   1       1.461  -0.678  -0.057  0.00  0.00     0.094 A 
ATOM      2  C   UNL d   1       1.467   0.781  -0.012  0.00  0.00     0.084 A 
ATOM      3  C   UNL d   1       0.160   1.281   0.049  0.00  0.00     0.108 A 
ATOM      4  S   UNL d   1      -1.010   0.019   0.059  0.00  0.00    -0.092 SA
ATOM      5  C   UNL d   1       0.177  -1.182  -0.029  0.00  0.00     0.076 A 
ENDROOT
BRANCH   1   6
ATOM      6  S   UNL d   1       2.842  -1.753  -0.019  0.00  0.00     0.178 S 
ATOM      7  O   UNL d   1       3.443  -1.608  -1.328  0.00  0.00    -0.223 OA
ATOM      8  O   UNL d   1       3.510  -1.420   1.218  0.00  0.00    -0.223 OA
BRANCH   6   9
ATOM      9  C   UNL d   1       2.190  -3.409   0.077  0.00  0.00     0.145 C 
BRANCH   9  10
ATOM     10  C   UNL d   1       3.280  -4.472   0.082  0.00  0.00     0.011 C 
ATOM     11  C   UNL d   1       2.660  -5.861   0.026  0.00  0.00     0.006 C 
ENDBRANCH   9  10
ENDBRANCH   6   9
ENDBRANCH   1   6
BRANCH   2  12
ATOM     12  N   UNL d   1       2.636   1.636  -0.013  0.00  0.00    -0.330 N 
ATOM     13  C   UNL d   1       3.853   1.410  -0.620  0.00  0.00     0.097 A 
ATOM     14  C   UNL d   1       4.673   2.504  -0.458  0.00  0.00     0.019 A 
ATOM     15  C   UNL d   1       3.956   3.448   0.294  0.00  0.00     0.019 A 
ATOM     16  C   UNL d   1       2.732   2.885   0.581  0.00  0.00     0.097 A 
ENDBRANCH   2  12
BRANCH   3  17
ATOM     17  C   UNL d   1      -0.348   2.648  -0.013  0.00  0.00     0.302 C 
ATOM     18  O   UNL d   1       0.146   3.571  -0.647  0.00  0.00    -0.259 OA
BRANCH  17  19
ATOM     19  O   UNL d   1      -1.479   2.769   0.748  0.00  0.00    -0.322 OA
ATOM     20  C   UNL d   1      -2.075   4.067   0.749  0.00  0.00     0.213 C 
ENDBRANCH  17  19
ENDBRANCH   3  17
TORSDOF 6
