REMARK  6 active torsions:
REMARK  status: ('A' for Active; 'I' for Inactive)
REMARK       I    between atoms: N_2  and  C_1 
REMARK       I    between atoms: N_3  and  C_1 
REMARK    1  A    between atoms: C_17  and  N_3 
REMARK    2  A    between atoms: C_15  and  N_4 
REMARK    3  A    between atoms: C_14  and  C_15 
REMARK    4  A    between atoms: O_20  and  C_21 
REMARK    5  A    between atoms: C_23  and  O_20 
REMARK    6  A    between atoms: C_28  and  C_23 
ROOT
ATOM      1  C   UNL d   1       0.654  -0.020  -0.088  0.00  0.00     0.323 C 
ATOM      2  N   UNL d   1       0.220   1.196   0.449  0.00  0.00    -0.331 N 
ATOM      3  N   UNL d   1       1.657   0.092  -1.024  0.00  0.00    -0.309 N 
ATOM      4  N   UNL d   1      -0.891   3.676   1.632  0.00  0.00     0.095 N 
ATOM      5  O   UNL d   1       0.169  -1.085   0.286  0.00  0.00    -0.247 OA
ATOM      6  C   UNL d   1       0.674   2.523   0.009  0.00  0.00     0.158 C 
ATOM      7  C   UNL d   1      -1.020   1.159   1.234  0.00  0.00     0.158 C 
ATOM      8  C   UNL d   1       0.469   3.616   1.068  0.00  0.00     0.292 C 
ATOM      9  C   UNL d   1      -1.187   2.344   2.209  0.00  0.00     0.292 C 
ATOM     10  H   UNL d   1       1.845   1.011  -1.382  0.00  0.00     0.170 HD
ENDROOT
BRANCH   3  11
ATOM     11  C   UNL d   1       2.470  -0.926  -1.553  0.00  0.00     0.036 A 
ATOM     12  C   UNL d   1       2.328  -2.282  -1.262  0.00  0.00     0.032 A 
ATOM     13  C   UNL d   1       3.269  -3.204  -1.730  0.00  0.00     0.039 A 
ATOM     14  C   UNL d   1       4.367  -2.774  -2.472  0.00  0.00     0.069 A 
ATOM     15  C   UNL d   1       4.466  -1.433  -2.841  0.00  0.00     0.039 A 
ATOM     16  C   UNL d   1       3.523  -0.515  -2.379  0.00  0.00     0.032 A 
BRANCH  14  17
ATOM     17  O   UNL d   1       5.295  -3.731  -2.780  0.00  0.00    -0.347 OA
BRANCH  17  18
ATOM     18  C   UNL d   1       6.633  -3.236  -2.885  0.00  0.00     0.214 C 
BRANCH  18  19
ATOM     19  C   UNL d   1       7.612  -4.334  -2.561  0.00  0.00    -0.034 A 
ATOM     20  C   UNL d   1       8.610  -4.693  -3.478  0.00  0.00     0.009 A 
ATOM     21  C   UNL d   1       9.553  -5.667  -3.147  0.00  0.00     0.001 A 
ATOM     22  C   UNL d   1       9.510  -6.288  -1.900  0.00  0.00     0.000 A 
ATOM     23  C   UNL d   1       8.522  -5.939  -0.981  0.00  0.00     0.001 A 
ATOM     24  C   UNL d   1       7.577  -4.966  -1.309  0.00  0.00     0.009 A 
ENDBRANCH  18  19
ENDBRANCH  17  18
ENDBRANCH  14  17
ENDBRANCH   3  11
BRANCH   4  25
ATOM     25  C   UNL d   1      -1.921   4.050   0.646  0.00  0.00     0.311 C 
BRANCH  25  26
ATOM     26  C   UNL d   1      -1.675   5.371  -0.054  0.00  0.00    -0.027 A 
ATOM     27  C   UNL d   1      -1.558   5.409  -1.455  0.00  0.00     0.048 A 
ATOM     28  C   UNL d   1      -1.361   6.631  -2.059  0.00  0.00     0.105 A 
ATOM     29  O   UNL d   1      -1.234   6.841  -3.397  0.00  0.00    -0.323 OA
ATOM     30  C   UNL d   1      -1.279   7.795  -1.332  0.00  0.00     0.105 A 
ATOM     31  C   UNL d   1      -1.082   8.276  -3.430  0.00  0.00     0.352 A 
ATOM     32  O   UNL d   1      -1.094   8.886  -2.123  0.00  0.00    -0.323 OA
ATOM     33  C   UNL d   1      -1.380   7.800   0.042  0.00  0.00     0.040 A 
ATOM     34  C   UNL d   1      -1.581   6.573   0.685  0.00  0.00     0.012 A 
ENDBRANCH  25  26
ENDBRANCH   4  25
TORSDOF 6
