REMARK  7 active torsions:
REMARK  status: ('A' for Active; 'I' for Inactive)
REMARK    1  A    between atoms: C_3  and  S_1 
REMARK    2  A    between atoms: C_4  and  S_1 
REMARK    3  A    between atoms: C_2  and  O_7 
REMARK    4  A    between atoms: C_15  and  C_4 
REMARK    5  A    between atoms: O_7  and  C_13 
REMARK    6  A    between atoms: S_14  and  C_15 
REMARK    7  A    between atoms: C_16  and  S_14 
ROOT
ATOM      1  S   UNL d   1       1.083  -0.027  -0.020  0.00  0.00     0.176 S 
ATOM      2  O   UNL d   1       2.523   0.133  -0.033  0.00  0.00    -0.223 OA
ATOM      3  O   UNL d   1       0.469  -1.278  -0.430  0.00  0.00    -0.223 OA
ENDROOT
BRANCH   1   4
ATOM      4  C   UNL d   1       0.389   1.265  -1.030  0.00  0.00     0.059 A 
ATOM      5  C   UNL d   1       1.119   2.431  -1.275  0.00  0.00     0.026 A 
ATOM      6  C   UNL d   1       0.549   3.463  -2.037  0.00  0.00     0.038 A 
ATOM      7  C   UNL d   1      -0.747   3.331  -2.533  0.00  0.00     0.078 A 
ATOM      8  C   UNL d   1      -1.442   2.130  -2.332  0.00  0.00     0.038 A 
ATOM      9  C   UNL d   1      -0.881   1.096  -1.582  0.00  0.00     0.026 A 
BRANCH   7  10
ATOM     10  O   UNL d   1      -1.438   4.261  -3.249  0.00  0.00    -0.255 OA
BRANCH  10  11
ATOM     11  C   UNL d   1      -1.140   5.635  -3.059  0.00  0.00     0.530 C 
ATOM     12  F   UNL d   1      -0.559   5.900  -1.869  0.00  0.00    -0.144 F 
ATOM     13  F   UNL d   1      -0.337   6.073  -4.052  0.00  0.00    -0.144 F 
ATOM     14  F   UNL d   1      -2.298   6.332  -3.112  0.00  0.00    -0.144 F 
ENDBRANCH  10  11
ENDBRANCH   7  10
ENDBRANCH   1   4
BRANCH   1  15
ATOM     15  C   UNL d   1       0.486   0.381   1.605  0.00  0.00     0.156 C 
BRANCH  15  16
ATOM     16  C   UNL d   1       0.948  -0.648   2.625  0.00  0.00     0.095 C 
BRANCH  16  17
ATOM     17  S   UNL d   1       0.273  -0.153   4.253  0.00  0.00    -0.129 SA
BRANCH  17  18
ATOM     18  C   UNL d   1       0.902  -1.400   5.365  0.00  0.00     0.000 A 
ATOM     19  C   UNL d   1       1.141  -1.010   6.691  0.00  0.00     0.020 A 
ATOM     20  C   UNL d   1       1.554  -1.938   7.651  0.00  0.00     0.025 A 
ATOM     21  C   UNL d   1       1.727  -3.270   7.289  0.00  0.00     0.034 A 
ATOM     22  C   UNL d   1       1.496  -3.675   5.977  0.00  0.00     0.025 A 
ATOM     23 CL   UNL d   1       2.206  -4.423   8.472  0.00  0.00    -0.084 Cl
ATOM     24  C   UNL d   1       1.082  -2.743   5.017  0.00  0.00     0.020 A 
ENDBRANCH  17  18
ENDBRANCH  16  17
ENDBRANCH  15  16
ENDBRANCH   1  15
TORSDOF 7
