REMARK  4 active torsions:
REMARK  status: ('A' for Active; 'I' for Inactive)
REMARK    1  A    between atoms: C_2  and  C_1 
REMARK    2  A    between atoms: C_5  and  C_2 
REMARK    3  A    between atoms: N_10  and  N_3 
REMARK    4  A    between atoms: C_12  and  N_10 
ROOT
ATOM      1  C   UNL d   1       0.974   0.057   0.032  0.00  0.00     0.175 C 
ATOM      2  N   UNL d   1       0.326  -0.761  -0.749  0.00  0.00    -0.287 N 
ATOM      3  HN  UNL d   1       0.847  -1.397  -1.354  1.00  0.00     0.188 HD
ATOM      4  C   UNL d   1       0.234   0.973   0.864  0.00  0.00     0.123 C 
ATOM      5  N   UNL d   1      -0.408   1.696   1.509  0.00  0.00    -0.190 NA
ENDROOT
BRANCH   1   6
ATOM      6  C   UNL d   1       2.475   0.020   0.052  0.00  0.00     0.192 C 
ATOM      7  O   UNL d   1       3.123   1.028   0.290  0.00  0.00    -0.290 OA
BRANCH   6   8
ATOM      8  C   UNL d   1       3.095  -1.296  -0.264  0.00  0.00     0.063 A 
ATOM      9  C   UNL d   1       4.573  -1.535  -0.059  0.00  0.00     0.013 A 
ATOM     10  C   UNL d   1       4.026  -1.403  -1.450  0.00  0.00     0.013 A 
ENDBRANCH   6   8
ENDBRANCH   1   6
BRANCH   2  11
ATOM     11  N   UNL d   1      -1.037  -0.781  -0.769  0.00  0.00    -0.300 N 
ATOM     12  H   UNL d   1      -1.592   0.056  -0.572  0.00  0.00     0.187 HD
BRANCH  11  13
ATOM     13  C   UNL d   1      -1.667  -1.675  -1.664  0.00  0.00     0.048 A 
ATOM     14  C   UNL d   1      -0.940  -2.613  -2.413  0.00  0.00     0.032 A 
ATOM     15  C   UNL d   1      -1.586  -3.541  -3.235  0.00  0.00     0.021 A 
ATOM     16  C   UNL d   1      -2.975  -3.558  -3.292  0.00  0.00     0.011 A 
ATOM     17  C   UNL d   1      -3.721  -2.659  -2.535  0.00  0.00     0.021 A 
ATOM     18 BR   UNL d   1      -3.851  -4.822  -4.391  0.00  0.00    -0.051 Br
ATOM     19  C   UNL d   1      -3.067  -1.727  -1.719  0.00  0.00     0.032 A 
ENDBRANCH  11  13
ENDBRANCH   2  11
TORSDOF 4
