REMARK  10 active torsions:
REMARK  status: ('A' for Active; 'I' for Inactive)
REMARK    1  A    between atoms: C_9  and  C_1 
REMARK    2  A    between atoms: C_2  and  C_10 
REMARK       I    between atoms: N_4  and  C_2 
REMARK    3  A    between atoms: C_3  and  C_7 
REMARK       I    between atoms: N_6  and  C_3 
REMARK    4  A    between atoms: C_7  and  N_4 
REMARK    5  A    between atoms: C_5  and  N_8 
REMARK    6  A    between atoms: N_21  and  C_5 
REMARK    7  A    between atoms: N_8  and  N_6 
REMARK    8  A    between atoms: C_22  and  C_7 
REMARK    9  A    between atoms: C_24  and  C_22 
REMARK   10  A    between atoms: S_23  and  C_24 
ROOT
ATOM      1  C   UNL d   1      -0.344   4.168   4.849  0.00  0.00     0.179 C 
ENDROOT
BRANCH   1   2
ATOM      2  C   UNL d   1      -1.538   4.234   3.876  0.00  0.00     0.259 C 
ATOM      3  N   UNL d   1      -1.674   3.114   3.080  0.00  0.00    -0.266 N 
ATOM      4  H   UNL d   1      -1.072   2.291   3.178  0.00  0.00     0.190 HD
ATOM      5  O   UNL d   1      -2.280   5.209   3.759  0.00  0.00    -0.269 OA
BRANCH   3   6
ATOM      6  N   UNL d   1      -2.751   3.051   2.186  0.00  0.00    -0.274 N 
ATOM      7  H   UNL d   1      -3.271   3.921   2.091  0.00  0.00     0.189 HD
BRANCH   6   8
ATOM      8  C   UNL d   1      -3.322   1.836   1.837  0.00  0.00     0.186 C 
ATOM      9  S   UNL d   1      -2.649   0.352   2.229  0.00  0.00    -0.040 SA
BRANCH   8  10
ATOM     10  N   UNL d   1      -4.485   2.019   1.116  0.00  0.00    -0.370 N 
ATOM     11  C   UNL d   1      -5.333   0.994   0.534  0.00  0.00     0.148 C 
ATOM     12  H   UNL d   1      -4.749   2.972   0.905  0.00  0.00     0.161 HD
ENDBRANCH   8  10
ENDBRANCH   6   8
ENDBRANCH   3   6
ENDBRANCH   1   2
BRANCH   1  13
ATOM     13  N   UNL d   1      -0.460   3.021   5.760  0.00  0.00    -0.344 N 
ATOM     14  C   UNL d   1       0.122   1.803   5.478  0.00  0.00     0.252 C 
ATOM     15  O   UNL d   1       0.676   1.594   4.403  0.00  0.00    -0.268 OA
ATOM     16  H   UNL d   1      -1.136   3.084   6.503  0.00  0.00     0.163 HD
BRANCH  14  17
ATOM     17  C   UNL d   1       0.051   0.733   6.525  0.00  0.00     0.032 A 
ATOM     18  C   UNL d   1      -0.554   0.913   7.776  0.00  0.00     0.018 A 
ATOM     19  C   UNL d   1      -0.552  -0.120   8.722  0.00  0.00     0.017 A 
ATOM     20  C   UNL d   1       0.064  -1.350   8.445  0.00  0.00     0.048 A 
ATOM     21  C   UNL d   1       0.673  -1.528   7.196  0.00  0.00     0.017 A 
ATOM     22  C   UNL d   1       0.664  -0.499   6.247  0.00  0.00     0.018 A 
BRANCH  20  23
ATOM     23  C   UNL d   1       0.075  -2.439   9.492  0.00  0.00     0.417 C 
ATOM     24  F   UNL d   1       0.634  -3.605   9.065  0.00  0.00    -0.166 F 
ATOM     25  F   UNL d   1      -1.177  -2.760   9.922  0.00  0.00    -0.166 F 
ATOM     26  F   UNL d   1       0.770  -2.078  10.606  0.00  0.00    -0.166 F 
ENDBRANCH  20  23
ENDBRANCH  14  17
ENDBRANCH   1  13
BRANCH   1  27
ATOM     27  C   UNL d   1      -0.105   5.475   5.624  0.00  0.00     0.045 C 
BRANCH  27  28
ATOM     28  C   UNL d   1      -1.236   5.873   6.573  0.00  0.00     0.076 C 
BRANCH  28  29
ATOM     29  S   UNL d   1      -0.764   7.354   7.524  0.00  0.00    -0.173 SA
ATOM     30  C   UNL d   1      -2.314   7.595   8.424  0.00  0.00     0.089 C 
ENDBRANCH  28  29
ENDBRANCH  27  28
ENDBRANCH   1  27
TORSDOF 10
