REMARK  4 active torsions:
REMARK  status: ('A' for Active; 'I' for Inactive)
REMARK    1  A    between atoms: N_2  and  C_1 
REMARK    2  A    between atoms: N_3  and  C_1 
REMARK    3  A    between atoms: C_5  and  N_2 
REMARK    4  A    between atoms: C_6  and  N_3 
ROOT
ATOM      1  C   UNL d   1       0.963  -0.018   0.116  0.00  0.00     0.176 C 
ATOM      2  S   UNL d   1       2.601  -0.359   0.232  0.00  0.00    -0.041 SA
ENDROOT
BRANCH   1   3
ATOM      3  N   UNL d   1       0.417   1.154  -0.333  0.00  0.00    -0.333 N 
ATOM      4  H   UNL d   1      -0.313   1.520   0.267  0.00  0.00     0.168 HD
BRANCH   3   5
ATOM      5  C   UNL d   1       0.890   2.010  -1.347  0.00  0.00     0.034 A 
ATOM      6  C   UNL d   1       1.613   1.534  -2.445  0.00  0.00     0.029 A 
ATOM      7  C   UNL d   1       2.017   2.407  -3.457  0.00  0.00     0.002 A 
ATOM      8  C   UNL d   1       1.701   3.761  -3.376  0.00  0.00     0.000 A 
ATOM      9  C   UNL d   1       0.959   4.238  -2.297  0.00  0.00     0.002 A 
ATOM     10  C   UNL d   1       0.537   3.361  -1.294  0.00  0.00     0.029 A 
ENDBRANCH   3   5
ENDBRANCH   1   3
BRANCH   1  11
ATOM     11  N   UNL d   1       0.099  -0.944   0.637  0.00  0.00    -0.333 N 
ATOM     12  H   UNL d   1       0.577  -1.664   1.170  0.00  0.00     0.168 HD
BRANCH  11  13
ATOM     13  C   UNL d   1      -1.266  -1.186   0.372  0.00  0.00     0.034 A 
ATOM     14  C   UNL d   1      -2.010  -0.528  -0.609  0.00  0.00     0.029 A 
ATOM     15  C   UNL d   1      -3.345  -0.875  -0.843  0.00  0.00     0.002 A 
ATOM     16  C   UNL d   1      -3.944  -1.894  -0.109  0.00  0.00     0.000 A 
ATOM     17  C   UNL d   1      -3.207  -2.571   0.859  0.00  0.00     0.002 A 
ATOM     18  C   UNL d   1      -1.876  -2.221   1.098  0.00  0.00     0.029 A 
ENDBRANCH  11  13
ENDBRANCH   1  11
TORSDOF 4
