REMARK  5 active torsions:
REMARK  status: ('A' for Active; 'I' for Inactive)
REMARK    1  A    between atoms: N_2  and  C_1 
REMARK    2  A    between atoms: N_3  and  C_1 
REMARK    3  A    between atoms: C_5  and  N_2 
REMARK    4  A    between atoms: C_8  and  N_3 
REMARK    5  A    between atoms: O_9  and  C_7 
ROOT
ATOM      1  N   UNL d   1      -0.415  -1.068  -1.970  0.00  0.00    -0.362 N 
ATOM      2  H   UNL d   1      -0.329  -1.838  -2.625  0.00  0.00     0.162 HD
ENDROOT
BRANCH   1   3
ATOM      3  C   UNL d   1       0.672  -0.891  -1.199  0.00  0.00     0.172 C 
ATOM      4  S   UNL d   1       0.431  -0.606   0.455  0.00  0.00    -0.041 SA
BRANCH   3   5
ATOM      5  N   UNL d   1       1.905  -0.864  -1.787  0.00  0.00    -0.333 N 
ATOM      6  H   UNL d   1       2.622  -0.570  -1.146  0.00  0.00     0.168 HD
BRANCH   5   7
ATOM      7  C   UNL d   1       2.380  -1.004  -3.107  0.00  0.00     0.036 A 
ATOM      8  C   UNL d   1       3.771  -0.907  -3.289  0.00  0.00     0.066 A 
ATOM      9  C   UNL d   1       4.362  -1.083  -4.545  0.00  0.00     0.070 A 
ATOM     10  C   UNL d   1       3.551  -1.357  -5.642  0.00  0.00     0.037 A 
ATOM     11  C   UNL d   1       2.166  -1.413  -5.484  0.00  0.00     0.005 A 
ATOM     12  C   UNL d   1       1.585  -1.221  -4.232  0.00  0.00     0.029 A 
BRANCH   9  13
ATOM     13  O   UNL d   1       5.727  -0.971  -4.576  0.00  0.00    -0.356 OA
ATOM     14  C   UNL d   1       6.365  -1.295  -5.808  0.00  0.00     0.210 C 
ENDBRANCH   9  13
ENDBRANCH   5   7
ENDBRANCH   3   5
ENDBRANCH   1   3
BRANCH   1  15
ATOM     15  C   UNL d   1      -1.702  -0.903  -1.360  0.00  0.00     0.083 C 
ATOM     16  C   UNL d   1      -1.864   0.545  -0.658  0.00  0.00     0.025 C 
ATOM     17  C   UNL d   1      -0.786   1.800  -0.750  0.00  0.00     0.002 C 
ATOM     18  C   UNL d   1       0.867   1.892  -0.846  0.00  0.00     0.000 C 
ATOM     19  C   UNL d   1       1.986   1.706   0.380  0.00  0.00     0.000 C 
ATOM     20  C   UNL d   1       3.034   0.473   0.968  0.00  0.00     0.000 C 
ATOM     21  C   UNL d   1       3.130  -1.208   1.091  0.00  0.00     0.000 C 
ATOM     22  C   UNL d   1       2.192  -2.198   1.958  0.00  0.00     0.000 C 
ATOM     23  C   UNL d   1       1.446  -3.480   1.303  0.00  0.00     0.000 C 
ATOM     24  C   UNL d   1       0.236  -3.562   0.249  0.00  0.00     0.000 C 
ATOM     25  C   UNL d   1      -1.211  -2.996   0.581  0.00  0.00     0.002 C 
ATOM     26  C   UNL d   1      -2.088  -2.244  -0.547  0.00  0.00     0.025 C 
ENDBRANCH   1  15
TORSDOF 5
