REMARK  5 active torsions:
REMARK  status: ('A' for Active; 'I' for Inactive)
REMARK    1  A    between atoms: C_2  and  C_1 
REMARK    2  A    between atoms: S_14  and  C_3 
REMARK    3  A    between atoms: C_12  and  C_7 
REMARK    4  A    between atoms: C_13  and  C_9 
REMARK    5  A    between atoms: O_18  and  C_12 
ROOT
ATOM      1  C   UNL d   1       2.742   1.527   0.042  0.00  0.00     0.086 A 
ATOM      2  N   UNL d   1       2.971   2.470   0.930  0.00  0.00    -0.349 N 
ATOM      3  HN  UNL d   1       2.315   2.750   1.659  1.00  0.00     0.166 HD
ATOM      4  C   UNL d   1       4.221   3.032   0.741  0.00  0.00     0.050 A 
ATOM      5  S   UNL d   1       4.032   1.265  -1.072  0.00  0.00    -0.081 SA
ATOM      6  C   UNL d   1       4.924   2.527  -0.334  0.00  0.00     0.082 A 
ENDROOT
BRANCH   1   7
ATOM      7  C   UNL d   1       1.456   0.735   0.008  0.00  0.00     0.023 A 
ATOM      8  C   UNL d   1       0.266   1.116   0.607  0.00  0.00     0.054 A 
ATOM      9  S   UNL d   1      -0.956  -0.073   0.391  0.00  0.00    -0.076 SA
ATOM     10  C   UNL d   1       0.074  -1.101  -0.499  0.00  0.00     0.080 A 
ATOM     11  C   UNL d   1       1.323  -0.532  -0.653  0.00  0.00     0.042 A 
BRANCH   8  12
ATOM     12  S   UNL d   1      -0.151   2.584   1.491  0.00  0.00    -0.126 SA
ATOM     13  C   UNL d   1      -0.020   3.822   0.178  0.00  0.00     0.096 C 
ENDBRANCH   8  12
BRANCH  10  14
ATOM     14  C   UNL d   1      -0.353  -2.398  -0.995  0.00  0.00     0.183 C 
ATOM     15  O   UNL d   1       0.355  -3.178  -1.613  0.00  0.00    -0.646 OA
BRANCH  14  16
ATOM     16  O   UNL d   1      -1.648  -2.684  -0.706  0.00  0.00    -0.772 OA
ATOM     17  H   UNL d   1      -2.078  -1.969  -0.198  0.00  0.00     0.167 HD
ENDBRANCH  14  16
ENDBRANCH  10  14
ENDBRANCH   1   7
BRANCH   4  18
ATOM     18  C   UNL d   1       4.735   4.046   1.651  0.00  0.00    -0.009 A 
ATOM     19  C   UNL d   1       4.401   3.982   3.013  0.00  0.00     0.015 A 
ATOM     20  C   UNL d   1       4.898   4.928   3.915  0.00  0.00     0.024 A 
ATOM     21  C   UNL d   1       5.725   5.950   3.456  0.00  0.00     0.034 A 
ATOM     22  C   UNL d   1       6.057   6.035   2.105  0.00  0.00     0.024 A 
ATOM     23 CL   UNL d   1       6.336   7.118   4.561  0.00  0.00    -0.084 Cl
ATOM     24  C   UNL d   1       5.566   5.084   1.206  0.00  0.00     0.015 A 
ENDBRANCH   4  18
TORSDOF 5
