REMARK  6 active torsions:
REMARK  status: ('A' for Active; 'I' for Inactive)
REMARK    1  A    between atoms: C_7  and  S_1 
REMARK    2  A    between atoms: C_13  and  S_1 
REMARK    3  A    between atoms: C_6  and  C_2 
REMARK    4  A    between atoms: C_5  and  C_7 
REMARK       I    between atoms: N_10  and  C_6 
REMARK    5  A    between atoms: N_12  and  N_10 
REMARK       I    between atoms: C_11  and  N_12 
REMARK    6  A    between atoms: C_20  and  C_11 
ROOT
ATOM      1  C   UNL d   1       1.586   1.707   3.871  0.00  0.00     0.109 A 
ATOM      2  N   UNL d   1       1.254   0.990   2.715  0.00  0.00    -0.348 N 
ATOM      3  HN  UNL d   1       1.354  -0.019   2.605  1.00  0.00     0.166 HD
ATOM      4  C   UNL d   1       0.791   1.809   1.789  0.00  0.00     0.065 A 
ATOM      5  C   UNL d   1       1.322   3.062   3.793  0.00  0.00     0.086 A 
ATOM      6  S   UNL d   1       0.660   3.457   2.268  0.00  0.00    -0.085 SA
ENDROOT
BRANCH   1   7
ATOM      7  C   UNL d   1       2.174   1.072   5.053  0.00  0.00     0.287 C 
ATOM      8  N   UNL d   1       2.347  -0.292   4.938  0.00  0.00    -0.262 N 
ATOM      9  H   UNL d   1       2.036  -0.813   4.119  0.00  0.00     0.190 HD
ATOM     10  O   UNL d   1       2.502   1.699   6.060  0.00  0.00    -0.264 OA
BRANCH   8  11
ATOM     11  N   UNL d   1       2.895  -0.999   6.013  0.00  0.00    -0.267 N 
ATOM     12  C   UNL d   1       2.984  -2.374   5.944  0.00  0.00     0.239 C 
ATOM     13  O   UNL d   1       2.594  -3.012   4.970  0.00  0.00    -0.271 OA
ATOM     14  H   UNL d   1       3.293  -0.446   6.771  0.00  0.00     0.190 HD
BRANCH  12  15
ATOM     15  C   UNL d   1       3.605  -3.008   7.190  0.00  0.00     0.071 C 
ATOM     16  C   UNL d   1       2.704  -2.796   8.406  0.00  0.00     0.019 C 
ATOM     17  C   UNL d   1       3.867  -4.498   6.985  0.00  0.00     0.019 C 
ENDBRANCH  12  15
ENDBRANCH   8  11
ENDBRANCH   1   7
BRANCH   4  18
ATOM     18  C   UNL d   1       0.339   1.388   0.437  0.00  0.00     0.210 C 
BRANCH  18  19
ATOM     19  S   UNL d   1       1.712   1.427  -0.692  0.00  0.00     0.181 S 
ATOM     20  O   UNL d   1       2.369   2.721  -0.623  0.00  0.00    -0.222 OA
ATOM     21  O   UNL d   1       1.231   0.938  -1.973  0.00  0.00    -0.222 OA
BRANCH  19  22
ATOM     22  C   UNL d   1       2.857   0.209  -0.083  0.00  0.00     0.059 A 
ATOM     23  C   UNL d   1       2.740  -1.118  -0.509  0.00  0.00     0.025 A 
ATOM     24  C   UNL d   1       3.643  -2.072  -0.037  0.00  0.00     0.025 A 
ATOM     25  C   UNL d   1       4.656  -1.693   0.846  0.00  0.00     0.034 A 
ATOM     26  C   UNL d   1       4.785  -0.364   1.250  0.00  0.00     0.025 A 
ATOM     27 CL   UNL d   1       5.765  -2.872   1.429  0.00  0.00    -0.084 Cl
ATOM     28  C   UNL d   1       3.891   0.597   0.776  0.00  0.00     0.025 A 
ENDBRANCH  19  22
ENDBRANCH  18  19
ENDBRANCH   4  18
TORSDOF 6
