REMARK  10 active torsions:
REMARK  status: ('A' for Active; 'I' for Inactive)
REMARK    1  A    between atoms: C_9  and  N_1 
REMARK    2  A    between atoms: C_2  and  C_3 
REMARK    3  A    between atoms: C_17  and  C_9 
REMARK    4  A    between atoms: C_11  and  N_18 
REMARK    5  A    between atoms: O_21  and  C_17 
REMARK    6  A    between atoms: C_23  and  C_17 
REMARK    7  A    between atoms: N_18  and  C_25 
REMARK    8  A    between atoms: N_20  and  C_23 
REMARK    9  A    between atoms: C_26  and  N_20 
REMARK   10  A    between atoms: C_25  and  C_26 
ROOT
ATOM      1  N   UNL d   1      -0.440  -5.922  -0.091  0.00  0.00     0.087 N 
ATOM      2  H   UNL d   1       0.183  -5.776   0.709  0.00  0.00     0.316 HD
ENDROOT
BRANCH   1   3
ATOM      3  C   UNL d   1      -1.525  -4.939  -0.011  0.00  0.00     0.302 C 
BRANCH   3   4
ATOM      4  C   UNL d   1      -0.923  -3.526   0.160  0.00  0.00     0.164 C 
BRANCH   4   5
ATOM      5  C   UNL d   1      -2.036  -2.470   0.214  0.00  0.00     0.162 C 
BRANCH   5   6
ATOM      6  N   UNL d   1      -1.526  -1.105   0.204  0.00  0.00    -0.354 N 
ATOM      7  C   UNL d   1      -1.264  -0.400  -0.944  0.00  0.00     0.092 A 
ATOM      8  C   UNL d   1      -0.848   0.860  -0.583  0.00  0.00     0.031 A 
ATOM      9  C   UNL d   1      -0.861   0.930   0.836  0.00  0.00    -0.008 A 
ATOM     10  C   UNL d   1      -1.291  -0.314   1.313  0.00  0.00     0.044 A 
ATOM     11  C   UNL d   1      -0.545   1.946   1.759  0.00  0.00     0.014 A 
ATOM     12  C   UNL d   1      -1.411  -0.571   2.689  0.00  0.00     0.030 A 
ATOM     13  C   UNL d   1      -1.082   0.452   3.586  0.00  0.00     0.002 A 
ATOM     14  C   UNL d   1      -0.657   1.695   3.130  0.00  0.00     0.001 A 
ENDBRANCH   5   6
ENDBRANCH   4   5
BRANCH   4  15
ATOM     15  O   UNL d   1      -0.120  -3.524   1.351  0.00  0.00    -0.392 OA
ATOM     16  H   UNL d   1      -0.699  -3.400   2.120  0.00  0.00     0.210 HD
ENDBRANCH   4  15
ENDBRANCH   3   4
ENDBRANCH   1   3
BRANCH   1  17
ATOM     17  C   UNL d   1      -0.890  -7.314  -0.141  0.00  0.00     0.284 C 
BRANCH  17  18
ATOM     18  C   UNL d   1      -1.667  -7.671  -1.423  0.00  0.00     0.123 C 
BRANCH  18  19
ATOM     19  N   UNL d   1      -1.986  -9.101  -1.454  0.00  0.00    -0.277 NA
ATOM     20  H   UNL d   1      -2.449  -9.413  -0.607  0.00  0.00     0.129 HD
BRANCH  19  21
ATOM     21  C   UNL d   1      -2.776  -9.464  -2.562  0.00  0.00     0.079 A 
ATOM     22  N   UNL d   1      -3.080  -8.556  -3.510  0.00  0.00    -0.356 N 
ATOM     23  C   UNL d   1      -3.833  -8.952  -4.565  0.00  0.00     0.105 A 
ATOM     24  HN  UNL d   1      -2.752  -7.593  -3.435  1.00  0.00     0.166 HD
ATOM     25  C   UNL d   1      -4.314 -10.236  -4.732  0.00  0.00     0.063 A 
ATOM     26  C   UNL d   1      -3.980 -11.175  -3.753  0.00  0.00     0.021 A 
ATOM     27  C   UNL d   1      -3.199 -10.785  -2.664  0.00  0.00     0.043 A 
BRANCH  25  28
ATOM     28  C   UNL d   1      -5.153 -10.594  -5.917  0.00  0.00     0.418 C 
ATOM     29  F   UNL d   1      -5.404  -9.544  -6.747  0.00  0.00    -0.166 F 
ATOM     30  F   UNL d   1      -4.580 -11.554  -6.694  0.00  0.00    -0.166 F 
ATOM     31  F   UNL d   1      -6.374 -11.083  -5.560  0.00  0.00    -0.166 F 
ENDBRANCH  25  28
ENDBRANCH  19  21
ENDBRANCH  18  19
ENDBRANCH  17  18
ENDBRANCH   1  17
TORSDOF 10
