REMARK  4 active torsions:
REMARK  status: ('A' for Active; 'I' for Inactive)
REMARK    1  A    between atoms: C_9  and  C_1 
REMARK    2  A    between atoms: C_10  and  C_1 
REMARK    3  A    between atoms: N_12  and  C_6 
REMARK    4  A    between atoms: C_11  and  C_7 
ROOT
ATOM      1  C   UNL d   1       1.428  -0.260   0.134  0.00  0.00     0.308 C 
ATOM      2  N   UNL d   1       0.856   1.071  -0.093  0.00  0.00    -0.314 N 
ATOM      3  HN  UNL d   1       1.478   1.877  -0.152  1.00  0.00     0.166 HD
ATOM      4  N   UNL d   1       0.433  -1.343  -0.006  0.00  0.00    -0.328 N 
ATOM      5  HN  UNL d   1       0.714  -2.323   0.001  1.00  0.00     0.164 HD
ATOM      6  C   UNL d   1      -0.406   1.246  -0.220  0.00  0.00     0.225 C 
ATOM      7  C   UNL d   1      -0.793  -1.007  -0.138  0.00  0.00     0.160 C 
ATOM      8  O   UNL d   1      -1.289   0.237  -0.220  0.00  0.00    -0.262 OA
ENDROOT
BRANCH   1   9
ATOM      9  C   UNL d   1       2.581  -0.466  -0.872  0.00  0.00     0.441 C 
ATOM     10  F   UNL d   1       3.451   0.572  -0.889  0.00  0.00    -0.166 F 
ATOM     11  F   UNL d   1       3.301  -1.589  -0.648  0.00  0.00    -0.166 F 
ATOM     12  F   UNL d   1       2.093  -0.583  -2.140  0.00  0.00    -0.166 F 
ENDBRANCH   1   9
BRANCH   1  13
ATOM     13  C   UNL d   1       2.089  -0.281   1.536  0.00  0.00     0.441 C 
ATOM     14  F   UNL d   1       2.574   0.936   1.893  0.00  0.00    -0.166 F 
ATOM     15  F   UNL d   1       1.177  -0.613   2.493  0.00  0.00    -0.166 F 
ATOM     16  F   UNL d   1       3.109  -1.157   1.661  0.00  0.00    -0.166 F 
ENDBRANCH   1  13
BRANCH   6  17
ATOM     17  N   UNL d   1      -0.964   2.495  -0.370  0.00  0.00    -0.356 N 
ATOM     18  C   UNL d   1      -2.393   2.745  -0.427  0.00  0.00     0.152 C 
ATOM     19  C   UNL d   1      -0.129   3.689  -0.423  0.00  0.00     0.152 C 
ENDBRANCH   6  17
BRANCH   7  20
ATOM     20  C   UNL d   1      -1.883  -1.994  -0.328  0.00  0.00     0.021 A 
ATOM     21  C   UNL d   1      -3.150  -1.911   0.284  0.00  0.00    -0.048 A 
ATOM     22  C   UNL d   1      -3.553  -0.840   1.258  0.00  0.00     0.049 C 
ATOM     23  C   UNL d   1      -4.114  -2.887  -0.035  0.00  0.00     0.007 A 
ATOM     24  C   UNL d   1      -3.820  -3.937  -0.906  0.00  0.00     0.001 A 
ATOM     25  C   UNL d   1      -2.556  -4.032  -1.478  0.00  0.00     0.001 A 
ATOM     26  C   UNL d   1      -1.592  -3.066  -1.191  0.00  0.00     0.016 A 
ENDBRANCH   7  20
TORSDOF 4
