REMARK  4 active torsions:
REMARK  status: ('A' for Active; 'I' for Inactive)
REMARK    1  A    between atoms: C_8  and  C_1 
REMARK    2  A    between atoms: C_10  and  C_7 
REMARK    3  A    between atoms: C_9  and  O_12 
REMARK    4  A    between atoms: O_12  and  C_18 
ROOT
ATOM      1  C   UNL d   1      -0.220  -1.063  -0.083  0.00  0.00     0.177 A 
ATOM      2  O   UNL d   1      -1.068   0.010  -0.029  0.00  0.00    -0.273 OA
ATOM      3  N   UNL d   1       1.047  -0.699  -0.122  0.00  0.00    -0.277 N 
ATOM      4  HN  UNL d   1       1.858  -1.317  -0.168  1.00  0.00     0.189 HD
ATOM      5  N   UNL d   1       1.063   0.679  -0.088  0.00  0.00    -0.277 N 
ATOM      6  HN  UNL d   1       1.886   1.281  -0.103  1.00  0.00     0.189 HD
ATOM      7  C   UNL d   1      -0.198   1.065  -0.032  0.00  0.00     0.174 A 
ENDROOT
BRANCH   7   8
ATOM      8  C   UNL d   1      -0.761   2.405   0.061  0.00  0.00     0.017 A 
ATOM      9  C   UNL d   1      -2.146   2.632   0.089  0.00  0.00     0.018 A 
ATOM     10  C   UNL d   1      -2.663   3.928   0.230  0.00  0.00     0.038 A 
ATOM     11  C   UNL d   1      -1.800   5.011   0.377  0.00  0.00     0.078 A 
ATOM     12  C   UNL d   1      -0.422   4.801   0.290  0.00  0.00     0.038 A 
ATOM     13  C   UNL d   1       0.093   3.511   0.139  0.00  0.00     0.018 A 
BRANCH  11  14
ATOM     14  O   UNL d   1      -2.167   6.310   0.553  0.00  0.00    -0.255 OA
BRANCH  14  15
ATOM     15  C   UNL d   1      -3.347   6.606   1.285  0.00  0.00     0.530 C 
ATOM     16  F   UNL d   1      -3.892   5.544   1.914  0.00  0.00    -0.144 F 
ATOM     17  F   UNL d   1      -3.047   7.531   2.225  0.00  0.00    -0.144 F 
ATOM     18  F   UNL d   1      -4.267   7.138   0.451  0.00  0.00    -0.144 F 
ENDBRANCH  14  15
ENDBRANCH  11  14
ENDBRANCH   7   8
BRANCH   1  19
ATOM     19  C   UNL d   1      -0.801  -2.397  -0.107  0.00  0.00     0.055 A 
ATOM     20  C   UNL d   1      -2.180  -2.627  -0.027  0.00  0.00     0.131 A 
ATOM     21  F   UNL d   1      -3.044  -1.609   0.102  0.00  0.00    -0.205 F 
ATOM     22  C   UNL d   1      -2.704  -3.918  -0.078  0.00  0.00     0.043 A 
ATOM     23  C   UNL d   1      -1.851  -5.012  -0.208  0.00  0.00     0.003 A 
ATOM     24  C   UNL d   1      -0.475  -4.810  -0.278  0.00  0.00     0.001 A 
ATOM     25  C   UNL d   1       0.047  -3.513  -0.225  0.00  0.00     0.019 A 
ENDBRANCH   1  19
TORSDOF 4
