REMARK  3 active torsions:
REMARK  status: ('A' for Active; 'I' for Inactive)
REMARK    1  A    between atoms: C_2  and  S_1 
REMARK    2  A    between atoms: N_7  and  S_1 
REMARK    3  A    between atoms: C_12  and  N_7 
ROOT
ATOM      1  S   UNL d   1       0.912  -0.046  -0.069  0.00  0.00     0.252 S 
ATOM      2  O   UNL d   1       0.318  -1.228   0.515  0.00  0.00    -0.205 OA
ATOM      3  O   UNL d   1       2.346   0.064  -0.243  0.00  0.00    -0.205 OA
ENDROOT
BRANCH   1   4
ATOM      4  C   UNL d   1       0.472   1.294   1.003  0.00  0.00     0.118 A 
ATOM      5  S   UNL d   1      -1.206   1.551   1.239  0.00  0.00    -0.068 SA
ATOM      6  C   UNL d   1      -0.917   2.895   2.236  0.00  0.00     0.070 A 
ATOM      7 BR   UNL d   1      -2.319   3.898   2.974  0.00  0.00    -0.042 Br
ATOM      8  C   UNL d   1       0.421   3.137   2.413  0.00  0.00     0.037 A 
ATOM      9  C   UNL d   1       1.233   2.209   1.708  0.00  0.00     0.053 A 
ATOM     10 BR   UNL d   1       1.210   4.515   3.436  0.00  0.00    -0.049 Br
ENDBRANCH   1   4
BRANCH   1  11
ATOM     11  N   UNL d   1       0.159   0.192  -1.573  0.00  0.00    -0.181 NA
ATOM     12  H   UNL d   1       0.095  -0.714  -2.041  0.00  0.00     0.146 HD
BRANCH  11  13
ATOM     13  C   UNL d   1       0.672   1.239  -2.396  0.00  0.00     0.024 A 
ATOM     14  C   UNL d   1       1.818   1.043  -3.170  0.00  0.00     0.051 A 
ATOM     15  C   UNL d   1       2.279   2.076  -3.989  0.00  0.00     0.074 A 
ATOM     16 CL   UNL d   1       3.678   1.825  -4.961  0.00  0.00    -0.081 Cl
ATOM     17  C   UNL d   1       1.601   3.293  -4.024  0.00  0.00     0.138 A 
ATOM     18  C   UNL d   1       0.470   3.496  -3.237  0.00  0.00     0.046 A 
ATOM     19  F   UNL d   1       2.019   4.290  -4.818  0.00  0.00    -0.204 F 
ATOM     20  C   UNL d   1       0.006   2.466  -2.417  0.00  0.00     0.027 A 
ENDBRANCH  11  13
ENDBRANCH   1  11
TORSDOF 3
