REMARK  5 active torsions:
REMARK  status: ('A' for Active; 'I' for Inactive)
REMARK    1  A    between atoms: C_2  and  C_1 
REMARK       I    between atoms: N_3  and  C_1 
REMARK    2  A    between atoms: C_11  and  N_3 
REMARK    3  A    between atoms: N_8  and  C_5 
REMARK    4  A    between atoms: C_16  and  N_8 
REMARK    5  A    between atoms: C_17  and  N_8 
ROOT
ATOM      1  C   UNL d   1      -4.036  -1.285   0.621  0.00  0.00     0.030 A 
ATOM      2  C   UNL d   1      -1.175  -1.143   0.582  0.00  0.00     0.035 A 
ATOM      3  C   UNL d   1      -3.259  -1.653   1.724  0.00  0.00     0.031 A 
ATOM      4  C   UNL d   1      -3.328  -0.864  -0.516  0.00  0.00     0.031 A 
ATOM      5  C   UNL d   1      -1.860  -1.576   1.714  0.00  0.00     0.032 A 
ATOM      6  C   UNL d   1      -1.922  -0.789  -0.539  0.00  0.00     0.032 A 
ENDROOT
BRANCH   2   7
ATOM      7  N   UNL d   1       0.231  -1.014   0.531  0.00  0.00    -0.321 N 
ATOM      8  C   UNL d   1       1.136  -1.461   1.481  0.00  0.00     0.279 C 
ATOM      9  O   UNL d   1       0.848  -2.151   2.455  0.00  0.00    -0.265 OA
ATOM     10  H   UNL d   1       0.632  -0.561  -0.282  0.00  0.00     0.169 HD
BRANCH   8  11
ATOM     11  C   UNL d   1       2.510  -1.064   1.234  0.00  0.00     0.142 A 
ATOM     12  O   UNL d   1       2.829  -0.240   0.188  0.00  0.00    -0.317 OA
ATOM     13  C   UNL d   1       4.171  -0.022   0.254  0.00  0.00     0.143 A 
ATOM     14  C   UNL d   1       4.724  -0.701   1.314  0.00  0.00     0.027 A 
ATOM     15  C   UNL d   1       3.654  -1.374   1.948  0.00  0.00     0.045 A 
ENDBRANCH   8  11
ENDBRANCH   2   7
BRANCH   1  16
ATOM     16  N   UNL d   1      -5.422  -1.310   0.671  0.00  0.00    -0.382 N 
BRANCH  16  17
ATOM     17  C   UNL d   1      -6.127  -2.327   1.460  0.00  0.00     0.118 C 
ATOM     18  C   UNL d   1      -6.619  -1.778   2.792  0.00  0.00     0.026 C 
ENDBRANCH  16  17
BRANCH  16  19
ATOM     19  C   UNL d   1      -6.232  -0.351  -0.086  0.00  0.00     0.118 C 
ATOM     20  C   UNL d   1      -6.003   1.076   0.397  0.00  0.00     0.026 C 
ENDBRANCH  16  19
ENDBRANCH   1  16
TORSDOF 5
