REMARK  4 active torsions:
REMARK  status: ('A' for Active; 'I' for Inactive)
REMARK    1  A    between atoms: C_5  and  C_1 
REMARK    2  A    between atoms: C_15  and  N_2 
REMARK       I    between atoms: N_10  and  C_5 
REMARK    3  A    between atoms: C_7  and  C_8 
REMARK       I    between atoms: C_8  and  N_11 
REMARK    4  A    between atoms: N_11  and  N_10 
ROOT
ATOM      1  C   UNL d   1      -0.765  -2.588   0.418  0.00  0.00     0.288 C 
ATOM      2  N   UNL d   1       0.099  -3.664   0.528  0.00  0.00    -0.262 N 
ATOM      3  O   UNL d   1      -1.976  -2.771   0.293  0.00  0.00    -0.264 OA
ATOM      4  H   UNL d   1       1.054  -3.561   0.864  0.00  0.00     0.190 HD
ENDROOT
BRANCH   2   5
ATOM      5  N   UNL d   1      -0.448  -4.952   0.632  0.00  0.00    -0.263 N 
ATOM      6  C   UNL d   1       0.211  -5.883   1.405  0.00  0.00     0.271 C 
ATOM      7  O   UNL d   1       1.295  -5.656   1.939  0.00  0.00    -0.266 OA
ATOM      8  H   UNL d   1      -1.405  -5.069   0.301  0.00  0.00     0.190 HD
BRANCH   6   9
ATOM      9  C   UNL d   1      -0.493  -7.168   1.650  0.00  0.00     0.055 A 
ATOM     10  C   UNL d   1      -1.199  -7.883   0.671  0.00  0.00     0.049 A 
ATOM     11 CL   UNL d   1      -1.268  -7.402  -0.986  0.00  0.00    -0.083 Cl
ATOM     12  C   UNL d   1      -1.854  -9.071   1.014  0.00  0.00     0.025 A 
ATOM     13  C   UNL d   1      -1.804  -9.556   2.325  0.00  0.00     0.002 A 
ATOM     14  C   UNL d   1      -1.083  -8.864   3.292  0.00  0.00     0.001 A 
ATOM     15  C   UNL d   1      -0.426  -7.680   2.958  0.00  0.00     0.019 A 
ENDBRANCH   6   9
ENDBRANCH   2   5
BRANCH   1  16
ATOM     16  C   UNL d   1      -0.139  -1.284   0.464  0.00  0.00     0.122 A 
ATOM     17  N   UNL d   1      -0.796  -0.083   0.618  0.00  0.00    -0.287 N 
ATOM     18  N   UNL d   1       0.022   0.990   0.585  0.00  0.00    -0.302 N 
ATOM     19  C   UNL d   1       1.245   0.476   0.471  0.00  0.00     0.024 A 
ATOM     20  HN  UNL d   1      -0.238   1.975   0.635  1.00  0.00     0.186 HD
ATOM     21  C   UNL d   1       1.202  -0.931   0.376  0.00  0.00     0.063 A 
ATOM     22  C   UNL d   1       2.422   1.375   0.475  0.00  0.00     0.070 C 
BRANCH  17  23
ATOM     23  C   UNL d   1      -2.190   0.169   0.945  0.00  0.00     0.145 C 
ATOM     24  C   UNL d   1      -2.368   0.375   2.441  0.00  0.00     0.028 C 
ENDBRANCH  17  23
ENDBRANCH   1  16
TORSDOF 4
