REMARK  6 active torsions:
REMARK  status: ('A' for Active; 'I' for Inactive)
REMARK    1  A    between atoms: C_6  and  C_3 
REMARK    2  A    between atoms: O_16  and  C_9 
REMARK       I    between atoms: C_10  and  N_17 
REMARK    3  A    between atoms: C_20  and  C_10 
REMARK    4  A    between atoms: C_13  and  C_23 
REMARK       I    between atoms: N_18  and  C_13 
REMARK    5  A    between atoms: C_23  and  O_16 
REMARK    6  A    between atoms: N_17  and  N_18 
ROOT
ATOM      1  C   UNL d   1       1.360  -2.856  -0.159  0.00  0.00    -0.006 A 
ATOM      2  C   UNL d   1       1.403  -5.687  -0.060  0.00  0.00     0.081 A 
ATOM      3  C   UNL d   1       0.843  -5.015  -1.168  0.00  0.00    -0.027 A 
ATOM      4  C   UNL d   1       2.001  -4.938   0.975  0.00  0.00    -0.027 A 
ATOM      5  C   UNL d   1       1.963  -3.529   0.908  0.00  0.00     0.023 A 
ATOM      6  C   UNL d   1       0.872  -3.608  -1.226  0.00  0.00     0.023 A 
ATOM      7  C   UNL d   1       2.668  -5.532   2.184  0.00  0.00     0.051 C 
ATOM      8  C   UNL d   1       0.148  -5.738  -2.291  0.00  0.00     0.051 C 
ENDROOT
BRANCH   2   9
ATOM      9  O   UNL d   1       1.208  -7.050  -0.031  0.00  0.00    -0.341 OA
BRANCH   9  10
ATOM     10  C   UNL d   1       2.364  -7.831   0.225  0.00  0.00     0.280 C 
BRANCH  10  11
ATOM     11  C   UNL d   1       2.241  -9.308  -0.139  0.00  0.00     0.260 C 
ATOM     12  N   UNL d   1       1.083  -9.707  -0.765  0.00  0.00    -0.265 N 
ATOM     13  H   UNL d   1       0.274  -9.100  -0.900  0.00  0.00     0.190 HD
ATOM     14  O   UNL d   1       3.136 -10.116   0.135  0.00  0.00    -0.269 OA
BRANCH  12  15
ATOM     15  N   UNL d   1       0.933 -11.081  -0.985  0.00  0.00    -0.263 N 
ATOM     16  C   UNL d   1      -0.229 -11.583  -1.531  0.00  0.00     0.270 C 
ATOM     17  O   UNL d   1      -1.185 -10.885  -1.845  0.00  0.00    -0.266 OA
ATOM     18  H   UNL d   1       1.658 -11.666  -0.573  0.00  0.00     0.190 HD
BRANCH  16  19
ATOM     19  C   UNL d   1      -0.271 -13.070  -1.680  0.00  0.00     0.033 A 
ATOM     20  C   UNL d   1      -1.515 -13.715  -1.671  0.00  0.00     0.019 A 
ATOM     21  C   UNL d   1      -1.589 -15.109  -1.773  0.00  0.00     0.025 A 
ATOM     22  C   UNL d   1      -0.420 -15.859  -1.897  0.00  0.00     0.034 A 
ATOM     23  C   UNL d   1       0.822 -15.228  -1.934  0.00  0.00     0.025 A 
ATOM     24 CL   UNL d   1      -0.509 -17.573  -2.010  0.00  0.00    -0.084 Cl
ATOM     25  C   UNL d   1       0.898 -13.835  -1.831  0.00  0.00     0.019 A 
ENDBRANCH  16  19
ENDBRANCH  12  15
ENDBRANCH  10  11
ENDBRANCH   9  10
ENDBRANCH   2   9
BRANCH   1  26
ATOM     26  C   UNL d   1       1.287  -1.353  -0.105  0.00  0.00     0.070 C 
ATOM     27  N   UNL d   1       2.300  -0.749   0.446  0.00  0.00    -0.294 N 
ATOM     28  N   UNL d   1       2.333   0.618   0.500  0.00  0.00    -0.261 N 
ATOM     29  HN  UNL d   1       3.068  -1.294   0.837  1.00  0.00     0.187 HD
ATOM     30  C   UNL d   1       1.392   1.451  -0.086  0.00  0.00     0.272 C 
ATOM     31  C   UNL d   1       3.462   1.216   1.184  0.00  0.00     0.181 C 
ATOM     32  C   UNL d   1       0.228   0.789  -0.697  0.00  0.00     0.046 A 
ATOM     33  O   UNL d   1       1.465   2.678  -0.087  0.00  0.00    -0.266 OA
ATOM     34  C   UNL d   1      -0.792   1.569  -1.263  0.00  0.00     0.018 A 
ATOM     35  C   UNL d   1       0.118  -0.599  -0.642  0.00  0.00     0.009 A 
ATOM     36  C   UNL d   1      -1.944   0.962  -1.755  0.00  0.00     0.001 A 
ATOM     37  C   UNL d   1      -2.098  -0.415  -1.635  0.00  0.00     0.001 A 
ATOM     38  C   UNL d   1      -1.085  -1.189  -1.059  0.00  0.00     0.015 A 
ENDBRANCH   1  26
TORSDOF 6
