REMARK  5 active torsions:
REMARK  status: ('A' for Active; 'I' for Inactive)
REMARK    1  A    between atoms: C_2  and  S_1 
REMARK    2  A    between atoms: N_5  and  S_1 
REMARK    3  A    between atoms: C_14  and  C_4 
REMARK    4  A    between atoms: N_8  and  N_5 
REMARK    5  A    between atoms: C_12  and  C_15 
ROOT
ATOM      1  S   UNL d   1       1.002  -0.087  -0.071  0.00  0.00     0.282 S 
ATOM      2  O   UNL d   1       1.322   1.304  -0.301  0.00  0.00    -0.198 OA
ATOM      3  O   UNL d   1       1.966  -1.028   0.459  0.00  0.00    -0.198 OA
ENDROOT
BRANCH   1   4
ATOM      4  C   UNL d   1       0.552  -0.774  -1.657  0.00  0.00     0.122 A 
ATOM      5  S   UNL d   1      -0.083   0.313  -2.808  0.00  0.00    -0.074 SA
ATOM      6  C   UNL d   1      -0.311  -0.921  -3.980  0.00  0.00     0.033 A 
ATOM      7  C   UNL d   1       0.069  -2.151  -3.469  0.00  0.00     0.023 A 
ATOM      8  C   UNL d   1       0.573  -2.067  -2.139  0.00  0.00     0.034 A 
BRANCH   6   9
ATOM      9  C   UNL d   1      -0.900  -0.619  -5.292  0.00  0.00     0.049 A 
ATOM     10  N   UNL d   1      -1.603  -1.647  -5.830  0.00  0.00    -0.365 N 
ATOM     11  C   UNL d   1      -2.224  -1.423  -7.009  0.00  0.00     0.088 A 
ATOM     12  HN  UNL d   1      -1.659  -2.552  -5.363  1.00  0.00     0.165 HD
ATOM     13  C   UNL d   1      -2.177  -0.219  -7.690  0.00  0.00     0.017 A 
ATOM     14  C   UNL d   1      -1.432   0.816  -7.140  0.00  0.00     0.004 A 
ATOM     15  C   UNL d   1      -0.778   0.616  -5.927  0.00  0.00     0.031 A 
ENDBRANCH   6   9
ENDBRANCH   1   4
BRANCH   1  16
ATOM     16  N   UNL d   1      -0.432  -0.172   0.864  0.00  0.00    -0.223 N 
ATOM     17  H   UNL d   1      -1.274   0.050   0.328  0.00  0.00     0.200 HD
BRANCH  16  18
ATOM     18  N   UNL d   1      -0.341   0.258   2.245  0.00  0.00    -0.301 N 
ATOM     19  C   UNL d   1      -1.466   0.320   2.884  0.00  0.00     0.126 C 
ATOM     20  HN  UNL d   1       0.549   0.496   2.684  1.00  0.00     0.186 HD
BRANCH  19  21
ATOM     21  C   UNL d   1      -1.494   0.713   4.271  0.00  0.00     0.021 A 
ATOM     22  S   UNL d   1      -2.974   0.671   5.126  0.00  0.00    -0.101 SA
ATOM     23  C   UNL d   1      -2.219   1.162   6.581  0.00  0.00     0.050 A 
ATOM     24  C   UNL d   1      -0.869   1.379   6.415  0.00  0.00     0.008 A 
ATOM     25  C   UNL d   1      -0.451   1.126   5.076  0.00  0.00     0.021 A 
ENDBRANCH  19  21
ENDBRANCH  16  18
ENDBRANCH   1  16
TORSDOF 5
