REMARK  5 active torsions:
REMARK  status: ('A' for Active; 'I' for Inactive)
REMARK    1  A    between atoms: C_13  and  N_1 
REMARK    2  A    between atoms: C_7  and  C_2 
REMARK    3  A    between atoms: O_8  and  C_7 
REMARK    4  A    between atoms: C_9  and  O_8 
REMARK    5  A    between atoms: C_15  and  C_13 
ROOT
ATOM      1  N   UNL d   1       0.291  -0.211   0.465  0.00  0.00    -0.306 N 
ATOM      2  C   UNL d   1       0.909   0.655  -0.372  0.00  0.00     0.130 A 
ATOM      3  N   UNL d   1       0.381   0.720  -1.566  0.00  0.00    -0.284 N 
ATOM      4  HN  UNL d   1       0.692   1.285  -2.356  1.00  0.00     0.188 HD
ATOM      5  C   UNL d   1      -0.778  -0.697  -0.256  0.00  0.00     0.194 A 
ATOM      6  N   UNL d   1      -0.674  -0.133  -1.517  0.00  0.00    -0.275 N 
ATOM      7  S   UNL d   1      -2.002  -1.723   0.184  0.00  0.00    -0.039 SA
ATOM      8  H   UNL d   1      -1.312  -0.263  -2.295  0.00  0.00     0.189 HD
ENDROOT
BRANCH   2   9
ATOM      9  C   UNL d   1       2.094   1.550  -0.009  0.00  0.00     0.194 C 
ATOM     10  C   UNL d   1       3.386   0.743   0.034  0.00  0.00     0.048 C 
BRANCH   9  11
ATOM     11  O   UNL d   1       1.959   2.217   1.240  0.00  0.00    -0.337 OA
BRANCH  11  12
ATOM     12  C   UNL d   1       1.212   3.364   1.300  0.00  0.00     0.091 A 
ATOM     13  C   UNL d   1       1.445   4.215   2.394  0.00  0.00     0.069 A 
ATOM     14  C   UNL d   1       0.718   5.398   2.553  0.00  0.00     0.050 A 
ATOM     15 CL   UNL d   1       2.646   3.838   3.582  0.00  0.00    -0.081 Cl
ATOM     16  C   UNL d   1      -0.258   5.730   1.620  0.00  0.00     0.035 A 
ATOM     17  C   UNL d   1      -0.513   4.891   0.539  0.00  0.00     0.026 A 
ATOM     18 CL   UNL d   1      -1.161   7.181   1.805  0.00  0.00    -0.084 Cl
ATOM     19  C   UNL d   1       0.220   3.712   0.378  0.00  0.00     0.040 A 
ENDBRANCH  11  12
ENDBRANCH   9  11
ENDBRANCH   2   9
BRANCH   1  20
ATOM     20  C   UNL d   1       0.617  -0.547   1.843  0.00  0.00     0.159 C 
BRANCH  20  21
ATOM     21  C   UNL d   1       1.405  -1.826   1.956  0.00  0.00    -0.017 C 
ATOM     22  C   UNL d   1       1.829  -2.642   0.980  0.00  0.00     0.008 C 
ENDBRANCH  20  21
ENDBRANCH   1  20
TORSDOF 5
