REMARK  3 active torsions:
REMARK  status: ('A' for Active; 'I' for Inactive)
REMARK    1  A    between atoms: N_8  and  N_2 
REMARK    2  A    between atoms: C_13  and  C_4 
REMARK       I    between atoms: C_7  and  N_8 
REMARK    3  A    between atoms: C_10  and  C_7 
ROOT
ATOM      1  N   UNL d   1       3.344   6.150  -4.028  0.00  0.00    -0.197 NA
ATOM      2  C   UNL d   1       2.835   5.327  -3.383  0.00  0.00     0.068 C 
ATOM      3  C   UNL d   1       2.133   4.325  -2.570  0.00  0.00     0.228 C 
ENDROOT
BRANCH   3   4
ATOM      4  C   UNL d   1       3.038   3.182  -2.170  0.00  0.00     0.249 C 
ATOM      5  N   UNL d   1       2.490   2.179  -1.401  0.00  0.00    -0.269 N 
ATOM      6  H   UNL d   1       3.137   1.440  -1.161  0.00  0.00     0.190 HD
ATOM      7  O   UNL d   1       4.225   3.098  -2.489  0.00  0.00    -0.271 OA
BRANCH   5   8
ATOM      8  N   UNL d   1       1.195   2.160  -0.987  0.00  0.00    -0.306 N 
ATOM      9  C   UNL d   1       0.777   1.165  -0.252  0.00  0.00     0.008 C 
ATOM     10  C   UNL d   1      -0.693   1.174   0.202  0.00  0.00     0.036 C 
ATOM     11  C   UNL d   1       1.593  -0.031   0.225  0.00  0.00     0.058 C 
ATOM     12  C   UNL d   1      -0.666   1.126   1.741  0.00  0.00     0.011 C 
ATOM     13  C   UNL d   1       0.096  -0.089   2.280  0.00  0.00     0.005 C 
ATOM     14  C   UNL d   1       1.541  -0.116   1.756  0.00  0.00    -0.013 C 
ATOM     15  C   UNL d   1       2.267  -1.368   2.245  0.00  0.00     0.010 C 
ATOM     16  HN  UNL d   1       0.558   2.914  -1.248  1.00  0.00     0.186 HD
BRANCH  10  17
ATOM     17  C   UNL d   1      -1.504   0.020  -0.451  0.00  0.00    -0.013 C 
ATOM     18  C   UNL d   1      -2.974   0.019  -0.015  0.00  0.00     0.010 C 
ATOM     19  C   UNL d   1      -1.442   0.083  -1.982  0.00  0.00     0.010 C 
ENDBRANCH  10  17
ENDBRANCH   5   8
ENDBRANCH   3   4
TORSDOF 3
