REMARK  5 active torsions:
REMARK  status: ('A' for Active; 'I' for Inactive)
REMARK    1  A    between atoms: C_2  and  C_1 
REMARK    2  A    between atoms: C_14  and  C_3 
REMARK    3  A    between atoms: O_18  and  C_14 
REMARK    4  A    between atoms: N_15  and  O_18 
REMARK    5  A    between atoms: C_20  and  C_19 
ROOT
ATOM      1  C   UNL d   1      -1.108  -0.938   0.495  0.00  0.00     0.137 A 
ATOM      2  C   UNL d   1       0.093  -1.390  -0.044  0.00  0.00     0.102 A 
ATOM      3  O   UNL d   1      -1.150   0.420   0.323  0.00  0.00    -0.235 OA
ATOM      4  N   UNL d   1       0.001   0.871  -0.274  0.00  0.00    -0.264 N 
ATOM      5  HN  UNL d   1       0.233   1.836  -0.507  1.00  0.00     0.194 HD
ATOM      6  C   UNL d   1       0.756  -0.211  -0.486  0.00  0.00     0.048 A 
ATOM      7  C   UNL d   1       2.067  -0.029  -1.156  0.00  0.00     0.071 C 
ENDROOT
BRANCH   2   8
ATOM      8  C   UNL d   1       0.496  -2.775  -0.155  0.00  0.00     0.320 C 
ATOM      9  O   UNL d   1      -0.325  -3.669  -0.346  0.00  0.00    -0.257 OA
BRANCH   8  10
ATOM     10  O   UNL d   1       1.856  -2.966  -0.008  0.00  0.00    -0.195 OA
BRANCH  10  11
ATOM     11  N   UNL d   1       2.114  -4.349  -0.036  0.00  0.00    -0.268 N 
ATOM     12  C   UNL d   1       3.375  -4.608   0.065  0.00  0.00     0.126 C 
ATOM     13  HN  UNL d   1       1.390  -5.063  -0.124  1.00  0.00     0.194 HD
BRANCH  12  14
ATOM     14  C   UNL d   1       3.845  -6.010   0.055  0.00  0.00    -0.019 A 
ATOM     15  C   UNL d   1       2.923  -7.059  -0.038  0.00  0.00     0.013 A 
ATOM     16  C   UNL d   1       3.369  -8.381  -0.061  0.00  0.00     0.007 A 
ATOM     17  C   UNL d   1       4.736  -8.668   0.008  0.00  0.00    -0.062 A 
ATOM     18  C   UNL d   1       5.653  -7.613   0.107  0.00  0.00     0.007 A 
ATOM     19  C   UNL d   1       5.193 -10.098  -0.030  0.00  0.00     0.048 C 
ATOM     20  C   UNL d   1       5.212  -6.285   0.131  0.00  0.00     0.013 A 
ENDBRANCH  12  14
ENDBRANCH  10  11
ENDBRANCH   8  10
ENDBRANCH   2   8
BRANCH   1  21
ATOM     21  C   UNL d   1      -2.184  -1.623   1.161  0.00  0.00     0.083 A 
ATOM     22  C   UNL d   1      -3.546  -1.336   1.179  0.00  0.00     0.043 A 
ATOM     23  N   UNL d   1      -4.311  -2.190   1.973  0.00  0.00    -0.298 N 
ATOM     24  C   UNL d   1      -4.279  -0.254   0.476  0.00  0.00     0.071 C 
ATOM     25  N   UNL d   1      -3.573  -3.100   2.579  0.00  0.00    -0.269 N 
ATOM     26  HN  UNL d   1      -5.323  -2.119   2.073  1.00  0.00     0.187 HD
ATOM     27  S   UNL d   1      -1.951  -2.952   2.230  0.00  0.00     0.006 SA
ATOM     28  HN  UNL d   1      -3.955  -3.818   3.195  1.00  0.00     0.195 HD
ENDBRANCH   1  21
TORSDOF 5
