REMARK  6 active torsions:
REMARK  status: ('A' for Active; 'I' for Inactive)
REMARK    1  A    between atoms: N_3  and  C_1 
REMARK       I    between atoms: C_2  and  N_3 
REMARK       I    between atoms: N_9  and  C_2 
REMARK    2  A    between atoms: C_18  and  C_6 
REMARK    3  A    between atoms: C_15  and  N_9 
REMARK    4  A    between atoms: N_12  and  C_10 
REMARK    5  A    between atoms: C_21  and  N_12 
REMARK    6  A    between atoms: C_22  and  N_12 
ROOT
ATOM      1  C   UNL d   1      -1.289  -2.225   0.543  0.00  0.00     0.325 C 
ATOM      2  N   UNL d   1      -0.107  -1.934  -0.074  0.00  0.00    -0.306 N 
ATOM      3  N   UNL d   1      -2.372  -1.427   0.352  0.00  0.00    -0.309 N 
ATOM      4  O   UNL d   1      -1.475  -3.180   1.294  0.00  0.00    -0.247 OA
ATOM      5  H   UNL d   1      -0.006  -0.974  -0.342  0.00  0.00     0.171 HD
ATOM      6  H   UNL d   1      -3.160  -1.902   0.779  0.00  0.00     0.170 HD
ENDROOT
BRANCH   2   7
ATOM      7  C   UNL d   1       1.127  -2.557   0.307  0.00  0.00     0.071 C 
ATOM      8  C   UNL d   1       1.292  -3.922   0.591  0.00  0.00     0.039 C 
ATOM      9  C   UNL d   1       2.416  -4.372   1.305  0.00  0.00     0.029 C 
ATOM     10 BR   UNL d   1       0.172  -5.276  -0.152  0.00  0.00    -0.049 Br
ATOM     11  C   UNL d   1       3.418  -3.480   1.708  0.00  0.00    -0.052 C 
ATOM     12  C   UNL d   1       3.359  -2.170   1.222  0.00  0.00     0.029 C 
ATOM     13  C   UNL d   1       2.240  -1.724   0.507  0.00  0.00     0.039 C 
ATOM     14 BR   UNL d   1       2.281   0.062  -0.147  0.00  0.00    -0.049 Br
BRANCH  11  15
ATOM     15  C   UNL d   1       4.544  -3.887   2.642  0.00  0.00     0.010 C 
ATOM     16  C   UNL d   1       4.014  -4.551   3.921  0.00  0.00     0.015 C 
ATOM     17  C   UNL d   1       5.572  -4.779   1.951  0.00  0.00     0.015 C 
ENDBRANCH  11  15
ENDBRANCH   2   7
BRANCH   3  18
ATOM     18  C   UNL d   1      -2.683  -0.161  -0.174  0.00  0.00     0.036 A 
ATOM     19  C   UNL d   1      -1.799   0.808  -0.634  0.00  0.00     0.032 A 
ATOM     20  C   UNL d   1      -2.273   2.040  -1.140  0.00  0.00     0.031 A 
ATOM     21  C   UNL d   1      -3.637   2.339  -1.220  0.00  0.00     0.030 A 
ATOM     22  C   UNL d   1      -4.505   1.386  -0.674  0.00  0.00     0.031 A 
ATOM     23  C   UNL d   1      -4.043   0.166  -0.169  0.00  0.00     0.032 A 
BRANCH  21  24
ATOM     24  N   UNL d   1      -4.157   3.501  -1.802  0.00  0.00    -0.382 N 
BRANCH  24  25
ATOM     25  C   UNL d   1      -3.330   4.704  -1.986  0.00  0.00     0.118 C 
ATOM     26  C   UNL d   1      -3.076   5.421  -0.670  0.00  0.00     0.026 C 
ENDBRANCH  24  25
BRANCH  24  27
ATOM     27  C   UNL d   1      -5.142   3.256  -2.879  0.00  0.00     0.118 C 
ATOM     28  C   UNL d   1      -4.465   3.006  -4.223  0.00  0.00     0.026 C 
ENDBRANCH  24  27
ENDBRANCH  21  24
ENDBRANCH   3  18
TORSDOF 6
