REMARK  5 active torsions:
REMARK  status: ('A' for Active; 'I' for Inactive)
REMARK    1  A    between atoms: O_12  and  C_3 
REMARK    2  A    between atoms: C_6  and  C_4 
REMARK    3  A    between atoms: S_11  and  C_5 
REMARK    4  A    between atoms: O_13  and  C_6 
REMARK    5  A    between atoms: C_14  and  O_13 
ROOT
ATOM      1  N   UNL d   1      -0.692   1.218   0.122  0.00  0.00    -0.317 N 
ATOM      2  HN  UNL d   1      -1.188   2.110   0.154  1.00  0.00     0.170 HD
ATOM      3  C   UNL d   1      -1.340   0.041   0.057  0.00  0.00     0.159 A 
ATOM      4  C   UNL d   1      -0.734  -1.193   0.007  0.00  0.00     0.105 A 
ATOM      5  C   UNL d   1       0.648   1.145   0.142  0.00  0.00     0.143 A 
ATOM      6  N   UNL d   1       1.355   0.006   0.119  0.00  0.00    -0.346 N 
ATOM      7  HN  UNL d   1       2.375   0.006   0.152  1.00  0.00     0.167 HD
ATOM      8  C   UNL d   1       0.642  -1.142   0.050  0.00  0.00     0.112 A 
ENDROOT
BRANCH   4   9
ATOM      9  C   UNL d   1      -1.383  -2.505  -0.146  0.00  0.00     0.299 C 
ATOM     10  O   UNL d   1      -0.741  -3.541  -0.233  0.00  0.00    -0.259 OA
BRANCH   9  11
ATOM     11  O   UNL d   1      -2.724  -2.394  -0.253  0.00  0.00    -0.318 OA
BRANCH  11  12
ATOM     12  C   UNL d   1      -3.432  -3.568  -0.674  0.00  0.00     0.174 C 
ATOM     13  C   UNL d   1      -3.529  -3.557  -2.188  0.00  0.00     0.034 C 
ENDBRANCH  11  12
ENDBRANCH   9  11
ENDBRANCH   4   9
BRANCH   3  14
ATOM     14  O   UNL d   1      -2.687   0.215   0.033  0.00  0.00    -0.345 OA
ATOM     15  H   UNL d   1      -2.760   1.184   0.081  0.00  0.00     0.219 HD
ENDBRANCH   3  14
BRANCH   5  16
ATOM     16  S   UNL d   1       1.533   2.671   0.166  0.00  0.00    -0.107 SA
ATOM     17  H   UNL d   1       0.429   3.420   0.063  0.00  0.00     0.110 HD
ENDBRANCH   5  16
TORSDOF 5
