REMARK  5 active torsions:
REMARK  status: ('A' for Active; 'I' for Inactive)
REMARK    1  A    between atoms: O_6  and  C_1 
REMARK    2  A    between atoms: C_8  and  C_2 
REMARK    3  A    between atoms: C_7  and  O_6 
REMARK    4  A    between atoms: C_9  and  C_7 
REMARK    5  A    between atoms: O_16  and  C_8 
ROOT
ATOM      1  C   UNL d   1       0.220  -1.051  -0.677  0.00  0.00     0.122 A 
ATOM      2  C   UNL d   1       1.296  -0.178  -0.643  0.00  0.00     0.116 A 
ATOM      3  C   UNL d   1      -0.981  -0.466  -0.179  0.00  0.00     0.070 A 
ATOM      4  S   UNL d   1       0.836   1.303   0.113  0.00  0.00    -0.072 SA
ATOM      5  C   UNL d   1      -0.777   0.811   0.268  0.00  0.00     0.072 A 
ATOM      6 BR   UNL d   1      -2.629  -1.399  -0.213  0.00  0.00    -0.046 Br
ATOM      7 BR   UNL d   1      -2.095   1.956   0.957  0.00  0.00    -0.042 Br
ENDROOT
BRANCH   1   8
ATOM      8  O   UNL d   1       0.279  -2.282  -1.239  0.00  0.00    -0.272 OA
BRANCH   8   9
ATOM      9  C   UNL d   1       0.566  -3.317  -0.399  0.00  0.00     0.298 C 
ATOM     10  O   UNL d   1       0.997  -3.241   0.740  0.00  0.00    -0.259 OA
BRANCH   9  11
ATOM     11  C   UNL d   1       0.245  -4.604  -1.075  0.00  0.00     0.040 A 
ATOM     12  C   UNL d   1       0.880  -5.774  -0.637  0.00  0.00     0.019 A 
ATOM     13  C   UNL d   1       0.563  -7.006  -1.220  0.00  0.00     0.025 A 
ATOM     14  C   UNL d   1      -0.397  -7.073  -2.229  0.00  0.00     0.034 A 
ATOM     15  C   UNL d   1      -1.044  -5.917  -2.662  0.00  0.00     0.025 A 
ATOM     16 CL   UNL d   1      -0.797  -8.589  -2.937  0.00  0.00    -0.084 Cl
ATOM     17  C   UNL d   1      -0.723  -4.683  -2.088  0.00  0.00     0.019 A 
ENDBRANCH   9  11
ENDBRANCH   8   9
ENDBRANCH   1   8
BRANCH   2  18
ATOM     18  C   UNL d   1       2.639  -0.378  -1.162  0.00  0.00     0.302 C 
ATOM     19  O   UNL d   1       3.043  -1.402  -1.700  0.00  0.00    -0.259 OA
BRANCH  18  20
ATOM     20  O   UNL d   1       3.385   0.759  -1.033  0.00  0.00    -0.322 OA
ATOM     21  C   UNL d   1       4.679   0.733  -1.635  0.00  0.00     0.213 C 
ENDBRANCH  18  20
ENDBRANCH   2  18
TORSDOF 5
