REMARK  3 active torsions:
REMARK  status: ('A' for Active; 'I' for Inactive)
REMARK    1  A    between atoms: N_3  and  C_1 
REMARK    2  A    between atoms: C_6  and  C_2 
REMARK    3  A    between atoms: O_13  and  C_6 
ROOT
ATOM      1  C   UNL d   1       0.546   1.284  -0.050  0.00  0.00     0.069 A 
ATOM      2  C   UNL d   1      -0.834   1.300  -0.227  0.00  0.00     0.107 A 
ATOM      3  S   UNL d   1      -1.495  -0.283  -0.220  0.00  0.00    -0.093 SA
ATOM      4  C   UNL d   1       1.048  -0.068   0.137  0.00  0.00    -0.027 A 
ATOM      5  C   UNL d   1       0.024  -0.993   0.032  0.00  0.00     0.059 A 
ATOM      6  C   UNL d   1       2.442  -0.497   0.470  0.00  0.00     0.051 C 
ENDROOT
BRANCH   1   7
ATOM      7  N   UNL d   1       1.370   2.475  -0.008  0.00  0.00    -0.318 N 
ATOM      8  C   UNL d   1       1.110   3.644   0.715  0.00  0.00     0.013 A 
ATOM      9  C   UNL d   1       2.140   4.539   0.493  0.00  0.00     0.027 A 
ATOM     10  C   UNL d   1      -0.045   3.871   1.631  0.00  0.00     0.068 C 
ATOM     11  C   UNL d   1       3.074   3.919  -0.347  0.00  0.00     0.027 A 
ATOM     12  C   UNL d   1       2.588   2.665  -0.668  0.00  0.00     0.013 A 
ATOM     13  C   UNL d   1       3.206   1.718  -1.638  0.00  0.00     0.068 C 
ENDBRANCH   1   7
BRANCH   2  14
ATOM     14  C   UNL d   1      -1.726   2.409  -0.498  0.00  0.00     0.302 C 
ATOM     15  O   UNL d   1      -1.490   3.356  -1.236  0.00  0.00    -0.259 OA
BRANCH  14  16
ATOM     16  O   UNL d   1      -2.852   2.296   0.273  0.00  0.00    -0.322 OA
ATOM     17  C   UNL d   1      -3.738   3.413   0.214  0.00  0.00     0.213 C 
ENDBRANCH  14  16
ENDBRANCH   2  14
TORSDOF 3
