REMARK  4 active torsions:
REMARK  status: ('A' for Active; 'I' for Inactive)
REMARK    1  A    between atoms: N_5  and  S_1 
REMARK    2  A    between atoms: C_7  and  S_1 
REMARK    3  A    between atoms: C_4  and  C_2 
REMARK    4  A    between atoms: C_3  and  N_6 
ROOT
ATOM      1  N   UNL d   1       0.474  -0.841  -1.201  0.00  0.00    -0.205 NA
ATOM      2  N   UNL d   1       1.274  -1.858  -3.950  0.00  0.00    -0.365 N 
ATOM      3  C   UNL d   1       0.724   0.039  -2.418  0.00  0.00     0.127 C 
ATOM      4  C   UNL d   1       0.479  -0.617  -3.797  0.00  0.00     0.140 C 
ATOM      5  C   UNL d   1       0.430  -3.202  -2.082  0.00  0.00     0.035 C 
ATOM      6  C   UNL d   1       1.205  -2.155  -1.284  0.00  0.00     0.109 C 
ATOM      7  C   UNL d   1       0.511  -3.056  -3.601  0.00  0.00     0.125 C 
ENDROOT
BRANCH   2   8
ATOM      8  C   UNL d   1       2.154  -1.963  -5.019  0.00  0.00     0.118 A 
ATOM      9  C   UNL d   1       3.300  -2.769  -4.997  0.00  0.00     0.091 A 
ATOM     10  C   UNL d   1       4.141  -2.780  -6.133  0.00  0.00     0.021 A 
ATOM     11  C   UNL d   1       3.848  -2.007  -7.239  0.00  0.00     0.018 A 
ATOM     12  C   UNL d   1       2.711  -1.239  -7.179  0.00  0.00     0.089 A 
ATOM     13  N   UNL d   1       1.881  -1.205  -6.112  0.00  0.00    -0.352 N 
ATOM     14  HN  UNL d   1       1.051  -0.612  -6.128  1.00  0.00     0.166 HD
BRANCH   9  15
ATOM     15  C   UNL d   1       3.797  -3.597  -3.845  0.00  0.00     0.421 C 
ATOM     16  F   UNL d   1       3.019  -3.687  -2.742  0.00  0.00    -0.166 F 
ATOM     17  F   UNL d   1       4.006  -4.897  -4.220  0.00  0.00    -0.166 F 
ATOM     18  F   UNL d   1       5.011  -3.164  -3.392  0.00  0.00    -0.166 F 
ENDBRANCH   9  15
ENDBRANCH   2   8
BRANCH   1  19
ATOM     19  S   UNL d   1       0.945  -0.050   0.278  0.00  0.00     0.243 S 
ATOM     20  O   UNL d   1       2.247   0.538   0.060  0.00  0.00    -0.206 OA
ATOM     21  O   UNL d   1       0.724  -0.972   1.378  0.00  0.00    -0.206 OA
BRANCH  19  22
ATOM     22  C   UNL d   1      -0.225   1.261   0.502  0.00  0.00     0.074 A 
ATOM     23  C   UNL d   1      -1.554   0.934   0.783  0.00  0.00     0.026 A 
ATOM     24  C   UNL d   1      -2.443   1.940   1.170  0.00  0.00     0.025 A 
ATOM     25  C   UNL d   1      -1.994   3.257   1.278  0.00  0.00     0.034 A 
ATOM     26  C   UNL d   1      -0.668   3.584   0.986  0.00  0.00     0.025 A 
ATOM     27 CL   UNL d   1      -3.076   4.485   1.809  0.00  0.00    -0.084 Cl
ATOM     28  C   UNL d   1       0.223   2.581   0.594  0.00  0.00     0.026 A 
ENDBRANCH  19  22
ENDBRANCH   1  19
TORSDOF 4
