REMARK  6 active torsions:
REMARK  status: ('A' for Active; 'I' for Inactive)
REMARK    1  A    between atoms: N_6  and  C_1 
REMARK    2  A    between atoms: S_8  and  C_1 
REMARK       I    between atoms: C_2  and  N_7 
REMARK       I    between atoms: N_5  and  C_2 
REMARK    3  A    between atoms: C_3  and  C_9 
REMARK    4  A    between atoms: C_4  and  N_5 
REMARK    5  A    between atoms: N_7  and  N_6 
REMARK    6  A    between atoms: C_9  and  S_8 
ROOT
ATOM      1  N   UNL d   1      -0.164   1.854  -0.040  0.00  0.00    -0.293 N 
ATOM      2  C   UNL d   1       0.989   2.486   0.601  0.00  0.00     0.173 C 
ENDROOT
BRANCH   1   3
ATOM      3  C   UNL d   1      -0.280   1.568  -1.407  0.00  0.00     0.151 C 
ATOM      4  S   UNL d   1      -1.077   0.186  -1.942  0.00  0.00    -0.051 SA
BRANCH   3   5
ATOM      5  S   UNL d   1       0.514   2.751  -2.447  0.00  0.00    -0.095 SA
BRANCH   5   6
ATOM      6  C   UNL d   1      -0.191   2.551  -4.113  0.00  0.00     0.125 C 
BRANCH   6   7
ATOM      7  C   UNL d   1      -1.636   2.948  -4.304  0.00  0.00     0.012 A 
ATOM      8  C   UNL d   1      -2.054   4.249  -3.996  0.00  0.00     0.125 A 
ATOM      9  F   UNL d   1      -1.158   5.156  -3.570  0.00  0.00    -0.205 F 
ATOM     10  C   UNL d   1      -3.374   4.669  -4.154  0.00  0.00     0.043 A 
ATOM     11  C   UNL d   1      -4.327   3.787  -4.654  0.00  0.00     0.005 A 
ATOM     12  C   UNL d   1      -3.934   2.505  -5.023  0.00  0.00     0.024 A 
ATOM     13  C   UNL d   1      -2.600   2.094  -4.875  0.00  0.00     0.044 A 
ATOM     14 CL   UNL d   1      -2.209   0.529  -5.493  0.00  0.00    -0.084 Cl
ENDBRANCH   6   7
ENDBRANCH   5   6
ENDBRANCH   3   5
ENDBRANCH   1   3
BRANCH   1  15
ATOM     15  N   UNL d   1      -1.078   1.258   0.893  0.00  0.00    -0.151 NA
ATOM     16  C   UNL d   1      -1.763   2.117   1.752  0.00  0.00     0.317 C 
ATOM     17  N   UNL d   1      -2.833   1.479   2.346  0.00  0.00    -0.309 N 
ATOM     18  O   UNL d   1      -1.420   3.272   1.992  0.00  0.00    -0.252 OA
ATOM     19  H   UNL d   1      -2.606   0.553   2.689  0.00  0.00     0.170 HD
ATOM     20  H   UNL d   1      -1.663   0.546   0.463  0.00  0.00     0.158 HD
BRANCH  17  21
ATOM     21  C   UNL d   1      -3.856   2.163   3.067  0.00  0.00     0.079 A 
ATOM     22  C   UNL d   1      -4.466   3.354   2.629  0.00  0.00     0.062 A 
ATOM     23 CL   UNL d   1      -4.133   4.101   1.100  0.00  0.00    -0.082 Cl
ATOM     24  C   UNL d   1      -5.508   3.933   3.369  0.00  0.00     0.026 A 
ATOM     25  C   UNL d   1      -5.974   3.329   4.535  0.00  0.00     0.003 A 
ATOM     26  C   UNL d   1      -5.393   2.143   4.976  0.00  0.00     0.026 A 
ATOM     27  C   UNL d   1      -4.346   1.567   4.248  0.00  0.00     0.062 A 
ATOM     28 CL   UNL d   1      -3.656   0.100   4.859  0.00  0.00    -0.082 Cl
ENDBRANCH  17  21
ENDBRANCH   1  15
TORSDOF 6
