REMARK  6 active torsions:
REMARK  status: ('A' for Active; 'I' for Inactive)
REMARK    1  A    between atoms: C_13  and  N_2 
REMARK    2  A    between atoms: C_3  and  N_11 
REMARK    3  A    between atoms: N_5  and  C_3 
REMARK    4  A    between atoms: C_6  and  N_5 
REMARK    5  A    between atoms: N_11  and  C_15 
REMARK    6  A    between atoms: C_15  and  C_13 
ROOT
ATOM      1  N   UNL d   1      -2.503  -3.735  -0.816  0.00  0.00    -0.366 N 
ATOM      2  H   UNL d   1      -2.204  -4.522  -0.257  0.00  0.00     0.161 HD
ENDROOT
BRANCH   1   3
ATOM      3  C   UNL d   1      -3.709  -3.883  -1.449  0.00  0.00     0.167 C 
ATOM      4  S   UNL d   1      -4.491  -2.735  -2.376  0.00  0.00    -0.041 SA
BRANCH   3   5
ATOM      5  N   UNL d   1      -4.316  -5.101  -1.308  0.00  0.00    -0.363 N 
ATOM      6  H   UNL d   1      -5.214  -5.152  -1.780  0.00  0.00     0.162 HD
BRANCH   5   7
ATOM      7  C   UNL d   1      -4.057  -6.088  -0.310  0.00  0.00     0.084 A 
ATOM      8  C   UNL d   1      -3.145  -7.254  -0.554  0.00  0.00     0.027 A 
ATOM      9  C   UNL d   1      -4.628  -7.470  -0.488  0.00  0.00     0.027 A 
ENDBRANCH   5   7
ENDBRANCH   3   5
ENDBRANCH   1   3
BRANCH   1  10
ATOM     10  C   UNL d   1      -1.870  -2.455  -0.527  0.00  0.00     0.142 C 
BRANCH  10  11
ATOM     11  C   UNL d   1      -0.352  -2.532  -0.341  0.00  0.00     0.147 C 
BRANCH  11  12
ATOM     12  N   UNL d   1       0.195  -1.251   0.076  0.00  0.00    -0.331 N 
ATOM     13  C   UNL d   1       0.597  -0.943   1.368  0.00  0.00     0.318 C 
ATOM     14  N   UNL d   1       0.942   0.401   1.388  0.00  0.00    -0.341 N 
ATOM     15  O   UNL d   1       0.618  -1.684   2.332  0.00  0.00    -0.247 OA
ATOM     16  C   UNL d   1       0.501   1.054   0.185  0.00  0.00     0.144 C 
ATOM     17  H   UNL d   1       1.086   0.850   2.286  0.00  0.00     0.164 HD
ATOM     18  C   UNL d   1       0.284  -0.095  -0.792  0.00  0.00     0.147 C 
ENDBRANCH  11  12
ENDBRANCH  10  11
ENDBRANCH   1  10
TORSDOF 6
