REMARK  8 active torsions:
REMARK  status: ('A' for Active; 'I' for Inactive)
REMARK    1  A    between atoms: C_5  and  C_1 
REMARK    2  A    between atoms: C_6  and  C_2 
REMARK       I    between atoms: N_10  and  C_5 
REMARK    3  A    between atoms: C_19  and  N_10 
REMARK    4  A    between atoms: C_21  and  N_10 
REMARK    5  A    between atoms: C_15  and  C_19 
REMARK    6  A    between atoms: C_18  and  C_21 
REMARK    7  A    between atoms: C_26  and  C_18 
REMARK    8  A    between atoms: O_23  and  C_26 
ROOT
ATOM      1  N   UNL d   1      -1.033  -6.019   2.896  0.00  0.00    -0.197 NA
ATOM      2  C   UNL d   1      -0.221  -5.727   2.123  0.00  0.00     0.060 C 
ATOM      3  C   UNL d   1       0.800  -5.376   1.126  0.00  0.00     0.143 C 
ENDROOT
BRANCH   3   4
ATOM      4  C   UNL d   1       0.186  -5.030  -0.236  0.00  0.00     0.140 C 
BRANCH   4   5
ATOM      5  N   UNL d   1      -0.528  -3.742  -0.294  0.00  0.00    -0.347 N 
ATOM      6  C   UNL d   1       0.265  -2.573  -0.363  0.00  0.00     0.258 C 
ATOM      7  O   UNL d   1       1.493  -2.643  -0.355  0.00  0.00    -0.267 OA
BRANCH   6   8
ATOM      8  C   UNL d   1      -0.385  -1.276  -0.396  0.00  0.00     0.092 C 
ATOM      9  C   UNL d   1      -0.075  -0.082   0.341  0.00  0.00     0.086 C 
ATOM     10  N   UNL d   1      -1.000   0.860   0.094  0.00  0.00    -0.259 N 
ATOM     11  O   UNL d   1      -1.762   0.396  -0.945  0.00  0.00    -0.241 OA
ATOM     12  HN  UNL d   1      -1.113   1.748   0.584  1.00  0.00     0.195 HD
ATOM     13  C   UNL d   1      -1.355  -0.850  -1.285  0.00  0.00     0.090 C 
ATOM     14  C   UNL d   1      -1.998  -1.402  -2.491  0.00  0.00     0.080 C 
BRANCH   9  15
ATOM     15  C   UNL d   1       1.032   0.243   1.249  0.00  0.00     0.037 A 
ATOM     16  C   UNL d   1       1.837   1.380   0.997  0.00  0.00     0.048 A 
ATOM     17 CL   UNL d   1       1.698   2.342  -0.443  0.00  0.00    -0.083 Cl
ATOM     18  C   UNL d   1       2.825   1.789   1.903  0.00  0.00     0.025 A 
ATOM     19  C   UNL d   1       3.061   1.055   3.058  0.00  0.00     0.003 A 
ATOM     20  C   UNL d   1       2.306  -0.088   3.308  0.00  0.00     0.025 A 
ATOM     21  C   UNL d   1       1.290  -0.487   2.422  0.00  0.00     0.048 A 
ATOM     22 CL   UNL d   1       0.358  -1.867   2.896  0.00  0.00    -0.083 Cl
ENDBRANCH   9  15
ENDBRANCH   6   8
BRANCH   5  23
ATOM     23  C   UNL d   1      -1.982  -3.771  -0.025  0.00  0.00     0.128 C 
BRANCH  23  24
ATOM     24  C   UNL d   1      -2.778  -4.472  -1.129  0.00  0.00     0.046 C 
BRANCH  24  25
ATOM     25  C   UNL d   1      -4.281  -4.286  -0.946  0.00  0.00     0.168 C 
BRANCH  25  26
ATOM     26  O   UNL d   1      -4.939  -4.835  -2.087  0.00  0.00    -0.396 OA
ATOM     27  C   UNL d   1      -6.351  -4.681  -2.005  0.00  0.00     0.201 C 
ENDBRANCH  25  26
ENDBRANCH  24  25
ENDBRANCH  23  24
ENDBRANCH   5  23
ENDBRANCH   4   5
ENDBRANCH   3   4
TORSDOF 8
