REMARK  4 active torsions:
REMARK  status: ('A' for Active; 'I' for Inactive)
REMARK    1  A    between atoms: C_6  and  N_2 
REMARK    2  A    between atoms: C_7  and  C_6 
REMARK    3  A    between atoms: C_8  and  C_7 
REMARK    4  A    between atoms: O_11  and  C_8 
ROOT
ATOM      1  C   UNL d   1       2.354   0.107   0.005  0.00  0.00     0.372 A 
ATOM      2  N   UNL d   1       1.607  -1.057   0.040  0.00  0.00    -0.290 N 
ATOM      3  O   UNL d   1       1.530   1.239   0.010  0.00  0.00    -0.259 OA
ATOM      4  C   UNL d   1       0.279  -0.699   0.031  0.00  0.00     0.073 A 
ATOM      5  C   UNL d   1       0.261   0.683   0.018  0.00  0.00     0.107 A 
ATOM      6  O   UNL d   1       3.576   0.171  -0.014  0.00  0.00    -0.237 OA
ATOM      7  C   UNL d   1      -0.882  -1.443   0.023  0.00  0.00     0.033 A 
ATOM      8  C   UNL d   1      -0.919   1.397   0.005  0.00  0.00     0.040 A 
ATOM      9  C   UNL d   1      -2.092  -0.741   0.007  0.00  0.00     0.002 A 
ATOM     10  C   UNL d   1      -2.111   0.667   0.001  0.00  0.00     0.003 A 
ENDROOT
BRANCH   2  11
ATOM     11  C   UNL d   1       2.138  -2.400  -0.018  0.00  0.00     0.145 C 
BRANCH  11  12
ATOM     12  C   UNL d   1       2.991  -2.739   1.202  0.00  0.00     0.130 C 
BRANCH  12  13
ATOM     13  C   UNL d   1       3.469  -4.165   1.131  0.00  0.00     0.141 C 
ATOM     14  O   UNL d   1       3.183  -4.958   0.249  0.00  0.00    -0.650 OA
BRANCH  13  15
ATOM     15  O   UNL d   1       4.258  -4.501   2.178  0.00  0.00    -0.776 OA
ATOM     16  H   UNL d   1       4.420  -3.770   2.805  0.00  0.00     0.167 HD
ENDBRANCH  13  15
ENDBRANCH  12  13
ENDBRANCH  11  12
ENDBRANCH   2  11
TORSDOF 4
