REMARK  1 active torsions:
REMARK  status: ('A' for Active; 'I' for Inactive)
REMARK    1  A    between atoms: C_11  and  C_7 
ROOT
ATOM      1  C   UNL d   1       1.183   0.127  -0.024  0.00  0.00     0.101 A 
ATOM      2  N   UNL d   1      -0.803  -1.241   0.007  0.00  0.00    -0.275 N 
ATOM      3  N   UNL d   1      -1.035   1.062   0.007  0.00  0.00    -0.275 N 
ATOM      4  C   UNL d   1       0.562  -1.224  -0.005  0.00  0.00     0.265 A 
ATOM      5  C   UNL d   1       0.305   1.324  -0.068  0.00  0.00     0.265 A 
ATOM      6  C   UNL d   1      -1.629  -0.162   0.009  0.00  0.00     0.329 A 
ATOM      7  C   UNL d   1       2.529   0.172   0.011  0.00  0.00     0.034 C 
ATOM      8  O   UNL d   1       0.702   2.477  -0.179  0.00  0.00    -0.267 OA
ATOM      9  O   UNL d   1       1.206  -2.267   0.001  0.00  0.00    -0.267 OA
ATOM     10  O   UNL d   1      -2.849  -0.285   0.003  0.00  0.00    -0.246 OA
ATOM     11  H   UNL d   1      -1.246  -2.150   0.012  0.00  0.00     0.173 HD
ATOM     12  H   UNL d   1      -1.650   1.862  -0.027  0.00  0.00     0.173 HD
ENDROOT
BRANCH   7  13
ATOM     13  C   UNL d   1       3.376   1.366   0.035  0.00  0.00    -0.035 A 
ATOM     14  C   UNL d   1       3.751   1.933   1.260  0.00  0.00     0.014 A 
ATOM     15  C   UNL d   1       4.603   3.038   1.288  0.00  0.00     0.043 A 
ATOM     16  C   UNL d   1       5.076   3.569   0.093  0.00  0.00     0.116 A 
ATOM     17  C   UNL d   1       4.704   3.024  -1.130  0.00  0.00     0.043 A 
ATOM     18  F   UNL d   1       5.911   4.616   0.121  0.00  0.00    -0.206 F 
ATOM     19  C   UNL d   1       3.849   1.920  -1.161  0.00  0.00     0.014 A 
ENDBRANCH   7  13
TORSDOF 1
