REMARK  7 active torsions:
REMARK  status: ('A' for Active; 'I' for Inactive)
REMARK    1  A    between atoms: C_7  and  C_1 
REMARK    2  A    between atoms: C_17  and  C_6 
REMARK    3  A    between atoms: S_13  and  C_10 
REMARK    4  A    between atoms: C_20  and  S_13 
REMARK    5  A    between atoms: O_14  and  C_17 
REMARK    6  A    between atoms: C_15  and  O_14 
REMARK    7  A    between atoms: C_22  and  C_20 
ROOT
ATOM      1  C   UNL d   1      -0.255  -2.615  -0.221  0.00  0.00     0.054 A 
ATOM      2  N   UNL d   1      -1.379  -3.054  -0.821  0.00  0.00    -0.336 N 
ATOM      3  HN  UNL d   1      -2.059  -2.402  -1.213  1.00  0.00     0.168 HD
ATOM      4  C   UNL d   1      -1.570  -4.379  -0.884  0.00  0.00     0.144 A 
ATOM      5  N   UNL d   1      -0.730  -5.295  -0.377  0.00  0.00    -0.347 N 
ATOM      6  HN  UNL d   1      -0.920  -6.295  -0.440  1.00  0.00     0.167 HD
ATOM      7  C   UNL d   1       0.669  -3.480   0.329  0.00  0.00     0.048 A 
ATOM      8  C   UNL d   1       0.378  -4.818   0.220  0.00  0.00     0.092 A 
ENDROOT
BRANCH   1   9
ATOM      9  C   UNL d   1      -0.125  -1.153  -0.175  0.00  0.00     0.055 A 
ATOM     10  C   UNL d   1      -1.110  -0.174  -0.107  0.00  0.00     0.025 A 
ATOM     11  N   UNL d   1      -0.644   1.131  -0.043  0.00  0.00    -0.355 N 
ATOM     12  C   UNL d   1      -2.585  -0.378  -0.052  0.00  0.00     0.070 C 
ATOM     13  C   UNL d   1       0.670   1.155  -0.103  0.00  0.00     0.076 A 
ATOM     14  HN  UNL d   1      -1.238   1.956   0.039  1.00  0.00     0.166 HD
ATOM     15  S   UNL d   1       1.419  -0.382  -0.228  0.00  0.00    -0.070 SA
BRANCH  13  16
ATOM     16  C   UNL d   1       1.484   2.409   0.033  0.00  0.00     0.240 C 
BRANCH  16  17
ATOM     17  O   UNL d   1       1.754   2.915  -1.277  0.00  0.00    -0.343 OA
BRANCH  17  18
ATOM     18  C   UNL d   1       2.387   4.134  -1.319  0.00  0.00     0.090 A 
ATOM     19  C   UNL d   1       3.305   4.367  -2.355  0.00  0.00     0.067 A 
ATOM     20 CL   UNL d   1       3.689   3.142  -3.511  0.00  0.00    -0.081 Cl
ATOM     21  C   UNL d   1       3.950   5.604  -2.470  0.00  0.00     0.026 A 
ATOM     22  C   UNL d   1       3.677   6.624  -1.558  0.00  0.00     0.002 A 
ATOM     23  C   UNL d   1       2.752   6.410  -0.541  0.00  0.00     0.003 A 
ATOM     24  C   UNL d   1       2.104   5.175  -0.426  0.00  0.00     0.038 A 
ENDBRANCH  17  18
ENDBRANCH  16  17
ENDBRANCH  13  16
ENDBRANCH   1   9
BRANCH   4  25
ATOM     25  S   UNL d   1      -3.027  -4.918  -1.738  0.00  0.00    -0.089 SA
BRANCH  25  26
ATOM     26  C   UNL d   1      -3.258  -6.546  -0.969  0.00  0.00     0.121 C 
BRANCH  26  27
ATOM     27  C   UNL d   1      -4.507  -7.224  -1.489  0.00  0.00    -0.048 A 
ATOM     28  C   UNL d   1      -4.444  -8.070  -2.607  0.00  0.00     0.009 A 
ATOM     29  C   UNL d   1      -5.597  -8.689  -3.096  0.00  0.00     0.024 A 
ATOM     30  C   UNL d   1      -6.822  -8.457  -2.474  0.00  0.00     0.034 A 
ATOM     31  C   UNL d   1      -6.905  -7.609  -1.370  0.00  0.00     0.024 A 
ATOM     32 CL   UNL d   1      -8.243  -9.220  -3.075  0.00  0.00    -0.084 Cl
ATOM     33  C   UNL d   1      -5.752  -6.992  -0.881  0.00  0.00     0.009 A 
ENDBRANCH  26  27
ENDBRANCH  25  26
ENDBRANCH   4  25
TORSDOF 7
