REMARK  8 active torsions:
REMARK  status: ('A' for Active; 'I' for Inactive)
REMARK    1  A    between atoms: C_14  and  N_1 
REMARK    2  A    between atoms: C_9  and  C_2 
REMARK    3  A    between atoms: S_13  and  C_5 
REMARK    4  A    between atoms: C_8  and  C_12 
REMARK    5  A    between atoms: C_22  and  S_13 
REMARK    6  A    between atoms: C_23  and  C_14 
REMARK    7  A    between atoms: C_25  and  C_23 
REMARK    8  A    between atoms: O_24  and  C_25 
ROOT
ATOM      1  C   UNL d   1      -5.040   1.115  -0.725  0.00  0.00    -0.107 C 
ATOM      2  C   UNL d   1      -6.236   1.185  -0.782  0.00  0.00     0.013 C 
ATOM      3  C   UNL d   1      -3.567   1.072  -0.662  0.00  0.00     0.175 C 
ENDROOT
BRANCH   3   4
ATOM      4  S   UNL d   1      -2.954  -0.544  -0.092  0.00  0.00    -0.080 SA
BRANCH   4   5
ATOM      5  C   UNL d   1      -1.242  -0.261  -0.050  0.00  0.00     0.163 A 
ATOM      6  N   UNL d   1      -0.277  -1.252  -0.006  0.00  0.00    -0.311 N 
ATOM      7  C   UNL d   1       0.932  -0.577  -0.127  0.00  0.00     0.134 A 
ATOM      8  N   UNL d   1       0.679   0.724  -0.103  0.00  0.00    -0.283 N 
ATOM      9  N   UNL d   1      -0.673   0.918  -0.077  0.00  0.00    -0.278 N 
ATOM     10  HN  UNL d   1       1.382   1.462  -0.103  1.00  0.00     0.188 HD
ATOM     11  HN  UNL d   1      -1.152   1.819  -0.079  1.00  0.00     0.189 HD
BRANCH   6  12
ATOM     12  C   UNL d   1      -0.561  -2.674   0.046  0.00  0.00     0.135 C 
BRANCH  12  13
ATOM     13  C   UNL d   1       0.347  -3.645   0.811  0.00  0.00     0.046 C 
BRANCH  13  14
ATOM     14  C   UNL d   1       0.592  -3.294   2.268  0.00  0.00     0.168 C 
BRANCH  14  15
ATOM     15  O   UNL d   1      -0.633  -3.436   2.977  0.00  0.00    -0.396 OA
ATOM     16  C   UNL d   1      -0.441  -3.285   4.378  0.00  0.00     0.201 C 
ENDBRANCH  14  15
ENDBRANCH  13  14
ENDBRANCH  12  13
ENDBRANCH   6  12
BRANCH   7  17
ATOM     17  C   UNL d   1       2.293  -1.120  -0.199  0.00  0.00     0.009 A 
ATOM     18  C   UNL d   1       2.631  -2.228  -0.980  0.00  0.00     0.016 A 
ATOM     19  C   UNL d   1       3.911  -2.793  -0.909  0.00  0.00     0.017 A 
ATOM     20  C   UNL d   1       4.908  -2.211  -0.114  0.00  0.00     0.048 A 
ATOM     21  C   UNL d   1       4.611  -1.022   0.563  0.00  0.00     0.017 A 
ATOM     22  C   UNL d   1       3.318  -0.488   0.525  0.00  0.00     0.016 A 
BRANCH  20  23
ATOM     23  C   UNL d   1       6.275  -2.841   0.016  0.00  0.00     0.417 C 
ATOM     24  F   UNL d   1       6.355  -4.080  -0.546  0.00  0.00    -0.166 F 
ATOM     25  F   UNL d   1       7.255  -2.100  -0.566  0.00  0.00    -0.166 F 
ATOM     26  F   UNL d   1       6.647  -3.004   1.317  0.00  0.00    -0.166 F 
ENDBRANCH  20  23
ENDBRANCH   7  17
ENDBRANCH   4   5
ENDBRANCH   3   4
TORSDOF 8
