REMARK  3 active torsions:
REMARK  status: ('A' for Active; 'I' for Inactive)
REMARK    1  A    between atoms: C_7  and  C_1 
REMARK    2  A    between atoms: C_6  and  C_2 
REMARK       I    between atoms: N_13  and  C_7 
REMARK    3  A    between atoms: N_15  and  N_13 
ROOT
ATOM      1  C   UNL d   1       0.053  -1.357   0.018  0.00  0.00     0.094 A 
ATOM      2  C   UNL d   1      -1.276  -0.944   0.003  0.00  0.00     0.133 A 
ATOM      3  O   UNL d   1      -1.287   0.426  -0.017  0.00  0.00    -0.235 OA
ATOM      4  N   UNL d   1      -0.006   0.924   0.006  0.00  0.00    -0.264 N 
ATOM      5  HN  UNL d   1       0.272   1.905   0.019  1.00  0.00     0.194 HD
ATOM      6  C   UNL d   1       0.799  -0.140   0.008  0.00  0.00     0.047 A 
ATOM      7  C   UNL d   1       2.266   0.080  -0.041  0.00  0.00     0.071 C 
ENDROOT
BRANCH   1   8
ATOM      8  C   UNL d   1       0.508  -2.734  -0.007  0.00  0.00     0.270 C 
ATOM      9  O   UNL d   1      -0.104  -3.638  -0.572  0.00  0.00    -0.266 OA
ATOM     10  N   UNL d   1       1.685  -2.987   0.695  0.00  0.00    -0.290 N 
ATOM     11  H   UNL d   1       2.167  -2.257   1.209  0.00  0.00     0.183 HD
BRANCH  10  12
ATOM     12  N   UNL d   1       2.190  -4.308   0.765  0.00  0.00    -0.247 NA
ATOM     13  H   UNL d   1       1.659  -4.870   0.080  0.00  0.00     0.143 HD
ATOM     14  H   UNL d   1       1.919  -4.707   1.668  0.00  0.00     0.143 HD
ENDBRANCH  10  12
ENDBRANCH   1   8
BRANCH   2  15
ATOM     15  C   UNL d   1      -2.504  -1.697   0.034  0.00  0.00     0.041 A 
ATOM     16  S   UNL d   1      -3.906  -1.116  -0.771  0.00  0.00    -0.099 SA
ATOM     17  C   UNL d   1      -4.828  -2.476  -0.300  0.00  0.00     0.050 A 
ATOM     18  C   UNL d   1      -4.101  -3.347   0.478  0.00  0.00     0.008 A 
ATOM     19  C   UNL d   1      -2.764  -2.892   0.679  0.00  0.00     0.022 A 
ENDBRANCH   2  15
TORSDOF 3
