REMARK  5 active torsions:
REMARK  status: ('A' for Active; 'I' for Inactive)
REMARK    1  A    between atoms: C_14  and  N_2 
REMARK    2  A    between atoms: C_16  and  C_5 
REMARK    3  A    between atoms: C_9  and  C_17 
REMARK    4  A    between atoms: C_11  and  C_15 
REMARK    5  A    between atoms: C_15  and  C_14 
ROOT
ATOM      1  N   UNL d   1       3.671  -5.115  -0.472  0.00  0.00    -0.323 N 
ATOM      2  HN  UNL d   1       2.792  -5.247  -0.972  1.00  0.00     0.169 HD
ATOM      3  C   UNL d   1       4.620  -6.060  -0.125  0.00  0.00     0.137 A 
ATOM      4  N   UNL d   1       5.682  -5.545   0.517  0.00  0.00    -0.242 N 
ATOM      5  HN  UNL d   1       6.506  -6.036   0.862  1.00  0.00     0.196 HD
ATOM      6  C   UNL d   1       4.188  -4.004   0.004  0.00  0.00     0.150 A 
ATOM      7  O   UNL d   1       5.397  -4.188   0.603  0.00  0.00    -0.223 OA
ENDROOT
BRANCH   6   8
ATOM      8  C   UNL d   1       3.687  -2.608  -0.035  0.00  0.00     0.107 C 
BRANCH   8   9
ATOM      9  C   UNL d   1       2.163  -2.544  -0.054  0.00  0.00     0.142 C 
BRANCH   9  10
ATOM     10  N   UNL d   1       1.671  -1.184  -0.061  0.00  0.00    -0.290 N 
ATOM     11  C   UNL d   1       1.434  -0.407   1.056  0.00  0.00     0.372 A 
ATOM     12  O   UNL d   1       0.970   0.866   0.697  0.00  0.00    -0.259 OA
ATOM     13  O   UNL d   1       1.608  -0.754   2.217  0.00  0.00    -0.237 OA
ATOM     14  C   UNL d   1       0.971   0.807  -0.688  0.00  0.00     0.107 A 
ATOM     15  C   UNL d   1       0.593   1.830  -1.530  0.00  0.00     0.040 A 
ATOM     16  C   UNL d   1       1.402  -0.415  -1.170  0.00  0.00     0.073 A 
ATOM     17  C   UNL d   1       0.670   1.589  -2.905  0.00  0.00     0.003 A 
ATOM     18  C   UNL d   1       1.121   0.346  -3.395  0.00  0.00     0.002 A 
ATOM     19  C   UNL d   1       1.494  -0.678  -2.519  0.00  0.00     0.033 A 
ENDBRANCH   9  10
ENDBRANCH   8   9
ENDBRANCH   6   8
BRANCH   3  20
ATOM     20  C   UNL d   1       4.461  -7.487  -0.404  0.00  0.00     0.010 A 
ATOM     21  C   UNL d   1       3.329  -7.963  -1.079  0.00  0.00     0.016 A 
ATOM     22  C   UNL d   1       3.148  -9.336  -1.295  0.00  0.00     0.017 A 
ATOM     23  C   UNL d   1       4.097 -10.263  -0.838  0.00  0.00     0.048 A 
ATOM     24  C   UNL d   1       5.244  -9.787  -0.189  0.00  0.00     0.017 A 
ATOM     25  C   UNL d   1       5.423  -8.415   0.025  0.00  0.00     0.016 A 
BRANCH  23  26
ATOM     26  C   UNL d   1       3.895 -11.749  -1.017  0.00  0.00     0.417 C 
ATOM     27  F   UNL d   1       2.729 -12.072  -1.642  0.00  0.00    -0.166 F 
ATOM     28  F   UNL d   1       4.885 -12.328  -1.751  0.00  0.00    -0.166 F 
ATOM     29  F   UNL d   1       3.875 -12.416   0.172  0.00  0.00    -0.166 F 
ENDBRANCH  23  26
ENDBRANCH   3  20
TORSDOF 5
