REMARK  2 active torsions:
REMARK  status: ('A' for Active; 'I' for Inactive)
REMARK    1  A    between atoms: C_5  and  N_1 
REMARK    2  A    between atoms: N_11  and  C_12 
ROOT
ATOM      1  C   UNL d   1       2.068  -1.517   0.081  0.00  0.00     0.141 A 
ATOM      2  N   UNL d   1       2.972  -1.568   1.080  0.00  0.00    -0.282 N 
ATOM      3  HN  UNL d   1       2.846  -0.986   1.908  1.00  0.00     0.188 HD
ATOM      4  N   UNL d   1       4.074  -2.409   0.985  0.00  0.00    -0.284 N 
ATOM      5  HN  UNL d   1       4.738  -2.454   1.759  1.00  0.00     0.188 HD
ATOM      6  C   UNL d   1       4.285  -3.168  -0.112  0.00  0.00     0.117 A 
ATOM      7  C   UNL d   1       2.243  -2.288  -1.057  0.00  0.00     0.055 A 
ATOM      8  C   UNL d   1       3.363  -3.108  -1.151  0.00  0.00     0.053 A 
ENDROOT
BRANCH   1   9
ATOM      9  N   UNL d   1       0.897  -0.707   0.195  0.00  0.00    -0.243 N 
ATOM     10  N   UNL d   1      -0.080  -0.808  -0.758  0.00  0.00    -0.297 N 
ATOM     11  C   UNL d   1      -1.080  -0.040  -0.330  0.00  0.00     0.024 A 
ATOM     12  HN  UNL d   1      -0.049  -1.358  -1.617  1.00  0.00     0.187 HD
ATOM     13  C   UNL d   1      -2.347   0.041  -1.095  0.00  0.00     0.070 C 
ATOM     14  C   UNL d   1      -0.744   0.625   0.861  0.00  0.00     0.052 A 
ATOM     15  C   UNL d   1       0.537   0.212   1.174  0.00  0.00     0.034 A 
ATOM     16  C   UNL d   1       1.372   0.651   2.322  0.00  0.00     0.070 C 
ENDBRANCH   1   9
BRANCH   6  17
ATOM     17  N   UNL d   1       5.324  -4.081  -0.186  0.00  0.00    -0.366 N 
ATOM     18  C   UNL d   1       5.957  -4.529   1.047  0.00  0.00     0.125 C 
ATOM     19  C   UNL d   1       6.377  -5.989   0.828  0.00  0.00     0.024 C 
ATOM     20  C   UNL d   1       7.232  -6.176  -0.442  0.00  0.00    -0.015 C 
ATOM     21  C   UNL d   1       6.612  -5.471  -1.663  0.00  0.00     0.024 C 
ATOM     22  C   UNL d   1       7.420  -7.663  -0.744  0.00  0.00     0.010 C 
ATOM     23  C   UNL d   1       6.215  -4.033  -1.341  0.00  0.00     0.125 C 
ENDBRANCH   6  17
TORSDOF 2
