REMARK  7 active torsions:
REMARK  status: ('A' for Active; 'I' for Inactive)
REMARK    1  A    between atoms: N_2  and  S_1 
REMARK    2  A    between atoms: C_6  and  S_1 
REMARK    3  A    between atoms: N_11  and  N_2 
REMARK    4  A    between atoms: C_3  and  C_7 
REMARK    5  A    between atoms: C_4  and  C_8 
REMARK    6  A    between atoms: C_5  and  C_9 
REMARK    7  A    between atoms: C_10  and  N_11 
ROOT
ATOM      1  S   UNL d   1       1.098   0.027  -0.215  0.00  0.00     0.276 S 
ATOM      2  O   UNL d   1       0.755  -0.674  -1.437  0.00  0.00    -0.199 OA
ATOM      3  O   UNL d   1       2.473   0.295   0.137  0.00  0.00    -0.199 OA
ENDROOT
BRANCH   1   4
ATOM      4  N   UNL d   1       0.364  -0.795   1.069  0.00  0.00    -0.221 N 
ATOM      5  H   UNL d   1      -0.497  -0.419   1.462  0.00  0.00     0.200 HD
BRANCH   4   6
ATOM      6  N   UNL d   1       0.916  -2.079   1.500  0.00  0.00    -0.276 N 
ATOM      7  H   UNL d   1       1.884  -2.284   1.242  0.00  0.00     0.189 HD
BRANCH   6   8
ATOM      8  C   UNL d   1       0.439  -2.905   2.516  0.00  0.00     0.121 A 
ATOM      9  N   UNL d   1       1.320  -3.764   3.064  0.00  0.00    -0.345 N 
ATOM     10  C   UNL d   1       0.922  -4.540   4.100  0.00  0.00     0.007 A 
ATOM     11  HN  UNL d   1       2.273  -3.829   2.704  1.00  0.00     0.167 HD
ATOM     12  C   UNL d   1       1.953  -5.432   4.724  0.00  0.00     0.068 C 
ATOM     13  C   UNL d   1      -0.372  -4.506   4.602  0.00  0.00     0.041 A 
ATOM     14  C   UNL d   1      -1.301  -3.648   4.008  0.00  0.00     0.053 A 
ATOM     15  C   UNL d   1      -0.877  -2.836   2.951  0.00  0.00     0.066 A 
BRANCH  14  16
ATOM     16  C   UNL d   1      -2.721  -3.595   4.499  0.00  0.00     0.417 C 
ATOM     17  F   UNL d   1      -3.496  -2.708   3.814  0.00  0.00    -0.166 F 
ATOM     18  F   UNL d   1      -3.353  -4.796   4.403  0.00  0.00    -0.166 F 
ATOM     19  F   UNL d   1      -2.806  -3.229   5.807  0.00  0.00    -0.166 F 
ENDBRANCH  14  16
ENDBRANCH   6   8
ENDBRANCH   4   6
ENDBRANCH   1   4
BRANCH   1  20
ATOM     20  C   UNL d   1       0.218   1.577  -0.227  0.00  0.00     0.082 A 
ATOM     21  C   UNL d   1       0.730   2.678   0.467  0.00  0.00     0.041 A 
ATOM     22  C   UNL d   1       0.091   3.925   0.380  0.00  0.00     0.050 A 
ATOM     23  C   UNL d   1      -1.060   4.047  -0.423  0.00  0.00     0.032 A 
ATOM     24  C   UNL d   1      -1.554   2.955  -1.159  0.00  0.00     0.050 A 
ATOM     25  C   UNL d   1      -0.913   1.713  -1.040  0.00  0.00     0.041 A 
BRANCH  22  26
ATOM     26  C   UNL d   1       0.638   5.144   1.098  0.00  0.00     0.417 C 
ATOM     27  F   UNL d   1       1.793   4.899   1.776  0.00  0.00    -0.166 F 
ATOM     28  F   UNL d   1       0.913   6.165   0.242  0.00  0.00    -0.166 F 
ATOM     29  F   UNL d   1      -0.237   5.640   2.010  0.00  0.00    -0.166 F 
ENDBRANCH  22  26
BRANCH  24  30
ATOM     30  C   UNL d   1      -2.721   3.137  -2.106  0.00  0.00     0.417 C 
ATOM     31  F   UNL d   1      -3.030   2.010  -2.803  0.00  0.00    -0.166 F 
ATOM     32  F   UNL d   1      -3.860   3.504  -1.460  0.00  0.00    -0.166 F 
ATOM     33  F   UNL d   1      -2.484   4.102  -3.035  0.00  0.00    -0.166 F 
ENDBRANCH  24  30
ENDBRANCH   1  20
TORSDOF 7
