REMARK  4 active torsions:
REMARK  status: ('A' for Active; 'I' for Inactive)
REMARK    1  A    between atoms: C_7  and  C_1 
REMARK    2  A    between atoms: C_8  and  C_5 
REMARK    3  A    between atoms: C_19  and  C_9 
REMARK    4  A    between atoms: C_20  and  C_10 
ROOT
ATOM      1  C   UNL d   1      -0.189   1.017   0.077  0.00  0.00     0.158 A 
ATOM      2  N   UNL d   1      -1.302   0.309   0.116  0.00  0.00    -0.343 N 
ATOM      3  HN  UNL d   1      -2.262   0.648   0.177  1.00  0.00     0.167 HD
ATOM      4  O   UNL d   1       0.953   0.264   0.005  0.00  0.00    -0.291 OA
ATOM      5  C   UNL d   1       0.508  -1.035  -0.010  0.00  0.00     0.103 A 
ATOM      6  C   UNL d   1      -0.867  -0.990   0.055  0.00  0.00     0.128 A 
ENDROOT
BRANCH   1   7
ATOM      7  C   UNL d   1      -0.030   2.469   0.080  0.00  0.00     0.015 A 
ATOM      8  C   UNL d   1      -1.167   3.280   0.161  0.00  0.00     0.016 A 
ATOM      9  C   UNL d   1      -1.060   4.675   0.137  0.00  0.00     0.013 A 
ATOM     10  C   UNL d   1       0.186   5.316   0.041  0.00  0.00    -0.026 A 
ATOM     11  C   UNL d   1       1.324   4.491  -0.023  0.00  0.00     0.013 A 
ATOM     12  C   UNL d   1       1.219   3.091  -0.011  0.00  0.00     0.016 A 
BRANCH  10  13
ATOM     13  C   UNL d   1       0.287   6.795  -0.008  0.00  0.00    -0.026 A 
ATOM     14  C   UNL d   1       1.257   7.440  -0.795  0.00  0.00     0.012 A 
ATOM     15  C   UNL d   1       1.338   8.836  -0.859  0.00  0.00     0.001 A 
ATOM     16  C   UNL d   1       0.438   9.620  -0.144  0.00  0.00     0.000 A 
ATOM     17  C   UNL d   1      -0.531   9.010   0.644  0.00  0.00     0.001 A 
ATOM     18  C   UNL d   1      -0.599   7.614   0.716  0.00  0.00     0.012 A 
ENDBRANCH  10  13
ENDBRANCH   1   7
BRANCH   5  19
ATOM     19  C   UNL d   1       1.509  -2.087  -0.103  0.00  0.00    -0.001 A 
ATOM     20  C   UNL d   1       2.875  -1.795  -0.161  0.00  0.00     0.015 A 
ATOM     21  C   UNL d   1       3.826  -2.817  -0.290  0.00  0.00     0.013 A 
ATOM     22  C   UNL d   1       3.452  -4.170  -0.353  0.00  0.00    -0.026 A 
ATOM     23  C   UNL d   1       2.078  -4.452  -0.268  0.00  0.00     0.013 A 
ATOM     24  C   UNL d   1       1.124  -3.432  -0.152  0.00  0.00     0.015 A 
BRANCH  22  25
ATOM     25  C   UNL d   1       4.457  -5.247  -0.523  0.00  0.00    -0.026 A 
ATOM     26  C   UNL d   1       4.174  -6.402  -1.276  0.00  0.00     0.012 A 
ATOM     27  C   UNL d   1       5.124  -7.414  -1.452  0.00  0.00     0.001 A 
ATOM     28  C   UNL d   1       6.388  -7.288  -0.887  0.00  0.00     0.000 A 
ATOM     29  C   UNL d   1       6.698  -6.158  -0.139  0.00  0.00     0.001 A 
ATOM     30  C   UNL d   1       5.741  -5.154   0.046  0.00  0.00     0.012 A 
ENDBRANCH  22  25
ENDBRANCH   5  19
TORSDOF 4
