REMARK  7 active torsions:
REMARK  status: ('A' for Active; 'I' for Inactive)
REMARK    1  A    between atoms: O_4  and  C_1 
REMARK    2  A    between atoms: C_3  and  C_2 
REMARK       I    between atoms: N_5  and  C_3 
REMARK    3  A    between atoms: C_12  and  O_4 
REMARK    4  A    between atoms: C_11  and  N_5 
REMARK    5  A    between atoms: C_8  and  C_11 
REMARK    6  A    between atoms: O_13  and  C_8 
REMARK    7  A    between atoms: C_16  and  O_13 
ROOT
ATOM      1  C   UNL d   1      -0.642   0.947   0.072  0.00  0.00     0.163 A 
ATOM      2  C   UNL d   1       0.660   1.422   0.110  0.00  0.00     0.083 A 
ATOM      3  N   UNL d   1      -0.952  -0.322  -0.314  0.00  0.00    -0.346 N 
ATOM      4  HN  UNL d   1      -1.922  -0.624  -0.403  1.00  0.00     0.167 HD
ATOM      5  C   UNL d   1       1.697   0.517  -0.160  0.00  0.00     0.023 A 
ATOM      6  C   UNL d   1       0.069  -1.165  -0.574  0.00  0.00     0.090 A 
ATOM      7  C   UNL d   1       1.399  -0.799  -0.500  0.00  0.00     0.018 A 
ENDROOT
BRANCH   2   8
ATOM      8  C   UNL d   1       1.040   2.778   0.531  0.00  0.00     0.256 C 
ATOM      9  N   UNL d   1       0.522   3.853  -0.165  0.00  0.00    -0.347 N 
ATOM     10  H   UNL d   1      -0.124   3.735  -0.935  0.00  0.00     0.163 HD
ATOM     11  O   UNL d   1       1.881   2.899   1.418  0.00  0.00    -0.268 OA
BRANCH   9  12
ATOM     12  C   UNL d   1       1.069   5.176   0.117  0.00  0.00     0.233 C 
BRANCH  12  13
ATOM     13  C   UNL d   1       0.663   6.359  -0.752  0.00  0.00     0.276 C 
ATOM     14  O   UNL d   1       1.117   7.488  -0.591  0.00  0.00    -0.263 OA
BRANCH  13  15
ATOM     15  O   UNL d   1      -0.254   6.026  -1.706  0.00  0.00    -0.321 OA
BRANCH  15  16
ATOM     16  C   UNL d   1      -0.732   7.132  -2.494  0.00  0.00     0.174 C 
ATOM     17  C   UNL d   1       0.134   7.330  -3.726  0.00  0.00     0.034 C 
ENDBRANCH  15  16
ENDBRANCH  13  15
ENDBRANCH  12  13
ENDBRANCH   9  12
ENDBRANCH   2   8
BRANCH   1  18
ATOM     18  O   UNL d   1      -1.680   1.774   0.485  0.00  0.00    -0.293 OA
BRANCH  18  19
ATOM     19  C   UNL d   1      -2.762   1.144   1.066  0.00  0.00     0.077 A 
ATOM     20  C   UNL d   1      -2.624   0.223   2.112  0.00  0.00     0.037 A 
ATOM     21  C   UNL d   1      -3.752  -0.405   2.645  0.00  0.00     0.003 A 
ATOM     22  C   UNL d   1      -5.019  -0.088   2.156  0.00  0.00     0.000 A 
ATOM     23  C   UNL d   1      -5.160   0.864   1.145  0.00  0.00     0.003 A 
ATOM     24  C   UNL d   1      -4.033   1.486   0.605  0.00  0.00     0.037 A 
ENDBRANCH  18  19
ENDBRANCH   1  18
TORSDOF 7
