REMARK  5 active torsions:
REMARK  status: ('A' for Active; 'I' for Inactive)
REMARK    1  A    between atoms: C_4  and  C_1 
REMARK    2  A    between atoms: S_6  and  C_2 
REMARK       I    between atoms: C_3  and  N_5 
REMARK    3  A    between atoms: C_9  and  C_3 
REMARK    4  A    between atoms: N_5  and  C_4 
REMARK    5  A    between atoms: C_10  and  S_6 
ROOT
ATOM      1  C   UNL d   1       0.165   1.107  -0.063  0.00  0.00    -0.002 A 
ATOM      2  C   UNL d   1       1.574   1.259   0.017  0.00  0.00     0.015 A 
ATOM      3  C   UNL d   1      -0.352  -0.209  -0.077  0.00  0.00     0.043 A 
ATOM      4 CL   UNL d   1      -2.049  -0.554  -0.133  0.00  0.00    -0.084 Cl
ATOM      5  C   UNL d   1       2.405   0.122   0.043  0.00  0.00     0.019 A 
ATOM      6  C   UNL d   1       1.868  -1.162   0.016  0.00  0.00     0.003 A 
ATOM      7  C   UNL d   1       0.491  -1.325  -0.039  0.00  0.00     0.024 A 
ENDROOT
BRANCH   1   8
ATOM      8  C   UNL d   1      -0.775   2.295  -0.089  0.00  0.00     0.164 C 
BRANCH   8   9
ATOM      9  N   UNL d   1      -0.658   3.118  -1.271  0.00  0.00    -0.353 N 
ATOM     10  C   UNL d   1      -1.686   3.966  -1.631  0.00  0.00     0.251 C 
ATOM     11  O   UNL d   1      -2.800   3.947  -1.115  0.00  0.00    -0.268 OA
ATOM     12  H   UNL d   1       0.250   3.205  -1.706  0.00  0.00     0.163 HD
BRANCH  10  13
ATOM     13  C   UNL d   1      -1.391   4.939  -2.713  0.00  0.00     0.032 A 
ATOM     14  C   UNL d   1      -2.413   5.281  -3.607  0.00  0.00     0.017 A 
ATOM     15  C   UNL d   1      -2.168   6.196  -4.633  0.00  0.00     0.001 A 
ATOM     16  C   UNL d   1      -0.909   6.783  -4.757  0.00  0.00     0.000 A 
ATOM     17  C   UNL d   1       0.104   6.467  -3.850  0.00  0.00     0.001 A 
ATOM     18  C   UNL d   1      -0.135   5.549  -2.826  0.00  0.00     0.017 A 
ENDBRANCH  10  13
ENDBRANCH   8   9
ENDBRANCH   1   8
BRANCH   2  19
ATOM     19  S   UNL d   1       2.414   2.845  -0.038  0.00  0.00    -0.090 SA
BRANCH  19  20
ATOM     20  C   UNL d   1       2.778   3.240   1.668  0.00  0.00     0.005 A 
ATOM     21  C   UNL d   1       3.978   3.907   1.963  0.00  0.00     0.020 A 
ATOM     22  C   UNL d   1       4.224   4.407   3.249  0.00  0.00     0.025 A 
ATOM     23  C   UNL d   1       3.268   4.243   4.247  0.00  0.00     0.034 A 
ATOM     24  C   UNL d   1       2.091   3.549   3.981  0.00  0.00     0.025 A 
ATOM     25 CL   UNL d   1       3.523   4.928   5.804  0.00  0.00    -0.084 Cl
ATOM     26  C   UNL d   1       1.852   3.044   2.697  0.00  0.00     0.020 A 
ENDBRANCH  19  20
ENDBRANCH   2  19
TORSDOF 5
