REMARK  5 active torsions:
REMARK  status: ('A' for Active; 'I' for Inactive)
REMARK    1  A    between atoms: C_2  and  C_1 
REMARK    2  A    between atoms: C_5  and  N_7 
REMARK    3  A    between atoms: C_6  and  C_21 
REMARK       I    between atoms: N_7  and  C_6 
REMARK    4  A    between atoms: S_15  and  C_8 
REMARK    5  A    between atoms: C_21  and  S_15 
ROOT
ATOM      1  C   UNL d   1      -0.909  -0.562   6.438  0.00  0.00     0.184 C 
ENDROOT
BRANCH   1   2
ATOM      2  C   UNL d   1      -1.334  -0.335   7.877  0.00  0.00     0.231 C 
ATOM      3  N   UNL d   1      -0.787   0.758   8.527  0.00  0.00    -0.326 N 
ATOM      4  H   UNL d   1      -0.141   1.320   7.980  0.00  0.00     0.169 HD
ATOM      5  O   UNL d   1      -2.197  -1.071   8.354  0.00  0.00    -0.272 OA
BRANCH   3   6
ATOM      6  C   UNL d   1      -1.118   1.218   9.823  0.00  0.00     0.037 A 
ATOM      7  C   UNL d   1      -1.912   0.496  10.722  0.00  0.00     0.053 A 
ATOM      8  C   UNL d   1      -2.251   1.036  11.963  0.00  0.00     0.037 A 
ATOM      9 CL   UNL d   1      -3.240   0.134  13.046  0.00  0.00    -0.084 Cl
ATOM     10  C   UNL d   1      -1.806   2.300  12.335  0.00  0.00     0.048 A 
ATOM     11  C   UNL d   1      -0.994   3.009  11.455  0.00  0.00     0.037 A 
ATOM     12  C   UNL d   1      -0.640   2.475  10.215  0.00  0.00     0.053 A 
ATOM     13 CL   UNL d   1      -0.433   4.575  11.900  0.00  0.00    -0.084 Cl
ENDBRANCH   3   6
ENDBRANCH   1   2
BRANCH   1  14
ATOM     14  S   UNL d   1       0.633   0.253   5.931  0.00  0.00    -0.103 SA
BRANCH  14  15
ATOM     15  C   UNL d   1       0.605  -0.165   4.191  0.00  0.00     0.070 A 
ATOM     16  C   UNL d   1       1.623   0.275   3.356  0.00  0.00     0.038 A 
ATOM     17  C   UNL d   1       1.533   0.005   1.988  0.00  0.00     0.020 A 
ATOM     18  C   UNL d   1       0.432  -0.696   1.487  0.00  0.00     0.063 A 
ATOM     19  C   UNL d   1      -0.515  -1.125   2.401  0.00  0.00     0.105 A 
ATOM     20  N   UNL d   1      -0.449  -0.873   3.729  0.00  0.00    -0.360 N 
ATOM     21  HN  UNL d   1      -1.175  -1.208   4.363  1.00  0.00     0.166 HD
BRANCH  18  22
ATOM     22  C   UNL d   1       0.256  -0.958   0.022  0.00  0.00     0.418 C 
ATOM     23  F   UNL d   1      -0.898  -1.617  -0.279  0.00  0.00    -0.166 F 
ATOM     24  F   UNL d   1       1.263  -1.708  -0.501  0.00  0.00    -0.166 F 
ATOM     25  F   UNL d   1       0.227   0.192  -0.707  0.00  0.00    -0.166 F 
ENDBRANCH  18  22
ENDBRANCH  14  15
ENDBRANCH   1  14
TORSDOF 5
