REMARK  4 active torsions:
REMARK  status: ('A' for Active; 'I' for Inactive)
REMARK    1  A    between atoms: C_9  and  C_1 
REMARK    2  A    between atoms: C_7  and  C_3 
REMARK    3  A    between atoms: O_15  and  C_9 
REMARK    4  A    between atoms: C_19  and  O_15 
ROOT
ATOM      1  C   UNL d   1      -0.220  -1.155   0.445  0.00  0.00     0.104 C 
ATOM      2  S   UNL d   1       1.314  -0.393   0.605  0.00  0.00    -0.066 SA
ATOM      3  C   UNL d   1       0.587   1.123   0.271  0.00  0.00     0.084 C 
ATOM      4  N   UNL d   1      -0.732   1.117   0.308  0.00  0.00    -0.354 N 
ATOM      5  HN  UNL d   1      -1.318   1.951   0.312  1.00  0.00     0.166 HD
ATOM      6  C   UNL d   1      -1.206  -0.185   0.342  0.00  0.00     0.029 C 
ATOM      7  C   UNL d   1      -2.672  -0.368   0.148  0.00  0.00     0.070 C 
ENDROOT
BRANCH   3   8
ATOM      8  C   UNL d   1       1.347   2.326  -0.242  0.00  0.00     0.210 C 
ATOM      9  O   UNL d   1       2.721   2.350   0.179  0.00  0.00    -0.334 OA
ATOM     10  C   UNL d   1       3.611   1.964  -0.792  0.00  0.00     0.103 A 
ATOM     11  C   UNL d   1       4.966   2.123  -0.508  0.00  0.00     0.040 A 
ATOM     12  C   UNL d   1       3.224   1.414  -2.017  0.00  0.00     0.102 A 
ATOM     13  C   UNL d   1       5.925   1.682  -1.425  0.00  0.00     0.003 A 
ATOM     14  C   UNL d   1       5.529   1.046  -2.603  0.00  0.00     0.003 A 
ATOM     15  C   UNL d   1       4.174   0.906  -2.897  0.00  0.00     0.039 A 
ATOM     16  O   UNL d   1       1.915   1.365  -2.420  0.00  0.00    -0.345 OA
ATOM     17  C   UNL d   1       1.182   2.409  -1.762  0.00  0.00     0.215 C 
ENDBRANCH   3   8
BRANCH   1  18
ATOM     18  C   UNL d   1      -0.286  -2.598   0.334  0.00  0.00     0.302 C 
ATOM     19  O   UNL d   1       0.651  -3.377   0.412  0.00  0.00    -0.259 OA
BRANCH  18  20
ATOM     20  O   UNL d   1      -1.553  -2.964  -0.018  0.00  0.00    -0.317 OA
BRANCH  20  21
ATOM     21  C   UNL d   1      -1.674  -4.202  -0.732  0.00  0.00     0.174 C 
ATOM     22  C   UNL d   1      -1.493  -3.909  -2.211  0.00  0.00     0.034 C 
ENDBRANCH  20  21
ENDBRANCH  18  20
ENDBRANCH   1  18
TORSDOF 4
