REMARK  3 active torsions:
REMARK  status: ('A' for Active; 'I' for Inactive)
REMARK    1  A    between atoms: C_11  and  C_3 
REMARK    2  A    between atoms: C_13  and  C_4 
REMARK    3  A    between atoms: C_12  and  C_9 
ROOT
ATOM      1  C   UNL d   1       0.297  -0.750   0.057  0.00  0.00     0.144 A 
ATOM      2  N   UNL d   1       0.286   0.633   0.028  0.00  0.00    -0.202 N 
ATOM      3  C   UNL d   1       2.360   0.087  -0.025  0.00  0.00     0.147 A 
ATOM      4  C   UNL d   1       1.621  -1.149   0.024  0.00  0.00     0.053 A 
ATOM      5  N   UNL d   1       1.532   1.155   0.009  0.00  0.00    -0.284 N 
ATOM      6  HN  UNL d   1       1.793   2.141   0.017  1.00  0.00     0.187 HD
ATOM      7  N   UNL d   1      -0.900  -1.389   0.100  0.00  0.00    -0.336 N 
ATOM      8  C   UNL d   1      -0.877   1.428   0.010  0.00  0.00     0.270 A 
ATOM      9  C   UNL d   1      -2.116  -0.695   0.053  0.00  0.00     0.123 A 
ATOM     10  C   UNL d   1      -2.142   0.653   0.007  0.00  0.00     0.110 A 
ATOM     11  O   UNL d   1      -0.837   2.652  -0.014  0.00  0.00    -0.266 OA
ATOM     12  H   UNL d   1      -0.973  -2.408   0.171  0.00  0.00     0.167 HD
ENDROOT
BRANCH   4  13
ATOM     13  C   UNL d   1       2.075  -2.537  -0.019  0.00  0.00    -0.020 A 
ATOM     14  C   UNL d   1       3.217  -2.938   0.688  0.00  0.00     0.012 A 
ATOM     15  C   UNL d   1       3.741  -4.225   0.534  0.00  0.00     0.001 A 
ATOM     16  C   UNL d   1       3.095  -5.150  -0.281  0.00  0.00     0.000 A 
ATOM     17  C   UNL d   1       1.921  -4.790  -0.936  0.00  0.00     0.001 A 
ATOM     18  C   UNL d   1       1.423  -3.489  -0.819  0.00  0.00     0.012 A 
ENDBRANCH   4  13
BRANCH   3  19
ATOM     19  C   UNL d   1       3.853   0.309  -0.120  0.00  0.00     0.434 C 
ATOM     20  F   UNL d   1       4.565  -0.823  -0.362  0.00  0.00    -0.165 F 
ATOM     21  F   UNL d   1       4.182   1.170  -1.121  0.00  0.00    -0.165 F 
ATOM     22  F   UNL d   1       4.357   0.832   1.032  0.00  0.00    -0.165 F 
ENDBRANCH   3  19
BRANCH   9  23
ATOM     23  C   UNL d   1      -3.421  -1.475   0.040  0.00  0.00     0.432 C 
ATOM     24  F   UNL d   1      -3.192  -2.814   0.028  0.00  0.00    -0.165 F 
ATOM     25  F   UNL d   1      -4.179  -1.208   1.130  0.00  0.00    -0.165 F 
ATOM     26  F   UNL d   1      -4.169  -1.190  -1.054  0.00  0.00    -0.165 F 
ENDBRANCH   9  23
TORSDOF 3
