REMARK  6 active torsions:
REMARK  status: ('A' for Active; 'I' for Inactive)
REMARK    1  A    between atoms: N_3  and  C_1 
REMARK    2  A    between atoms: N_9  and  C_1 
REMARK    3  A    between atoms: C_2  and  N_4 
REMARK    4  A    between atoms: C_18  and  N_9 
REMARK    5  A    between atoms: C_24  and  C_15 
REMARK    6  A    between atoms: C_26  and  C_24 
ROOT
ATOM      1  N   UNL d   1       0.335  -0.777   1.015  0.00  0.00    -0.356 N 
ATOM      2  N   UNL d   1      -1.931  -1.852   2.585  0.00  0.00    -0.216 N 
ATOM      3  C   UNL d   1      -0.617  -1.765   0.473  0.00  0.00     0.145 C 
ATOM      4  C   UNL d   1      -2.008  -1.710   1.126  0.00  0.00     0.161 C 
ATOM      5  C   UNL d   1      -0.199  -0.303   3.445  0.00  0.00     0.040 C 
ATOM      6  C   UNL d   1       0.722  -0.934   2.415  0.00  0.00     0.127 C 
ATOM      7  C   UNL d   1      -1.687  -0.629   3.338  0.00  0.00     0.143 C 
ENDROOT
BRANCH   1   8
ATOM      8  C   UNL d   1       1.028   0.063   0.167  0.00  0.00     0.174 C 
ATOM      9  S   UNL d   1       1.017   1.728   0.339  0.00  0.00    -0.041 SA
BRANCH   8  10
ATOM     10  N   UNL d   1       1.597  -0.496  -0.943  0.00  0.00    -0.332 N 
ATOM     11  H   UNL d   1       1.718   0.134  -1.731  0.00  0.00     0.168 HD
BRANCH  10  12
ATOM     12  C   UNL d   1       2.405  -1.661  -0.979  0.00  0.00     0.049 A 
ATOM     13  C   UNL d   1       2.740  -2.235  -2.201  0.00  0.00     0.117 A 
ATOM     14  N   UNL d   1       3.555  -3.309  -2.349  0.00  0.00    -0.373 N 
ATOM     15  C   UNL d   1       4.084  -3.827  -1.220  0.00  0.00     0.088 A 
ATOM     16  HN  UNL d   1       3.758  -3.704  -3.267  1.00  0.00     0.164 HD
ATOM     17  C   UNL d   1       3.839  -3.319   0.043  0.00  0.00     0.019 A 
ATOM     18  C   UNL d   1       2.987  -2.222   0.158  0.00  0.00     0.032 A 
ENDBRANCH  10  12
ENDBRANCH   8  10
ENDBRANCH   1   8
BRANCH   2  19
ATOM     19  C   UNL d   1      -2.647  -2.883   3.160  0.00  0.00     0.679 A 
ATOM     20  N   UNL d   1      -2.894  -3.978   2.419  0.00  0.00    -0.201 N 
ATOM     21  C   UNL d   1      -3.595  -4.981   2.983  0.00  0.00     0.114 A 
ATOM     22  HN  UNL d   1      -2.560  -4.047   1.458  1.00  0.00     0.183 HD
ATOM     23  C   UNL d   1      -4.078  -4.951   4.269  0.00  0.00    -0.026 A 
ATOM     24  C   UNL d   1      -3.756  -3.808   4.960  0.00  0.00     0.114 A 
ATOM     25  N   UNL d   1      -3.047  -2.786   4.438  0.00  0.00    -0.201 N 
ATOM     26  HN  UNL d   1      -2.822  -1.964   4.998  1.00  0.00     0.183 HD
BRANCH  23  27
ATOM     27  C   UNL d   1      -4.860  -6.082   4.859  0.00  0.00     0.041 C 
BRANCH  27  28
ATOM     28  C   UNL d   1      -6.287  -5.685   5.247  0.00  0.00     0.000 C 
ATOM     29  C   UNL d   1      -7.068  -6.883   5.767  0.00  0.00     0.005 C 
ENDBRANCH  27  28
ENDBRANCH  23  27
ENDBRANCH   2  19
TORSDOF 6
