REMARK  5 active torsions:
REMARK  status: ('A' for Active; 'I' for Inactive)
REMARK    1  A    between atoms: C_11  and  C_3 
REMARK    2  A    between atoms: C_14  and  C_4 
REMARK    3  A    between atoms: C_5  and  C_7 
REMARK    4  A    between atoms: C_12  and  O_16 
REMARK    5  A    between atoms: O_16  and  C_22 
ROOT
ATOM      1  C   UNL d   1      -0.060  -2.578  -0.078  0.00  0.00    -0.002 A 
ATOM      2  C   UNL d   1       0.487  -3.335   0.967  0.00  0.00     0.017 A 
ATOM      3  C   UNL d   1      -0.795  -3.247  -1.071  0.00  0.00     0.017 A 
ATOM      4  C   UNL d   1      -0.397  -5.379   0.012  0.00  0.00     0.077 A 
ATOM      5  C   UNL d   1       0.299  -4.719   1.027  0.00  0.00     0.038 A 
ATOM      6  C   UNL d   1      -0.965  -4.637  -1.023  0.00  0.00     0.038 A 
ENDROOT
BRANCH   1   7
ATOM      7  C   UNL d   1       0.166  -1.124  -0.095  0.00  0.00     0.084 A 
ATOM      8  N   UNL d   1       1.261  -0.536   0.349  0.00  0.00    -0.349 N 
ATOM      9  C   UNL d   1       1.153   0.843   0.242  0.00  0.00     0.050 A 
ATOM     10  HN  UNL d   1       2.074  -1.028   0.720  1.00  0.00     0.166 HD
ATOM     11  C   UNL d   1      -0.043   1.285  -0.284  0.00  0.00     0.082 A 
ATOM     12  S   UNL d   1      -1.057  -0.044  -0.648  0.00  0.00    -0.081 SA
BRANCH   9  13
ATOM     13  C   UNL d   1       2.249   1.726   0.625  0.00  0.00    -0.009 A 
ATOM     14  C   UNL d   1       3.573   1.281   0.500  0.00  0.00     0.014 A 
ATOM     15  C   UNL d   1       4.641   2.125   0.819  0.00  0.00     0.001 A 
ATOM     16  C   UNL d   1       4.396   3.418   1.277  0.00  0.00     0.000 A 
ATOM     17  C   UNL d   1       3.085   3.865   1.427  0.00  0.00     0.001 A 
ATOM     18  C   UNL d   1       2.016   3.023   1.105  0.00  0.00     0.014 A 
ENDBRANCH   9  13
ENDBRANCH   1   7
BRANCH   4  19
ATOM     19  O   UNL d   1      -0.623  -6.739  -0.012  0.00  0.00    -0.294 OA
BRANCH  19  20
ATOM     20  C   UNL d   1       0.355  -7.568   0.518  0.00  0.00     0.147 A 
ATOM     21  N   UNL d   1       1.658  -7.223   0.400  0.00  0.00    -0.346 N 
ATOM     22  C   UNL d   1       2.563  -8.009   1.019  0.00  0.00     0.106 A 
ATOM     23  HN  UNL d   1       1.945  -6.403  -0.135  1.00  0.00     0.167 HD
ATOM     24  C   UNL d   1       2.233  -9.148   1.738  0.00  0.00     0.063 A 
ATOM     25  C   UNL d   1       0.883  -9.519   1.779  0.00  0.00     0.022 A 
ATOM     26  C   UNL d   1      -0.074  -8.720   1.157  0.00  0.00     0.057 A 
BRANCH  24  27
ATOM     27  C   UNL d   1       3.289  -9.926   2.459  0.00  0.00     0.418 C 
ATOM     28  F   UNL d   1       4.532  -9.377   2.364  0.00  0.00    -0.166 F 
ATOM     29  F   UNL d   1       3.031 -10.031   3.792  0.00  0.00    -0.166 F 
ATOM     30  F   UNL d   1       3.406 -11.200   1.999  0.00  0.00    -0.166 F 
ENDBRANCH  24  27
ENDBRANCH  19  20
ENDBRANCH   4  19
TORSDOF 5
