REMARK  5 active torsions:
REMARK  status: ('A' for Active; 'I' for Inactive)
REMARK    1  A    between atoms: C_3  and  C_4 
REMARK    2  A    between atoms: C_4  and  C_8 
REMARK    3  A    between atoms: S_6  and  C_12 
REMARK    4  A    between atoms: C_9  and  S_6 
REMARK    5  A    between atoms: C_12  and  C_10 
ROOT
ATOM      1  N   UNL d   1       1.633   1.249  -0.405  0.00  0.00    -0.197 NA
ATOM      2  C   UNL d   1       2.596   0.641  -0.180  0.00  0.00     0.067 C 
ATOM      3  C   UNL d   1       3.785  -0.164   0.097  0.00  0.00     0.207 C 
ENDROOT
BRANCH   3   4
ATOM      4  C   UNL d   1       4.287   0.058   1.505  0.00  0.00     0.172 C 
ATOM      5  O   UNL d   1       5.435   0.438   1.722  0.00  0.00    -0.291 OA
BRANCH   4   6
ATOM      6  C   UNL d   1       3.380  -0.207   2.660  0.00  0.00     0.011 A 
ATOM      7  C   UNL d   1       2.334  -1.139   2.588  0.00  0.00     0.023 A 
ATOM      8  C   UNL d   1       1.440  -1.297   3.662  0.00  0.00    -0.048 A 
ATOM      9  C   UNL d   1       1.674  -0.567   4.838  0.00  0.00     0.008 A 
ATOM     10  C   UNL d   1       2.729   0.342   4.921  0.00  0.00     0.002 A 
ATOM     11  C   UNL d   1       3.580   0.525   3.834  0.00  0.00     0.015 A 
BRANCH   8  12
ATOM     12  C   UNL d   1       0.288  -2.273   3.535  0.00  0.00     0.117 C 
BRANCH  12  13
ATOM     13  S   UNL d   1      -1.274  -1.655   4.259  0.00  0.00    -0.125 SA
BRANCH  13  14
ATOM     14  C   UNL d   1      -2.341  -3.038   3.925  0.00  0.00     0.001 A 
ATOM     15  C   UNL d   1      -2.940  -3.721   4.989  0.00  0.00     0.020 A 
ATOM     16  C   UNL d   1      -3.791  -4.801   4.743  0.00  0.00     0.025 A 
ATOM     17  C   UNL d   1      -4.049  -5.193   3.431  0.00  0.00     0.034 A 
ATOM     18  C   UNL d   1      -3.474  -4.507   2.364  0.00  0.00     0.025 A 
ATOM     19 CL   UNL d   1      -5.088  -6.529   3.125  0.00  0.00    -0.084 Cl
ATOM     20  C   UNL d   1      -2.625  -3.426   2.612  0.00  0.00     0.020 A 
ENDBRANCH  13  14
ENDBRANCH  12  13
ENDBRANCH   8  12
ENDBRANCH   4   6
ENDBRANCH   3   4
TORSDOF 5
