REMARK  6 active torsions:
REMARK  status: ('A' for Active; 'I' for Inactive)
REMARK    1  A    between atoms: C_5  and  C_1 
REMARK    2  A    between atoms: O_16  and  C_1 
REMARK    3  A    between atoms: C_2  and  C_6 
REMARK    4  A    between atoms: N_7  and  O_14 
REMARK    5  A    between atoms: O_14  and  C_21 
REMARK    6  A    between atoms: C_21  and  C_18 
ROOT
ATOM      1  C   UNL d   1       2.859   0.407   5.884  0.00  0.00     0.038 C 
ATOM      2  N   UNL d   1       2.133  -0.667   5.766  0.00  0.00    -0.270 N 
ATOM      3  HN  UNL d   1       1.905  -1.118   4.880  1.00  0.00     0.194 HD
ATOM      4  C   UNL d   1       3.110   1.081   7.219  0.00  0.00     0.071 C 
ENDROOT
BRANCH   2   5
ATOM      5  O   UNL d   1       1.708  -1.119   7.023  0.00  0.00    -0.276 OA
BRANCH   5   6
ATOM      6  C   UNL d   1       0.554  -1.937   6.856  0.00  0.00     0.239 C 
BRANCH   6   7
ATOM      7  C   UNL d   1       0.116  -2.395   8.221  0.00  0.00    -0.031 A 
ATOM      8  C   UNL d   1      -0.696  -1.572   9.019  0.00  0.00     0.027 A 
ATOM      9  C   UNL d   1      -1.081  -1.989  10.300  0.00  0.00     0.038 A 
ATOM     10  C   UNL d   1      -0.621  -3.212  10.802  0.00  0.00     0.018 A 
ATOM     11  C   UNL d   1       0.205  -4.022  10.024  0.00  0.00     0.002 A 
ATOM     12  C   UNL d   1       0.571  -3.615   8.740  0.00  0.00     0.009 A 
BRANCH   9  13
ATOM     13  C   UNL d   1      -1.927  -1.145  11.180  0.00  0.00     0.176 C 
ATOM     14  O   UNL d   1      -1.837  -1.156  12.396  0.00  0.00    -0.646 OA
BRANCH  13  15
ATOM     15  O   UNL d   1      -2.833  -0.396  10.517  0.00  0.00    -0.773 OA
ATOM     16  H   UNL d   1      -2.935  -0.613   9.573  0.00  0.00     0.167 HD
ENDBRANCH  13  15
ENDBRANCH   9  13
ENDBRANCH   6   7
ENDBRANCH   5   6
ENDBRANCH   2   5
BRANCH   1  17
ATOM     17  C   UNL d   1       3.437   1.015   4.650  0.00  0.00    -0.010 A 
ATOM     18  C   UNL d   1       2.771   0.828   3.431  0.00  0.00     0.039 A 
ATOM     19  C   UNL d   1       3.288   1.376   2.252  0.00  0.00     0.056 A 
ATOM     20 CL   UNL d   1       2.403   1.118   0.790  0.00  0.00    -0.083 Cl
ATOM     21  C   UNL d   1       4.480   2.105   2.287  0.00  0.00     0.055 A 
ATOM     22  C   UNL d   1       5.152   2.281   3.503  0.00  0.00     0.026 A 
ATOM     23 CL   UNL d   1       5.184   2.806   0.872  0.00  0.00    -0.083 Cl
ATOM     24  C   UNL d   1       4.636   1.734   4.681  0.00  0.00     0.015 A 
ENDBRANCH   1  17
TORSDOF 6
