REMARK  4 active torsions:
REMARK  status: ('A' for Active; 'I' for Inactive)
REMARK    1  A    between atoms: C_11  and  N_1 
REMARK    2  A    between atoms: C_7  and  C_5 
REMARK       I    between atoms: C_9  and  N_10 
REMARK    3  A    between atoms: C_13  and  C_9 
REMARK    4  A    between atoms: N_10  and  C_25 
ROOT
ATOM      1  C   UNL d   1       2.056  -1.414  -0.013  0.00  0.00     0.057 A 
ATOM      2  C   UNL d   1       2.106  -2.533  -0.853  0.00  0.00     0.034 A 
ATOM      3  C   UNL d   1       3.185  -1.058   0.728  0.00  0.00     0.034 A 
ATOM      4  C   UNL d   1       4.392  -2.979  -0.154  0.00  0.00     0.035 A 
ATOM      5  C   UNL d   1       4.338  -1.852   0.670  0.00  0.00     0.032 A 
ATOM      6  C   UNL d   1       3.266  -3.311  -0.917  0.00  0.00     0.032 A 
ENDROOT
BRANCH   1   7
ATOM      7  N   UNL d   1       0.866  -0.643   0.101  0.00  0.00    -0.255 N 
ATOM      8  C   UNL d   1      -0.454  -1.065  -0.011  0.00  0.00     0.076 C 
ATOM      9  C   UNL d   1      -1.203   0.088  -0.120  0.00  0.00     0.069 C 
ATOM     10  C   UNL d   1      -0.915  -2.420   0.117  0.00  0.00     0.033 A 
ATOM     11  C   UNL d   1      -0.311   1.154   0.160  0.00  0.00     0.135 C 
ATOM     12  N   UNL d   1       0.938   0.691   0.362  0.00  0.00    -0.289 N 
ATOM     13  HN  UNL d   1       1.758   1.225   0.649  1.00  0.00     0.187 HD
ATOM     14  S   UNL d   1      -2.238  -3.022  -0.790  0.00  0.00    -0.100 SA
ATOM     15  C   UNL d   1      -0.430  -3.381   0.988  0.00  0.00     0.021 A 
ATOM     16  C   UNL d   1      -2.149  -4.553  -0.033  0.00  0.00     0.050 A 
ATOM     17  C   UNL d   1      -1.133  -4.615   0.893  0.00  0.00     0.008 A 
BRANCH  11  18
ATOM     18  C   UNL d   1      -0.700   2.603   0.291  0.00  0.00     0.434 C 
ATOM     19  F   UNL d   1       0.320   3.417   0.663  0.00  0.00    -0.165 F 
ATOM     20  F   UNL d   1      -1.192   3.095  -0.878  0.00  0.00    -0.165 F 
ATOM     21  F   UNL d   1      -1.687   2.766   1.216  0.00  0.00    -0.165 F 
ENDBRANCH  11  18
ENDBRANCH   1   7
BRANCH   4  22
ATOM     22  N   UNL d   1       5.522  -3.813  -0.277  0.00  0.00    -0.323 N 
ATOM     23  C   UNL d   1       6.750  -3.655   0.338  0.00  0.00     0.256 C 
ATOM     24  O   UNL d   1       7.069  -2.761   1.117  0.00  0.00    -0.267 OA
ATOM     25  H   UNL d   1       5.397  -4.640  -0.851  0.00  0.00     0.169 HD
BRANCH  23  26
ATOM     26  C   UNL d   1       7.753  -4.715   0.047  0.00  0.00     0.032 A 
ATOM     27  C   UNL d   1       7.845  -5.339  -1.203  0.00  0.00     0.017 A 
ATOM     28  C   UNL d   1       8.765  -6.373  -1.397  0.00  0.00     0.007 A 
ATOM     29  C   UNL d   1       9.607  -6.783  -0.354  0.00  0.00    -0.062 A 
ATOM     30  C   UNL d   1       9.542  -6.123   0.877  0.00  0.00     0.007 A 
ATOM     31  C   UNL d   1      10.529  -7.951  -0.546  0.00  0.00     0.048 C 
ATOM     32  C   UNL d   1       8.626  -5.090   1.075  0.00  0.00     0.017 A 
ENDBRANCH  23  26
ENDBRANCH   4  22
TORSDOF 4
