REMARK  6 active torsions:
REMARK  status: ('A' for Active; 'I' for Inactive)
REMARK    1  A    between atoms: N_3  and  C_1 
REMARK    2  A    between atoms: N_5  and  C_1 
REMARK    3  A    between atoms: C_2  and  C_4 
REMARK    4  A    between atoms: O_10  and  C_2 
REMARK    5  A    between atoms: C_8  and  N_3 
REMARK    6  A    between atoms: C_11  and  N_5 
ROOT
ATOM      1  C   UNL d   1       2.986  -3.681  -1.428  0.00  0.00     0.041 A 
ATOM      2  C   UNL d   1       2.278  -2.682  -0.738  0.00  0.00     0.047 A 
ATOM      3  C   UNL d   1       1.184  -2.043  -1.315  0.00  0.00     0.035 A 
ATOM      4  C   UNL d   1       2.581  -4.057  -2.711  0.00  0.00     0.018 A 
ATOM      5  C   UNL d   1       1.496  -3.419  -3.307  0.00  0.00     0.003 A 
ATOM      6  C   UNL d   1       0.811  -2.413  -2.616  0.00  0.00     0.029 A 
ENDROOT
BRANCH   3   7
ATOM      7  N   UNL d   1       0.370  -1.081  -0.672  0.00  0.00    -0.333 N 
ATOM      8  H   UNL d   1      -0.361  -0.710  -1.260  0.00  0.00     0.168 HD
BRANCH   7   9
ATOM      9  C   UNL d   1       0.349  -0.577   0.605  0.00  0.00     0.172 C 
ATOM     10  S   UNL d   1       1.478  -0.674   1.831  0.00  0.00    -0.041 SA
BRANCH   9  11
ATOM     11  N   UNL d   1      -0.797   0.091   0.949  0.00  0.00    -0.363 N 
ATOM     12  H   UNL d   1      -0.785   0.368   1.925  0.00  0.00     0.162 HD
BRANCH  11  13
ATOM     13  C   UNL d   1      -2.094   0.155   0.275  0.00  0.00     0.075 C 
ATOM     14  C   UNL d   1      -2.762  -1.218   0.234  0.00  0.00     0.032 C 
ATOM     15  C   UNL d   1      -2.991   1.157   0.999  0.00  0.00     0.032 C 
ENDBRANCH  11  13
ENDBRANCH   9  11
ENDBRANCH   7   9
ENDBRANCH   3   7
BRANCH   1  16
ATOM     16  C   UNL d   1       4.168  -4.355  -0.822  0.00  0.00     0.293 C 
ATOM     17  O   UNL d   1       4.777  -5.265  -1.355  0.00  0.00    -0.259 OA
BRANCH  16  18
ATOM     18  O   UNL d   1       4.461  -3.792   0.377  0.00  0.00    -0.323 OA
ATOM     19  C   UNL d   1       5.604  -4.331   1.037  0.00  0.00     0.213 C 
ENDBRANCH  16  18
ENDBRANCH   1  16
TORSDOF 6
