REMARK  3 active torsions:
REMARK  status: ('A' for Active; 'I' for Inactive)
REMARK    1  A    between atoms: N_2  and  C_1 
REMARK    2  A    between atoms: C_4  and  N_2 
REMARK    3  A    between atoms: C_5  and  N_16 
ROOT
ATOM      1  C   UNL d   1       1.068  -0.121  -0.020  0.00  0.00     0.181 C 
ATOM      2  N   UNL d   1       2.421   0.036  -0.004  0.00  0.00    -0.352 N 
ATOM      3  H   UNL d   1       2.893  -0.359  -0.809  0.00  0.00     0.166 HD
ENDROOT
BRANCH   1   4
ATOM      4  N   UNL d   1       0.419  -0.714  -0.970  0.00  0.00    -0.352 N 
ATOM      5  HN  UNL d   1       0.910  -1.145  -1.753  1.00  0.00     0.166 HD
BRANCH   4   6
ATOM      6  C   UNL d   1      -0.986  -0.746  -0.886  0.00  0.00     0.036 A 
ATOM      7  C   UNL d   1      -1.747   0.376  -0.532  0.00  0.00     0.053 A 
ATOM      8  C   UNL d   1      -3.138   0.301  -0.484  0.00  0.00     0.037 A 
ATOM      9 CL   UNL d   1      -4.044   1.685  -0.007  0.00  0.00    -0.084 Cl
ATOM     10  C   UNL d   1      -3.797  -0.876  -0.818  0.00  0.00     0.048 A 
ATOM     11  C   UNL d   1      -3.046  -1.984  -1.203  0.00  0.00     0.037 A 
ATOM     12  C   UNL d   1      -1.652  -1.925  -1.236  0.00  0.00     0.053 A 
ATOM     13 CL   UNL d   1      -3.852  -3.438  -1.649  0.00  0.00    -0.084 Cl
ENDBRANCH   4   6
ENDBRANCH   1   4
BRANCH   2  14
ATOM     14  C   UNL d   1       3.174   0.923   0.786  0.00  0.00     0.036 A 
ATOM     15  C   UNL d   1       2.622   1.699   1.815  0.00  0.00     0.053 A 
ATOM     16  C   UNL d   1       3.421   2.560   2.575  0.00  0.00     0.037 A 
ATOM     17 CL   UNL d   1       2.699   3.509   3.817  0.00  0.00    -0.084 Cl
ATOM     18  C   UNL d   1       4.785   2.662   2.337  0.00  0.00     0.048 A 
ATOM     19  C   UNL d   1       5.348   1.885   1.332  0.00  0.00     0.037 A 
ATOM     20  C   UNL d   1       4.557   1.020   0.568  0.00  0.00     0.053 A 
ATOM     21 CL   UNL d   1       7.037   1.993   1.021  0.00  0.00    -0.084 Cl
ENDBRANCH   2  14
TORSDOF 3
