REMARK  7 active torsions:
REMARK  status: ('A' for Active; 'I' for Inactive)
REMARK    1  A    between atoms: N_3  and  C_1 
REMARK    2  A    between atoms: N_7  and  C_1 
REMARK       I    between atoms: C_2  and  N_4 
REMARK    3  A    between atoms: O_10  and  C_2 
REMARK    4  A    between atoms: N_4  and  N_3 
REMARK    5  A    between atoms: C_11  and  N_7 
REMARK    6  A    between atoms: C_8  and  C_11 
REMARK    7  A    between atoms: C_12  and  O_10 
ROOT
ATOM      1  N   UNL d   1       0.567   0.514  -1.351  0.00  0.00    -0.272 N 
ATOM      2  H   UNL d   1      -0.449   0.421  -1.380  0.00  0.00     0.189 HD
ENDROOT
BRANCH   1   3
ATOM      3  C   UNL d   1       1.205   0.097  -0.212  0.00  0.00     0.186 C 
ATOM      4  S   UNL d   1       2.631   0.724   0.397  0.00  0.00    -0.040 SA
BRANCH   3   5
ATOM      5  N   UNL d   1       0.639  -0.968   0.431  0.00  0.00    -0.363 N 
ATOM      6  H   UNL d   1       1.158  -1.259   1.251  0.00  0.00     0.162 HD
BRANCH   5   7
ATOM      7  C   UNL d   1      -0.199  -1.978  -0.185  0.00  0.00     0.148 C 
BRANCH   7   8
ATOM      8  C   UNL d   1      -1.634  -1.607  -0.003  0.00  0.00    -0.018 C 
ATOM      9  C   UNL d   1      -2.515  -1.496  -1.006  0.00  0.00     0.008 C 
ENDBRANCH   7   8
ENDBRANCH   5   7
ENDBRANCH   3   5
ENDBRANCH   1   3
BRANCH   1  10
ATOM     10  N   UNL d   1       1.078   1.568  -2.119  0.00  0.00    -0.243 N 
ATOM     11  C   UNL d   1       0.232   2.268  -2.935  0.00  0.00     0.379 C 
ATOM     12  O   UNL d   1      -0.990   2.225  -2.865  0.00  0.00    -0.237 OA
ATOM     13  H   UNL d   1       2.071   1.563  -2.327  0.00  0.00     0.192 HD
BRANCH  11  14
ATOM     14  O   UNL d   1       0.950   2.950  -3.859  0.00  0.00    -0.303 OA
BRANCH  14  15
ATOM     15  C   UNL d   1       0.183   3.640  -4.856  0.00  0.00     0.176 C 
ATOM     16  C   UNL d   1      -0.333   2.668  -5.905  0.00  0.00     0.034 C 
ENDBRANCH  14  15
ENDBRANCH  11  14
ENDBRANCH   1  10
TORSDOF 7
