REMARK  6 active torsions:
REMARK  status: ('A' for Active; 'I' for Inactive)
REMARK    1  A    between atoms: C_4  and  C_1 
REMARK    2  A    between atoms: C_5  and  C_1 
REMARK    3  A    between atoms: N_6  and  N_2 
REMARK    4  A    between atoms: O_10  and  C_4 
REMARK    5  A    between atoms: C_9  and  N_6 
REMARK    6  A    between atoms: C_18  and  O_10 
ROOT
ATOM      1  C   UNL d   1       0.978   0.088  -0.074  0.00  0.00     0.169 C 
ATOM      2  N   UNL d   1       0.258   0.497  -1.086  0.00  0.00    -0.292 N 
ATOM      3  HN  UNL d   1      -0.761   0.522  -1.033  1.00  0.00     0.187 HD
ENDROOT
BRANCH   2   4
ATOM      4  N   UNL d   1       0.916   0.887  -2.212  0.00  0.00    -0.300 N 
ATOM      5  H   UNL d   1       1.890   1.208  -2.139  0.00  0.00     0.187 HD
BRANCH   4   6
ATOM      6  C   UNL d   1       0.191   1.526  -3.239  0.00  0.00     0.048 A 
ATOM      7  C   UNL d   1      -1.205   1.663  -3.207  0.00  0.00     0.034 A 
ATOM      8  C   UNL d   1      -1.892   2.247  -4.275  0.00  0.00     0.044 A 
ATOM      9  C   UNL d   1      -1.186   2.664  -5.395  0.00  0.00     0.116 A 
ATOM     10  C   UNL d   1       0.192   2.507  -5.469  0.00  0.00     0.044 A 
ATOM     11  F   UNL d   1      -1.843   3.215  -6.424  0.00  0.00    -0.206 F 
ATOM     12  C   UNL d   1       0.876   1.933  -4.394  0.00  0.00     0.034 A 
ENDBRANCH   4   6
ENDBRANCH   2   4
BRANCH   1  13
ATOM     13  C   UNL d   1       0.236  -0.428   1.148  0.00  0.00     0.315 C 
ATOM     14  O   UNL d   1       0.728  -0.376   2.260  0.00  0.00    -0.257 OA
BRANCH  13  15
ATOM     15  O   UNL d   1      -0.878  -1.081   0.763  0.00  0.00    -0.317 OA
BRANCH  15  16
ATOM     16  C   UNL d   1      -1.426  -2.013   1.703  0.00  0.00     0.175 C 
ATOM     17  C   UNL d   1      -0.845  -3.379   1.385  0.00  0.00     0.034 C 
ENDBRANCH  15  16
ENDBRANCH  13  15
ENDBRANCH   1  13
BRANCH   1  18
ATOM     18  C   UNL d   1       2.498   0.069  -0.095  0.00  0.00     0.179 C 
ATOM     19  O   UNL d   1       3.109   0.944  -0.701  0.00  0.00    -0.291 OA
ATOM     20  C   UNL d   1       3.197  -1.051   0.623  0.00  0.00     0.099 C 
ENDBRANCH   1  18
TORSDOF 6
