REMARK  7 active torsions:
REMARK  status: ('A' for Active; 'I' for Inactive)
REMARK    1  A    between atoms: C_2  and  C_1 
REMARK    2  A    between atoms: C_3  and  C_1 
REMARK    3  A    between atoms: C_5  and  C_1 
REMARK    4  A    between atoms: O_12  and  C_1 
REMARK    5  A    between atoms: O_17  and  C_3 
REMARK       I    between atoms: C_4  and  N_6 
REMARK       I    between atoms: N_13  and  C_4 
REMARK    6  A    between atoms: N_6  and  C_16 
REMARK    7  A    between atoms: C_21  and  O_17 
ROOT
ATOM      1  C   UNL d   1       0.632  -1.183   0.845  0.00  0.00    -0.005 A 
ATOM      2  C   UNL d   1       0.770  -2.522   0.439  0.00  0.00     0.013 A 
ATOM      3  C   UNL d   1       0.221  -0.952   2.168  0.00  0.00     0.013 A 
ATOM      4  C   UNL d   1       0.106  -3.330   2.640  0.00  0.00     0.036 A 
ATOM      5  C   UNL d   1      -0.037  -2.008   3.048  0.00  0.00     0.030 A 
ATOM      6  C   UNL d   1       0.512  -3.579   1.324  0.00  0.00     0.030 A 
ENDROOT
BRANCH   1   7
ATOM      7  C   UNL d   1       0.969  -0.016  -0.095  0.00  0.00     0.271 C 
BRANCH   7   8
ATOM      8  C   UNL d   1       0.249  -0.054  -1.462  0.00  0.00     0.432 C 
ATOM      9  F   UNL d   1       1.068  -0.350  -2.497  0.00  0.00    -0.167 F 
ATOM     10  F   UNL d   1      -0.776  -0.937  -1.508  0.00  0.00    -0.167 F 
ATOM     11  F   UNL d   1      -0.285   1.167  -1.745  0.00  0.00    -0.167 F 
ENDBRANCH   7   8
BRANCH   7  12
ATOM     12  C   UNL d   1       2.474  -0.007  -0.416  0.00  0.00     0.308 C 
ATOM     13  O   UNL d   1       3.173  -0.999  -0.597  0.00  0.00    -0.261 OA
BRANCH  12  14
ATOM     14  O   UNL d   1       2.949   1.277  -0.443  0.00  0.00    -0.319 OA
BRANCH  14  15
ATOM     15  C   UNL d   1       4.378   1.401  -0.365  0.00  0.00     0.174 C 
ATOM     16  C   UNL d   1       4.784   1.413   1.099  0.00  0.00     0.034 C 
ENDBRANCH  14  15
ENDBRANCH  12  14
ENDBRANCH   7  12
BRANCH   7  17
ATOM     17  O   UNL d   1       0.645   1.220   0.612  0.00  0.00    -0.368 OA
ATOM     18  H   UNL d   1       0.926   1.952   0.030  0.00  0.00     0.212 HD
ENDBRANCH   7  17
ENDBRANCH   1   7
BRANCH   4  19
ATOM     19  N   UNL d   1      -0.129  -4.441   3.475  0.00  0.00    -0.309 N 
ATOM     20  C   UNL d   1      -0.521  -4.421   4.799  0.00  0.00     0.320 C 
ATOM     21  O   UNL d   1      -0.723  -3.429   5.485  0.00  0.00    -0.247 OA
ATOM     22  N   UNL d   1      -0.685  -5.695   5.295  0.00  0.00    -0.347 N 
ATOM     23  C   UNL d   1      -1.090  -5.932   6.661  0.00  0.00     0.151 C 
ATOM     24  H   UNL d   1      -0.396  -6.485   4.744  0.00  0.00     0.163 HD
ATOM     25  H   UNL d   1      -0.006  -5.349   3.060  0.00  0.00     0.170 HD
ENDBRANCH   4  19
TORSDOF 7
