REMARK  5 active torsions:
REMARK  status: ('A' for Active; 'I' for Inactive)
REMARK    1  A    between atoms: C_10  and  C_3 
REMARK    2  A    between atoms: C_11  and  C_6 
REMARK    3  A    between atoms: O_16  and  C_10 
REMARK    4  A    between atoms: C_24  and  O_16 
REMARK    5  A    between atoms: O_23  and  C_18 
ROOT
ATOM      1  C   UNL d   1       1.176   0.871  -0.117  0.00  0.00     0.034 A 
ATOM      2  C   UNL d   1       0.757  -0.399  -0.097  0.00  0.00     0.055 A 
ATOM      3  C   UNL d   1       3.514  -0.004   0.210  0.00  0.00     0.052 C 
ATOM      4  N   UNL d   1       1.623  -1.450  -0.068  0.00  0.00    -0.358 N 
ATOM      5  C   UNL d   1       0.006   1.752  -0.036  0.00  0.00     0.192 A 
ATOM      6  C   UNL d   1       2.622   1.229  -0.131  0.00  0.00     0.099 C 
ATOM      7  C   UNL d   1       2.990  -1.266   0.179  0.00  0.00     0.019 C 
ATOM      8  C   UNL d   1      -0.689  -0.447  -0.059  0.00  0.00     0.005 A 
ATOM      9  C   UNL d   1      -1.161   0.865  -0.021  0.00  0.00     0.027 A 
ATOM     10  O   UNL d   1       0.003   2.962   0.042  0.00  0.00    -0.287 OA
ATOM     11  C   UNL d   1       3.732  -2.559   0.414  0.00  0.00     0.069 C 
ATOM     12  C   UNL d   1      -1.579  -1.506  -0.047  0.00  0.00     0.014 A 
ATOM     13  C   UNL d   1      -2.504   1.182   0.035  0.00  0.00     0.016 A 
ATOM     14  C   UNL d   1      -2.949  -1.214   0.003  0.00  0.00     0.001 A 
ATOM     15  C   UNL d   1      -3.407   0.117   0.045  0.00  0.00     0.001 A 
ATOM     16  H   UNL d   1       1.243  -2.386   0.040  0.00  0.00     0.166 HD
ENDROOT
BRANCH   6  17
ATOM     17  C   UNL d   1       3.036   1.798  -1.489  0.00  0.00    -0.045 A 
ATOM     18  C   UNL d   1       2.955   1.012  -2.651  0.00  0.00     0.011 A 
ATOM     19  C   UNL d   1       3.459   1.481  -3.862  0.00  0.00     0.037 A 
ATOM     20  C   UNL d   1       4.028   2.751  -3.946  0.00  0.00     0.068 A 
ATOM     21  C   UNL d   1       4.071   3.559  -2.809  0.00  0.00     0.037 A 
ATOM     22  C   UNL d   1       3.577   3.086  -1.588  0.00  0.00     0.011 A 
BRANCH  20  23
ATOM     23  O   UNL d   1       4.574   3.051  -5.162  0.00  0.00    -0.356 OA
ATOM     24  C   UNL d   1       4.632   4.428  -5.507  0.00  0.00     0.210 C 
ENDBRANCH  20  23
ENDBRANCH   6  17
BRANCH   3  25
ATOM     25  C   UNL d   1       4.930   0.309   0.577  0.00  0.00     0.292 C 
ATOM     26  O   UNL d   1       5.868  -0.477   0.549  0.00  0.00    -0.259 OA
BRANCH  25  27
ATOM     27  O   UNL d   1       4.995   1.581   1.046  0.00  0.00    -0.318 OA
BRANCH  27  28
ATOM     28  C   UNL d   1       6.164   1.977   1.774  0.00  0.00     0.174 C 
ATOM     29  C   UNL d   1       6.976   2.992   0.993  0.00  0.00     0.034 C 
ENDBRANCH  27  28
ENDBRANCH  25  27
ENDBRANCH   3  25
TORSDOF 5
