REMARK  3 active torsions:
REMARK  status: ('A' for Active; 'I' for Inactive)
REMARK    1  A    between atoms: C_9  and  C_1 
REMARK    2  A    between atoms: N_5  and  C_10 
REMARK    3  A    between atoms: C_11  and  C_8 
ROOT
ATOM      1  C   UNL d   1      -0.226  -1.028  -0.018  0.00  0.00     0.177 A 
ATOM      2  O   UNL d   1      -1.077   0.039   0.099  0.00  0.00    -0.273 OA
ATOM      3  N   UNL d   1       1.032  -0.662  -0.149  0.00  0.00    -0.277 N 
ATOM      4  HN  UNL d   1       1.837  -1.277  -0.276  1.00  0.00     0.189 HD
ATOM      5  N   UNL d   1       1.048   0.713  -0.084  0.00  0.00    -0.277 N 
ATOM      6  HN  UNL d   1       1.869   1.317  -0.135  1.00  0.00     0.189 HD
ATOM      7  C   UNL d   1      -0.204   1.097   0.059  0.00  0.00     0.174 A 
ENDROOT
BRANCH   1   8
ATOM      8  C   UNL d   1      -0.817  -2.352  -0.135  0.00  0.00     0.050 A 
ATOM      9  C   UNL d   1      -1.974  -2.777   0.534  0.00  0.00     0.117 A 
ATOM     10  C   UNL d   1      -2.529  -4.050   0.326  0.00  0.00     0.037 A 
ATOM     11  C   UNL d   1      -1.912  -4.927  -0.564  0.00  0.00     0.002 A 
ATOM     12  C   UNL d   1      -0.749  -4.540  -1.225  0.00  0.00     0.001 A 
ATOM     13  C   UNL d   1      -0.206  -3.269  -1.008  0.00  0.00     0.018 A 
BRANCH   9  14
ATOM     14  N   UNL d   1      -2.621  -1.925   1.513  0.00  0.00    -0.115 N 
ATOM     15  O   UNL d   1      -1.943  -1.557   2.480  0.00  0.00    -0.532 OA
ATOM     16  O   UNL d   1      -3.813  -1.653   1.319  0.00  0.00    -0.532 OA
ENDBRANCH   9  14
ENDBRANCH   1   8
BRANCH   7  17
ATOM     17  C   UNL d   1      -0.757   2.442   0.153  0.00  0.00     0.018 A 
ATOM     18  C   UNL d   1      -2.132   2.678   0.297  0.00  0.00     0.041 A 
ATOM     19  C   UNL d   1      -2.626   3.986   0.400  0.00  0.00     0.056 A 
ATOM     20 CL   UNL d   1      -4.333   4.186   0.577  0.00  0.00    -0.083 Cl
ATOM     21  C   UNL d   1      -1.747   5.074   0.360  0.00  0.00     0.055 A 
ATOM     22  C   UNL d   1      -0.378   4.850   0.205  0.00  0.00     0.026 A 
ATOM     23 CL   UNL d   1      -2.283   6.709   0.499  0.00  0.00    -0.083 Cl
ATOM     24  C   UNL d   1       0.111   3.545   0.101  0.00  0.00     0.017 A 
ENDBRANCH   7  17
TORSDOF 3
