REMARK  6 active torsions:
REMARK  status: ('A' for Active; 'I' for Inactive)
REMARK    1  A    between atoms: C_8  and  C_1 
REMARK    2  A    between atoms: N_2  and  C_9 
REMARK    3  A    between atoms: C_11  and  C_6 
REMARK    4  A    between atoms: O_14  and  C_13 
REMARK    5  A    between atoms: C_19  and  O_14 
REMARK    6  A    between atoms: C_20  and  C_19 
ROOT
ATOM      1  C   UNL d   1      -0.895   0.903  -0.251  0.00  0.00     0.114 A 
ATOM      2  C   UNL d   1      -0.525   0.199  -1.377  0.00  0.00     0.072 A 
ATOM      3  N   UNL d   1      -0.320  -1.164   0.415  0.00  0.00    -0.260 N 
ATOM      4  HN  UNL d   1      -0.120  -1.967   1.011  1.00  0.00     0.195 HD
ATOM      5  C   UNL d   1      -0.231  -1.112  -0.923  0.00  0.00     0.068 A 
ATOM      6  O   UNL d   1      -0.736   0.092   0.829  0.00  0.00    -0.237 OA
ENDROOT
BRANCH   1   7
ATOM      7  C   UNL d   1      -1.442   2.248  -0.050  0.00  0.00     0.033 A 
ATOM      8  C   UNL d   1      -2.244   2.633   1.047  0.00  0.00     0.082 A 
ATOM      9  C   UNL d   1      -2.898   3.880   1.011  0.00  0.00     0.038 A 
ATOM     10  C   UNL d   1      -2.682   4.786  -0.026  0.00  0.00     0.003 A 
ATOM     11  C   UNL d   1      -1.819   4.455  -1.057  0.00  0.00     0.001 A 
ATOM     12  C   UNL d   1      -1.220   3.195  -1.076  0.00  0.00     0.017 A 
BRANCH   8  13
ATOM     13  O   UNL d   1      -2.376   1.768   2.115  0.00  0.00    -0.346 OA
BRANCH  13  14
ATOM     14  C   UNL d   1      -2.853   2.364   3.329  0.00  0.00     0.214 C 
BRANCH  14  15
ATOM     15  C   UNL d   1      -2.475   1.623   4.593  0.00  0.00    -0.034 A 
ATOM     16  C   UNL d   1      -1.420   0.707   4.647  0.00  0.00     0.009 A 
ATOM     17  C   UNL d   1      -1.028   0.157   5.871  0.00  0.00     0.001 A 
ATOM     18  C   UNL d   1      -1.680   0.518   7.050  0.00  0.00     0.000 A 
ATOM     19  C   UNL d   1      -2.736   1.425   7.010  0.00  0.00     0.001 A 
ATOM     20  C   UNL d   1      -3.131   1.973   5.789  0.00  0.00     0.009 A 
ENDBRANCH  14  15
ENDBRANCH  13  14
ENDBRANCH   8  13
ENDBRANCH   1   7
BRANCH   5  21
ATOM     21  C   UNL d   1       0.052  -2.298  -1.736  0.00  0.00    -0.007 A 
ATOM     22  C   UNL d   1       0.628  -2.189  -3.015  0.00  0.00     0.016 A 
ATOM     23  C   UNL d   1       0.815  -3.324  -3.815  0.00  0.00     0.037 A 
ATOM     24  C   UNL d   1       0.423  -4.581  -3.340  0.00  0.00     0.102 A 
ATOM     25  C   UNL d   1      -0.138  -4.709  -2.064  0.00  0.00     0.037 A 
ATOM     26  C   UNL d   1      -0.315  -3.571  -1.269  0.00  0.00     0.016 A 
BRANCH  24  27
ATOM     27  N   UNL d   1       0.587  -5.769  -4.186  0.00  0.00    -0.116 N 
ATOM     28  O   UNL d   1       1.083  -5.610  -5.311  0.00  0.00    -0.532 OA
ATOM     29  O   UNL d   1       0.216  -6.859  -3.731  0.00  0.00    -0.532 OA
ENDBRANCH  24  27
ENDBRANCH   5  21
TORSDOF 6
