REMARK  6 active torsions:
REMARK  status: ('A' for Active; 'I' for Inactive)
REMARK    1  A    between atoms: C_7  and  S_1 
REMARK    2  A    between atoms: C_9  and  S_1 
REMARK    3  A    between atoms: N_4  and  C_11 
REMARK    4  A    between atoms: C_12  and  C_5 
REMARK    5  A    between atoms: C_6  and  C_7 
REMARK    6  A    between atoms: C_13  and  C_9 
ROOT
ATOM      1  N   UNL d   1       0.667  -3.259  -2.166  0.00  0.00    -0.352 N 
ATOM      2  HN  UNL d   1       0.293  -4.014  -1.591  1.00  0.00     0.166 HD
ATOM      3  C   UNL d   1       1.150  -3.415  -3.455  0.00  0.00     0.049 A 
ATOM      4  C   UNL d   1       0.757  -2.003  -1.787  0.00  0.00     0.065 A 
ATOM      5  S   UNL d   1       1.417  -0.934  -2.964  0.00  0.00    -0.085 SA
ATOM      6  C   UNL d   1       1.573  -2.247  -4.056  0.00  0.00     0.081 A 
ENDROOT
BRANCH   4   7
ATOM      7  C   UNL d   1       0.406  -1.526  -0.427  0.00  0.00     0.205 C 
BRANCH   7   8
ATOM      8  S   UNL d   1      -1.296  -1.002  -0.390  0.00  0.00     0.156 S 
ATOM      9  O   UNL d   1      -1.481   0.018  -1.413  0.00  0.00    -0.227 OA
ATOM     10  O   UNL d   1      -1.606  -0.655   0.989  0.00  0.00    -0.227 OA
BRANCH   8  11
ATOM     11  C   UNL d   1      -2.295  -2.408  -0.854  0.00  0.00     0.205 C 
BRANCH  11  12
ATOM     12  C   UNL d   1      -2.111  -3.540   0.080  0.00  0.00     0.066 A 
ATOM     13  O   UNL d   1      -1.618  -4.688  -0.466  0.00  0.00    -0.326 OA
ATOM     14  C   UNL d   1      -1.614  -5.631   0.510  0.00  0.00     0.142 A 
ATOM     15  C   UNL d   1      -2.091  -5.104   1.686  0.00  0.00     0.027 A 
ATOM     16  C   UNL d   1      -2.412  -3.752   1.411  0.00  0.00     0.035 A 
ENDBRANCH  11  12
ENDBRANCH   8  11
ENDBRANCH   7   8
ENDBRANCH   4   7
BRANCH   3  17
ATOM     17  C   UNL d   1       1.171  -4.726  -4.089  0.00  0.00    -0.007 A 
ATOM     18  C   UNL d   1       0.215  -5.683  -3.719  0.00  0.00     0.049 A 
ATOM     19  C   UNL d   1       0.228  -6.950  -4.317  0.00  0.00     0.103 A 
ATOM     20  C   UNL d   1       1.190  -7.277  -5.281  0.00  0.00     0.036 A 
ATOM     21  C   UNL d   1       2.151  -6.332  -5.638  0.00  0.00     0.003 A 
ATOM     22  C   UNL d   1       2.144  -5.066  -5.043  0.00  0.00     0.014 A 
BRANCH  19  23
ATOM     23  N   UNL d   1      -0.774  -7.949  -3.926  0.00  0.00    -0.116 N 
ATOM     24  O   UNL d   1      -1.587  -7.642  -3.043  0.00  0.00    -0.532 OA
ATOM     25  O   UNL d   1      -0.747  -9.047  -4.503  0.00  0.00    -0.532 OA
ENDBRANCH  19  23
ENDBRANCH   3  17
TORSDOF 6
