REMARK  2 active torsions:
REMARK  status: ('A' for Active; 'I' for Inactive)
REMARK    1  A    between atoms: C_2  and  S_9 
REMARK    2  A    between atoms: S_9  and  C_11 
ROOT
ATOM      1  N   UNL d   1       5.243  -3.668  -1.805  0.00  0.00    -0.197 NA
ATOM      2  C   UNL d   1       4.754  -2.734  -1.316  0.00  0.00     0.069 C 
ATOM      3  C   UNL d   1       4.117  -1.545  -0.740  0.00  0.00     0.203 C 
ENDROOT
BRANCH   3   4
ATOM      4  S   UNL d   1       4.514  -1.229   1.013  0.00  0.00    -0.115 SA
BRANCH   4   5
ATOM      5  C   UNL d   1       6.308  -1.228   1.006  0.00  0.00     0.008 A 
ATOM      6  C   UNL d   1       6.934  -2.280   1.702  0.00  0.00     0.027 A 
ATOM      7  C   UNL d   1       8.329  -2.336   1.863  0.00  0.00    -0.039 A 
ATOM      8  C   UNL d   1       8.941  -3.446   2.670  0.00  0.00     0.050 C 
ATOM      9  C   UNL d   1       9.103  -1.317   1.300  0.00  0.00     0.040 A 
ATOM     10  C   UNL d   1       8.494  -0.269   0.603  0.00  0.00     0.032 A 
ATOM     11 CL   UNL d   1      10.822  -1.285   1.469  0.00  0.00    -0.084 Cl
ATOM     12  C   UNL d   1       7.096  -0.198   0.462  0.00  0.00    -0.043 A 
ATOM     13  C   UNL d   1       6.516   1.009  -0.221  0.00  0.00     0.049 C 
ENDBRANCH   4   5
ENDBRANCH   3   4
TORSDOF 2
