REMARK  5 active torsions:
REMARK  status: ('A' for Active; 'I' for Inactive)
REMARK    1  A    between atoms: C_21  and  C_10 
REMARK    2  A    between atoms: C_16  and  C_25 
REMARK    3  A    between atoms: O_28  and  C_16 
REMARK    4  A    between atoms: C_21  and  C_23 
REMARK    5  A    between atoms: C_25  and  C_23 
ROOT
ATOM      1  C   UNL d   1      -1.274   1.345   0.320  0.00  0.00     0.025 C 
ATOM      2  C   UNL d   1      -0.619  -1.721  -0.217  0.00  0.00     0.013 C 
ATOM      3  C   UNL d   1      -0.013   0.627   0.911  0.00  0.00     0.013 C 
ATOM      4  C   UNL d   1      -0.417  -3.119   0.504  0.00  0.00    -0.035 C 
ATOM      5  C   UNL d   1       0.460  -0.657   0.180  0.00  0.00     0.066 C 
ATOM      6  C   UNL d   1      -1.964   0.334  -0.615  0.00  0.00     0.136 C 
ATOM      7  C   UNL d   1       1.572  -1.308   0.984  0.00  0.00     0.132 C 
ATOM      8  C   UNL d   1       1.082  -3.594   0.343  0.00  0.00     0.008 C 
ATOM      9  C   UNL d   1      -2.023  -1.104  -0.114  0.00  0.00     0.085 C 
ATOM     10  C   UNL d   1      -0.678   2.615  -0.378  0.00  0.00     0.005 C 
ATOM     11  C   UNL d   1       2.155  -2.517   0.356  0.00  0.00     0.084 C 
ATOM     12  C   UNL d   1       1.136   1.658   0.851  0.00  0.00     0.007 C 
ATOM     13  C   UNL d   1      -1.197  -4.300  -0.149  0.00  0.00     0.017 C 
ATOM     14  C   UNL d   1       0.486   2.982   0.559  0.00  0.00     0.006 C 
ATOM     15  C   UNL d   1       1.412  -4.745   1.287  0.00  0.00     0.084 C 
ATOM     16  O   UNL d   1      -2.418   0.629  -1.715  0.00  0.00    -0.297 OA
ATOM     17  O   UNL d   1       1.955  -0.917   2.086  0.00  0.00    -0.298 OA
ATOM     18  C   UNL d   1       0.523  -5.916   0.954  0.00  0.00     0.127 C 
ATOM     19  O   UNL d   1       0.924  -7.067   1.121  0.00  0.00    -0.298 OA
ATOM     20  C   UNL d   1      -0.930  -5.648   0.557  0.00  0.00     0.079 C 
ATOM     21  C   UNL d   1      -2.245   1.712   1.461  0.00  0.00     0.024 C 
ATOM     22  C   UNL d   1      -0.946  -2.990   1.962  0.00  0.00     0.016 C 
ENDROOT
BRANCH  10  23
ATOM     23  C   UNL d   1      -1.561   3.878  -0.656  0.00  0.00    -0.013 C 
ATOM     24  C   UNL d   1      -2.766   3.564  -1.540  0.00  0.00     0.010 C 
BRANCH  23  25
ATOM     25  C   UNL d   1      -0.675   4.984  -1.303  0.00  0.00     0.015 C 
BRANCH  25  26
ATOM     26  C   UNL d   1      -1.385   6.261  -1.754  0.00  0.00     0.110 C 
BRANCH  26  27
ATOM     27  C   UNL d   1      -0.388   7.276  -2.283  0.00  0.00     0.139 C 
ATOM     28  O   UNL d   1       0.818   7.111  -2.365  0.00  0.00    -0.650 OA
BRANCH  27  29
ATOM     29  O   UNL d   1      -0.985   8.426  -2.675  0.00  0.00    -0.776 OA
ATOM     30  H   UNL d   1      -1.954   8.422  -2.562  0.00  0.00     0.167 HD
ENDBRANCH  27  29
ENDBRANCH  26  27
ENDBRANCH  25  26
ENDBRANCH  23  25
ENDBRANCH  10  23
TORSDOF 5
