REMARK  7 active torsions:
REMARK  status: ('A' for Active; 'I' for Inactive)
REMARK    1  A    between atoms: C_6  and  C_1 
REMARK    2  A    between atoms: C_7  and  C_1 
REMARK    3  A    between atoms: N_14  and  N_2 
REMARK    4  A    between atoms: C_3  and  C_4 
REMARK    5  A    between atoms: C_5  and  C_12 
REMARK    6  A    between atoms: C_8  and  C_6 
REMARK    7  A    between atoms: N_9  and  C_7 
ROOT
ATOM      1  C   UNL d   1       0.922  -0.056   0.029  0.00  0.00     0.079 C 
ATOM      2  C   UNL d   1       0.244   1.111   0.018  0.00  0.00     0.056 C 
ENDROOT
BRANCH   1   3
ATOM      3  C   UNL d   1       0.148  -1.319  -0.166  0.00  0.00     0.201 C 
ATOM      4  O   UNL d   1      -1.008  -1.296  -0.581  0.00  0.00    -0.286 OA
BRANCH   3   5
ATOM      5  C   UNL d   1       0.783  -2.639   0.117  0.00  0.00     0.016 A 
ATOM      6  C   UNL d   1       1.733  -2.826   1.125  0.00  0.00     0.031 A 
ATOM      7  C   UNL d   1       2.321  -4.090   1.330  0.00  0.00     0.048 A 
ATOM      8  C   UNL d   1       1.898  -5.174   0.545  0.00  0.00     0.016 A 
ATOM      9  C   UNL d   1       0.913  -5.003  -0.427  0.00  0.00     0.002 A 
ATOM     10  C   UNL d   1       0.360  -3.740  -0.643  0.00  0.00     0.015 A 
BRANCH   7  11
ATOM     11  C   UNL d   1       3.394  -4.288   2.376  0.00  0.00     0.417 C 
ATOM     12  F   UNL d   1       3.715  -3.146   3.042  0.00  0.00    -0.166 F 
ATOM     13  F   UNL d   1       3.025  -5.186   3.330  0.00  0.00    -0.166 F 
ATOM     14  F   UNL d   1       4.556  -4.756   1.846  0.00  0.00    -0.166 F 
ENDBRANCH   7  11
ENDBRANCH   3   5
ENDBRANCH   1   3
BRANCH   1  15
ATOM     15  C   UNL d   1       2.442  -0.056   0.029  0.00  0.00    -0.033 C 
BRANCH  15  16
ATOM     16  N   UNL d   1       3.703  -0.056   0.029  0.00  0.00    -0.365 N 
ATOM     17  HN2 UNL d   1       2.683  -0.056   0.029  1.00  0.00     0.165 HD
ATOM     18  HN1 UNL d   1       4.723  -0.056   0.029  1.00  0.00     0.165 HD
ENDBRANCH  15  16
ENDBRANCH   1  15
BRANCH   2  19
ATOM     19  C   UNL d   1       0.894   2.351   0.258  0.00  0.00     0.052 A 
ATOM     20  N   UNL d   1       1.292   3.228  -0.742  0.00  0.00    -0.287 N 
ATOM     21  C   UNL d   1       1.983   4.265  -0.160  0.00  0.00     0.111 A 
ATOM     22  C   UNL d   1       1.943   4.122   1.206  0.00  0.00     0.021 A 
ATOM     23  C   UNL d   1       1.237   2.930   1.471  0.00  0.00     0.032 A 
BRANCH  20  24
ATOM     24  N   UNL d   1       1.059   3.228  -2.151  0.00  0.00    -0.233 NA
ATOM     25  C   UNL d   1      -0.294   2.919  -2.571  0.00  0.00     0.136 C 
ATOM     26  C   UNL d   1       2.086   2.559  -2.931  0.00  0.00     0.136 C 
ENDBRANCH  20  24
ENDBRANCH   2  19
TORSDOF 7
