REMARK  5 active torsions:
REMARK  status: ('A' for Active; 'I' for Inactive)
REMARK    1  A    between atoms: C_7  and  C_1 
REMARK    2  A    between atoms: C_2  and  C_6 
REMARK    3  A    between atoms: N_19  and  C_6 
REMARK    4  A    between atoms: O_17  and  C_7 
REMARK    5  A    between atoms: N_13  and  O_17 
ROOT
ATOM      1  C   UNL d   1       2.996  -3.765   0.011  0.00  0.00     0.127 C 
ATOM      2  N   UNL d   1       1.973  -3.021  -0.246  0.00  0.00    -0.244 N 
ATOM      3  HN  UNL d   1       1.061  -3.385  -0.521  1.00  0.00     0.196 HD
ENDROOT
BRANCH   2   4
ATOM      4  O   UNL d   1       2.260  -1.646  -0.102  0.00  0.00    -0.193 OA
BRANCH   4   5
ATOM      5  C   UNL d   1       1.109  -0.921  -0.345  0.00  0.00     0.325 C 
ATOM      6  O   UNL d   1       0.039  -1.411  -0.690  0.00  0.00    -0.257 OA
BRANCH   5   7
ATOM      7  C   UNL d   1       1.314   0.492  -0.145  0.00  0.00     0.119 A 
ATOM      8  C   UNL d   1       0.431   1.552  -0.328  0.00  0.00     0.043 A 
ATOM      9  N   UNL d   1       0.964   2.804  -0.033  0.00  0.00    -0.296 N 
ATOM     10  C   UNL d   1      -0.981   1.518  -0.793  0.00  0.00     0.071 C 
ATOM     11  N   UNL d   1       2.219   2.727   0.372  0.00  0.00    -0.061 NA
ATOM     12  HN  UNL d   1       0.446   3.678  -0.118  1.00  0.00     0.183 HD
ATOM     13  S   UNL d   1       2.790   1.161   0.409  0.00  0.00     0.008 SA
ENDBRANCH   5   7
ENDBRANCH   4   5
ENDBRANCH   2   4
BRANCH   1  14
ATOM     14  C   UNL d   1       2.807  -5.215  -0.067  0.00  0.00     0.097 A 
ATOM     15  N   UNL d   1       3.824  -6.074   0.130  0.00  0.00    -0.258 N 
ATOM     16  O   UNL d   1       3.279  -7.341   0.002  0.00  0.00    -0.242 OA
ATOM     17  HN  UNL d   1       4.796  -5.840   0.331  1.00  0.00     0.195 HD
ATOM     18  C   UNL d   1       1.954  -7.242  -0.284  0.00  0.00     0.074 A 
ATOM     19  C   UNL d   1       1.607  -5.918  -0.354  0.00  0.00     0.069 A 
ATOM     20  C   UNL d   1       1.215  -8.508  -0.439  0.00  0.00     0.079 C 
ENDBRANCH   1  14
BRANCH   1  21
ATOM     21  N   UNL d   1       4.269  -3.382   0.340  0.00  0.00    -0.285 NA
ATOM     22  H   UNL d   1       4.971  -4.109   0.211  0.00  0.00     0.125 HD
ATOM     23  H   UNL d   1       4.546  -2.472  -0.001  0.00  0.00     0.125 HD
ENDBRANCH   1  21
TORSDOF 5
