REMARK  4 active torsions:
REMARK  status: ('A' for Active; 'I' for Inactive)
REMARK    1  A    between atoms: C_2  and  C_1 
REMARK    2  A    between atoms: C_3  and  C_2 
REMARK    3  A    between atoms: S_7  and  C_4 
REMARK    4  A    between atoms: S_8  and  C_4 
ROOT
ATOM      1  C   UNL d   1       0.350  -0.834   0.923  0.00  0.00     0.186 C 
ATOM      2  O   UNL d   1       0.810  -1.612   1.748  0.00  0.00    -0.287 OA
ENDROOT
BRANCH   1   3
ATOM      3  C   UNL d   1       1.184   0.025   0.039  0.00  0.00     0.081 C 
ATOM      4  C   UNL d   1       2.465  -0.152  -0.330  0.00  0.00     0.040 C 
BRANCH   4   5
ATOM      5  S   UNL d   1       3.156   1.062  -1.397  0.00  0.00    -0.127 SA
ATOM      6  C   UNL d   1       4.551   1.646  -0.403  0.00  0.00     0.096 C 
ENDBRANCH   4   5
BRANCH   4   7
ATOM      7  S   UNL d   1       3.464  -1.509   0.101  0.00  0.00    -0.127 SA
ATOM      8  C   UNL d   1       2.542  -2.875  -0.642  0.00  0.00     0.096 C 
ENDBRANCH   4   7
ENDBRANCH   1   3
BRANCH   1   9
ATOM      9  C   UNL d   1      -1.122  -0.640   0.854  0.00  0.00     0.052 A 
ATOM     10  C   UNL d   1      -1.781  -0.336  -0.339  0.00  0.00     0.130 A 
ATOM     11  F   UNL d   1      -1.116  -0.282  -1.502  0.00  0.00    -0.205 F 
ATOM     12  C   UNL d   1      -3.152  -0.091  -0.355  0.00  0.00     0.043 A 
ATOM     13  C   UNL d   1      -3.882  -0.166   0.831  0.00  0.00     0.003 A 
ATOM     14  C   UNL d   1      -3.243  -0.513   2.023  0.00  0.00     0.001 A 
ATOM     15  C   UNL d   1      -1.867  -0.757   2.034  0.00  0.00     0.018 A 
ENDBRANCH   1   9
TORSDOF 4
