REMARK  3 active torsions:
REMARK  status: ('A' for Active; 'I' for Inactive)
REMARK    1  A    between atoms: C_3  and  C_1 
REMARK    2  A    between atoms: N_19  and  C_2 
REMARK    3  A    between atoms: C_10  and  C_8 
ROOT
ATOM      1  C   UNL d   1       0.853   1.695  -3.192  0.00  0.00     0.155 A 
ATOM      2  C   UNL d   1       0.237   0.454  -1.366  0.00  0.00     0.121 A 
ATOM      3  N   UNL d   1       0.800   1.580  -1.867  0.00  0.00    -0.329 N 
ATOM      4  HN  UNL d   1       1.167   2.309  -1.255  1.00  0.00     0.168 HD
ATOM      5  N   UNL d   1       0.354   0.808  -4.051  0.00  0.00    -0.332 N 
ATOM      6  HN  UNL d   1       0.405   0.966  -5.057  1.00  0.00     0.168 HD
ATOM      7  C   UNL d   1      -0.219  -0.308  -3.550  0.00  0.00     0.046 A 
ATOM      8  C   UNL d   1      -0.290  -0.526  -2.189  0.00  0.00     0.064 A 
ENDROOT
BRANCH   7   9
ATOM      9  C   UNL d   1      -0.736  -1.269  -4.550  0.00  0.00    -0.009 A 
ATOM     10  C   UNL d   1      -1.835  -2.109  -4.290  0.00  0.00     0.021 A 
ATOM     11  C   UNL d   1      -2.320  -3.022  -5.246  0.00  0.00    -0.051 A 
ATOM     12  C   UNL d   1      -3.479  -3.919  -4.881  0.00  0.00     0.039 C 
ATOM     13  C   UNL d   1      -1.685  -3.119  -6.494  0.00  0.00    -0.052 A 
ATOM     14  C   UNL d   1      -4.147  -4.567  -6.093  0.00  0.00     0.005 C 
ATOM     15  C   UNL d   1      -3.098  -5.155  -7.028  0.00  0.00     0.005 C 
ATOM     16  C   UNL d   1      -2.187  -4.054  -7.567  0.00  0.00     0.039 C 
ATOM     17  C   UNL d   1      -0.603  -2.279  -6.774  0.00  0.00     0.008 A 
ATOM     18  C   UNL d   1      -0.138  -1.372  -5.817  0.00  0.00     0.014 A 
ENDBRANCH   7   9
BRANCH   1  19
ATOM     19  N   UNL d   1       1.438   2.828  -3.710  0.00  0.00    -0.274 NA
ATOM     20  H   UNL d   1       1.400   3.583  -3.039  0.00  0.00     0.127 HD
ATOM     21  H   UNL d   1       1.083   3.010  -4.638  0.00  0.00     0.127 HD
ENDBRANCH   1  19
BRANCH   2  22
ATOM     22  C   UNL d   1       0.190   0.248   0.138  0.00  0.00     0.432 C 
ATOM     23  F   UNL d   1       0.740   1.259   0.865  0.00  0.00    -0.165 F 
ATOM     24  F   UNL d   1       0.840  -0.888   0.525  0.00  0.00    -0.165 F 
ATOM     25  F   UNL d   1      -1.087   0.109   0.600  0.00  0.00    -0.165 F 
ENDBRANCH   2  22
TORSDOF 3
