REMARK  7 active torsions:
REMARK  status: ('A' for Active; 'I' for Inactive)
REMARK    1  A    between atoms: C_7  and  C_1 
REMARK    2  A    between atoms: C_9  and  N_2 
REMARK       I    between atoms: N_13  and  C_7 
REMARK    3  A    between atoms: C_8  and  C_18 
REMARK    4  A    between atoms: C_28  and  N_13 
REMARK    5  A    between atoms: C_18  and  S_23 
REMARK    6  A    between atoms: S_23  and  C_29 
REMARK    7  A    between atoms: C_29  and  C_28 
ROOT
ATOM      1  C   UNL d   1      -0.797   2.591   0.037  0.00  0.00     0.255 C 
ATOM      2  O   UNL d   1      -0.017   3.530   0.138  0.00  0.00    -0.268 OA
ATOM      3  N   UNL d   1      -2.156   2.792  -0.053  0.00  0.00    -0.356 N 
ATOM      4  H   UNL d   1      -2.793   2.017   0.066  0.00  0.00     0.162 HD
ENDROOT
BRANCH   1   5
ATOM      5  C   UNL d   1      -0.343   1.204  -0.002  0.00  0.00     0.073 A 
ATOM      6  C   UNL d   1       0.990   0.796   0.030  0.00  0.00     0.048 A 
ATOM      7  N   UNL d   1       0.986  -0.591  -0.037  0.00  0.00    -0.260 N 
ATOM      8  C   UNL d   1       2.203   1.662   0.005  0.00  0.00     0.071 C 
ATOM      9  N   UNL d   1      -0.270  -1.069  -0.245  0.00  0.00    -0.304 N 
ATOM     10  C   UNL d   1      -1.059   0.001  -0.147  0.00  0.00     0.126 A 
ATOM     11  HN  UNL d   1      -0.548  -2.033  -0.433  1.00  0.00     0.186 HD
BRANCH   7  12
ATOM     12  C   UNL d   1       2.082  -1.497   0.031  0.00  0.00     0.056 A 
ATOM     13  C   UNL d   1       3.217  -1.205   0.797  0.00  0.00     0.033 A 
ATOM     14  C   UNL d   1       4.323  -2.058   0.769  0.00  0.00     0.026 A 
ATOM     15  C   UNL d   1       4.287  -3.215  -0.007  0.00  0.00     0.034 A 
ATOM     16  C   UNL d   1       3.141  -3.545  -0.727  0.00  0.00     0.026 A 
ATOM     17 CL   UNL d   1       5.669  -4.237  -0.074  0.00  0.00    -0.084 Cl
ATOM     18  C   UNL d   1       2.028  -2.698  -0.695  0.00  0.00     0.033 A 
ENDBRANCH   7  12
ENDBRANCH   1   5
BRANCH   3  19
ATOM     19  C   UNL d   1      -2.688   4.141   0.064  0.00  0.00     0.133 C 
BRANCH  19  20
ATOM     20  C   UNL d   1      -4.215   4.191   0.104  0.00  0.00     0.093 C 
BRANCH  20  21
ATOM     21  S   UNL d   1      -4.823   3.281   1.567  0.00  0.00    -0.163 SA
BRANCH  21  22
ATOM     22  C   UNL d   1      -6.610   3.558   1.367  0.00  0.00     0.117 C 
BRANCH  22  23
ATOM     23  C   UNL d   1      -7.382   2.983   2.525  0.00  0.00     0.011 A 
ATOM     24  C   UNL d   1      -7.852   1.665   2.445  0.00  0.00     0.125 A 
ATOM     25  F   UNL d   1      -7.614   0.939   1.342  0.00  0.00    -0.205 F 
ATOM     26  C   UNL d   1      -8.573   1.074   3.481  0.00  0.00     0.043 A 
ATOM     27  C   UNL d   1      -8.836   1.798   4.639  0.00  0.00     0.005 A 
ATOM     28  C   UNL d   1      -8.362   3.104   4.754  0.00  0.00     0.024 A 
ATOM     29  C   UNL d   1      -7.637   3.691   3.708  0.00  0.00     0.044 A 
ATOM     30 CL   UNL d   1      -7.081   5.311   3.942  0.00  0.00    -0.084 Cl
ENDBRANCH  22  23
ENDBRANCH  21  22
ENDBRANCH  20  21
ENDBRANCH  19  20
ENDBRANCH   3  19
TORSDOF 7
