REMARK  2 active torsions:
REMARK  status: ('A' for Active; 'I' for Inactive)
REMARK    1  A    between atoms: S_8  and  C_2 
REMARK    2  A    between atoms: C_7  and  C_5 
ROOT
ATOM      1  N   UNL d   1       0.945   0.615   0.028  0.00  0.00    -0.335 N 
ATOM      2  C   UNL d   1      -0.337   1.077   0.008  0.00  0.00     0.144 A 
ATOM      3  N   UNL d   1      -1.212   0.106  -0.030  0.00  0.00    -0.344 N 
ATOM      4  HN  UNL d   1      -2.229   0.182  -0.052  1.00  0.00     0.167 HD
ATOM      5  C   UNL d   1       0.902  -0.762   0.006  0.00  0.00     0.060 A 
ATOM      6  C   UNL d   1      -0.455  -1.040  -0.032  0.00  0.00     0.120 A 
ATOM      7  H   UNL d   1       1.767   1.196   0.038  0.00  0.00     0.168 HD
ENDROOT
BRANCH   5   8
ATOM      8  C   UNL d   1       2.072  -1.635   0.021  0.00  0.00    -0.008 A 
ATOM      9  C   UNL d   1       3.266  -1.246   0.646  0.00  0.00     0.015 A 
ATOM     10  C   UNL d   1       4.362  -2.115   0.692  0.00  0.00     0.024 A 
ATOM     11  C   UNL d   1       4.274  -3.376   0.108  0.00  0.00     0.034 A 
ATOM     12  C   UNL d   1       3.103  -3.773  -0.530  0.00  0.00     0.024 A 
ATOM     13 CL   UNL d   1       5.614  -4.450   0.184  0.00  0.00    -0.084 Cl
ATOM     14  C   UNL d   1       2.007  -2.906  -0.571  0.00  0.00     0.015 A 
ENDBRANCH   5   8
BRANCH   2  15
ATOM     15  S   UNL d   1      -0.636   2.773   0.030  0.00  0.00    -0.098 SA
ATOM     16  C   UNL d   1      -2.444   2.789  -0.013  0.00  0.00     0.099 C 
ENDBRANCH   2  15
TORSDOF 2
