REMARK  3 active torsions:
REMARK  status: ('A' for Active; 'I' for Inactive)
REMARK    1  A    between atoms: C_6  and  C_1 
REMARK    2  A    between atoms: S_10  and  C_3 
REMARK    3  A    between atoms: C_12  and  C_6 
ROOT
ATOM      1  N   UNL d   1      -4.344  -1.587  -2.967  0.00  0.00    -0.197 NA
ATOM      2  C   UNL d   1      -4.192  -1.889  -1.857  0.00  0.00     0.067 C 
ATOM      3  C   UNL d   1      -4.007  -2.257  -0.457  0.00  0.00     0.208 C 
ENDROOT
BRANCH   3   4
ATOM      4  C   UNL d   1      -2.543  -2.193  -0.077  0.00  0.00     0.179 C 
ATOM      5  O   UNL d   1      -1.975  -3.245   0.230  0.00  0.00    -0.291 OA
BRANCH   4   6
ATOM      6  C   UNL d   1      -1.841  -0.905  -0.069  0.00  0.00     0.060 A 
ATOM      7  S   UNL d   1      -2.689   0.582  -0.050  0.00  0.00    -0.078 SA
ATOM      8  C   UNL d   1      -1.257   1.517   0.001  0.00  0.00     0.052 A 
ATOM      9  C   UNL d   1      -0.142   0.704  -0.007  0.00  0.00    -0.005 A 
ATOM     10  C   UNL d   1      -0.468  -0.695  -0.031  0.00  0.00    -0.025 A 
ATOM     11  C   UNL d   1       1.222   1.127   0.042  0.00  0.00     0.010 A 
ATOM     12  C   UNL d   1       0.592  -1.766   0.007  0.00  0.00     0.045 A 
ATOM     13  C   UNL d   1       2.042  -1.245  -0.041  0.00  0.00     0.032 A 
ATOM     14  C   UNL d   1       2.234   0.247   0.022  0.00  0.00    -0.025 A 
BRANCH   8  15
ATOM     15  S   UNL d   1      -1.363   3.270   0.146  0.00  0.00    -0.126 SA
ATOM     16  C   UNL d   1      -0.710   3.818  -1.446  0.00  0.00     0.096 C 
ENDBRANCH   8  15
ENDBRANCH   4   6
ENDBRANCH   3   4
TORSDOF 3
