REMARK  7 active torsions:
REMARK  status: ('A' for Active; 'I' for Inactive)
REMARK    1  A    between atoms: C_11  and  C_1 
REMARK    2  A    between atoms: C_16  and  C_5 
REMARK    3  A    between atoms: C_7  and  C_12 
REMARK    4  A    between atoms: S_18  and  C_10 
REMARK    5  A    between atoms: C_13  and  C_27 
REMARK       I    between atoms: N_17  and  C_13 
REMARK    6  A    between atoms: C_28  and  N_17 
REMARK    7  A    between atoms: C_27  and  S_18 
ROOT
ATOM      1  N   UNL d   1      -1.111   3.265  -0.629  0.00  0.00    -0.334 N 
ATOM      2  HN  UNL d   1      -0.352   3.139  -1.299  1.00  0.00     0.168 HD
ATOM      3  C   UNL d   1      -1.718   4.446  -0.459  0.00  0.00     0.145 A 
ATOM      4  C   UNL d   1      -1.563   2.250   0.136  0.00  0.00     0.071 A 
ATOM      5  N   UNL d   1      -2.713   4.693   0.400  0.00  0.00    -0.347 N 
ATOM      6  HN  UNL d   1      -3.139   5.616   0.480  1.00  0.00     0.167 HD
ATOM      7  C   UNL d   1      -2.569   2.402   1.067  0.00  0.00     0.049 A 
ATOM      8  C   UNL d   1      -3.122   3.657   1.151  0.00  0.00     0.092 A 
ENDROOT
BRANCH   3   9
ATOM      9  S   UNL d   1      -0.982   5.815  -1.311  0.00  0.00    -0.085 SA
BRANCH   9  10
ATOM     10  C   UNL d   1      -0.837   6.955   0.091  0.00  0.00     0.185 C 
BRANCH  10  11
ATOM     11  C   UNL d   1       0.075   6.508   1.230  0.00  0.00     0.231 C 
ATOM     12  N   UNL d   1       0.818   5.357   1.033  0.00  0.00    -0.327 N 
ATOM     13  H   UNL d   1       0.808   4.965   0.098  0.00  0.00     0.169 HD
ATOM     14  O   UNL d   1       0.118   7.204   2.247  0.00  0.00    -0.272 OA
BRANCH  12  15
ATOM     15  C   UNL d   1       1.545   4.638   2.006  0.00  0.00     0.034 A 
ATOM     16  C   UNL d   1       1.546   4.962   3.366  0.00  0.00     0.030 A 
ATOM     17  C   UNL d   1       2.240   4.175   4.290  0.00  0.00     0.018 A 
ATOM     18  C   UNL d   1       2.952   3.042   3.877  0.00  0.00     0.048 A 
ATOM     19  C   UNL d   1       2.967   2.725   2.511  0.00  0.00     0.018 A 
ATOM     20  C   UNL d   1       2.264   3.514   1.585  0.00  0.00     0.030 A 
BRANCH  18  21
ATOM     21  C   UNL d   1       3.668   2.172   4.880  0.00  0.00     0.417 C 
ATOM     22  F   UNL d   1       3.530   2.596   6.168  0.00  0.00    -0.166 F 
ATOM     23  F   UNL d   1       3.219   0.887   4.864  0.00  0.00    -0.166 F 
ATOM     24  F   UNL d   1       5.008   2.104   4.651  0.00  0.00    -0.166 F 
ENDBRANCH  18  21
ENDBRANCH  12  15
ENDBRANCH  10  11
ENDBRANCH   9  10
ENDBRANCH   3   9
BRANCH   4  25
ATOM     25  C   UNL d   1      -0.913   0.978  -0.116  0.00  0.00     0.127 A 
ATOM     26  C   UNL d   1       0.054   0.542  -0.991  0.00  0.00     0.074 A 
ATOM     27  C   UNL d   1       0.179  -0.851  -0.741  0.00  0.00     0.068 A 
ATOM     28  N   UNL d   1      -0.641  -1.214   0.258  0.00  0.00    -0.260 N 
ATOM     29  O   UNL d   1      -1.321  -0.077   0.638  0.00  0.00    -0.235 OA
ATOM     30  HN  UNL d   1      -0.741  -2.147   0.658  1.00  0.00     0.195 HD
BRANCH  27  31
ATOM     31  C   UNL d   1       1.038  -1.823  -1.416  0.00  0.00    -0.007 A 
ATOM     32  C   UNL d   1       1.414  -3.011  -0.768  0.00  0.00     0.015 A 
ATOM     33  C   UNL d   1       2.241  -3.941  -1.403  0.00  0.00     0.024 A 
ATOM     34  C   UNL d   1       2.694  -3.692  -2.696  0.00  0.00     0.034 A 
ATOM     35  C   UNL d   1       2.321  -2.526  -3.361  0.00  0.00     0.024 A 
ATOM     36 CL   UNL d   1       3.718  -4.831  -3.478  0.00  0.00    -0.084 Cl
ATOM     37  C   UNL d   1       1.496  -1.594  -2.723  0.00  0.00     0.015 A 
ENDBRANCH  27  31
ENDBRANCH   4  25
TORSDOF 7
