REMARK  10 active torsions:
REMARK  status: ('A' for Active; 'I' for Inactive)
REMARK    1  A    between atoms: C_9  and  C_1 
REMARK    2  A    between atoms: S_14  and  C_5 
REMARK    3  A    between atoms: C_8  and  C_12 
REMARK    4  A    between atoms: C_13  and  C_8 
REMARK    5  A    between atoms: N_15  and  N_10 
REMARK    6  A    between atoms: C_12  and  C_17 
REMARK    7  A    between atoms: O_29  and  C_13 
REMARK    8  A    between atoms: C_17  and  S_14 
REMARK    9  A    between atoms: C_16  and  N_15 
REMARK   10  A    between atoms: C_32  and  O_29 
ROOT
ATOM      1  C   UNL d   1       1.988  -5.374  -0.217  0.00  0.00     0.170 C 
ATOM      2  N   UNL d   1       2.345  -6.591   0.102  0.00  0.00    -0.292 N 
ATOM      3  HN  UNL d   1       1.659  -7.293   0.378  1.00  0.00     0.187 HD
ENDROOT
BRANCH   1   4
ATOM      4  C   UNL d   1       0.510  -5.061  -0.226  0.00  0.00     0.193 C 
ATOM      5  O   UNL d   1       0.148  -4.089  -0.882  0.00  0.00    -0.290 OA
BRANCH   4   6
ATOM      6  C   UNL d   1      -0.386  -5.960   0.605  0.00  0.00     0.168 C 
BRANCH   6   7
ATOM      7  S   UNL d   1      -2.139  -5.722   0.154  0.00  0.00    -0.085 SA
BRANCH   7   8
ATOM      8  C   UNL d   1      -2.876  -7.107   0.880  0.00  0.00     0.163 A 
ATOM      9  N   UNL d   1      -4.211  -7.416   0.759  0.00  0.00    -0.312 N 
ATOM     10  C   UNL d   1      -4.362  -8.650   1.347  0.00  0.00     0.209 A 
ATOM     11  C   UNL d   1      -5.205  -6.565   0.150  0.00  0.00     0.160 C 
ATOM     12  N   UNL d   1      -3.198  -8.996   1.878  0.00  0.00    -0.279 N 
ATOM     13  N   UNL d   1      -2.271  -8.032   1.580  0.00  0.00    -0.278 N 
ATOM     14  HN  UNL d   1      -3.021  -9.842   2.420  1.00  0.00     0.188 HD
ATOM     15  HN  UNL d   1      -1.289  -8.035   1.854  1.00  0.00     0.189 HD
BRANCH  10  16
ATOM     16  C   UNL d   1      -5.602  -9.475   1.377  0.00  0.00     0.450 C 
ATOM     17  F   UNL d   1      -6.579  -9.018   0.551  0.00  0.00    -0.163 F 
ATOM     18  F   UNL d   1      -5.369 -10.757   0.994  0.00  0.00    -0.163 F 
ATOM     19  F   UNL d   1      -6.149  -9.526   2.619  0.00  0.00    -0.163 F 
ENDBRANCH  10  16
ENDBRANCH   7   8
ENDBRANCH   6   7
ENDBRANCH   4   6
ENDBRANCH   1   4
BRANCH   1  20
ATOM     20  C   UNL d   1       3.004  -4.313  -0.595  0.00  0.00     0.315 C 
ATOM     21  O   UNL d   1       3.879  -4.526  -1.418  0.00  0.00    -0.257 OA
BRANCH  20  22
ATOM     22  O   UNL d   1       2.836  -3.217   0.169  0.00  0.00    -0.317 OA
BRANCH  22  23
ATOM     23  C   UNL d   1       3.777  -2.155  -0.057  0.00  0.00     0.175 C 
ATOM     24  C   UNL d   1       4.942  -2.289   0.905  0.00  0.00     0.034 C 
ENDBRANCH  22  23
ENDBRANCH  20  22
ENDBRANCH   1  20
BRANCH   2  25
ATOM     25  N   UNL d   1       3.676  -6.877   0.047  0.00  0.00    -0.300 N 
ATOM     26  H   UNL d   1       4.247  -6.456  -0.698  0.00  0.00     0.187 HD
BRANCH  25  27
ATOM     27  C   UNL d   1       4.111  -8.164   0.430  0.00  0.00     0.051 A 
ATOM     28  C   UNL d   1       3.275  -9.072   1.093  0.00  0.00     0.054 A 
ATOM     29  C   UNL d   1       3.776 -10.287   1.563  0.00  0.00     0.037 A 
ATOM     30 CL   UNL d   1       2.728 -11.384   2.374  0.00  0.00    -0.084 Cl
ATOM     31  C   UNL d   1       5.118 -10.613   1.399  0.00  0.00     0.048 A 
ATOM     32  C   UNL d   1       5.957  -9.712   0.754  0.00  0.00     0.037 A 
ATOM     33  C   UNL d   1       5.465  -8.495   0.277  0.00  0.00     0.054 A 
ATOM     34 CL   UNL d   1       7.626 -10.088   0.562  0.00  0.00    -0.084 Cl
ENDBRANCH  25  27
ENDBRANCH   2  25
TORSDOF 10
