REMARK  8 active torsions:
REMARK  status: ('A' for Active; 'I' for Inactive)
REMARK    1  A    between atoms: C_9  and  S_1 
REMARK    2  A    between atoms: C_10  and  S_1 
REMARK    3  A    between atoms: C_4  and  S_14 
REMARK    4  A    between atoms: O_18  and  C_5 
REMARK    5  A    between atoms: C_17  and  C_10 
REMARK    6  A    between atoms: C_23  and  C_13 
REMARK    7  A    between atoms: S_14  and  C_17 
REMARK    8  A    between atoms: O_22  and  C_23 
ROOT
ATOM      1  N   UNL d   1       0.818   5.903  -3.571  0.00  0.00    -0.318 N 
ATOM      2  HN  UNL d   1       0.221   5.730  -4.380  1.00  0.00     0.170 HD
ATOM      3  C   UNL d   1       1.032   4.978  -2.623  0.00  0.00     0.146 A 
ATOM      4  C   UNL d   1       1.443   7.067  -3.376  0.00  0.00     0.143 A 
ATOM      5  N   UNL d   1       1.813   5.152  -1.542  0.00  0.00    -0.338 N 
ATOM      6  HN  UNL d   1       1.945   4.407  -0.858  1.00  0.00     0.168 HD
ATOM      7  C   UNL d   1       2.258   7.369  -2.321  0.00  0.00     0.083 A 
ATOM      8  C   UNL d   1       2.417   6.357  -1.399  0.00  0.00     0.039 A 
ENDROOT
BRANCH   3   9
ATOM      9  S   UNL d   1       0.253   3.395  -2.880  0.00  0.00    -0.093 SA
BRANCH   9  10
ATOM     10  C   UNL d   1       0.773   2.497  -1.374  0.00  0.00     0.097 C 
BRANCH  10  11
ATOM     11  C   UNL d   1       0.260   1.063  -1.427  0.00  0.00     0.156 C 
BRANCH  11  12
ATOM     12  S   UNL d   1       0.752   0.182   0.040  0.00  0.00     0.176 S 
ATOM     13  O   UNL d   1       2.199   0.048   0.029  0.00  0.00    -0.223 OA
ATOM     14  O   UNL d   1       0.080   0.782   1.179  0.00  0.00    -0.223 OA
BRANCH  12  15
ATOM     15  C   UNL d   1       0.063  -1.450  -0.172  0.00  0.00     0.059 A 
ATOM     16  C   UNL d   1       0.849  -2.465  -0.728  0.00  0.00     0.024 A 
ATOM     17  C   UNL d   1       0.327  -3.757  -0.839  0.00  0.00     0.008 A 
ATOM     18  C   UNL d   1      -0.973  -4.044  -0.400  0.00  0.00    -0.062 A 
ATOM     19  C   UNL d   1      -1.740  -3.021   0.173  0.00  0.00     0.008 A 
ATOM     20  C   UNL d   1      -1.511  -5.442  -0.523  0.00  0.00     0.048 C 
ATOM     21  C   UNL d   1      -1.224  -1.728   0.295  0.00  0.00     0.024 A 
ENDBRANCH  12  15
ENDBRANCH  11  12
ENDBRANCH  10  11
ENDBRANCH   9  10
ENDBRANCH   3   9
BRANCH   4  22
ATOM     22  O   UNL d   1       1.231   7.988  -4.353  0.00  0.00    -0.346 OA
ATOM     23  H   UNL d   1       0.631   7.496  -4.942  0.00  0.00     0.219 HD
ENDBRANCH   4  22
BRANCH   8  24
ATOM     24  C   UNL d   1       3.329   6.548  -0.210  0.00  0.00     0.224 C 
BRANCH  24  25
ATOM     25  O   UNL d   1       2.923   7.687   0.551  0.00  0.00    -0.390 OA
ATOM     26  C   UNL d   1       3.754   7.866   1.691  0.00  0.00     0.201 C 
ENDBRANCH  24  25
ENDBRANCH   8  24
TORSDOF 8
