REMARK  4 active torsions:
REMARK  status: ('A' for Active; 'I' for Inactive)
REMARK    1  A    between atoms: C_8  and  C_1 
REMARK    2  A    between atoms: C_12  and  C_7 
REMARK    3  A    between atoms: C_9  and  O_11 
REMARK    4  A    between atoms: O_11  and  C_10 
ROOT
ATOM      1  C   UNL d   1      -0.018  -1.006   0.112  0.00  0.00     0.177 A 
ATOM      2  O   UNL d   1      -0.056  -0.435   1.358  0.00  0.00    -0.273 OA
ATOM      3  N   UNL d   1       0.412  -0.176  -0.816  0.00  0.00    -0.277 N 
ATOM      4  HN  UNL d   1       0.528  -0.376  -1.809  1.00  0.00     0.189 HD
ATOM      5  N   UNL d   1       0.675   1.019  -0.175  0.00  0.00    -0.277 N 
ATOM      6  HN  UNL d   1       1.033   1.873  -0.602  1.00  0.00     0.189 HD
ATOM      7  C   UNL d   1       0.374   0.839   1.094  0.00  0.00     0.174 A 
ENDROOT
BRANCH   1   8
ATOM      8  C   UNL d   1      -0.552  -2.353   0.003  0.00  0.00     0.050 A 
ATOM      9  C   UNL d   1      -1.303  -2.782  -1.107  0.00  0.00     0.092 A 
ATOM     10  C   UNL d   1      -1.740  -4.113  -1.184  0.00  0.00     0.038 A 
ATOM     11  C   UNL d   1      -1.455  -5.017  -0.157  0.00  0.00     0.003 A 
ATOM     12  C   UNL d   1      -0.726  -4.598   0.950  0.00  0.00     0.001 A 
ATOM     13  C   UNL d   1      -0.284  -3.276   1.033  0.00  0.00     0.018 A 
BRANCH   9  14
ATOM     14  O   UNL d   1      -1.524  -2.030  -2.228  0.00  0.00    -0.254 OA
BRANCH  14  15
ATOM     15  C   UNL d   1      -2.354  -0.881  -2.077  0.00  0.00     0.530 C 
ATOM     16  F   UNL d   1      -2.562  -0.524  -0.791  0.00  0.00    -0.144 F 
ATOM     17  F   UNL d   1      -1.797   0.155  -2.738  0.00  0.00    -0.144 F 
ATOM     18  F   UNL d   1      -3.559  -1.132  -2.639  0.00  0.00    -0.144 F 
ENDBRANCH  14  15
ENDBRANCH   9  14
ENDBRANCH   1   8
BRANCH   7  19
ATOM     19  C   UNL d   1       0.398   1.780   2.204  0.00  0.00     0.019 A 
ATOM     20  C   UNL d   1       0.053   1.400   3.508  0.00  0.00     0.033 A 
ATOM     21  C   UNL d   1       0.090   2.359   4.506  0.00  0.00     0.088 A 
ATOM     22  N   UNL d   1       0.439   3.645   4.299  0.00  0.00    -0.375 N 
ATOM     23  C   UNL d   1       0.765   3.995   3.039  0.00  0.00     0.088 A 
ATOM     24  HN  UNL d   1       0.455   4.323   5.061  1.00  0.00     0.164 HD
ATOM     25  C   UNL d   1       0.760   3.111   1.973  0.00  0.00     0.033 A 
ENDBRANCH   7  19
TORSDOF 4
