REMARK  2 active torsions:
REMARK  status: ('A' for Active; 'I' for Inactive)
REMARK    1  A    between atoms: C_9  and  N_2 
REMARK    2  A    between atoms: C_11  and  C_9 
ROOT
ATOM      1  S   UNL d   1      -2.508   0.608  -0.696  0.00  0.00     0.240 S 
ATOM      2  N   UNL d   1      -1.262   1.375   0.143  0.00  0.00    -0.270 N 
ATOM      3  C   UNL d   1      -2.512  -0.899   0.206  0.00  0.00     0.247 C 
ATOM      4  C   UNL d   1       0.013   0.699   0.103  0.00  0.00     0.059 A 
ATOM      5  C   UNL d   1      -1.170  -1.546   0.106  0.00  0.00     0.177 C 
ATOM      6  C   UNL d   1       0.065  -0.709   0.065  0.00  0.00     0.038 A 
ATOM      7  O   UNL d   1      -2.077   0.359  -2.053  0.00  0.00    -0.205 OA
ATOM      8  O   UNL d   1      -3.757   1.285  -0.416  0.00  0.00    -0.205 OA
ATOM      9  O   UNL d   1      -1.069  -2.774   0.150  0.00  0.00    -0.291 OA
ATOM     10  C   UNL d   1       1.300  -1.374  -0.001  0.00  0.00     0.017 A 
ATOM     11  C   UNL d   1       1.220   1.408   0.133  0.00  0.00     0.031 A 
ATOM     12  C   UNL d   1       2.488  -0.650  -0.004  0.00  0.00     0.001 A 
ATOM     13  C   UNL d   1       2.448   0.738   0.074  0.00  0.00     0.002 A 
ENDROOT
BRANCH   2  14
ATOM     14  C   UNL d   1      -1.429   2.807   0.466  0.00  0.00     0.180 C 
BRANCH  14  15
ATOM     15  C   UNL d   1      -1.347   3.057   1.956  0.00  0.00    -0.039 A 
ATOM     16  C   UNL d   1      -0.329   3.853   2.499  0.00  0.00     0.009 A 
ATOM     17  C   UNL d   1      -0.207   3.999   3.882  0.00  0.00     0.001 A 
ATOM     18  C   UNL d   1      -1.108   3.364   4.735  0.00  0.00     0.000 A 
ATOM     19  C   UNL d   1      -2.154   2.611   4.207  0.00  0.00     0.001 A 
ATOM     20  C   UNL d   1      -2.278   2.465   2.824  0.00  0.00     0.009 A 
ENDBRANCH  14  15
ENDBRANCH   2  14
TORSDOF 2
