REMARK  4 active torsions:
REMARK  status: ('A' for Active; 'I' for Inactive)
REMARK    1  A    between atoms: C_2  and  S_1 
REMARK    2  A    between atoms: O_9  and  S_1 
REMARK    3  A    between atoms: N_5  and  C_12 
REMARK    4  A    between atoms: C_17  and  O_9 
ROOT
ATOM      1  S   UNL d   1       1.007   0.020   0.083  0.00  0.00     0.304 S 
ATOM      2  O   UNL d   1       0.471   0.721  -1.068  0.00  0.00    -0.193 OA
ATOM      3  O   UNL d   1       2.436   0.022   0.342  0.00  0.00    -0.193 OA
ENDROOT
BRANCH   1   4
ATOM      4  C   UNL d   1       0.420  -1.700  -0.039  0.00  0.00     0.099 A 
ATOM      5  C   UNL d   1      -0.986  -1.940   0.014  0.00  0.00    -0.031 A 
ATOM      6  C   UNL d   1      -1.461  -3.281  -0.021  0.00  0.00    -0.048 A 
ATOM      7  C   UNL d   1      -2.021  -0.836   0.054  0.00  0.00     0.050 C 
ATOM      8  C   UNL d   1      -2.945  -3.601  -0.039  0.00  0.00     0.049 C 
ATOM      9  C   UNL d   1      -0.545  -4.366  -0.044  0.00  0.00    -0.049 A 
ATOM     10  C   UNL d   1       0.848  -4.120  -0.114  0.00  0.00    -0.048 A 
ATOM     11  C   UNL d   1      -1.091  -5.782  -0.014  0.00  0.00     0.049 C 
ATOM     12  C   UNL d   1       1.338  -2.783  -0.177  0.00  0.00    -0.031 A 
ATOM     13  C   UNL d   1       1.793  -5.307  -0.133  0.00  0.00     0.049 C 
ATOM     14  C   UNL d   1       2.826  -2.602  -0.381  0.00  0.00     0.050 C 
ENDBRANCH   1   4
BRANCH   1  15
ATOM     15  O   UNL d   1       0.301   0.591   1.443  0.00  0.00    -0.229 OA
BRANCH  15  16
ATOM     16  C   UNL d   1       0.503   1.878   1.882  0.00  0.00     0.089 A 
ATOM     17  C   UNL d   1      -0.465   2.365   2.767  0.00  0.00     0.040 A 
ATOM     18  C   UNL d   1      -0.362   3.657   3.292  0.00  0.00     0.039 A 
ATOM     19  C   UNL d   1       0.726   4.460   2.937  0.00  0.00     0.103 A 
ATOM     20  C   UNL d   1       1.711   3.980   2.066  0.00  0.00     0.039 A 
ATOM     21  C   UNL d   1       1.593   2.686   1.541  0.00  0.00     0.040 A 
BRANCH  19  22
ATOM     22  N   UNL d   1       0.843   5.819   3.483  0.00  0.00    -0.116 N 
ATOM     23  O   UNL d   1      -0.057   6.214   4.236  0.00  0.00    -0.532 OA
ATOM     24  O   UNL d   1       1.833   6.490   3.159  0.00  0.00    -0.532 OA
ENDBRANCH  19  22
ENDBRANCH  15  16
ENDBRANCH   1  15
TORSDOF 4
