REMARK  4 active torsions:
REMARK  status: ('A' for Active; 'I' for Inactive)
REMARK    1  A    between atoms: S_21  and  C_3 
REMARK    2  A    between atoms: C_6  and  C_4 
REMARK       I    between atoms: C_11  and  N_9 
REMARK       I    between atoms: N_14  and  C_11 
REMARK    3  A    between atoms: C_22  and  N_14 
REMARK    4  A    between atoms: O_25  and  N_18 
ROOT
ATOM      1  C   UNL d   1       0.104  -0.748  -0.058  0.00  0.00     0.020 A 
ATOM      2  C   UNL d   1       0.472   0.673  -0.086  0.00  0.00    -0.024 A 
ATOM      3  C   UNL d   1       1.210  -1.572  -0.133  0.00  0.00     0.054 A 
ATOM      4  C   UNL d   1       1.850   0.842  -0.119  0.00  0.00     0.041 A 
ATOM      5  S   UNL d   1       2.654  -0.678  -0.177  0.00  0.00    -0.080 SA
ATOM      6  C   UNL d   1      -1.298  -1.160   0.051  0.00  0.00     0.045 C 
ATOM      7  C   UNL d   1      -0.586   1.753  -0.041  0.00  0.00     0.050 C 
ATOM      8  C   UNL d   1      -2.005   1.234   0.357  0.00  0.00    -0.038 C 
ATOM      9  C   UNL d   1      -2.321  -0.109  -0.341  0.00  0.00     0.069 C 
ATOM     10  N   UNL d   1      -1.572  -2.340   0.523  0.00  0.00    -0.271 N 
ATOM     11  HN  UNL d   1      -0.863  -3.019   0.799  1.00  0.00     0.194 HD
ATOM     12  C   UNL d   1      -3.065   2.261  -0.087  0.00  0.00     0.015 C 
ATOM     13  C   UNL d   1      -2.116   1.072   1.889  0.00  0.00     0.015 C 
ENDROOT
BRANCH   4  14
ATOM     14  C   UNL d   1       2.672   2.122  -0.069  0.00  0.00     0.067 A 
ATOM     15  N   UNL d   1       2.221   3.385  -0.236  0.00  0.00    -0.289 N 
ATOM     16  N   UNL d   1       3.322   4.170   0.051  0.00  0.00    -0.216 N 
ATOM     17  HN  UNL d   1       1.286   3.689  -0.510  1.00  0.00     0.188 HD
ATOM     18  C   UNL d   1       3.311   5.587   0.073  0.00  0.00     0.345 C 
ATOM     19  C   UNL d   1       4.437   3.411   0.319  0.00  0.00     0.124 A 
ATOM     20  N   UNL d   1       2.287   6.127  -0.678  0.00  0.00    -0.307 N 
ATOM     21  O   UNL d   1       4.235   6.161   0.635  0.00  0.00    -0.245 OA
ATOM     22  H   UNL d   1       1.743   5.471  -1.233  0.00  0.00     0.170 HD
ATOM     23  C   UNL d   1       4.067   2.105   0.198  0.00  0.00     0.052 A 
BRANCH  20  24
ATOM     24  C   UNL d   1       2.154   7.516  -0.931  0.00  0.00     0.038 A 
ATOM     25  C   UNL d   1       2.705   8.496  -0.094  0.00  0.00     0.053 A 
ATOM     26  C   UNL d   1       2.563   9.852  -0.399  0.00  0.00     0.036 A 
ATOM     27 CL   UNL d   1       3.228  11.041   0.656  0.00  0.00    -0.084 Cl
ATOM     28  C   UNL d   1       1.884  10.252  -1.544  0.00  0.00     0.024 A 
ATOM     29  C   UNL d   1       1.331   9.285  -2.383  0.00  0.00     0.004 A 
ATOM     30  C   UNL d   1       1.453   7.925  -2.071  0.00  0.00     0.029 A 
ENDBRANCH  20  24
ENDBRANCH   4  14
BRANCH   3  31
ATOM     31  S   UNL d   1       1.293  -3.331  -0.238  0.00  0.00    -0.126 SA
ATOM     32  C   UNL d   1       1.603  -3.736   1.497  0.00  0.00     0.096 C 
ENDBRANCH   3  31
BRANCH  10  33
ATOM     33  O   UNL d   1      -2.951  -2.574   0.609  0.00  0.00    -0.285 OA
ATOM     34  C   UNL d   1      -3.150  -3.827   1.256  0.00  0.00     0.237 C 
ENDBRANCH  10  33
TORSDOF 4
