REMARK  6 active torsions:
REMARK  status: ('A' for Active; 'I' for Inactive)
REMARK    1  A    between atoms: C_6  and  C_1 
REMARK    2  A    between atoms: C_8  and  C_2 
REMARK    3  A    between atoms: C_10  and  N_3 
REMARK    4  A    between atoms: O_18  and  C_8 
REMARK    5  A    between atoms: N_12  and  O_18 
REMARK    6  A    between atoms: C_24  and  C_21 
ROOT
ATOM      1  N   UNL d   1      -9.334  -6.004  -3.677  0.00  0.00    -0.191 NA
ATOM      2  C   UNL d   1      -8.462  -5.605  -3.030  0.00  0.00     0.099 C 
ATOM      3  C   UNL d   1      -7.379  -5.109  -2.231  0.00  0.00     0.044 A 
ATOM      4  C   UNL d   1      -5.272  -4.142  -0.675  0.00  0.00    -0.019 A 
ATOM      5  C   UNL d   1      -6.145  -4.831  -2.826  0.00  0.00     0.023 A 
ATOM      6  C   UNL d   1      -7.556  -4.901  -0.857  0.00  0.00     0.023 A 
ATOM      7  C   UNL d   1      -5.093  -4.350  -2.049  0.00  0.00     0.014 A 
ATOM      8  C   UNL d   1      -6.503  -4.415  -0.075  0.00  0.00     0.014 A 
ENDROOT
BRANCH   4   9
ATOM      9  C   UNL d   1      -4.168  -3.579   0.125  0.00  0.00     0.126 C 
ATOM     10  N   UNL d   1      -3.015  -3.369  -0.421  0.00  0.00    -0.268 N 
ATOM     11  HN  UNL d   1      -2.757  -3.659  -1.365  1.00  0.00     0.194 HD
BRANCH  10  12
ATOM     12  O   UNL d   1      -2.169  -2.685   0.465  0.00  0.00    -0.195 OA
BRANCH  12  13
ATOM     13  C   UNL d   1      -0.913  -2.608  -0.096  0.00  0.00     0.318 C 
ATOM     14  O   UNL d   1      -0.340  -3.514  -0.687  0.00  0.00    -0.257 OA
BRANCH  13  15
ATOM     15  C   UNL d   1      -0.356  -1.275   0.035  0.00  0.00     0.091 C 
ATOM     16  C   UNL d   1       0.981  -0.891   0.001  0.00  0.00     0.158 C 
ATOM     17  N   UNL d   1       0.996   0.491   0.070  0.00  0.00    -0.251 N 
ATOM     18  N   UNL d   1      -0.254   0.975   0.312  0.00  0.00    -0.303 N 
ATOM     19  C   UNL d   1      -1.059  -0.076   0.212  0.00  0.00     0.127 C 
ATOM     20  HN  UNL d   1      -0.516   1.938   0.525  1.00  0.00     0.186 HD
BRANCH  16  21
ATOM     21  C   UNL d   1       2.196  -1.719   0.018  0.00  0.00     0.435 C 
ATOM     22  F   UNL d   1       1.963  -2.978   0.461  0.00  0.00    -0.165 F 
ATOM     23  F   UNL d   1       2.761  -1.830  -1.208  0.00  0.00    -0.165 F 
ATOM     24  F   UNL d   1       3.139  -1.212   0.852  0.00  0.00    -0.165 F 
ENDBRANCH  16  21
BRANCH  17  25
ATOM     25  C   UNL d   1       2.061   1.435  -0.065  0.00  0.00     0.057 A 
ATOM     26  C   UNL d   1       3.215   1.165  -0.809  0.00  0.00     0.033 A 
ATOM     27  C   UNL d   1       4.231   2.124  -0.908  0.00  0.00     0.026 A 
ATOM     28  C   UNL d   1       4.095   3.357  -0.275  0.00  0.00     0.034 A 
ATOM     29  C   UNL d   1       2.942   3.649   0.446  0.00  0.00     0.026 A 
ATOM     30 CL   UNL d   1       5.349   4.526  -0.400  0.00  0.00    -0.084 Cl
ATOM     31  C   UNL d   1       1.922   2.697   0.540  0.00  0.00     0.033 A 
ENDBRANCH  17  25
ENDBRANCH  13  15
ENDBRANCH  12  13
ENDBRANCH  10  12
ENDBRANCH   4   9
TORSDOF 6
