REMARK  8 active torsions:
REMARK  status: ('A' for Active; 'I' for Inactive)
REMARK    1  A    between atoms: C_3  and  C_1 
REMARK    2  A    between atoms: C_17  and  C_2 
REMARK    3  A    between atoms: N_18  and  C_8 
REMARK    4  A    between atoms: C_9  and  C_15 
REMARK    5  A    between atoms: C_10  and  C_16 
REMARK    6  A    between atoms: O_30  and  C_17 
REMARK    7  A    between atoms: C_20  and  N_18 
REMARK    8  A    between atoms: C_32  and  O_30 
ROOT
ATOM      1  C   UNL d   1       0.326  -2.734  -0.061  0.00  0.00     0.056 A 
ATOM      2  N   UNL d   1       1.083  -3.219   0.986  0.00  0.00    -0.335 N 
ATOM      3  HN  UNL d   1       1.403  -2.660   1.777  1.00  0.00     0.168 HD
ATOM      4  C   UNL d   1       1.335  -4.499   0.827  0.00  0.00     0.149 A 
ATOM      5  S   UNL d   1       0.716  -5.178  -0.630  0.00  0.00    -0.064 SA
ATOM      6  C   UNL d   1       0.101  -3.642  -1.073  0.00  0.00     0.083 A 
ENDROOT
BRANCH   4   7
ATOM      7  N   UNL d   1       2.022  -5.277   1.698  0.00  0.00    -0.337 N 
ATOM      8  H   UNL d   1       2.136  -6.247   1.424  0.00  0.00     0.168 HD
BRANCH   7   9
ATOM      9  C   UNL d   1       3.128  -4.815   2.442  0.00  0.00     0.035 A 
ATOM     10  C   UNL d   1       3.434  -5.436   3.657  0.00  0.00     0.045 A 
ATOM     11  C   UNL d   1       4.557  -5.052   4.409  0.00  0.00     0.050 A 
ATOM     12  C   UNL d   1       5.386  -4.029   3.920  0.00  0.00     0.032 A 
ATOM     13  C   UNL d   1       5.111  -3.407   2.695  0.00  0.00     0.050 A 
ATOM     14  C   UNL d   1       3.975  -3.803   1.974  0.00  0.00     0.045 A 
BRANCH  11  15
ATOM     15  C   UNL d   1       4.865  -5.757   5.707  0.00  0.00     0.417 C 
ATOM     16  F   UNL d   1       6.033  -5.352   6.279  0.00  0.00    -0.166 F 
ATOM     17  F   UNL d   1       3.901  -5.570   6.648  0.00  0.00    -0.166 F 
ATOM     18  F   UNL d   1       4.977  -7.105   5.546  0.00  0.00    -0.166 F 
ENDBRANCH  11  15
BRANCH  13  19
ATOM     19  C   UNL d   1       6.022  -2.353   2.116  0.00  0.00     0.417 C 
ATOM     20  F   UNL d   1       7.096  -2.071   2.905  0.00  0.00    -0.166 F 
ATOM     21  F   UNL d   1       6.533  -2.723   0.910  0.00  0.00    -0.166 F 
ATOM     22  F   UNL d   1       5.387  -1.167   1.907  0.00  0.00    -0.166 F 
ENDBRANCH  13  19
ENDBRANCH   7   9
ENDBRANCH   4   7
BRANCH   1  23
ATOM     23  C   UNL d   1      -0.092  -1.337   0.010  0.00  0.00     0.057 A 
ATOM     24  C   UNL d   1      -1.241  -0.731  -0.573  0.00  0.00     0.144 A 
ATOM     25  N   UNL d   1      -1.248   0.593  -0.322  0.00  0.00    -0.254 N 
ATOM     26  O   UNL d   1      -0.134   0.847   0.451  0.00  0.00    -0.241 OA
ATOM     27  HN  UNL d   1      -1.940   1.272  -0.641  1.00  0.00     0.195 HD
ATOM     28  C   UNL d   1       0.557  -0.305   0.648  0.00  0.00     0.087 A 
ATOM     29  C   UNL d   1       1.803  -0.195   1.432  0.00  0.00     0.080 C 
BRANCH  24  30
ATOM     30  C   UNL d   1      -2.293  -1.351  -1.371  0.00  0.00     0.312 C 
ATOM     31  O   UNL d   1      -2.579  -2.545  -1.310  0.00  0.00    -0.258 OA
BRANCH  30  32
ATOM     32  O   UNL d   1      -2.819  -0.494  -2.295  0.00  0.00    -0.317 OA
BRANCH  32  33
ATOM     33  C   UNL d   1      -3.433  -1.124  -3.425  0.00  0.00     0.175 C 
ATOM     34  C   UNL d   1      -2.346  -1.442  -4.441  0.00  0.00     0.034 C 
ENDBRANCH  32  33
ENDBRANCH  30  32
ENDBRANCH  24  30
ENDBRANCH   1  23
TORSDOF 8
