REMARK  4 active torsions:
REMARK  status: ('A' for Active; 'I' for Inactive)
REMARK    1  A    between atoms: C_2  and  C_1 
REMARK    2  A    between atoms: C_4  and  C_1 
REMARK    3  A    between atoms: C_5  and  C_3 
REMARK    4  A    between atoms: O_13  and  C_5 
ROOT
ATOM      1  C   UNL d   1       0.188  -0.889   0.846  0.00  0.00     0.032 A 
ATOM      2  C   UNL d   1       0.905  -1.423   1.936  0.00  0.00     0.051 A 
ATOM      3  C   UNL d   1      -1.192  -1.172   0.715  0.00  0.00     0.016 A 
ATOM      4  C   UNL d   1       0.173  -2.159   2.900  0.00  0.00     0.019 A 
ATOM      5  C   UNL d   1      -1.885  -1.884   1.688  0.00  0.00     0.001 A 
ATOM      6  C   UNL d   1      -1.204  -2.373   2.788  0.00  0.00     0.001 A 
ENDROOT
BRANCH   1   7
ATOM      7  C   UNL d   1       0.795  -0.070  -0.231  0.00  0.00     0.193 C 
ATOM      8  O   UNL d   1       1.917  -0.378  -0.633  0.00  0.00    -0.287 OA
BRANCH   7   9
ATOM      9  C   UNL d   1       0.076   1.066  -0.875  0.00  0.00     0.015 A 
ATOM     10  C   UNL d   1       0.385   1.381  -2.202  0.00  0.00     0.022 A 
ATOM     11  C   UNL d   1      -0.314   2.393  -2.887  0.00  0.00    -0.055 A 
ATOM     12  C   UNL d   1       0.043   2.689  -4.317  0.00  0.00     0.049 C 
ATOM     13  C   UNL d   1      -1.342   3.087  -2.222  0.00  0.00    -0.056 A 
ATOM     14  C   UNL d   1      -1.614   2.796  -0.877  0.00  0.00     0.008 A 
ATOM     15  C   UNL d   1      -2.148   4.149  -2.921  0.00  0.00     0.049 C 
ATOM     16  C   UNL d   1      -0.899   1.805  -0.200  0.00  0.00     0.016 A 
ENDBRANCH   7   9
ENDBRANCH   1   7
BRANCH   2  17
ATOM     17  C   UNL d   1       2.365  -1.278   2.270  0.00  0.00     0.177 C 
ATOM     18  O   UNL d   1       2.803  -1.707   3.331  0.00  0.00    -0.646 OA
BRANCH  17  19
ATOM     19  O   UNL d   1       3.188  -0.650   1.417  0.00  0.00    -0.773 OA
ATOM     20  H   UNL d   1       2.863  -0.531   0.494  0.00  0.00     0.167 HD
ENDBRANCH  17  19
ENDBRANCH   2  17
TORSDOF 4
