REMARK  3 active torsions:
REMARK  status: ('A' for Active; 'I' for Inactive)
REMARK       I    between atoms: N_2  and  C_1 
REMARK    1  A    between atoms: C_3  and  C_1 
REMARK    2  A    between atoms: C_4  and  C_7 
REMARK    3  A    between atoms: C_7  and  N_5 
ROOT
ATOM      1  C   UNL d   1       1.048  -0.272   0.064  0.00  0.00     0.260 C 
ATOM      2  N   UNL d   1       0.323  -0.188  -1.142  0.00  0.00    -0.346 N 
ATOM      3  N   UNL d   1      -2.179  -0.343  -3.005  0.00  0.00     0.094 N 
ATOM      4  O   UNL d   1       0.795   0.490   0.999  0.00  0.00    -0.267 OA
ATOM      5  C   UNL d   1      -0.702   0.861  -1.255  0.00  0.00     0.156 C 
ATOM      6  C   UNL d   1      -2.082   0.370  -1.723  0.00  0.00     0.292 C 
ATOM      7  C   UNL d   1      -0.073  -1.828  -3.021  0.00  0.00     0.050 C 
ATOM      8  C   UNL d   1       0.803  -0.736  -2.409  0.00  0.00     0.128 C 
ATOM      9  C   UNL d   1      -1.594  -1.679  -2.923  0.00  0.00     0.274 C 
ENDROOT
BRANCH   3  10
ATOM     10  C   UNL d   1      -1.788   0.397  -4.206  0.00  0.00     0.311 C 
BRANCH  10  11
ATOM     11  C   UNL d   1      -2.516   1.708  -4.450  0.00  0.00    -0.019 A 
ATOM     12  C   UNL d   1      -3.909   1.774  -4.731  0.00  0.00    -0.018 A 
ATOM     13  C   UNL d   1      -4.486   3.033  -5.029  0.00  0.00    -0.025 A 
ATOM     14  C   UNL d   1      -4.758   0.644  -4.745  0.00  0.00     0.013 A 
ATOM     15  C   UNL d   1      -5.856   3.127  -5.324  0.00  0.00     0.012 A 
ATOM     16  C   UNL d   1      -3.689   4.188  -5.039  0.00  0.00     0.012 A 
ATOM     17  C   UNL d   1      -6.668   1.992  -5.329  0.00  0.00     0.001 A 
ATOM     18  C   UNL d   1      -6.119   0.752  -5.039  0.00  0.00     0.001 A 
ATOM     19  C   UNL d   1      -2.329   4.118  -4.762  0.00  0.00     0.002 A 
ATOM     20  C   UNL d   1      -1.747   2.889  -4.469  0.00  0.00     0.010 A 
ENDBRANCH  10  11
ENDBRANCH   3  10
BRANCH   1  21
ATOM     21  C   UNL d   1       2.103  -1.276   0.169  0.00  0.00     0.072 A 
ATOM     22  S   UNL d   1       3.591  -0.839   0.908  0.00  0.00    -0.097 SA
ATOM     23  C   UNL d   1       4.271  -2.380   0.609  0.00  0.00     0.050 A 
ATOM     24  C   UNL d   1       3.377  -3.227  -0.005  0.00  0.00     0.009 A 
ATOM     25  C   UNL d   1       2.113  -2.603  -0.213  0.00  0.00     0.025 A 
ENDBRANCH   1  21
TORSDOF 3
