REMARK  6 active torsions:
REMARK  status: ('A' for Active; 'I' for Inactive)
REMARK    1  A    between atoms: N_7  and  S_1 
REMARK    2  A    between atoms: C_16  and  S_1 
REMARK    3  A    between atoms: N_2  and  C_18 
REMARK    4  A    between atoms: C_11  and  C_6 
REMARK       I    between atoms: N_13  and  C_9 
REMARK       I    between atoms: N_14  and  C_9 
REMARK    5  A    between atoms: N_17  and  N_14 
REMARK       I    between atoms: C_15  and  N_17 
REMARK    6  A    between atoms: C_22  and  C_15 
ROOT
ATOM      1  S   UNL d   1      -0.453  -1.686   1.877  0.00  0.00     0.276 S 
ATOM      2  O   UNL d   1       0.125  -2.545   2.891  0.00  0.00    -0.200 OA
ATOM      3  O   UNL d   1      -1.794  -1.956   1.392  0.00  0.00    -0.200 OA
ENDROOT
BRANCH   1   4
ATOM      4  N   UNL d   1       0.567  -1.641   0.599  0.00  0.00    -0.111 N 
ATOM      5  C   UNL d   1       0.802  -2.768  -0.026  0.00  0.00     0.704 C 
ATOM      6  N   UNL d   1       1.625  -2.815  -1.155  0.00  0.00    -0.216 N 
ATOM      7  N   UNL d   1       0.314  -3.997   0.366  0.00  0.00    -0.129 N 
ATOM      8  C   UNL d   1       2.340  -4.016  -1.608  0.00  0.00     0.141 C 
ATOM      9  C   UNL d   1       2.303  -1.622  -1.674  0.00  0.00     0.141 C 
ATOM     10  C   UNL d   1       3.726  -3.530  -1.985  0.00  0.00     0.022 C 
ATOM     11  C   UNL d   1       3.457  -2.145  -2.533  0.00  0.00     0.022 C 
ATOM     12  H   UNL d   1       0.325  -4.282   1.350  0.00  0.00     0.205 HD
ATOM     13  HN  UNL d   1       1.003  -0.769   0.299  1.00  0.00     0.197 HD
BRANCH   7  14
ATOM     14  N   UNL d   1      -0.126  -4.946  -0.555  0.00  0.00    -0.251 N 
ATOM     15  C   UNL d   1      -0.053  -6.272  -0.172  0.00  0.00     0.270 C 
ATOM     16  O   UNL d   1       0.342  -6.611   0.942  0.00  0.00    -0.266 OA
ATOM     17  H   UNL d   1      -0.432  -4.584  -1.449  0.00  0.00     0.191 HD
BRANCH  15  18
ATOM     18  C   UNL d   1      -0.455  -7.311  -1.170  0.00  0.00     0.033 A 
ATOM     19  C   UNL d   1      -0.911  -7.008  -2.461  0.00  0.00     0.019 A 
ATOM     20  C   UNL d   1      -1.270  -8.037  -3.342  0.00  0.00     0.025 A 
ATOM     21  C   UNL d   1      -1.174  -9.368  -2.941  0.00  0.00     0.034 A 
ATOM     22  C   UNL d   1      -0.718  -9.685  -1.665  0.00  0.00     0.025 A 
ATOM     23 CL   UNL d   1      -1.621 -10.623  -4.028  0.00  0.00    -0.084 Cl
ATOM     24  C   UNL d   1      -0.360  -8.659  -0.784  0.00  0.00     0.019 A 
ENDBRANCH  15  18
ENDBRANCH   7  14
ENDBRANCH   1   4
BRANCH   1  25
ATOM     25  C   UNL d   1      -0.528  -0.038   2.598  0.00  0.00     0.080 A 
ATOM     26  C   UNL d   1      -1.544   0.848   2.216  0.00  0.00     0.027 A 
ATOM     27  C   UNL d   1      -1.749   2.046   2.926  0.00  0.00     0.033 A 
ATOM     28  C   UNL d   1      -0.928   2.373   4.017  0.00  0.00     0.057 A 
ATOM     29  C   UNL d   1       0.045   1.451   4.429  0.00  0.00     0.033 A 
ATOM     30  C   UNL d   1       0.252   0.258   3.719  0.00  0.00     0.027 A 
BRANCH  28  31
ATOM     31  N   UNL d   1      -1.109   3.623   4.695  0.00  0.00    -0.255 N 
ATOM     32  C   UNL d   1      -0.184   4.397   5.408  0.00  0.00     0.076 C 
ATOM     33  C   UNL d   1      -0.916   5.392   6.015  0.00  0.00     0.069 C 
ATOM     34  C   UNL d   1       1.249   4.232   5.412  0.00  0.00     0.033 A 
ATOM     35  C   UNL d   1      -2.239   5.255   5.548  0.00  0.00     0.135 C 
ATOM     36  N   UNL d   1      -2.337   4.225   4.683  0.00  0.00    -0.289 N 
ATOM     37  HN  UNL d   1      -3.154   3.953   4.136  1.00  0.00     0.187 HD
ATOM     38  S   UNL d   1       2.185   4.620   6.799  0.00  0.00    -0.100 SA
ATOM     39  C   UNL d   1       2.063   3.819   4.372  0.00  0.00     0.021 A 
ATOM     40  C   UNL d   1       3.643   4.170   6.031  0.00  0.00     0.050 A 
ATOM     41  C   UNL d   1       3.435   3.737   4.742  0.00  0.00     0.008 A 
BRANCH  35  42
ATOM     42  C   UNL d   1      -3.392   6.160   5.915  0.00  0.00     0.434 C 
ATOM     43  F   UNL d   1      -4.579   5.798   5.364  0.00  0.00    -0.165 F 
ATOM     44  F   UNL d   1      -3.583   6.198   7.263  0.00  0.00    -0.165 F 
ATOM     45  F   UNL d   1      -3.157   7.444   5.531  0.00  0.00    -0.165 F 
ENDBRANCH  35  42
ENDBRANCH  28  31
ENDBRANCH   1  25
TORSDOF 6
