REMARK  7 active torsions:
REMARK  status: ('A' for Active; 'I' for Inactive)
REMARK    1  A    between atoms: C_3  and  C_2 
REMARK    2  A    between atoms: C_16  and  N_4 
REMARK    3  A    between atoms: C_5  and  C_7 
REMARK    4  A    between atoms: C_8  and  C_6 
REMARK       I    between atoms: C_7  and  N_13 
REMARK    5  A    between atoms: O_14  and  C_8 
REMARK    6  A    between atoms: N_13  and  C_18 
REMARK    7  A    between atoms: C_18  and  C_16 
ROOT
ATOM      1  C   UNL d   1      -4.558  -1.617  -1.955  0.00  0.00    -0.009 A 
ATOM      2  C   UNL d   1      -4.672  -2.748  -1.103  0.00  0.00     0.043 A 
ATOM      3  C   UNL d   1      -5.653  -0.722  -1.970  0.00  0.00     0.013 A 
ATOM      4  C   UNL d   1      -5.819  -2.929  -0.300  0.00  0.00     0.018 A 
ATOM      5  C   UNL d   1      -6.784  -0.911  -1.171  0.00  0.00     0.001 A 
ATOM      6  C   UNL d   1      -6.869  -2.017  -0.338  0.00  0.00     0.001 A 
ENDROOT
BRANCH   2   7
ATOM      7  C   UNL d   1      -3.597  -3.779  -0.978  0.00  0.00     0.252 C 
ATOM      8  N   UNL d   1      -4.035  -5.085  -0.941  0.00  0.00    -0.355 N 
ATOM      9  H   UNL d   1      -5.021  -5.282  -1.067  0.00  0.00     0.162 HD
ATOM     10  O   UNL d   1      -2.422  -3.443  -0.921  0.00  0.00    -0.268 OA
BRANCH   8  11
ATOM     11  C   UNL d   1      -3.149  -6.244  -0.978  0.00  0.00     0.143 C 
BRANCH  11  12
ATOM     12  C   UNL d   1      -2.126  -6.333   0.162  0.00  0.00     0.147 C 
BRANCH  12  13
ATOM     13  N   UNL d   1      -2.724  -6.237   1.481  0.00  0.00    -0.331 N 
ATOM     14  C   UNL d   1      -3.556  -7.197   2.041  0.00  0.00     0.318 C 
ATOM     15  N   UNL d   1      -3.750  -6.851   3.371  0.00  0.00    -0.341 N 
ATOM     16  O   UNL d   1      -4.047  -8.166   1.490  0.00  0.00    -0.247 OA
ATOM     17  C   UNL d   1      -3.182  -5.559   3.648  0.00  0.00     0.144 C 
ATOM     18  H   UNL d   1      -4.446  -7.333   3.924  0.00  0.00     0.164 HD
ATOM     19  C   UNL d   1      -2.200  -5.358   2.502  0.00  0.00     0.147 C 
ENDBRANCH  12  13
ENDBRANCH  11  12
ENDBRANCH   8  11
ENDBRANCH   2   7
BRANCH   1  20
ATOM     20  C   UNL d   1      -3.415  -1.346  -2.875  0.00  0.00    -0.008 A 
ATOM     21  C   UNL d   1      -2.797  -0.076  -3.018  0.00  0.00     0.048 A 
ATOM     22  C   UNL d   1      -1.817   0.156  -4.000  0.00  0.00     0.019 A 
ATOM     23  C   UNL d   1      -1.396  -0.875  -4.833  0.00  0.00     0.001 A 
ATOM     24  C   UNL d   1      -1.961  -2.136  -4.696  0.00  0.00     0.001 A 
ATOM     25  C   UNL d   1      -2.964  -2.362  -3.745  0.00  0.00     0.013 A 
BRANCH  21  26
ATOM     26  C   UNL d   1      -3.145   1.108  -2.198  0.00  0.00     0.177 C 
ATOM     27  O   UNL d   1      -3.421   2.192  -2.678  0.00  0.00    -0.646 OA
BRANCH  26  28
ATOM     28  O   UNL d   1      -3.051   0.881  -0.869  0.00  0.00    -0.773 OA
ATOM     29  H   UNL d   1      -2.773  -0.029  -0.642  0.00  0.00     0.167 HD
ENDBRANCH  26  28
ENDBRANCH  21  26
ENDBRANCH   1  20
TORSDOF 7
