REMARK  1 active torsions:
REMARK  status: ('A' for Active; 'I' for Inactive)
REMARK    1  A    between atoms: C_6  and  N_1 
ROOT
ATOM      1  N   UNL d   1      -0.843   1.031  -0.009  0.00  0.00    -0.224 N 
ATOM      2  N   UNL d   1      -1.281  -0.268   0.113  0.00  0.00    -0.300 N 
ATOM      3  HN  UNL d   1      -2.276  -0.455   0.240  1.00  0.00     0.187 HD
ATOM      4  C   UNL d   1       0.501   1.398  -0.103  0.00  0.00     0.243 C 
ATOM      5  C   UNL d   1      -0.448  -1.251   0.067  0.00  0.00     0.001 C 
ATOM      6  O   UNL d   1       0.927   2.554  -0.176  0.00  0.00    -0.271 OA
ATOM      7  C   UNL d   1       1.526   0.300  -0.035  0.00  0.00     0.111 C 
ATOM      8  C   UNL d   1       1.032  -1.116  -0.060  0.00  0.00     0.063 C 
ATOM      9  C   UNL d   1      -1.000  -2.657   0.113  0.00  0.00     0.065 C 
ENDROOT
BRANCH   1  10
ATOM     10  C   UNL d   1      -1.917   1.988  -0.065  0.00  0.00     0.059 A 
ATOM     11  C   UNL d   1      -1.772   3.237  -0.689  0.00  0.00     0.031 A 
ATOM     12  C   UNL d   1      -2.825   4.158  -0.732  0.00  0.00     0.002 A 
ATOM     13  C   UNL d   1      -4.045   3.853  -0.141  0.00  0.00     0.000 A 
ATOM     14  C   UNL d   1      -4.219   2.617   0.475  0.00  0.00     0.002 A 
ATOM     15  C   UNL d   1      -3.169   1.689   0.500  0.00  0.00     0.031 A 
ENDBRANCH   1  10
TORSDOF 1
