REMARK  6 active torsions:
REMARK  status: ('A' for Active; 'I' for Inactive)
REMARK    1  A    between atoms: N_3  and  C_1 
REMARK    2  A    between atoms: C_5  and  C_4 
REMARK    3  A    between atoms: N_18  and  C_5 
REMARK    4  A    between atoms: C_9  and  C_12 
REMARK    5  A    between atoms: O_13  and  N_10 
REMARK    6  A    between atoms: C_12  and  O_13 
ROOT
ATOM      1  C   UNL d   1      -0.324  -2.604  -0.969  0.00  0.00     0.133 C 
ATOM      2  N   UNL d   1      -1.336  -3.165  -0.352  0.00  0.00    -0.244 N 
ATOM      3  HN  UNL d   1      -1.317  -4.130  -0.021  1.00  0.00     0.196 HD
ENDROOT
BRANCH   1   4
ATOM      4  C   UNL d   1      -0.293  -1.252  -1.550  0.00  0.00     0.116 A 
ATOM      5  S   UNL d   1      -1.656  -0.468  -2.247  0.00  0.00    -0.044 SA
ATOM      6  C   UNL d   1      -0.665   0.836  -2.678  0.00  0.00     0.161 A 
ATOM      7  C   UNL d   1       0.642   0.601  -2.319  0.00  0.00     0.132 A 
ATOM      8  N   UNL d   1       0.858  -0.611  -1.686  0.00  0.00    -0.355 N 
ATOM      9  HN  UNL d   1       1.764  -0.957  -1.372  1.00  0.00     0.166 HD
BRANCH   6  10
ATOM     10  N   UNL d   1      -1.183   1.986  -3.339  0.00  0.00    -0.107 N 
ATOM     11  O   UNL d   1      -0.362   2.859  -3.648  0.00  0.00    -0.531 OA
ATOM     12  O   UNL d   1      -2.401   2.040  -3.557  0.00  0.00    -0.531 OA
ENDBRANCH   6  10
ENDBRANCH   1   4
BRANCH   1  13
ATOM     13  N   UNL d   1       0.812  -3.388  -1.031  0.00  0.00    -0.285 NA
ATOM     14  H   UNL d   1       1.677  -2.857  -1.097  0.00  0.00     0.125 HD
ATOM     15  H   UNL d   1       0.820  -4.122  -0.332  0.00  0.00     0.125 HD
ENDBRANCH   1  13
BRANCH   2  16
ATOM     16  O   UNL d   1      -2.447  -2.322  -0.188  0.00  0.00    -0.193 OA
BRANCH  16  17
ATOM     17  C   UNL d   1      -3.568  -3.059   0.038  0.00  0.00     0.316 C 
ATOM     18  O   UNL d   1      -3.678  -4.278   0.005  0.00  0.00    -0.257 OA
BRANCH  17  19
ATOM     19  C   UNL d   1      -4.748  -2.179   0.205  0.00  0.00     0.063 A 
ATOM     20  C   UNL d   1      -4.753  -0.978   0.927  0.00  0.00     0.050 A 
ATOM     21 CL   UNL d   1      -3.365  -0.331   1.727  0.00  0.00    -0.083 Cl
ATOM     22  C   UNL d   1      -5.949  -0.258   1.067  0.00  0.00     0.025 A 
ATOM     23  C   UNL d   1      -7.134  -0.726   0.495  0.00  0.00     0.002 A 
ATOM     24  C   UNL d   1      -7.132  -1.915  -0.228  0.00  0.00     0.001 A 
ATOM     25  C   UNL d   1      -5.947  -2.638  -0.370  0.00  0.00     0.019 A 
ENDBRANCH  17  19
ENDBRANCH  16  17
ENDBRANCH   2  16
TORSDOF 6
