REMARK  1 active torsions:
REMARK  status: ('A' for Active; 'I' for Inactive)
REMARK    1  A    between atoms: N_6  and  C_2 
ROOT
ATOM      1  C   UNL d   1       0.238  -0.804  -0.009  0.00  0.00     0.070 A 
ATOM      2  C   UNL d   1       1.524  -1.382  -0.029  0.00  0.00     0.103 A 
ATOM      3  S   UNL d   1      -1.313  -1.552  -0.080  0.00  0.00    -0.096 SA
ATOM      4  C   UNL d   1       0.110   0.582   0.035  0.00  0.00     0.060 A 
ATOM      5  C   UNL d   1      -1.259   1.020  -0.003  0.00  0.00    -0.027 A 
ATOM      6  C   UNL d   1      -2.124  -0.055  -0.038  0.00  0.00     0.059 A 
ATOM      7  N   UNL d   1       2.582  -0.535   0.005  0.00  0.00    -0.342 N 
ATOM      8  HN  UNL d   1       3.535  -0.897  -0.013  1.00  0.00     0.167 HD
ATOM      9  N   UNL d   1       1.183   1.413   0.082  0.00  0.00    -0.351 N 
ATOM     10  HN  UNL d   1       1.097   2.428   0.127  1.00  0.00     0.166 HD
ATOM     11  C   UNL d   1       2.358   0.785   0.063  0.00  0.00     0.182 A 
ATOM     12  C   UNL d   1      -1.699   2.445  -0.020  0.00  0.00     0.051 C 
ENDROOT
BRANCH   2  13
ATOM     13  N   UNL d   1       1.734  -2.765  -0.179  0.00  0.00    -0.267 NA
ATOM     14  C   UNL d   1       3.040  -3.081  -0.792  0.00  0.00     0.107 C 
ATOM     15  C   UNL d   1       3.057  -4.523  -1.309  0.00  0.00     0.089 C 
ATOM     16  S   UNL d   1       2.813  -5.746   0.026  0.00  0.00    -0.167 SA
ATOM     17  C   UNL d   1       1.312  -5.009   0.765  0.00  0.00     0.089 C 
ATOM     18  C   UNL d   1       1.480  -3.514   1.067  0.00  0.00     0.107 C 
ENDBRANCH   2  13
TORSDOF 1
