REMARK  8 active torsions:
REMARK  status: ('A' for Active; 'I' for Inactive)
REMARK       I    between atoms: N_7  and  C_1 
REMARK       I    between atoms: N_10  and  C_1 
REMARK    1  A    between atoms: C_9  and  C_2 
REMARK    2  A    between atoms: C_4  and  C_20 
REMARK    3  A    between atoms: C_11  and  N_7 
REMARK    4  A    between atoms: N_12  and  C_9 
REMARK    5  A    between atoms: C_21  and  N_10 
REMARK    6  A    between atoms: S_14  and  C_22 
REMARK    7  A    between atoms: C_20  and  S_14 
REMARK    8  A    between atoms: C_22  and  C_21 
ROOT
ATOM      1  C   UNL d   1       2.450   1.364   0.677  0.00  0.00     0.320 C 
ATOM      2  N   UNL d   1       3.286   2.424   0.444  0.00  0.00    -0.309 N 
ATOM      3  O   UNL d   1       1.574   1.303   1.533  0.00  0.00    -0.247 OA
ATOM      4  N   UNL d   1       2.646   0.257  -0.083  0.00  0.00    -0.342 N 
ATOM      5  H   UNL d   1       3.784   2.423  -0.430  0.00  0.00     0.170 HD
ATOM      6  H   UNL d   1       1.979  -0.465   0.168  0.00  0.00     0.164 HD
ENDROOT
BRANCH   4   7
ATOM      7  C   UNL d   1       3.461   0.022  -1.263  0.00  0.00     0.134 C 
BRANCH   7   8
ATOM      8  C   UNL d   1       4.966  -0.084  -1.005  0.00  0.00     0.094 C 
BRANCH   8   9
ATOM      9  S   UNL d   1       5.763  -0.468  -2.609  0.00  0.00    -0.161 SA
BRANCH   9  10
ATOM     10  C   UNL d   1       7.503  -0.571  -2.094  0.00  0.00     0.139 C 
BRANCH  10  11
ATOM     11  C   UNL d   1       7.746  -1.640  -1.099  0.00  0.00     0.062 A 
ATOM     12  O   UNL d   1       8.347  -1.252   0.061  0.00  0.00    -0.317 OA
ATOM     13  C   UNL d   1       8.513  -2.371   0.822  0.00  0.00     0.081 A 
ATOM     14  C   UNL d   1       7.996  -3.469   0.167  0.00  0.00     0.037 A 
ATOM     15  C   UNL d   1       7.519  -3.001  -1.081  0.00  0.00     0.036 A 
BRANCH  13  16
ATOM     16  C   UNL d   1       9.225  -2.194   2.122  0.00  0.00     0.335 C 
BRANCH  16  17
ATOM     17  N   UNL d   1      10.427  -3.045   2.223  0.00  0.00     0.086 N 
ATOM     18  C   UNL d   1      11.433  -2.678   1.221  0.00  0.00     0.309 C 
ATOM     19  C   UNL d   1      11.006  -2.927   3.563  0.00  0.00     0.309 C 
ENDBRANCH  16  17
ENDBRANCH  13  16
ENDBRANCH  10  11
ENDBRANCH   9  10
ENDBRANCH   8   9
ENDBRANCH   7   8
ENDBRANCH   4   7
BRANCH   2  20
ATOM     20  C   UNL d   1       3.504   3.520   1.308  0.00  0.00     0.036 A 
ATOM     21  C   UNL d   1       2.921   3.632   2.577  0.00  0.00     0.032 A 
ATOM     22  C   UNL d   1       3.255   4.686   3.431  0.00  0.00     0.044 A 
ATOM     23  C   UNL d   1       4.175   5.637   3.015  0.00  0.00     0.116 A 
ATOM     24  C   UNL d   1       4.747   5.565   1.752  0.00  0.00     0.044 A 
ATOM     25  F   UNL d   1       4.526   6.625   3.847  0.00  0.00    -0.206 F 
ATOM     26  C   UNL d   1       4.410   4.510   0.896  0.00  0.00     0.032 A 
ENDBRANCH   2  20
TORSDOF 8
