REMARK  3 active torsions:
REMARK  status: ('A' for Active; 'I' for Inactive)
REMARK    1  A    between atoms: S_2  and  C_1 
REMARK    2  A    between atoms: C_10  and  S_2 
REMARK    3  A    between atoms: C_7  and  C_3 
REMARK       I    between atoms: N_13  and  C_7 
ROOT
ATOM      1  C   UNL d   1      -0.093  -1.256  -0.011  0.00  0.00     0.089 A 
ATOM      2  C   UNL d   1       0.378   0.976   0.519  0.00  0.00     0.095 A 
ATOM      3  C   UNL d   1      -0.330  -0.164   0.884  0.00  0.00     0.078 A 
ATOM      4  S   UNL d   1       1.397   0.661  -0.834  0.00  0.00    -0.093 SA
ATOM      5  C   UNL d   1       0.855  -0.945  -0.965  0.00  0.00     0.075 A 
ATOM      6 CL   UNL d   1      -1.389  -0.255   2.234  0.00  0.00    -0.081 Cl
ENDROOT
BRANCH   1   7
ATOM      7  S   UNL d   1      -0.846  -2.820   0.055  0.00  0.00     0.181 S 
ATOM      8  O   UNL d   1      -0.352  -3.504  -1.124  0.00  0.00    -0.222 OA
ATOM      9  O   UNL d   1      -0.541  -3.296   1.388  0.00  0.00    -0.222 OA
BRANCH   7  10
ATOM     10  C   UNL d   1      -2.615  -2.559  -0.123  0.00  0.00     0.105 C 
ATOM     11  C   UNL d   1      -2.962  -1.815  -1.408  0.00  0.00     0.026 C 
ATOM     12  C   UNL d   1      -3.337  -3.905  -0.081  0.00  0.00     0.026 C 
ENDBRANCH   7  10
ENDBRANCH   1   7
BRANCH   2  13
ATOM     13  C   UNL d   1       0.339   2.301   1.123  0.00  0.00     0.258 C 
ATOM     14  O   UNL d   1      -0.356   2.621   2.082  0.00  0.00    -0.267 OA
ATOM     15  N   UNL d   1       1.125   3.266   0.550  0.00  0.00    -0.365 N 
ATOM     16  H   UNL d   1       1.714   3.084  -0.250  0.00  0.00     0.159 HD
ATOM     17  H   UNL d   1       1.083   4.199   0.939  0.00  0.00     0.159 HD
ENDBRANCH   2  13
TORSDOF 3
