REMARK  4 active torsions:
REMARK  status: ('A' for Active; 'I' for Inactive)
REMARK    1  A    between atoms: S_12  and  C_3 
REMARK    2  A    between atoms: C_7  and  C_4 
REMARK    3  A    between atoms: O_14  and  C_7 
REMARK    4  A    between atoms: C_17  and  S_12 
ROOT
ATOM      1  C   UNL d   1       0.105  -0.773   0.050  0.00  0.00     0.041 A 
ATOM      2  C   UNL d   1       0.444   0.637   0.012  0.00  0.00    -0.018 A 
ATOM      3  C   UNL d   1       1.229  -1.577   0.074  0.00  0.00     0.056 A 
ATOM      4  C   UNL d   1       1.818   0.844  -0.025  0.00  0.00     0.088 A 
ATOM      5  S   UNL d   1       2.659  -0.647   0.009  0.00  0.00    -0.076 SA
ATOM      6  C   UNL d   1      -1.292  -1.217   0.062  0.00  0.00     0.162 C 
ATOM      7  C   UNL d   1      -0.622   1.712  -0.018  0.00  0.00     0.050 C 
ATOM      8  C   UNL d   1      -2.035   1.189   0.362  0.00  0.00    -0.037 C 
ATOM      9  C   UNL d   1      -2.310  -0.162  -0.334  0.00  0.00     0.093 C 
ATOM     10  O   UNL d   1      -1.653  -2.355   0.351  0.00  0.00    -0.292 OA
ATOM     11  C   UNL d   1      -3.099   2.202  -0.103  0.00  0.00     0.015 C 
ATOM     12  C   UNL d   1      -2.164   1.038   1.893  0.00  0.00     0.015 C 
ENDROOT
BRANCH   4  13
ATOM     13  C   UNL d   1       2.540   2.111  -0.104  0.00  0.00     0.300 C 
ATOM     14  O   UNL d   1       2.011   3.216  -0.182  0.00  0.00    -0.259 OA
BRANCH  13  15
ATOM     15  O   UNL d   1       3.891   1.919  -0.081  0.00  0.00    -0.322 OA
ATOM     16  C   UNL d   1       4.672   3.111  -0.157  0.00  0.00     0.213 C 
ENDBRANCH  13  15
ENDBRANCH   4  13
BRANCH   3  17
ATOM     17  S   UNL d   1       1.298  -3.339   0.062  0.00  0.00    -0.122 SA
BRANCH  17  18
ATOM     18  C   UNL d   1       2.315  -3.703   1.523  0.00  0.00     0.075 C 
ATOM     19  C   UNL d   1       1.620  -3.333   2.822  0.00  0.00     0.016 C 
ENDBRANCH  17  18
ENDBRANCH   3  17
TORSDOF 4
