REMARK  7 active torsions:
REMARK  status: ('A' for Active; 'I' for Inactive)
REMARK    1  A    between atoms: C_7  and  C_1 
REMARK    2  A    between atoms: C_9  and  N_2 
REMARK    3  A    between atoms: C_19  and  C_3 
REMARK    4  A    between atoms: O_14  and  C_7 
REMARK    5  A    between atoms: N_11  and  O_14 
REMARK    6  A    between atoms: C_21  and  C_17 
REMARK    7  A    between atoms: C_29  and  C_19 
ROOT
ATOM      1  N   UNL d   1      -6.853   7.125   6.331  0.00  0.00    -0.191 NA
ATOM      2  C   UNL d   1      -6.342   6.557   5.456  0.00  0.00     0.099 C 
ATOM      3  C   UNL d   1      -5.717   5.855   4.375  0.00  0.00     0.044 A 
ATOM      4  C   UNL d   1      -4.505   4.481   2.271  0.00  0.00    -0.019 A 
ATOM      5  C   UNL d   1      -4.340   5.613   4.404  0.00  0.00     0.023 A 
ATOM      6  C   UNL d   1      -6.485   5.409   3.291  0.00  0.00     0.023 A 
ATOM      7  C   UNL d   1      -3.734   4.928   3.351  0.00  0.00     0.014 A 
ATOM      8  C   UNL d   1      -5.878   4.719   2.235  0.00  0.00     0.014 A 
ENDROOT
BRANCH   4   9
ATOM      9  C   UNL d   1      -3.874   3.703   1.187  0.00  0.00     0.126 C 
ATOM     10  N   UNL d   1      -2.595   3.522   1.177  0.00  0.00    -0.268 N 
ATOM     11  HN  UNL d   1      -1.940   3.964   1.821  1.00  0.00     0.194 HD
BRANCH  10  12
ATOM     12  O   UNL d   1      -2.234   2.630   0.152  0.00  0.00    -0.195 OA
BRANCH  12  13
ATOM     13  C   UNL d   1      -0.858   2.597   0.080  0.00  0.00     0.318 C 
ATOM     14  O   UNL d   1      -0.141   3.591   0.149  0.00  0.00    -0.257 OA
BRANCH  13  15
ATOM     15  C   UNL d   1      -0.354   1.236  -0.026  0.00  0.00     0.082 C 
ATOM     16  C   UNL d   1       0.972   0.797   0.001  0.00  0.00     0.052 C 
ATOM     17  N   UNL d   1       0.916  -0.598  -0.048  0.00  0.00    -0.260 N 
ATOM     18  N   UNL d   1      -0.356  -1.032  -0.251  0.00  0.00    -0.304 N 
ATOM     19  C   UNL d   1      -1.109   0.058  -0.162  0.00  0.00     0.127 C 
ATOM     20  HN  UNL d   1      -0.665  -1.987  -0.431  1.00  0.00     0.186 HD
BRANCH  16  21
ATOM     21  C   UNL d   1       2.228   1.626   0.012  0.00  0.00     0.060 C 
BRANCH  21  22
ATOM     22  C   UNL d   1       3.120   1.458  -1.222  0.00  0.00     0.002 C 
ATOM     23  C   UNL d   1       2.438   1.839  -2.528  0.00  0.00     0.005 C 
ENDBRANCH  21  22
ENDBRANCH  16  21
BRANCH  17  24
ATOM     24  C   UNL d   1       1.962  -1.564   0.013  0.00  0.00     0.056 A 
ATOM     25  C   UNL d   1       3.146  -1.334   0.722  0.00  0.00     0.033 A 
ATOM     26  C   UNL d   1       4.207  -2.240   0.631  0.00  0.00     0.026 A 
ATOM     27  C   UNL d   1       4.075  -3.390  -0.143  0.00  0.00     0.034 A 
ATOM     28  C   UNL d   1       2.870  -3.672  -0.782  0.00  0.00     0.026 A 
ATOM     29 CL   UNL d   1       5.409  -4.461  -0.313  0.00  0.00    -0.084 Cl
ATOM     30  C   UNL d   1       1.807  -2.770  -0.690  0.00  0.00     0.033 A 
ENDBRANCH  17  24
ENDBRANCH  13  15
ENDBRANCH  12  13
ENDBRANCH  10  12
ENDBRANCH   4   9
TORSDOF 7
