REMARK  3 active torsions:
REMARK  status: ('A' for Active; 'I' for Inactive)
REMARK    1  A    between atoms: C_4  and  C_1 
REMARK    2  A    between atoms: C_8  and  C_2 
REMARK       I    between atoms: N_7  and  C_4 
REMARK    3  A    between atoms: C_12  and  N_7 
ROOT
ATOM      1  C   UNL d   1       1.092   0.417  -0.297  0.00  0.00     0.115 A 
ATOM      2  C   UNL d   1       0.966  -0.920  -0.118  0.00  0.00     0.065 A 
ATOM      3  N   UNL d   1      -0.338  -1.301   0.108  0.00  0.00    -0.318 N 
ATOM      4  C   UNL d   1      -1.190  -0.238   0.118  0.00  0.00     0.297 A 
ATOM      5  C   UNL d   1      -0.273   0.955  -0.135  0.00  0.00     0.257 A 
ATOM      6  O   UNL d   1      -2.389  -0.205   0.272  0.00  0.00    -0.264 OA
ATOM      7  O   UNL d   1      -0.598   2.126  -0.153  0.00  0.00    -0.281 OA
ATOM      8  H   UNL d   1      -0.649  -2.246   0.290  0.00  0.00     0.169 HD
ENDROOT
BRANCH   1   9
ATOM      9  C   UNL d   1       2.294   1.241  -0.550  0.00  0.00     0.262 C 
ATOM     10  N   UNL d   1       2.085   2.604  -0.443  0.00  0.00    -0.323 N 
ATOM     11  H   UNL d   1       1.131   2.924  -0.267  0.00  0.00     0.169 HD
ATOM     12  O   UNL d   1       3.377   0.698  -0.770  0.00  0.00    -0.267 OA
BRANCH  10  13
ATOM     13  C   UNL d   1       3.101   3.551  -0.172  0.00  0.00     0.035 C 
ATOM     14  C   UNL d   1       4.460   3.292  -0.369  0.00  0.00     0.031 C 
ATOM     15  C   UNL d   1       5.428   4.126   0.191  0.00  0.00     0.021 C 
ATOM     16  C   UNL d   1       5.035   5.241   0.923  0.00  0.00     0.011 C 
ATOM     17  C   UNL d   1       3.687   5.582   1.016  0.00  0.00     0.021 C 
ATOM     18 BR   UNL d   1       6.333   6.255   1.849  0.00  0.00    -0.051 Br
ATOM     19  C   UNL d   1       2.720   4.747   0.448  0.00  0.00     0.031 C 
ENDBRANCH  10  13
ENDBRANCH   1   9
BRANCH   2  20
ATOM     20  C   UNL d   1       1.985  -1.987  -0.136  0.00  0.00    -0.008 A 
ATOM     21  C   UNL d   1       3.199  -1.886   0.559  0.00  0.00     0.014 A 
ATOM     22  C   UNL d   1       4.135  -2.926   0.527  0.00  0.00     0.001 A 
ATOM     23  C   UNL d   1       3.858  -4.098  -0.172  0.00  0.00     0.000 A 
ATOM     24  C   UNL d   1       2.646  -4.231  -0.841  0.00  0.00     0.001 A 
ATOM     25  C   UNL d   1       1.721  -3.183  -0.827  0.00  0.00     0.014 A 
ENDBRANCH   2  20
TORSDOF 3
