REMARK  4 active torsions:
REMARK  status: ('A' for Active; 'I' for Inactive)
REMARK    1  A    between atoms: C_12  and  C_3 
REMARK    2  A    between atoms: C_11  and  C_4 
REMARK    3  A    between atoms: C_14  and  C_10 
REMARK       I    between atoms: N_15  and  C_11 
REMARK    4  A    between atoms: C_16  and  N_15 
ROOT
ATOM      1  C   UNL d   1       0.163  -0.752  -0.177  0.00  0.00     0.145 A 
ATOM      2  N   UNL d   1       0.255   0.650  -0.269  0.00  0.00    -0.234 N 
ATOM      3  C   UNL d   1      -0.882   1.437  -0.132  0.00  0.00     0.144 A 
ATOM      4  C   UNL d   1       1.462  -1.223  -0.128  0.00  0.00     0.095 C 
ATOM      5  N   UNL d   1      -1.039  -1.400  -0.064  0.00  0.00    -0.336 N 
ATOM      6  HN  UNL d   1      -1.095  -2.419  -0.062  1.00  0.00     0.167 HD
ATOM      7  C   UNL d   1      -2.080   0.841   0.043  0.00  0.00     0.071 A 
ATOM      8  N   UNL d   1       1.536   1.034  -0.461  0.00  0.00    -0.302 N 
ATOM      9  HN  UNL d   1       1.878   1.973  -0.665  1.00  0.00     0.186 HD
ATOM     10  C   UNL d   1      -2.114  -0.660   0.042  0.00  0.00     0.120 A 
ATOM     11  C   UNL d   1       2.254  -0.076  -0.328  0.00  0.00     0.128 C 
ENDROOT
BRANCH   4  12
ATOM     12  C   UNL d   1       1.947  -2.559   0.148  0.00  0.00     0.261 C 
ATOM     13  N   UNL d   1       1.040  -3.573  -0.081  0.00  0.00    -0.321 N 
ATOM     14  H   UNL d   1       0.227  -3.349  -0.649  0.00  0.00     0.169 HD
ATOM     15  O   UNL d   1       3.101  -2.726   0.530  0.00  0.00    -0.267 OA
BRANCH  13  16
ATOM     16  C   UNL d   1       1.210  -4.927   0.283  0.00  0.00     0.056 A 
ATOM     17  C   UNL d   1       0.511  -5.931  -0.409  0.00  0.00     0.060 A 
ATOM     18 CL   UNL d   1      -0.502  -5.547  -1.758  0.00  0.00    -0.082 Cl
ATOM     19  C   UNL d   1       0.654  -7.275  -0.049  0.00  0.00     0.026 A 
ATOM     20  C   UNL d   1       1.465  -7.627   1.030  0.00  0.00     0.002 A 
ATOM     21  C   UNL d   1       2.140  -6.638   1.740  0.00  0.00     0.002 A 
ATOM     22  C   UNL d   1       2.022  -5.298   1.361  0.00  0.00     0.031 A 
ENDBRANCH  13  16
ENDBRANCH   4  12
BRANCH   3  23
ATOM     23  C   UNL d   1      -0.747   2.916  -0.126  0.00  0.00     0.434 C 
ATOM     24  F   UNL d   1       0.508   3.415  -0.122  0.00  0.00    -0.165 F 
ATOM     25  F   UNL d   1      -1.384   3.458  -1.197  0.00  0.00    -0.165 F 
ATOM     26  F   UNL d   1      -1.363   3.436   0.973  0.00  0.00    -0.165 F 
ENDBRANCH   3  23
BRANCH  10  27
ATOM     27  C   UNL d   1      -3.493  -1.320   0.186  0.00  0.00     0.432 C 
ATOM     28  F   UNL d   1      -4.508  -0.411   0.194  0.00  0.00    -0.165 F 
ATOM     29  F   UNL d   1      -3.759  -2.181  -0.831  0.00  0.00    -0.165 F 
ATOM     30  F   UNL d   1      -3.603  -2.025   1.343  0.00  0.00    -0.165 F 
ENDBRANCH  10  27
TORSDOF 4
