REMARK  3 active torsions:
REMARK  status: ('A' for Active; 'I' for Inactive)
REMARK    1  A    between atoms: S_2  and  C_1 
REMARK    2  A    between atoms: C_7  and  S_2 
REMARK    3  A    between atoms: C_6  and  C_7 
ROOT
ATOM      1  S   UNL d   1       4.301  -2.136   0.066  0.00  0.00     0.201 S 
ATOM      2  O   UNL d   1       5.007  -1.542   1.184  0.00  0.00    -0.220 OA
ATOM      3  O   UNL d   1       3.927  -3.538   0.062  0.00  0.00    -0.220 OA
ENDROOT
BRANCH   1   4
ATOM      4  C   UNL d   1       2.763  -1.247  -0.040  0.00  0.00     0.172 A 
ATOM      5  N   UNL d   1       2.364  -0.499  -1.051  0.00  0.00    -0.340 N 
ATOM      6  C   UNL d   1       1.106   0.017  -0.761  0.00  0.00     0.052 A 
ATOM      7  HN  UNL d   1       2.892  -0.328  -1.906  1.00  0.00     0.167 HD
ATOM      8  C   UNL d   1       0.345   0.859  -1.601  0.00  0.00     0.054 A 
ATOM      9  C   UNL d   1       0.578  -0.351   0.480  0.00  0.00     0.034 A 
ATOM     10  C   UNL d   1      -0.911   1.299  -1.173  0.00  0.00     0.036 A 
ATOM     11 CL   UNL d   1      -1.844   2.320  -2.200  0.00  0.00    -0.084 Cl
ATOM     12  C   UNL d   1      -1.420   0.926   0.065  0.00  0.00     0.025 A 
ATOM     13  C   UNL d   1      -0.684   0.094   0.915  0.00  0.00     0.023 A 
ATOM     14  S   UNL d   1       1.700  -1.376   1.289  0.00  0.00    -0.058 SA
ENDBRANCH   1   4
BRANCH   1  15
ATOM     15  C   UNL d   1       5.107  -1.709  -1.474  0.00  0.00     0.189 C 
BRANCH  15  16
ATOM     16  C   UNL d   1       6.443  -2.417  -1.569  0.00  0.00    -0.000 A 
ATOM     17  C   UNL d   1       6.561  -3.684  -2.174  0.00  0.00     0.043 A 
ATOM     18 CL   UNL d   1       5.202  -4.516  -2.845  0.00  0.00    -0.084 Cl
ATOM     19  C   UNL d   1       7.804  -4.324  -2.288  0.00  0.00     0.024 A 
ATOM     20  C   UNL d   1       8.954  -3.718  -1.796  0.00  0.00     0.003 A 
ATOM     21  C   UNL d   1       8.862  -2.475  -1.181  0.00  0.00     0.024 A 
ATOM     22  C   UNL d   1       7.622  -1.831  -1.067  0.00  0.00     0.043 A 
ATOM     23 CL   UNL d   1       7.631  -0.271  -0.320  0.00  0.00    -0.084 Cl
ENDBRANCH  15  16
ENDBRANCH   1  15
TORSDOF 3
