REMARK  5 active torsions:
REMARK  status: ('A' for Active; 'I' for Inactive)
REMARK    1  A    between atoms: C_8  and  C_1 
REMARK    2  A    between atoms: S_9  and  C_3 
REMARK    3  A    between atoms: C_10  and  S_9 
REMARK    4  A    between atoms: C_11  and  C_10 
REMARK    5  A    between atoms: C_12  and  C_10 
ROOT
ATOM      1  C   UNL d   1      -1.018   0.828   0.213  0.00  0.00     0.209 A 
ATOM      2  N   UNL d   1      -1.154  -0.539   0.336  0.00  0.00    -0.312 N 
ATOM      3  C   UNL d   1       0.086  -1.055   0.062  0.00  0.00     0.163 A 
ATOM      4  N   UNL d   1       0.250   1.097  -0.053  0.00  0.00    -0.279 N 
ATOM      5  HN  UNL d   1       0.651   2.029  -0.159  1.00  0.00     0.188 HD
ATOM      6  N   UNL d   1       0.933  -0.085  -0.161  0.00  0.00    -0.278 N 
ATOM      7  HN  UNL d   1       1.925  -0.189  -0.376  1.00  0.00     0.189 HD
ATOM      8  C   UNL d   1      -2.328  -1.306   0.674  0.00  0.00     0.160 C 
ENDROOT
BRANCH   3   9
ATOM      9  S   UNL d   1       0.422  -2.743  -0.023  0.00  0.00    -0.072 SA
BRANCH   9  10
ATOM     10  C   UNL d   1       2.229  -2.780   0.242  0.00  0.00     0.193 C 
BRANCH  10  11
ATOM     11  C   UNL d   1       2.564  -2.417   1.676  0.00  0.00     0.144 C 
ATOM     12  O   UNL d   1       2.239  -3.132   2.628  0.00  0.00    -0.297 OA
ATOM     13  C   UNL d   1       3.373  -1.167   1.910  0.00  0.00     0.092 C 
ENDBRANCH  10  11
BRANCH  10  14
ATOM     14  C   UNL d   1       2.769  -4.151  -0.129  0.00  0.00     0.144 C 
ATOM     15  O   UNL d   1       3.715  -4.258  -0.917  0.00  0.00    -0.297 OA
ATOM     16  C   UNL d   1       2.144  -5.395   0.462  0.00  0.00     0.092 C 
ENDBRANCH  10  14
ENDBRANCH   9  10
ENDBRANCH   3   9
BRANCH   1  17
ATOM     17  C   UNL d   1      -2.111   1.834   0.350  0.00  0.00     0.450 C 
ATOM     18  F   UNL d   1      -3.353   1.282   0.354  0.00  0.00    -0.163 F 
ATOM     19  F   UNL d   1      -2.003   2.539   1.506  0.00  0.00    -0.163 F 
ATOM     20  F   UNL d   1      -2.108   2.734  -0.666  0.00  0.00    -0.163 F 
ENDBRANCH   1  17
TORSDOF 5
