REMARK  7 active torsions:
REMARK  status: ('A' for Active; 'I' for Inactive)
REMARK    1  A    between atoms: C_4  and  C_1 
REMARK    2  A    between atoms: S_19  and  C_8 
REMARK    3  A    between atoms: C_16  and  C_18 
REMARK    4  A    between atoms: O_17  and  C_16 
REMARK    5  A    between atoms: C_21  and  O_17 
REMARK    6  A    between atoms: C_18  and  C_22 
REMARK    7  A    between atoms: C_22  and  S_19 
ROOT
ATOM      1  C   UNL d   1       2.149  -2.349  -0.822  0.00  0.00     0.015 A 
ATOM      2  C   UNL d   1       2.712  -4.106   0.787  0.00  0.00     0.079 A 
ATOM      3  N   UNL d   1       4.088  -3.755  -1.135  0.00  0.00    -0.352 N 
ATOM      4  HN  UNL d   1       4.910  -4.003  -1.685  1.00  0.00     0.166 HD
ATOM      5  C   UNL d   1       3.810  -4.427   0.000  0.00  0.00     0.091 A 
ATOM      6  C   UNL d   1       1.871  -3.057   0.359  0.00  0.00     0.041 A 
ATOM      7  C   UNL d   1       3.276  -2.747  -1.546  0.00  0.00     0.018 A 
ATOM      8  C   UNL d   1       2.394  -4.782   2.013  0.00  0.00     0.102 C 
ATOM      9  N   UNL d   1       2.086  -5.294   3.004  0.00  0.00    -0.191 NA
ATOM     10  C   UNL d   1       3.716  -2.106  -2.830  0.00  0.00     0.069 C 
ENDROOT
BRANCH   5  11
ATOM     11  S   UNL d   1       5.073  -5.609   0.410  0.00  0.00    -0.110 SA
BRANCH  11  12
ATOM     12  C   UNL d   1       4.979  -6.799  -0.988  0.00  0.00     0.091 C 
BRANCH  12  13
ATOM     13  C   UNL d   1       4.981  -6.355  -2.447  0.00  0.00     0.121 C 
BRANCH  13  14
ATOM     14  C   UNL d   1       6.196  -5.764  -3.126  0.00  0.00     0.260 C 
ATOM     15  O   UNL d   1       6.106  -5.327  -4.271  0.00  0.00    -0.265 OA
BRANCH  14  16
ATOM     16  O   UNL d   1       7.355  -5.823  -2.425  0.00  0.00    -0.311 OA
BRANCH  16  17
ATOM     17  C   UNL d   1       8.546  -5.171  -2.973  0.00  0.00     0.060 C 
ATOM     18  C   UNL d   1       8.290  -3.675  -3.222  0.00  0.00     0.045 C 
ATOM     19  C   UNL d   1       9.635  -5.320  -1.898  0.00  0.00     0.045 C 
ATOM     20  C   UNL d   1       9.062  -5.851  -4.254  0.00  0.00     0.045 C 
ENDBRANCH  16  17
ENDBRANCH  14  16
ENDBRANCH  13  14
ENDBRANCH  12  13
ENDBRANCH  11  12
ENDBRANCH   5  11
BRANCH   1  21
ATOM     21  C   UNL d   1       1.292  -1.252  -1.257  0.00  0.00     0.051 A 
ATOM     22  N   UNL d   1       1.020  -1.036  -2.598  0.00  0.00    -0.353 N 
ATOM     23  C   UNL d   1       0.251   0.020  -2.749  0.00  0.00     0.047 A 
ATOM     24  HN  UNL d   1       1.368  -1.616  -3.362  1.00  0.00     0.166 HD
ATOM     25  C   UNL d   1      -0.218   0.538  -4.063  0.00  0.00     0.076 C 
ATOM     26  S   UNL d   1      -0.208   0.808  -1.295  0.00  0.00    -0.087 SA
ATOM     27  C   UNL d   1       0.703  -0.339  -0.401  0.00  0.00     0.081 A 
ENDBRANCH   1  21
TORSDOF 7
