REMARK  4 active torsions:
REMARK  status: ('A' for Active; 'I' for Inactive)
REMARK    1  A    between atoms: C_2  and  C_1 
REMARK       I    between atoms: N_3  and  C_1 
REMARK       I    between atoms: C_4  and  N_3 
REMARK       I    between atoms: N_7  and  C_4 
REMARK    2  A    between atoms: O_19  and  C_5 
REMARK    3  A    between atoms: C_6  and  N_7 
REMARK    4  A    between atoms: O_23  and  C_8 
ROOT
ATOM      1  C   UNL d   1       1.051   0.367   0.457  0.00  0.00     0.265 C 
ATOM      2  N   UNL d   1       0.789   1.717   0.212  0.00  0.00    -0.275 N 
ATOM      3  C   UNL d   1       0.122   2.787   0.806  0.00  0.00     0.327 C 
ATOM      4  N   UNL d   1       0.076   2.772   2.175  0.00  0.00    -0.309 N 
ATOM      5  O   UNL d   1       1.832  -0.248  -0.273  0.00  0.00    -0.267 OA
ATOM      6  O   UNL d   1      -0.320   3.671   0.083  0.00  0.00    -0.247 OA
ATOM      7  H   UNL d   1       1.046   1.956  -0.734  0.00  0.00     0.173 HD
ATOM      8  H   UNL d   1       0.651   2.062   2.606  0.00  0.00     0.170 HD
ENDROOT
BRANCH   1   9
ATOM      9  C   UNL d   1       0.352  -0.375   1.526  0.00  0.00     0.100 A 
ATOM     10  C   UNL d   1       0.732  -0.223   2.872  0.00  0.00     0.104 A 
ATOM     11  C   UNL d   1       0.030  -0.932   3.857  0.00  0.00     0.045 A 
ATOM     12 BR   UNL d   1       0.256  -0.635   5.719  0.00  0.00    -0.048 Br
ATOM     13  C   UNL d   1      -0.968  -1.840   3.488  0.00  0.00     0.025 A 
ATOM     14  C   UNL d   1      -1.289  -2.040   2.143  0.00  0.00     0.039 A 
ATOM     15  C   UNL d   1      -0.622  -1.323   1.150  0.00  0.00     0.086 A 
BRANCH  10  16
ATOM     16  O   UNL d   1       1.653   0.755   3.145  0.00  0.00    -0.353 OA
ATOM     17  C   UNL d   1       2.802   0.341   3.885  0.00  0.00     0.210 C 
ENDBRANCH  10  16
BRANCH  15  18
ATOM     18  O   UNL d   1      -0.899  -1.454  -0.184  0.00  0.00    -0.355 OA
ATOM     19  C   UNL d   1      -1.405  -2.713  -0.624  0.00  0.00     0.210 C 
ENDBRANCH  15  18
ENDBRANCH   1   9
BRANCH   4  20
ATOM     20  C   UNL d   1      -0.377   3.780   3.053  0.00  0.00     0.039 A 
ATOM     21  C   UNL d   1      -0.959   4.977   2.641  0.00  0.00     0.053 A 
ATOM     22  C   UNL d   1      -1.298   5.952   3.586  0.00  0.00     0.037 A 
ATOM     23 CL   UNL d   1      -1.970   7.449   3.063  0.00  0.00    -0.084 Cl
ATOM     24  C   UNL d   1      -1.083   5.739   4.944  0.00  0.00     0.048 A 
ATOM     25  C   UNL d   1      -0.530   4.533   5.356  0.00  0.00     0.037 A 
ATOM     26  C   UNL d   1      -0.179   3.558   4.424  0.00  0.00     0.053 A 
ATOM     27 CL   UNL d   1      -0.261   4.244   7.031  0.00  0.00    -0.084 Cl
ENDBRANCH   4  20
TORSDOF 4
