REMARK  7 active torsions:
REMARK  status: ('A' for Active; 'I' for Inactive)
REMARK    1  A    between atoms: C_4  and  S_1 
REMARK    2  A    between atoms: C_6  and  S_1 
REMARK    3  A    between atoms: C_5  and  C_2 
REMARK    4  A    between atoms: C_3  and  C_9 
REMARK    5  A    between atoms: C_8  and  C_4 
REMARK    6  A    between atoms: O_14  and  C_5 
REMARK    7  A    between atoms: C_24  and  O_14 
ROOT
ATOM      1  C   UNL d   1       0.376   0.874  -1.556  0.00  0.00     0.212 C 
ENDROOT
BRANCH   1   2
ATOM      2  S   UNL d   1       0.653   0.451   0.155  0.00  0.00     0.196 S 
ATOM      3  O   UNL d   1       2.075   0.578   0.445  0.00  0.00    -0.221 OA
ATOM      4  O   UNL d   1      -0.017  -0.808   0.434  0.00  0.00    -0.221 OA
BRANCH   2   5
ATOM      5  C   UNL d   1      -0.204   1.723   1.062  0.00  0.00     0.128 A 
ATOM      6  N   UNL d   1      -1.520   1.833   0.743  0.00  0.00    -0.356 N 
ATOM      7  C   UNL d   1      -2.218   2.771   1.420  0.00  0.00     0.105 A 
ATOM      8  HN  UNL d   1      -1.955   1.243   0.034  1.00  0.00     0.166 HD
ATOM      9  C   UNL d   1      -1.664   3.607   2.383  0.00  0.00     0.063 A 
ATOM     10  C   UNL d   1      -0.295   3.472   2.658  0.00  0.00     0.020 A 
ATOM     11  C   UNL d   1       0.457   2.510   1.990  0.00  0.00     0.042 A 
BRANCH   9  12
ATOM     12  C   UNL d   1      -2.513   4.605   3.110  0.00  0.00     0.418 C 
ATOM     13  F   UNL d   1      -3.814   4.604   2.708  0.00  0.00    -0.166 F 
ATOM     14  F   UNL d   1      -2.535   4.390   4.453  0.00  0.00    -0.166 F 
ATOM     15  F   UNL d   1      -2.075   5.881   2.941  0.00  0.00    -0.166 F 
ENDBRANCH   9  12
ENDBRANCH   2   5
ENDBRANCH   1   2
BRANCH   1  16
ATOM     16  C   UNL d   1       1.028   2.170  -1.854  0.00  0.00     0.068 A 
ATOM     17  O   UNL d   1       0.282   3.301  -1.677  0.00  0.00    -0.308 OA
ATOM     18  C   UNL d   1       1.090   4.373  -1.955  0.00  0.00     0.151 A 
ATOM     19  C   UNL d   1       2.337   3.913  -2.342  0.00  0.00     0.046 A 
ATOM     20  C   UNL d   1       2.295   2.502  -2.283  0.00  0.00     0.036 A 
BRANCH  18  21
ATOM     21  C   UNL d   1       0.624   5.732  -1.795  0.00  0.00     0.322 C 
ATOM     22  O   UNL d   1       1.348   6.716  -1.905  0.00  0.00    -0.257 OA
BRANCH  21  23
ATOM     23  O   UNL d   1      -0.736   5.753  -1.476  0.00  0.00    -0.273 OA
BRANCH  23  24
ATOM     24  C   UNL d   1      -1.402   6.970  -1.208  0.00  0.00     0.079 A 
ATOM     25  C   UNL d   1      -1.107   8.173  -1.849  0.00  0.00     0.037 A 
ATOM     26  C   UNL d   1      -1.811   9.329  -1.506  0.00  0.00     0.003 A 
ATOM     27  C   UNL d   1      -2.823   9.276  -0.547  0.00  0.00     0.000 A 
ATOM     28  C   UNL d   1      -3.142   8.063   0.063  0.00  0.00     0.003 A 
ATOM     29  C   UNL d   1      -2.436   6.906  -0.273  0.00  0.00     0.037 A 
ENDBRANCH  23  24
ENDBRANCH  21  23
ENDBRANCH  18  21
ENDBRANCH   1  16
TORSDOF 7
