REMARK  6 active torsions:
REMARK  status: ('A' for Active; 'I' for Inactive)
REMARK    1  A    between atoms: N_4  and  C_3 
REMARK    2  A    between atoms: N_7  and  C_5 
REMARK    3  A    between atoms: S_15  and  C_6 
REMARK    4  A    between atoms: C_11  and  C_16 
REMARK    5  A    between atoms: C_13  and  S_15 
REMARK    6  A    between atoms: N_25  and  C_17 
ROOT
ATOM      1  N   UNL d   1       1.171   0.364  -0.295  0.00  0.00    -0.167 N 
ATOM      2  HN  UNL d   1       2.138   0.670  -0.405  1.00  0.00     0.186 HD
ATOM      3  C   UNL d   1       0.033   1.125  -0.179  0.00  0.00     0.699 A 
ATOM      4  C   UNL d   1       0.697  -0.856  -0.231  0.00  0.00     0.179 A 
ATOM      5  N   UNL d   1      -1.104   0.431  -0.067  0.00  0.00    -0.130 N 
ATOM      6  HN  UNL d   1      -2.062   0.771   0.018  1.00  0.00     0.205 HD
ATOM      7  N   UNL d   1      -0.653  -0.827  -0.096  0.00  0.00    -0.265 N 
ATOM      8  H   UNL d   1      -1.304  -1.607  -0.055  0.00  0.00     0.189 HD
ENDROOT
BRANCH   4   9
ATOM      9  S   UNL d   1       1.561  -2.346  -0.210  0.00  0.00    -0.050 SA
BRANCH   9  10
ATOM     10  C   UNL d   1       1.689  -2.623  -1.972  0.00  0.00     0.041 A 
ATOM     11  C   UNL d   1       0.799  -3.390  -2.741  0.00  0.00     0.120 A 
ATOM     12  C   UNL d   1       1.043  -3.675  -4.098  0.00  0.00     0.053 A 
ATOM     13  C   UNL d   1       2.205  -3.193  -4.717  0.00  0.00     0.050 A 
ATOM     14  C   UNL d   1       3.092  -2.412  -3.961  0.00  0.00     0.017 A 
ATOM     15  C   UNL d   1       2.839  -2.133  -2.611  0.00  0.00     0.022 A 
BRANCH  11  16
ATOM     16  N   UNL d   1      -0.405  -3.959  -2.155  0.00  0.00    -0.114 N 
ATOM     17  O   UNL d   1      -1.177  -3.189  -1.565  0.00  0.00    -0.532 OA
ATOM     18  O   UNL d   1      -0.589  -5.172  -2.315  0.00  0.00    -0.532 OA
ENDBRANCH  11  16
BRANCH  13  19
ATOM     19  C   UNL d   1       2.524  -3.519  -6.159  0.00  0.00     0.417 C 
ATOM     20  F   UNL d   1       1.580  -4.296  -6.757  0.00  0.00    -0.166 F 
ATOM     21  F   UNL d   1       2.639  -2.404  -6.930  0.00  0.00    -0.166 F 
ATOM     22  F   UNL d   1       3.700  -4.191  -6.286  0.00  0.00    -0.166 F 
ENDBRANCH  13  19
ENDBRANCH   9  10
ENDBRANCH   4   9
BRANCH   3  23
ATOM     23  N   UNL d   1      -0.075   2.510  -0.149  0.00  0.00    -0.186 N 
ATOM     24  C   UNL d   1       1.046   3.140  -0.241  0.00  0.00     0.195 C 
ATOM     25  HN  UNL d   1      -0.971   2.990  -0.062  1.00  0.00     0.185 HD
BRANCH  24  26
ATOM     26  N   UNL d   1       1.176   4.514  -0.213  0.00  0.00    -0.385 N 
ATOM     27  C   UNL d   1       0.016   5.381  -0.066  0.00  0.00     0.149 C 
ATOM     28  C   UNL d   1       2.451   5.182  -0.385  0.00  0.00     0.149 C 
ENDBRANCH  24  26
ENDBRANCH   3  23
TORSDOF 6
