REMARK  7 active torsions:
REMARK  status: ('A' for Active; 'I' for Inactive)
REMARK    1  A    between atoms: S_8  and  C_3 
REMARK    2  A    between atoms: C_10  and  C_5 
REMARK    3  A    between atoms: C_12  and  S_8 
REMARK    4  A    between atoms: C_9  and  C_12 
REMARK    5  A    between atoms: C_15  and  C_9 
REMARK    6  A    between atoms: O_16  and  C_10 
REMARK    7  A    between atoms: O_17  and  C_10 
ROOT
ATOM      1  N   UNL d   1      -1.465  -1.136  -0.077  0.00  0.00    -0.349 N 
ATOM      2  HN  UNL d   1      -1.946  -2.035  -0.095  1.00  0.00     0.166 HD
ATOM      3  C   UNL d   1      -0.111  -1.085  -0.087  0.00  0.00     0.091 A 
ATOM      4  C   UNL d   1       0.584   0.119  -0.031  0.00  0.00     0.078 A 
ATOM      5  C   UNL d   1      -2.178   0.023  -0.044  0.00  0.00     0.065 A 
ATOM      6  C   UNL d   1       2.013   0.186  -0.006  0.00  0.00     0.102 C 
ATOM      7  N   UNL d   1       3.168   0.294   0.034  0.00  0.00    -0.191 NA
ATOM      8  C   UNL d   1      -0.156   1.309   0.003  0.00  0.00     0.027 A 
ATOM      9  C   UNL d   1      -1.549   1.265  -0.014  0.00  0.00     0.032 A 
ENDROOT
BRANCH   3  10
ATOM     10  S   UNL d   1       0.705  -2.676  -0.125  0.00  0.00    -0.103 SA
BRANCH  10  11
ATOM     11  C   UNL d   1      -0.555  -3.670  -1.001  0.00  0.00     0.164 C 
BRANCH  11  12
ATOM     12  C   UNL d   1      -0.732  -3.254  -2.455  0.00  0.00     0.169 C 
ATOM     13  O   UNL d   1      -0.131  -2.315  -2.978  0.00  0.00    -0.291 OA
BRANCH  12  14
ATOM     14  C   UNL d   1      -1.690  -4.039  -3.302  0.00  0.00     0.010 A 
ATOM     15  C   UNL d   1      -2.390  -5.153  -2.821  0.00  0.00     0.015 A 
ATOM     16  C   UNL d   1      -3.262  -5.854  -3.663  0.00  0.00     0.001 A 
ATOM     17  C   UNL d   1      -3.444  -5.446  -4.984  0.00  0.00     0.000 A 
ATOM     18  C   UNL d   1      -2.757  -4.337  -5.470  0.00  0.00     0.001 A 
ATOM     19  C   UNL d   1      -1.883  -3.638  -4.633  0.00  0.00     0.015 A 
ENDBRANCH  12  14
ENDBRANCH  11  12
ENDBRANCH  10  11
ENDBRANCH   3  10
BRANCH   5  20
ATOM     20  C   UNL d   1      -3.705  -0.070  -0.126  0.00  0.00     0.309 C 
BRANCH  20  21
ATOM     21  O   UNL d   1      -4.175   0.122  -1.466  0.00  0.00    -0.360 OA
ATOM     22  C   UNL d   1      -3.811  -0.934  -2.349  0.00  0.00     0.205 C 
ENDBRANCH  20  21
BRANCH  20  23
ATOM     23  O   UNL d   1      -4.164  -1.293   0.460  0.00  0.00    -0.360 OA
ATOM     24  C   UNL d   1      -5.573  -1.329   0.616  0.00  0.00     0.205 C 
ENDBRANCH  20  23
ENDBRANCH   5  20
TORSDOF 7
