REMARK  2 active torsions:
REMARK  status: ('A' for Active; 'I' for Inactive)
REMARK    1  A    between atoms: C_6  and  C_1 
REMARK    2  A    between atoms: C_7  and  C_6 
ROOT
ATOM      1  C   UNL d   1      -1.449  -1.263  -0.056  0.00  0.00    -0.023 A 
ATOM      2  N   UNL d   1      -1.584   0.965  -0.097  0.00  0.00    -0.365 N 
ATOM      3  C   UNL d   1      -2.320  -0.190  -0.066  0.00  0.00     0.096 A 
ATOM      4  C   UNL d   1      -0.122  -0.719  -0.105  0.00  0.00    -0.001 A 
ATOM      5  C   UNL d   1      -0.241   0.671  -0.108  0.00  0.00     0.042 A 
ATOM      6  C   UNL d   1       1.170  -1.281  -0.127  0.00  0.00     0.014 A 
ATOM      7  C   UNL d   1       0.865   1.527  -0.111  0.00  0.00     0.030 A 
ATOM      8  C   UNL d   1       2.288  -0.440  -0.137  0.00  0.00     0.001 A 
ATOM      9  C   UNL d   1       2.136   0.945  -0.123  0.00  0.00     0.002 A 
ATOM     10  H   UNL d   1      -1.966   1.901  -0.091  0.00  0.00     0.165 HD
ENDROOT
BRANCH   1  11
ATOM     11  C   UNL d   1      -1.826  -2.705   0.054  0.00  0.00     0.118 C 
BRANCH  11  12
ATOM     12  C   UNL d   1      -1.426  -3.523  -1.155  0.00  0.00     0.127 C 
ATOM     13  O   UNL d   1      -0.633  -4.463  -1.062  0.00  0.00    -0.298 OA
ATOM     14  C   UNL d   1      -2.048  -3.173  -2.482  0.00  0.00     0.091 C 
ENDBRANCH  11  12
ENDBRANCH   1  11
TORSDOF 2
