REMARK  5 active torsions:
REMARK  status: ('A' for Active; 'I' for Inactive)
REMARK       I    between atoms: N_2  and  C_1 
REMARK       I    between atoms: N_3  and  C_1 
REMARK    1  A    between atoms: C_7  and  N_2 
REMARK    2  A    between atoms: C_15  and  N_2 
REMARK    3  A    between atoms: C_13  and  N_3 
REMARK    4  A    between atoms: C_5  and  C_7 
REMARK    5  A    between atoms: C_14  and  C_15 
ROOT
ATOM      1  N   UNL d   1       2.957  -1.425   5.096  0.00  0.00    -0.197 NA
ATOM      2  C   UNL d   1       2.427  -0.923   4.196  0.00  0.00     0.060 C 
ATOM      3  C   UNL d   1       1.771  -0.279   3.052  0.00  0.00     0.144 C 
ENDROOT
BRANCH   3   4
ATOM      4  C   UNL d   1       1.430  -1.314   1.976  0.00  0.00     0.142 C 
BRANCH   4   5
ATOM      5  N   UNL d   1       0.641  -0.752   0.870  0.00  0.00    -0.327 N 
ATOM      6  C   UNL d   1       1.145  -0.162  -0.285  0.00  0.00     0.323 C 
ATOM      7  N   UNL d   1       2.482   0.181  -0.233  0.00  0.00    -0.309 N 
ATOM      8  O   UNL d   1       0.411   0.090  -1.238  0.00  0.00    -0.247 OA
ATOM      9  H   UNL d   1       2.892   0.247   0.679  0.00  0.00     0.170 HD
BRANCH   7  10
ATOM     10  C   UNL d   1       3.172   0.883  -1.247  0.00  0.00     0.036 A 
ATOM     11  C   UNL d   1       4.233   1.711  -0.861  0.00  0.00     0.029 A 
ATOM     12  C   UNL d   1       4.910   2.483  -1.809  0.00  0.00     0.002 A 
ATOM     13  C   UNL d   1       4.556   2.402  -3.154  0.00  0.00     0.000 A 
ATOM     14  C   UNL d   1       3.530   1.548  -3.550  0.00  0.00     0.002 A 
ATOM     15  C   UNL d   1       2.838   0.793  -2.599  0.00  0.00     0.029 A 
ENDBRANCH   7  10
BRANCH   5  16
ATOM     16  C   UNL d   1      -0.817  -0.844   0.982  0.00  0.00     0.192 C 
BRANCH  16  17
ATOM     17  C   UNL d   1      -1.342  -2.122   0.432  0.00  0.00     0.070 A 
ATOM     18  O   UNL d   1      -1.822  -3.027   1.336  0.00  0.00    -0.325 OA
ATOM     19  C   UNL d   1      -2.351  -4.056   0.624  0.00  0.00     0.142 A 
ATOM     20  C   UNL d   1      -2.207  -3.835  -0.725  0.00  0.00     0.027 A 
ATOM     21  C   UNL d   1      -1.544  -2.591  -0.851  0.00  0.00     0.036 A 
ENDBRANCH  16  17
ENDBRANCH   5  16
ENDBRANCH   4   5
ENDBRANCH   3   4
TORSDOF 5
