REMARK  2 active torsions:
REMARK  status: ('A' for Active; 'I' for Inactive)
REMARK    1  A    between atoms: C_6  and  N_2 
REMARK    2  A    between atoms: C_5  and  C_6 
ROOT
ATOM      1  S   UNL d   1      -2.488   0.618  -0.729  0.00  0.00     0.240 S 
ATOM      2  N   UNL d   1      -1.235   1.365   0.133  0.00  0.00    -0.270 N 
ATOM      3  C   UNL d   1      -2.526  -0.883   0.184  0.00  0.00     0.247 C 
ATOM      4  C   UNL d   1       0.029   0.672   0.070  0.00  0.00     0.059 A 
ATOM      5  C   UNL d   1      -1.191  -1.552   0.100  0.00  0.00     0.177 C 
ATOM      6  C   UNL d   1       0.059  -0.736   0.058  0.00  0.00     0.038 A 
ATOM      7  O   UNL d   1      -2.034   0.355  -2.076  0.00  0.00    -0.205 OA
ATOM      8  O   UNL d   1      -3.729   1.323  -0.486  0.00  0.00    -0.205 OA
ATOM      9  O   UNL d   1      -1.107  -2.780   0.151  0.00  0.00    -0.291 OA
ATOM     10  C   UNL d   1       1.286  -1.418   0.012  0.00  0.00     0.017 A 
ATOM     11  C   UNL d   1       1.245   1.363   0.059  0.00  0.00     0.031 A 
ATOM     12  C   UNL d   1       2.485  -0.711   0.001  0.00  0.00     0.001 A 
ATOM     13  C   UNL d   1       2.464   0.679   0.029  0.00  0.00     0.002 A 
ENDROOT
BRANCH   2  14
ATOM     14  C   UNL d   1      -1.372   2.808   0.429  0.00  0.00     0.185 C 
BRANCH  14  15
ATOM     15  C   UNL d   1      -1.237   3.131   1.901  0.00  0.00     0.021 A 
ATOM     16  C   UNL d   1      -2.147   2.560   2.803  0.00  0.00     0.126 A 
ATOM     17  F   UNL d   1      -3.090   1.717   2.359  0.00  0.00    -0.205 F 
ATOM     18  C   UNL d   1      -2.121   2.844   4.167  0.00  0.00     0.043 A 
ATOM     19  C   UNL d   1      -1.160   3.711   4.671  0.00  0.00     0.005 A 
ATOM     20  C   UNL d   1      -0.241   4.293   3.801  0.00  0.00     0.024 A 
ATOM     21  C   UNL d   1      -0.286   4.019   2.425  0.00  0.00     0.045 A 
ATOM     22 CL   UNL d   1       0.856   4.854   1.434  0.00  0.00    -0.084 Cl
ENDBRANCH  14  15
ENDBRANCH   2  14
TORSDOF 2
