REMARK  4 active torsions:
REMARK  status: ('A' for Active; 'I' for Inactive)
REMARK    1  A    between atoms: C_3  and  C_1 
REMARK    2  A    between atoms: C_2  and  N_7 
REMARK    3  A    between atoms: N_7  and  N_4 
REMARK    4  A    between atoms: C_13  and  C_14 
ROOT
ATOM      1  C   UNL d   1       0.522  -1.077  -0.901  0.00  0.00     0.048 A 
ATOM      2  C   UNL d   1       1.128  -2.304  -0.607  0.00  0.00     0.029 A 
ATOM      3  C   UNL d   1       0.753  -3.471  -1.286  0.00  0.00    -0.018 A 
ATOM      4  C   UNL d   1      -0.466  -1.039  -1.895  0.00  0.00     0.016 A 
ATOM      5  C   UNL d   1      -0.839  -2.203  -2.577  0.00  0.00     0.002 A 
ATOM      6  C   UNL d   1      -0.229  -3.424  -2.273  0.00  0.00     0.013 A 
ENDROOT
BRANCH   3   7
ATOM      7  C   UNL d   1       1.406  -4.747  -0.937  0.00  0.00     0.118 C 
ATOM      8  N   UNL d   1       2.312  -4.771  -0.016  0.00  0.00    -0.309 N 
ATOM      9  HN  UNL d   1       2.594  -3.923   0.476  1.00  0.00     0.186 HD
BRANCH   8  10
ATOM     10  N   UNL d   1       2.873  -5.977   0.269  0.00  0.00    -0.277 N 
ATOM     11  H   UNL d   1       2.582  -6.819  -0.215  0.00  0.00     0.189 HD
BRANCH  10  12
ATOM     12  C   UNL d   1       3.835  -6.068   1.242  0.00  0.00     0.184 C 
ATOM     13  S   UNL d   1       4.553  -7.501   1.660  0.00  0.00    -0.040 SA
ATOM     14  N   UNL d   1       4.160  -4.896   1.840  0.00  0.00    -0.375 N 
ATOM     15  H   UNL d   1       3.661  -4.070   1.527  0.00  0.00     0.158 HD
ATOM     16  H   UNL d   1       4.849  -4.837   2.575  0.00  0.00     0.158 HD
ENDBRANCH  10  12
ENDBRANCH   8  10
ENDBRANCH   3   7
BRANCH   1  17
ATOM     17  C   UNL d   1       0.926   0.172  -0.159  0.00  0.00     0.417 C 
ATOM     18  F   UNL d   1       1.884  -0.040   0.786  0.00  0.00    -0.166 F 
ATOM     19  F   UNL d   1      -0.120   0.749   0.495  0.00  0.00    -0.166 F 
ATOM     20  F   UNL d   1       1.425   1.130  -0.987  0.00  0.00    -0.166 F 
ENDBRANCH   1  17
TORSDOF 4
