REMARK  4 active torsions:
REMARK  status: ('A' for Active; 'I' for Inactive)
REMARK    1  A    between atoms: C_3  and  C_1 
REMARK    2  A    between atoms: C_2  and  C_8 
REMARK    3  A    between atoms: C_6  and  C_3 
REMARK    4  A    between atoms: N_11  and  C_4 
ROOT
ATOM      1  C   UNL d   1       1.073  -0.033   0.055  0.00  0.00     0.110 C 
ATOM      2  C   UNL d   1       0.422  -0.500  -1.029  0.00  0.00     0.111 C 
ATOM      3  C   UNL d   1       0.439   0.280   1.283  0.00  0.00     0.105 C 
ATOM      4  N   UNL d   1      -0.042   0.570   2.301  0.00  0.00    -0.191 NA
ENDROOT
BRANCH   1   5
ATOM      5  C   UNL d   1       2.568   0.102  -0.038  0.00  0.00     0.204 C 
ATOM      6  O   UNL d   1       3.230  -0.538  -0.853  0.00  0.00    -0.286 OA
BRANCH   5   7
ATOM      7  C   UNL d   1       3.288   1.006   0.908  0.00  0.00     0.016 A 
ATOM      8  C   UNL d   1       2.781   2.259   1.285  0.00  0.00     0.031 A 
ATOM      9  C   UNL d   1       3.473   3.064   2.208  0.00  0.00     0.048 A 
ATOM     10  C   UNL d   1       4.703   2.615   2.713  0.00  0.00     0.016 A 
ATOM     11  C   UNL d   1       5.232   1.390   2.306  0.00  0.00     0.002 A 
ATOM     12  C   UNL d   1       4.529   0.589   1.405  0.00  0.00     0.015 A 
BRANCH   9  13
ATOM     13  C   UNL d   1       2.913   4.392   2.663  0.00  0.00     0.417 C 
ATOM     14  F   UNL d   1       1.703   4.686   2.114  0.00  0.00    -0.166 F 
ATOM     15  F   UNL d   1       2.739   4.450   4.011  0.00  0.00    -0.166 F 
ATOM     16  F   UNL d   1       3.730   5.434   2.345  0.00  0.00    -0.166 F 
ENDBRANCH   9  13
ENDBRANCH   5   7
ENDBRANCH   1   5
BRANCH   2  17
ATOM     17  N   UNL d   1      -0.918  -0.746  -1.345  0.00  0.00    -0.397 N 
ATOM     18  C   UNL d   1      -2.083  -0.419  -0.521  0.00  0.00     0.148 C 
ATOM     19  C   UNL d   1      -1.295  -1.376  -2.619  0.00  0.00     0.148 C 
ENDBRANCH   2  17
TORSDOF 4
