REMARK  7 active torsions:
REMARK  status: ('A' for Active; 'I' for Inactive)
REMARK    1  A    between atoms: N_9  and  C_1 
REMARK    2  A    between atoms: C_15  and  N_2 
REMARK    3  A    between atoms: C_3  and  C_15 
REMARK    4  A    between atoms: S_17  and  C_10 
REMARK       I    between atoms: N_16  and  C_18 
REMARK    5  A    between atoms: C_20  and  N_16 
REMARK    6  A    between atoms: C_24  and  S_17 
REMARK    7  A    between atoms: C_18  and  C_24 
ROOT
ATOM      1  C   UNL d   1       3.335   0.816  -0.193  0.00  0.00     0.120 A 
ATOM      2  N   UNL d   1       3.619   0.238  -1.415  0.00  0.00    -0.318 N 
ATOM      3  C   UNL d   1       4.909  -0.205  -1.310  0.00  0.00     0.162 A 
ATOM      4  N   UNL d   1       4.398   0.704   0.582  0.00  0.00    -0.285 N 
ATOM      5  HN  UNL d   1       4.475   1.044   1.540  1.00  0.00     0.188 HD
ATOM      6  N   UNL d   1       5.378   0.056  -0.115  0.00  0.00    -0.278 N 
ATOM      7  HN  UNL d   1       6.307  -0.181   0.233  1.00  0.00     0.189 HD
ATOM      8  C   UNL d   1       2.734   0.068  -2.538  0.00  0.00     0.160 C 
ENDROOT
BRANCH   3   9
ATOM      9  S   UNL d   1       5.806  -1.036  -2.525  0.00  0.00    -0.083 SA
BRANCH   9  10
ATOM     10  C   UNL d   1       6.545   0.333  -3.440  0.00  0.00     0.185 C 
BRANCH  10  11
ATOM     11  C   UNL d   1       7.626   1.159  -2.758  0.00  0.00     0.231 C 
ATOM     12  N   UNL d   1       7.757   1.051  -1.396  0.00  0.00    -0.325 N 
ATOM     13  H   UNL d   1       7.395   0.216  -0.936  0.00  0.00     0.169 HD
ATOM     14  O   UNL d   1       8.316   1.911  -3.452  0.00  0.00    -0.272 OA
BRANCH  12  15
ATOM     15  C   UNL d   1       8.494   1.923  -0.564  0.00  0.00     0.056 A 
ATOM     16  C   UNL d   1       9.028   1.441   0.642  0.00  0.00     0.060 A 
ATOM     17 CL   UNL d   1       8.896  -0.229   1.073  0.00  0.00    -0.082 Cl
ATOM     18  C   UNL d   1       9.738   2.291   1.495  0.00  0.00     0.026 A 
ATOM     19  C   UNL d   1       9.881   3.640   1.173  0.00  0.00     0.002 A 
ATOM     20  C   UNL d   1       9.330   4.135  -0.007  0.00  0.00     0.002 A 
ATOM     21  C   UNL d   1       8.652   3.278  -0.879  0.00  0.00     0.031 A 
ENDBRANCH  12  15
ENDBRANCH  10  11
ENDBRANCH   9  10
ENDBRANCH   3   9
BRANCH   1  22
ATOM     22  C   UNL d   1       2.034   1.391   0.233  0.00  0.00     0.227 C 
BRANCH  22  23
ATOM     23  N   UNL d   1       2.125   2.836   0.441  0.00  0.00    -0.287 N 
ATOM     24  C   UNL d   1       2.353   3.509   1.621  0.00  0.00     0.060 A 
ATOM     25  C   UNL d   1       2.066   4.842   1.343  0.00  0.00     0.150 A 
ATOM     26  C   UNL d   1       2.785   2.846   2.880  0.00  0.00     0.072 C 
ATOM     27  C   UNL d   1       1.773   4.879  -0.044  0.00  0.00     0.057 A 
ATOM     28  N   UNL d   1       1.800   3.653  -0.588  0.00  0.00    -0.300 N 
ATOM     29  C   UNL d   1       1.439   6.052  -0.895  0.00  0.00     0.072 C 
ATOM     30  HN  UNL d   1       1.618   3.395  -1.558  1.00  0.00     0.187 HD
BRANCH  25  31
ATOM     31  N   UNL d   1       2.061   5.944   2.272  0.00  0.00    -0.112 N 
ATOM     32  O   UNL d   1       2.245   5.684   3.471  0.00  0.00    -0.532 OA
ATOM     33  O   UNL d   1       1.825   7.068   1.818  0.00  0.00    -0.532 OA
ENDBRANCH  25  31
ENDBRANCH  22  23
ENDBRANCH   1  22
TORSDOF 7
