REMARK  3 active torsions:
REMARK  status: ('A' for Active; 'I' for Inactive)
REMARK    1  A    between atoms: C_2  and  S_1 
REMARK    2  A    between atoms: C_3  and  S_1 
REMARK    3  A    between atoms: C_4  and  C_2 
ROOT
ATOM      1  S   UNL d   1       1.202  -0.133  -0.016  0.00  0.00     0.195 S 
ATOM      2  O   UNL d   1       0.690  -1.485   0.129  0.00  0.00    -0.221 OA
ATOM      3  O   UNL d   1       2.635   0.125  -0.013  0.00  0.00    -0.221 OA
ENDROOT
BRANCH   1   4
ATOM      4  C   UNL d   1       0.426   0.935   1.190  0.00  0.00     0.189 C 
BRANCH   4   5
ATOM      5  C   UNL d   1       0.908   0.573   2.570  0.00  0.00    -0.005 A 
ATOM      6  C   UNL d   1       0.240  -0.399   3.321  0.00  0.00     0.124 A 
ATOM      7  C   UNL d   1       0.653  -0.742   4.604  0.00  0.00     0.061 A 
ATOM      8  F   UNL d   1      -0.842  -1.002   2.809  0.00  0.00    -0.205 F 
ATOM      9  C   UNL d   1       1.759  -0.101   5.153  0.00  0.00     0.013 A 
ATOM     10  C   UNL d   1       2.450   0.867   4.425  0.00  0.00     0.020 A 
ATOM     11 BR   UNL d   1       2.324  -0.538   6.903  0.00  0.00    -0.051 Br
ATOM     12  C   UNL d   1       2.029   1.201   3.134  0.00  0.00     0.012 A 
ENDBRANCH   4   5
ENDBRANCH   1   4
BRANCH   1  13
ATOM     13  C   UNL d   1       0.598   0.468  -1.584  0.00  0.00     0.128 A 
ATOM     14  N   UNL d   1      -0.246   1.530  -1.510  0.00  0.00    -0.357 N 
ATOM     15  C   UNL d   1      -0.685   2.008  -2.694  0.00  0.00     0.089 A 
ATOM     16  HN  UNL d   1      -0.530   1.938  -0.619  1.00  0.00     0.166 HD
ATOM     17  C   UNL d   1      -0.317   1.482  -3.925  0.00  0.00     0.017 A 
ATOM     18  C   UNL d   1       0.553   0.393  -3.954  0.00  0.00     0.004 A 
ATOM     19  C   UNL d   1       1.026  -0.134  -2.758  0.00  0.00     0.042 A 
ENDBRANCH   1  13
TORSDOF 3
