REMARK  5 active torsions:
REMARK  status: ('A' for Active; 'I' for Inactive)
REMARK    1  A    between atoms: S_4  and  C_1 
REMARK    2  A    between atoms: C_6  and  C_2 
REMARK       I    between atoms: N_12  and  C_6 
REMARK    3  A    between atoms: C_8  and  C_11 
REMARK    4  A    between atoms: C_9  and  C_10 
REMARK    5  A    between atoms: C_13  and  N_12 
ROOT
ATOM      1  C   UNL d   1       4.298   1.601  -0.307  0.00  0.00     0.050 A 
ATOM      2  C   UNL d   1       4.636   3.825   0.626  0.00  0.00     0.050 A 
ATOM      3  C   UNL d   1       2.392   3.108  -0.023  0.00  0.00     0.036 A 
ATOM      4  C   UNL d   1       5.143   2.575   0.233  0.00  0.00     0.032 A 
ATOM      5  C   UNL d   1       2.936   1.896  -0.459  0.00  0.00     0.045 A 
ATOM      6  C   UNL d   1       3.259   4.090   0.472  0.00  0.00     0.045 A 
ENDROOT
BRANCH   3   7
ATOM      7  N   UNL d   1       0.997   3.359  -0.005  0.00  0.00    -0.322 N 
ATOM      8  C   UNL d   1       0.007   2.379  -0.084  0.00  0.00     0.264 C 
ATOM      9  O   UNL d   1       0.256   1.187  -0.199  0.00  0.00    -0.267 OA
ATOM     10  H   UNL d   1       0.692   4.294   0.234  0.00  0.00     0.169 HD
BRANCH   8  11
ATOM     11  C   UNL d   1      -1.377   2.833   0.028  0.00  0.00     0.096 A 
ATOM     12  C   UNL d   1      -2.515   2.156  -0.398  0.00  0.00     0.078 A 
ATOM     13  C   UNL d   1      -3.716   2.835  -0.029  0.00  0.00     0.088 A 
ATOM     14 CL   UNL d   1      -2.490   0.678  -1.278  0.00  0.00    -0.081 Cl
ATOM     15  C   UNL d   1      -3.454   4.012   0.643  0.00  0.00     0.075 A 
ATOM     16  S   UNL d   1      -1.779   4.298   0.818  0.00  0.00    -0.093 SA
BRANCH  13  17
ATOM     17  S   UNL d   1      -5.325   2.315  -0.423  0.00  0.00     0.174 S 
ATOM     18  O   UNL d   1      -6.184   3.288   0.223  0.00  0.00    -0.223 OA
ATOM     19  O   UNL d   1      -5.309   2.153  -1.861  0.00  0.00    -0.223 OA
ATOM     20  C   UNL d   1      -5.570   0.746   0.367  0.00  0.00     0.167 C 
ENDBRANCH  13  17
ENDBRANCH   8  11
ENDBRANCH   3   7
BRANCH   1  21
ATOM     21  C   UNL d   1       4.795   0.223  -0.675  0.00  0.00     0.417 C 
ATOM     22  F   UNL d   1       6.096   0.012  -0.334  0.00  0.00    -0.166 F 
ATOM     23  F   UNL d   1       4.088  -0.764  -0.057  0.00  0.00    -0.166 F 
ATOM     24  F   UNL d   1       4.709  -0.028  -2.009  0.00  0.00    -0.166 F 
ENDBRANCH   1  21
BRANCH   2  25
ATOM     25  C   UNL d   1       5.542   4.850   1.265  0.00  0.00     0.417 C 
ATOM     26  F   UNL d   1       6.810   4.399   1.477  0.00  0.00    -0.166 F 
ATOM     27  F   UNL d   1       5.664   5.982   0.523  0.00  0.00    -0.166 F 
ATOM     28  F   UNL d   1       5.084   5.249   2.487  0.00  0.00    -0.166 F 
ENDBRANCH   2  25
TORSDOF 5
