REMARK  5 active torsions:
REMARK  status: ('A' for Active; 'I' for Inactive)
REMARK    1  A    between atoms: O_13  and  C_5 
REMARK    2  A    between atoms: C_12  and  C_7 
REMARK    3  A    between atoms: O_17  and  C_12 
REMARK    4  A    between atoms: C_15  and  O_13 
REMARK    5  A    between atoms: C_25  and  O_17 
ROOT
ATOM      1  C   UNL d   1       0.156  -0.743  -0.028  0.00  0.00     0.068 A 
ATOM      2  C   UNL d   1       0.146   0.645  -0.054  0.00  0.00     0.137 A 
ATOM      3  N   UNL d   1       2.325  -0.002  -0.162  0.00  0.00    -0.301 N 
ATOM      4  HN  UNL d   1       3.342   0.033  -0.226  1.00  0.00     0.187 HD
ATOM      5  C   UNL d   1      -1.074  -1.427   0.080  0.00  0.00     0.109 C 
ATOM      6  N   UNL d   1       1.456   1.031  -0.125  0.00  0.00    -0.280 N 
ATOM      7  C   UNL d   1      -2.208  -0.619   0.273  0.00  0.00     0.089 C 
ATOM      8  C   UNL d   1       1.536  -1.085  -0.097  0.00  0.00     0.039 A 
ATOM      9  N   UNL d   1      -0.931   1.453   0.002  0.00  0.00    -0.349 N 
ATOM     10  HN  UNL d   1      -0.882   2.468  -0.079  1.00  0.00     0.167 HD
ATOM     11  C   UNL d   1      -2.086   0.767   0.175  0.00  0.00     0.110 C 
ATOM     12  C   UNL d   1       1.960   2.381  -0.095  0.00  0.00     0.179 C 
ATOM     13  C   UNL d   1       2.139  -2.440  -0.061  0.00  0.00     0.071 C 
ENDROOT
BRANCH   5  14
ATOM     14  O   UNL d   1      -1.022  -2.800   0.068  0.00  0.00    -0.309 OA
BRANCH  14  15
ATOM     15  C   UNL d   1      -2.033  -3.542  -0.497  0.00  0.00     0.076 A 
ATOM     16  C   UNL d   1      -2.806  -3.140  -1.591  0.00  0.00     0.040 A 
ATOM     17  C   UNL d   1      -3.913  -3.904  -1.968  0.00  0.00     0.045 A 
ATOM     18  C   UNL d   1      -4.193  -5.091  -1.300  0.00  0.00     0.116 A 
ATOM     19  C   UNL d   1      -3.368  -5.550  -0.280  0.00  0.00     0.045 A 
ATOM     20  F   UNL d   1      -5.278  -5.799  -1.638  0.00  0.00    -0.206 F 
ATOM     21  C   UNL d   1      -2.280  -4.774   0.119  0.00  0.00     0.040 A 
ENDBRANCH  14  15
ENDBRANCH   5  14
BRANCH   7  22
ATOM     22  C   UNL d   1      -3.561  -1.101   0.591  0.00  0.00     0.297 C 
ATOM     23  O   UNL d   1      -4.566  -0.617   0.103  0.00  0.00    -0.259 OA
BRANCH  22  24
ATOM     24  O   UNL d   1      -3.501  -2.058   1.546  0.00  0.00    -0.318 OA
BRANCH  24  25
ATOM     25  C   UNL d   1      -4.759  -2.647   1.906  0.00  0.00     0.174 C 
ATOM     26  C   UNL d   1      -5.358  -1.889   3.072  0.00  0.00     0.034 C 
ENDBRANCH  24  25
ENDBRANCH  22  24
ENDBRANCH   7  22
TORSDOF 5
