REMARK  5 active torsions:
REMARK  status: ('A' for Active; 'I' for Inactive)
REMARK    1  A    between atoms: C_6  and  C_1 
REMARK    2  A    between atoms: C_8  and  C_5 
REMARK       I    between atoms: C_7  and  N_11 
REMARK    3  A    between atoms: C_14  and  C_7 
REMARK    4  A    between atoms: C_10  and  C_8 
REMARK       I    between atoms: N_13  and  C_10 
REMARK    5  A    between atoms: N_11  and  N_13 
ROOT
ATOM      1  C   UNL d   1       3.652   0.897   0.013  0.00  0.00     0.241 C 
ATOM      2  N   UNL d   1       3.715  -0.460  -0.155  0.00  0.00    -0.267 N 
ATOM      3  O   UNL d   1       4.691   1.566   0.099  0.00  0.00    -0.271 OA
ATOM      4  H   UNL d   1       2.903  -1.032  -0.387  0.00  0.00     0.190 HD
ENDROOT
BRANCH   1   5
ATOM      5  C   UNL d   1       2.308   1.592   0.082  0.00  0.00     0.162 C 
BRANCH   5   6
ATOM      6  C   UNL d   1       1.045   0.795   0.026  0.00  0.00     0.025 A 
ATOM      7  N   UNL d   1       0.873  -0.204  -0.923  0.00  0.00    -0.352 N 
ATOM      8  C   UNL d   1      -0.386  -0.611  -0.946  0.00  0.00     0.091 A 
ATOM      9  HN  UNL d   1       1.613  -0.572  -1.520  1.00  0.00     0.166 HD
ATOM     10  S   UNL d   1      -1.393   0.095   0.261  0.00  0.00    -0.081 SA
ATOM     11  C   UNL d   1      -0.092   1.080   0.762  0.00  0.00     0.077 A 
BRANCH   8  12
ATOM     12  C   UNL d   1      -0.873  -1.523  -1.959  0.00  0.00     0.038 A 
ATOM     13  S   UNL d   1      -2.526  -1.962  -2.147  0.00  0.00    -0.099 SA
ATOM     14  C   UNL d   1      -2.205  -2.884  -3.549  0.00  0.00     0.050 A 
ATOM     15  C   UNL d   1      -0.865  -2.896  -3.859  0.00  0.00     0.008 A 
ATOM     16  C   UNL d   1      -0.100  -2.125  -2.938  0.00  0.00     0.022 A 
ENDBRANCH   8  12
ENDBRANCH   5   6
ENDBRANCH   1   5
BRANCH   2  17
ATOM     17  N   UNL d   1       5.002  -1.019  -0.361  0.00  0.00    -0.263 N 
ATOM     18  C   UNL d   1       5.238  -2.315   0.053  0.00  0.00     0.270 C 
ATOM     19  O   UNL d   1       4.360  -3.061   0.479  0.00  0.00    -0.266 OA
ATOM     20  H   UNL d   1       5.762  -0.337  -0.373  0.00  0.00     0.190 HD
BRANCH  18  21
ATOM     21  C   UNL d   1       6.642  -2.809  -0.061  0.00  0.00     0.033 A 
ATOM     22  C   UNL d   1       7.081  -3.791   0.840  0.00  0.00     0.019 A 
ATOM     23  C   UNL d   1       8.345  -4.373   0.696  0.00  0.00     0.025 A 
ATOM     24  C   UNL d   1       9.169  -3.982  -0.357  0.00  0.00     0.034 A 
ATOM     25  C   UNL d   1       8.753  -2.992  -1.248  0.00  0.00     0.025 A 
ATOM     26 CL   UNL d   1      10.695  -4.747  -0.578  0.00  0.00    -0.084 Cl
ATOM     27  C   UNL d   1       7.492  -2.401  -1.100  0.00  0.00     0.019 A 
ENDBRANCH  18  21
ENDBRANCH   2  17
TORSDOF 5
