REMARK  6 active torsions:
REMARK  status: ('A' for Active; 'I' for Inactive)
REMARK    1  A    between atoms: C_6  and  C_1 
REMARK    2  A    between atoms: C_7  and  C_3 
REMARK    3  A    between atoms: O_11  and  C_6 
REMARK    4  A    between atoms: O_12  and  C_7 
REMARK    5  A    between atoms: C_15  and  O_11 
REMARK    6  A    between atoms: C_14  and  O_12 
ROOT
ATOM      1  C   UNL d   1      -1.195   0.179   0.009  0.00  0.00     0.070 A 
ATOM      2  C   UNL d   1      -0.038   1.043  -0.003  0.00  0.00    -0.011 A 
ATOM      3  C   UNL d   1       1.093   0.234  -0.002  0.00  0.00     0.115 A 
ATOM      4  N   UNL d   1       0.660  -1.067   0.019  0.00  0.00    -0.354 N 
ATOM      5  C   UNL d   1      -0.708  -1.128   0.011  0.00  0.00     0.022 A 
ATOM      6  C   UNL d   1      -0.007   2.537  -0.020  0.00  0.00     0.052 C 
ATOM      7  C   UNL d   1      -1.403  -2.446   0.017  0.00  0.00     0.069 C 
ATOM      8  H   UNL d   1       1.286  -1.864   0.022  0.00  0.00     0.166 HD
ENDROOT
BRANCH   1   9
ATOM      9  C   UNL d   1      -2.604   0.591   0.056  0.00  0.00     0.295 C 
ATOM     10  O   UNL d   1      -2.968   1.757   0.099  0.00  0.00    -0.259 OA
BRANCH   9  11
ATOM     11  O   UNL d   1      -3.462  -0.468   0.144  0.00  0.00    -0.318 OA
BRANCH  11  12
ATOM     12  C   UNL d   1      -4.753  -0.157   0.675  0.00  0.00     0.174 C 
ATOM     13  C   UNL d   1      -4.665  -0.240   2.189  0.00  0.00     0.034 C 
ENDBRANCH  11  12
ENDBRANCH   9  11
ENDBRANCH   1   9
BRANCH   3  14
ATOM     14  C   UNL d   1       2.484   0.624  -0.059  0.00  0.00     0.310 C 
ATOM     15  O   UNL d   1       2.904   1.772  -0.105  0.00  0.00    -0.258 OA
BRANCH  14  16
ATOM     16  O   UNL d   1       3.258  -0.495  -0.153  0.00  0.00    -0.317 OA
BRANCH  16  17
ATOM     17  C   UNL d   1       4.579  -0.260  -0.657  0.00  0.00     0.175 C 
ATOM     18  C   UNL d   1       4.518  -0.338  -2.172  0.00  0.00     0.034 C 
ENDBRANCH  16  17
ENDBRANCH  14  16
ENDBRANCH   3  14
TORSDOF 6
