REMARK  5 active torsions:
REMARK  status: ('A' for Active; 'I' for Inactive)
REMARK    1  A    between atoms: C_6  and  C_1 
REMARK    2  A    between atoms: C_2  and  C_5 
REMARK    3  A    between atoms: N_8  and  C_3 
REMARK    4  A    between atoms: N_9  and  C_4 
REMARK       I    between atoms: C_5  and  N_7 
REMARK    5  A    between atoms: N_7  and  C_6 
ROOT
ATOM      1  C   UNL d   1       1.497  -0.338  -0.016  0.00  0.00     0.007 A 
ATOM      2  C   UNL d   1       0.557  -1.423  -0.123  0.00  0.00     0.039 A 
ATOM      3  C   UNL d   1       1.027   1.039  -0.109  0.00  0.00     0.020 A 
ATOM      4  C   UNL d   1      -0.351   1.287  -0.249  0.00  0.00     0.024 A 
ATOM      5  C   UNL d   1      -0.813  -1.056  -0.198  0.00  0.00     0.030 A 
ATOM      6  C   UNL d   1      -1.267   0.255  -0.262  0.00  0.00     0.004 A 
ENDROOT
BRANCH   1   7
ATOM      7  C   UNL d   1       2.956  -0.539   0.371  0.00  0.00     0.165 C 
BRANCH   7   8
ATOM      8  N   UNL d   1       3.970  -0.135  -0.586  0.00  0.00    -0.352 N 
ATOM      9  C   UNL d   1       4.470  -0.932  -1.579  0.00  0.00     0.253 C 
ATOM     10  O   UNL d   1       4.073  -2.071  -1.817  0.00  0.00    -0.268 OA
ATOM     11  H   UNL d   1       4.401   0.755  -0.393  0.00  0.00     0.163 HD
BRANCH   9  12
ATOM     12  C   UNL d   1       5.546  -0.343  -2.447  0.00  0.00     0.053 A 
ATOM     13  C   UNL d   1       6.467   0.641  -2.057  0.00  0.00     0.049 A 
ATOM     14 CL   UNL d   1       6.551   1.313  -0.465  0.00  0.00    -0.083 Cl
ATOM     15  C   UNL d   1       7.422   1.110  -2.972  0.00  0.00     0.025 A 
ATOM     16  C   UNL d   1       7.477   0.601  -4.270  0.00  0.00     0.002 A 
ATOM     17  C   UNL d   1       6.578  -0.385  -4.660  0.00  0.00     0.001 A 
ATOM     18  C   UNL d   1       5.624  -0.853  -3.757  0.00  0.00     0.019 A 
ENDBRANCH   9  12
ENDBRANCH   7   8
ENDBRANCH   1   7
BRANCH   2  19
ATOM     19  N   UNL d   1       0.791  -2.803  -0.091  0.00  0.00    -0.389 N 
ATOM     20  C   UNL d   1       1.972  -3.466   0.437  0.00  0.00     0.149 C 
ATOM     21  C   UNL d   1       0.038  -3.669  -1.016  0.00  0.00     0.149 C 
ENDBRANCH   2  19
BRANCH   3  22
ATOM     22  N   UNL d   1       1.925   2.143  -0.006  0.00  0.00    -0.291 NA
ATOM     23  C   UNL d   1       1.379   3.374   0.593  0.00  0.00     0.116 C 
ATOM     24  C   UNL d   1       2.634   2.420  -1.262  0.00  0.00     0.116 C 
ENDBRANCH   3  22
TORSDOF 5
