REMARK  3 active torsions:
REMARK  status: ('A' for Active; 'I' for Inactive)
REMARK    1  A    between atoms: C_4  and  C_1 
REMARK    2  A    between atoms: C_2  and  C_5 
REMARK    3  A    between atoms: O_14  and  C_2 
ROOT
ATOM      1  C   UNL d   1      -0.195   2.691  -0.037  0.00  0.00    -0.019 A 
ATOM      2  C   UNL d   1      -0.836   5.442  -0.227  0.00  0.00     0.037 A 
ATOM      3  C   UNL d   1      -0.053   4.832  -1.213  0.00  0.00     0.019 A 
ATOM      4  C   UNL d   1      -1.314   4.675   0.839  0.00  0.00     0.019 A 
ATOM      5  C   UNL d   1       0.268   3.471  -1.110  0.00  0.00     0.014 A 
ATOM      6  C   UNL d   1      -0.997   3.316   0.931  0.00  0.00     0.014 A 
ENDROOT
BRANCH   1   7
ATOM      7  C   UNL d   1       0.129   1.252   0.032  0.00  0.00     0.015 A 
ATOM      8  S   UNL d   1       0.308   0.459   1.550  0.00  0.00    -0.101 SA
ATOM      9  C   UNL d   1       0.619  -1.051   0.818  0.00  0.00     0.050 A 
ATOM     10  C   UNL d   1       0.624  -0.966  -0.554  0.00  0.00     0.008 A 
ATOM     11  C   UNL d   1       0.349   0.359  -1.005  0.00  0.00     0.020 A 
ENDBRANCH   1   7
BRANCH   2  12
ATOM     12  C   UNL d   1      -1.236   6.872  -0.287  0.00  0.00     0.176 C 
ATOM     13  O   UNL d   1      -2.275   7.286   0.198  0.00  0.00    -0.646 OA
BRANCH  12  14
ATOM     14  O   UNL d   1      -0.335   7.675  -0.889  0.00  0.00    -0.773 OA
ATOM     15  H   UNL d   1       0.531   7.268  -1.071  0.00  0.00     0.167 HD
ENDBRANCH  12  14
ENDBRANCH   2  12
TORSDOF 3
