REMARK  3 active torsions:
REMARK  status: ('A' for Active; 'I' for Inactive)
REMARK    1  A    between atoms: C_2  and  C_1 
REMARK    2  A    between atoms: O_4  and  C_2 
REMARK    3  A    between atoms: C_3  and  O_4 
ROOT
ATOM      1  C   UNL d   1       0.632   3.513  -0.271  0.00  0.00     0.107 A 
ATOM      2  C   UNL d   1       1.451   2.820  -1.178  0.00  0.00     0.069 A 
ATOM      3  C   UNL d   1       1.196   4.287   0.759  0.00  0.00    -0.025 A 
ATOM      4  C   UNL d   1       2.836   2.841  -1.024  0.00  0.00     0.046 A 
ATOM      5  C   UNL d   1       3.400   3.584   0.009  0.00  0.00     0.013 A 
ATOM      6  C   UNL d   1       2.594   4.310   0.888  0.00  0.00     0.028 A 
ATOM      7 CL   UNL d   1       0.805   1.992  -2.551  0.00  0.00    -0.081 Cl
ATOM      8 BR   UNL d   1       5.281   3.650   0.194  0.00  0.00    -0.051 Br
ATOM      9  C   UNL d   1       0.378   5.139   1.686  0.00  0.00     0.051 C 
ENDROOT
BRANCH   1  10
ATOM     10  O   UNL d   1      -0.763   3.558  -0.446  0.00  0.00    -0.271 OA
BRANCH  10  11
ATOM     11  C   UNL d   1      -1.446   2.351  -0.296  0.00  0.00     0.324 C 
ATOM     12  O   UNL d   1      -0.957   1.303   0.111  0.00  0.00    -0.257 OA
BRANCH  11  13
ATOM     13  C   UNL d   1      -2.813   2.514  -0.721  0.00  0.00     0.175 A 
ATOM     14  O   UNL d   1      -3.317   3.771  -0.879  0.00  0.00    -0.232 OA
ATOM     15  N   UNL d   1      -4.642   3.692  -1.281  0.00  0.00    -0.272 N 
ATOM     16  C   UNL d   1      -4.910   2.392  -1.369  0.00  0.00     0.117 A 
ATOM     17  HN  UNL d   1      -5.278   4.468  -1.469  1.00  0.00     0.194 HD
ATOM     18  C   UNL d   1      -3.799   1.601  -1.025  0.00  0.00     0.065 A 
ENDBRANCH  11  13
ENDBRANCH  10  11
ENDBRANCH   1  10
TORSDOF 3
