REMARK  9 active torsions:
REMARK  status: ('A' for Active; 'I' for Inactive)
REMARK    1  A    between atoms: C_3  and  C_1 
REMARK       I    between atoms: C_2  and  N_6 
REMARK       I    between atoms: N_7  and  C_2 
REMARK       I    between atoms: C_4  and  N_8 
REMARK    2  A    between atoms: C_5  and  C_4 
REMARK    3  A    between atoms: C_13  and  C_5 
REMARK    4  A    between atoms: N_6  and  C_11 
REMARK    5  A    between atoms: N_8  and  N_7 
REMARK    6  A    between atoms: O_17  and  C_13 
REMARK    7  A    between atoms: O_18  and  C_13 
REMARK    8  A    between atoms: C_22  and  O_17 
REMARK    9  A    between atoms: C_23  and  O_18 
ROOT
ATOM      1  C   UNL d   1       1.779   1.124   1.599  0.00  0.00     0.339 C 
ATOM      2  N   UNL d   1       2.178   0.092   0.796  0.00  0.00    -0.308 N 
ATOM      3  N   UNL d   1       0.860   0.800   2.572  0.00  0.00    -0.249 N 
ATOM      4  O   UNL d   1       2.157   2.291   1.536  0.00  0.00    -0.245 OA
ATOM      5  H   UNL d   1       1.659  -0.763   0.946  0.00  0.00     0.170 HD
ATOM      6  H   UNL d   1       0.565   1.580   3.150  0.00  0.00     0.192 HD
ENDROOT
BRANCH   2   7
ATOM      7  C   UNL d   1       2.951   0.156  -0.378  0.00  0.00     0.037 A 
ATOM      8  C   UNL d   1       3.481   1.342  -0.891  0.00  0.00     0.045 A 
ATOM      9  C   UNL d   1       4.146   1.362  -2.129  0.00  0.00     0.050 A 
ATOM     10  C   UNL d   1       4.332   0.156  -2.822  0.00  0.00     0.016 A 
ATOM     11  C   UNL d   1       3.839  -1.037  -2.300  0.00  0.00     0.003 A 
ATOM     12  C   UNL d   1       3.141  -1.034  -1.093  0.00  0.00     0.029 A 
BRANCH   9  13
ATOM     13  C   UNL d   1       4.609   2.663  -2.733  0.00  0.00     0.417 C 
ATOM     14  F   UNL d   1       4.338   3.759  -1.971  0.00  0.00    -0.166 F 
ATOM     15  F   UNL d   1       4.029   2.902  -3.943  0.00  0.00    -0.166 F 
ATOM     16  F   UNL d   1       5.953   2.688  -2.956  0.00  0.00    -0.166 F 
ENDBRANCH   9  13
ENDBRANCH   2   7
BRANCH   3  17
ATOM     17  N   UNL d   1       0.439  -0.491   2.942  0.00  0.00    -0.266 N 
ATOM     18  C   UNL d   1      -0.373  -1.216   2.088  0.00  0.00     0.240 C 
ATOM     19  O   UNL d   1      -0.326  -1.127   0.863  0.00  0.00    -0.272 OA
ATOM     20  H   UNL d   1       0.299  -0.628   3.946  0.00  0.00     0.190 HD
BRANCH  18  21
ATOM     21  C   UNL d   1      -1.329  -2.155   2.773  0.00  0.00     0.165 C 
BRANCH  21  22
ATOM     22  C   UNL d   1      -0.588  -3.197   3.600  0.00  0.00     0.268 C 
BRANCH  22  23
ATOM     23  O   UNL d   1      -0.176  -2.527   4.806  0.00  0.00    -0.361 OA
BRANCH  23  24
ATOM     24  C   UNL d   1       0.498  -3.399   5.714  0.00  0.00     0.166 C 
ATOM     25  C   UNL d   1       0.955  -2.582   6.908  0.00  0.00     0.033 C 
ENDBRANCH  23  24
ENDBRANCH  22  23
BRANCH  22  26
ATOM     26  O   UNL d   1      -1.457  -4.287   3.908  0.00  0.00    -0.361 OA
BRANCH  26  27
ATOM     27  C   UNL d   1      -1.627  -5.199   2.824  0.00  0.00     0.166 C 
ATOM     28  C   UNL d   1      -2.489  -6.354   3.294  0.00  0.00     0.033 C 
ENDBRANCH  26  27
ENDBRANCH  22  26
ENDBRANCH  21  22
ENDBRANCH  18  21
ENDBRANCH   3  17
TORSDOF 9
