REMARK  2 active torsions:
REMARK  status: ('A' for Active; 'I' for Inactive)
REMARK       I    between atoms: N_2  and  C_1 
REMARK       I    between atoms: N_5  and  C_1 
REMARK    1  A    between atoms: C_4  and  C_3 
REMARK    2  A    between atoms: C_12  and  N_5 
ROOT
ATOM      1  C   UNL d   1       0.731  -0.268  -0.171  0.00  0.00     0.323 C 
ATOM      2  N   UNL d   1       0.346   0.456  -1.293  0.00  0.00    -0.325 N 
ATOM      3  C   UNL d   1       0.668  -0.009  -2.644  0.00  0.00     0.129 C 
ATOM      4  N   UNL d   1       0.417   0.340   1.027  0.00  0.00    -0.309 N 
ATOM      5  O   UNL d   1       1.314  -1.342  -0.270  0.00  0.00    -0.247 OA
ATOM      6  C   UNL d   1      -0.695   1.474  -1.335  0.00  0.00     0.128 C 
ATOM      7  C   UNL d   1       0.153   1.124  -3.539  0.00  0.00     0.032 C 
ATOM      8  C   UNL d   1      -1.088   1.599  -2.800  0.00  0.00     0.022 C 
ATOM      9  H   UNL d   1      -0.218   1.119   0.991  0.00  0.00     0.170 HD
ENDROOT
BRANCH   3  10
ATOM     10  C   UNL d   1       2.137  -0.251  -2.852  0.00  0.00     0.005 A 
ATOM     11  S   UNL d   1       2.651  -1.751  -3.518  0.00  0.00    -0.104 SA
ATOM     12  C   UNL d   1       4.300  -1.341  -3.348  0.00  0.00     0.050 A 
ATOM     13  C   UNL d   1       4.465  -0.069  -2.851  0.00  0.00     0.008 A 
ATOM     14  C   UNL d   1       3.218   0.564  -2.570  0.00  0.00     0.017 A 
ENDBRANCH   3  10
BRANCH   4  15
ATOM     15  C   UNL d   1       0.825  -0.065   2.318  0.00  0.00     0.036 A 
ATOM     16  C   UNL d   1       1.810  -1.026   2.553  0.00  0.00     0.029 A 
ATOM     17  C   UNL d   1       2.164  -1.379   3.860  0.00  0.00     0.002 A 
ATOM     18  C   UNL d   1       1.534  -0.770   4.942  0.00  0.00     0.000 A 
ATOM     19  C   UNL d   1       0.564   0.201   4.720  0.00  0.00     0.002 A 
ATOM     20  C   UNL d   1       0.216   0.560   3.413  0.00  0.00     0.029 A 
ENDBRANCH   4  15
TORSDOF 2
