REMARK  7 active torsions:
REMARK  status: ('A' for Active; 'I' for Inactive)
REMARK    1  A    between atoms: C_11  and  C_1 
REMARK    2  A    between atoms: C_2  and  C_6 
REMARK    3  A    between atoms: O_14  and  N_3 
REMARK    4  A    between atoms: C_5  and  C_13 
REMARK    5  A    between atoms: N_24  and  C_5 
REMARK    6  A    between atoms: C_9  and  O_14 
REMARK    7  A    between atoms: C_10  and  C_9 
ROOT
ATOM      1  N   UNL d   1      -2.159  -5.754  -1.094  0.00  0.00    -0.241 N 
ATOM      2  HN  UNL d   1      -2.468  -6.722  -1.184  1.00  0.00     0.196 HD
ATOM      3  C   UNL d   1      -0.915  -5.404  -0.908  0.00  0.00     0.129 C 
ENDROOT
BRANCH   3   4
ATOM      4  C   UNL d   1       0.110  -6.515  -0.806  0.00  0.00     0.009 A 
ATOM      5  C   UNL d   1      -0.326  -7.844  -0.920  0.00  0.00     0.016 A 
ATOM      6  C   UNL d   1       0.571  -8.911  -0.798  0.00  0.00     0.017 A 
ATOM      7  C   UNL d   1       1.933  -8.672  -0.572  0.00  0.00     0.048 A 
ATOM      8  C   UNL d   1       2.374  -7.343  -0.471  0.00  0.00     0.017 A 
ATOM      9  C   UNL d   1       1.474  -6.274  -0.592  0.00  0.00     0.016 A 
BRANCH   7  10
ATOM     10  C   UNL d   1       2.892  -9.834  -0.462  0.00  0.00     0.417 C 
ATOM     11  F   UNL d   1       4.187  -9.453  -0.274  0.00  0.00    -0.166 F 
ATOM     12  F   UNL d   1       2.892 -10.615  -1.578  0.00  0.00    -0.166 F 
ATOM     13  F   UNL d   1       2.594 -10.665   0.575  0.00  0.00    -0.166 F 
ENDBRANCH   7  10
ENDBRANCH   3   4
BRANCH   3  14
ATOM     14  N   UNL d   1      -0.507  -4.093  -0.801  0.00  0.00    -0.383 N 
ATOM     15  H   UNL d   1      -1.269  -3.437  -0.652  0.00  0.00     0.157 HD
ATOM     16  H   UNL d   1       0.305  -3.883  -0.233  0.00  0.00     0.157 HD
ENDBRANCH   3  14
BRANCH   1  17
ATOM     17  O   UNL d   1      -3.030  -4.646  -1.157  0.00  0.00    -0.194 OA
BRANCH  17  18
ATOM     18  C   UNL d   1      -4.366  -4.935  -1.358  0.00  0.00     0.304 C 
ATOM     19  O   UNL d   1      -5.197  -4.026  -1.374  0.00  0.00    -0.258 OA
BRANCH  18  20
ATOM     20  C   UNL d   1      -4.789  -6.349  -1.547  0.00  0.00     0.085 C 
ATOM     21  C   UNL d   1      -6.070  -6.696  -1.773  0.00  0.00     0.025 C 
BRANCH  21  22
ATOM     22  C   UNL d   1      -6.501  -8.061  -1.942  0.00  0.00     0.011 A 
ATOM     23  C   UNL d   1      -7.732  -8.660  -1.643  0.00  0.00    -0.044 A 
ATOM     24  C   UNL d   1      -7.751 -10.055  -2.007  0.00  0.00     0.015 A 
ATOM     25  C   UNL d   1      -8.938  -8.010  -1.030  0.00  0.00     0.049 C 
ATOM     26  C   UNL d   1      -6.584 -10.468  -2.596  0.00  0.00     0.051 A 
ATOM     27  S   UNL d   1      -5.442  -9.217  -2.683  0.00  0.00    -0.102 SA
ENDBRANCH  21  22
ENDBRANCH  18  20
ENDBRANCH  17  18
ENDBRANCH   1  17
TORSDOF 7
