REMARK  3 active torsions:
REMARK  status: ('A' for Active; 'I' for Inactive)
REMARK    1  A    between atoms: C_3  and  C_1 
REMARK    2  A    between atoms: C_12  and  C_2 
REMARK    3  A    between atoms: O_17  and  C_12 
ROOT
ATOM      1  C   UNL d   1       4.114   0.929   1.330  0.00  0.00     0.053 A 
ATOM      2  C   UNL d   1       3.569   0.266   0.046  0.00  0.00     0.106 A 
ATOM      3  C   UNL d   1       4.136   0.904  -1.225  0.00  0.00     0.024 A 
ATOM      4  C   UNL d   1       4.974   1.976   1.266  0.00  0.00     0.018 A 
ATOM      5  C   UNL d   1       4.998   1.936  -1.187  0.00  0.00     0.020 A 
ATOM      6  N   UNL d   1       5.405   2.437   0.028  0.00  0.00    -0.362 N 
ATOM      7  C   UNL d   1       3.696   0.378  -2.549  0.00  0.00     0.158 C 
ATOM      8  O   UNL d   1       3.163  -0.723  -2.657  0.00  0.00    -0.293 OA
ATOM      9  C   UNL d   1       5.571   2.598  -2.418  0.00  0.00     0.058 C 
ATOM     10  C   UNL d   1       5.550   2.738   2.435  0.00  0.00     0.069 C 
ATOM     11  C   UNL d   1       3.915   1.270  -3.750  0.00  0.00     0.084 C 
ATOM     12  C   UNL d   1       5.331   1.813  -3.705  0.00  0.00     0.014 C 
ATOM     13  H   UNL d   1       6.042   3.231   0.025  0.00  0.00     0.165 HD
ENDROOT
BRANCH   2  14
ATOM     14  C   UNL d   1       2.033   0.176   0.027  0.00  0.00     0.003 A 
ATOM     15  S   UNL d   1       1.110   1.620   0.055  0.00  0.00    -0.092 SA
ATOM     16  C   UNL d   1      -0.381   0.776   0.002  0.00  0.00     0.016 A 
ATOM     17  C   UNL d   1      -1.670   1.344  -0.010  0.00  0.00     0.019 A 
ATOM     18  C   UNL d   1      -0.184  -0.604  -0.033  0.00  0.00    -0.012 A 
ATOM     19  C   UNL d   1      -2.781   0.501  -0.060  0.00  0.00     0.001 A 
ATOM     20  C   UNL d   1      -2.619  -0.875  -0.094  0.00  0.00     0.001 A 
ATOM     21  C   UNL d   1      -1.337  -1.432  -0.082  0.00  0.00     0.013 A 
ATOM     22  C   UNL d   1       1.223  -0.953  -0.021  0.00  0.00    -0.036 A 
ATOM     23  C   UNL d   1       1.696  -2.375  -0.077  0.00  0.00     0.050 C 
ENDBRANCH   2  14
BRANCH   1  24
ATOM     24  C   UNL d   1       3.588   0.407   2.621  0.00  0.00     0.291 C 
ATOM     25  O   UNL d   1       3.402   1.077   3.625  0.00  0.00    -0.260 OA
BRANCH  24  26
ATOM     26  O   UNL d   1       3.328  -0.922   2.514  0.00  0.00    -0.323 OA
ATOM     27  C   UNL d   1       2.648  -1.496   3.634  0.00  0.00     0.213 C 
ENDBRANCH  24  26
ENDBRANCH   1  24
TORSDOF 3
