REMARK  4 active torsions:
REMARK  status: ('A' for Active; 'I' for Inactive)
REMARK    1  A    between atoms: S_2  and  C_1 
REMARK    2  A    between atoms: C_10  and  S_2 
REMARK    3  A    between atoms: C_7  and  C_3 
REMARK       I    between atoms: N_13  and  C_7 
REMARK    4  A    between atoms: N_14  and  N_13 
ROOT
ATOM      1  C   UNL d   1      -0.058  -1.246   0.013  0.00  0.00     0.089 A 
ATOM      2  C   UNL d   1       0.282   1.067   0.075  0.00  0.00     0.097 A 
ATOM      3  C   UNL d   1      -0.644   0.044   0.225  0.00  0.00     0.078 A 
ATOM      4  S   UNL d   1       1.857   0.445  -0.218  0.00  0.00    -0.093 SA
ATOM      5  C   UNL d   1       1.302  -1.162  -0.209  0.00  0.00     0.075 A 
ATOM      6 CL   UNL d   1      -2.294   0.290   0.633  0.00  0.00    -0.081 Cl
ENDROOT
BRANCH   2   7
ATOM      7  C   UNL d   1       0.062   2.511   0.099  0.00  0.00     0.274 C 
ATOM      8  O   UNL d   1      -1.018   3.045  -0.151  0.00  0.00    -0.266 OA
ATOM      9  N   UNL d   1       1.187   3.282   0.410  0.00  0.00    -0.289 N 
ATOM     10  H   UNL d   1       2.039   2.823   0.723  0.00  0.00     0.183 HD
BRANCH   9  11
ATOM     11  N   UNL d   1       1.100   4.692   0.473  0.00  0.00    -0.247 NA
ATOM     12  H   UNL d   1       0.104   4.938   0.365  0.00  0.00     0.143 HD
ATOM     13  H   UNL d   1       1.545   5.076  -0.365  0.00  0.00     0.143 HD
ENDBRANCH   9  11
ENDBRANCH   2   7
BRANCH   1  14
ATOM     14  S   UNL d   1      -0.879  -2.777   0.073  0.00  0.00     0.181 S 
ATOM     15  O   UNL d   1       0.132  -3.737  -0.325  0.00  0.00    -0.222 OA
ATOM     16  O   UNL d   1      -1.462  -2.799   1.397  0.00  0.00    -0.222 OA
BRANCH  14  17
ATOM     17  C   UNL d   1      -2.171  -2.746  -1.173  0.00  0.00     0.105 C 
ATOM     18  C   UNL d   1      -1.624  -2.472  -2.570  0.00  0.00     0.026 C 
ATOM     19  C   UNL d   1      -2.924  -4.077  -1.157  0.00  0.00     0.026 C 
ENDBRANCH  14  17
ENDBRANCH   1  14
TORSDOF 4
