REMARK  4 active torsions:
REMARK  status: ('A' for Active; 'I' for Inactive)
REMARK    1  A    between atoms: C_8  and  C_1 
REMARK    2  A    between atoms: N_3  and  C_2 
REMARK       I    between atoms: N_20  and  C_8 
REMARK    3  A    between atoms: C_13  and  C_19 
REMARK    4  A    between atoms: N_14  and  N_20 
ROOT
ATOM      1  C   UNL d   1      -0.209  -2.629   0.226  0.00  0.00     0.280 C 
ATOM      2  N   UNL d   1       0.849  -3.528   0.024  0.00  0.00    -0.266 N 
ATOM      3  O   UNL d   1       0.007  -1.448   0.505  0.00  0.00    -0.265 OA
ATOM      4  H   UNL d   1       0.689  -4.497  -0.206  0.00  0.00     0.190 HD
ENDROOT
BRANCH   2   5
ATOM      5  N   UNL d   1       2.128  -3.041   0.132  0.00  0.00    -0.308 N 
ATOM      6  C   UNL d   1       3.121  -3.851  -0.060  0.00  0.00     0.126 C 
ATOM      7  HN  UNL d   1       2.294  -2.061   0.358  1.00  0.00     0.186 HD
BRANCH   6   8
ATOM      8  C   UNL d   1       4.470  -3.336   0.034  0.00  0.00     0.024 A 
ATOM      9  S   UNL d   1       5.812  -4.368  -0.219  0.00  0.00    -0.065 SA
ATOM     10  C   UNL d   1       6.915  -3.084  -0.024  0.00  0.00     0.144 A 
ATOM     11  C   UNL d   1       6.293  -1.889   0.265  0.00  0.00     0.045 A 
ATOM     12  C   UNL d   1       4.874  -2.040   0.304  0.00  0.00     0.023 A 
BRANCH  10  13
ATOM     13  N   UNL d   1       8.332  -3.294  -0.170  0.00  0.00    -0.108 N 
ATOM     14  O   UNL d   1       9.054  -2.296  -0.027  0.00  0.00    -0.531 OA
ATOM     15  O   UNL d   1       8.734  -4.436  -0.431  0.00  0.00    -0.531 OA
ENDBRANCH  10  13
ENDBRANCH   6   8
ENDBRANCH   2   5
BRANCH   1  16
ATOM     16  C   UNL d   1      -1.558  -3.150   0.095  0.00  0.00     0.115 A 
ATOM     17  C   UNL d   1      -2.780  -2.496   0.238  0.00  0.00     0.046 A 
ATOM     18  N   UNL d   1      -3.894  -3.310   0.041  0.00  0.00    -0.298 N 
ATOM     19  C   UNL d   1      -3.051  -1.073   0.569  0.00  0.00     0.071 C 
ATOM     20  N   UNL d   1      -3.558  -4.554  -0.244  0.00  0.00    -0.269 N 
ATOM     21  HN  UNL d   1      -4.858  -2.983   0.108  1.00  0.00     0.187 HD
ATOM     22  S   UNL d   1      -1.909  -4.782  -0.284  0.00  0.00     0.009 SA
ATOM     23  HN  UNL d   1      -4.235  -5.296  -0.421  1.00  0.00     0.195 HD
ENDBRANCH   1  16
TORSDOF 4
