REMARK  8 active torsions:
REMARK  status: ('A' for Active; 'I' for Inactive)
REMARK    1  A    between atoms: C_4  and  C_1 
REMARK    2  A    between atoms: C_9  and  C_2 
REMARK    3  A    between atoms: S_3  and  N_10 
REMARK    4  A    between atoms: C_17  and  S_3 
REMARK       I    between atoms: N_13  and  C_9 
REMARK    5  A    between atoms: N_10  and  N_13 
REMARK    6  A    between atoms: C_23  and  C_15 
REMARK    7  A    between atoms: O_24  and  C_23 
REMARK    8  A    between atoms: C_25  and  O_24 
ROOT
ATOM      1  C   UNL d   1      -0.069  -1.286   0.008  0.00  0.00     0.057 A 
ATOM      2  C   UNL d   1      -1.405  -0.816   0.114  0.00  0.00     0.139 A 
ATOM      3  N   UNL d   1      -1.416   0.528   0.238  0.00  0.00    -0.255 N 
ATOM      4  HN  UNL d   1      -2.234   1.125   0.361  1.00  0.00     0.195 HD
ATOM      5  O   UNL d   1      -0.097   0.932   0.163  0.00  0.00    -0.241 OA
ATOM      6  C   UNL d   1       0.710  -0.154   0.038  0.00  0.00     0.087 A 
ATOM      7  C   UNL d   1       2.163   0.106   0.019  0.00  0.00     0.080 C 
ENDROOT
BRANCH   2   8
ATOM      8  C   UNL d   1      -2.666  -1.560   0.091  0.00  0.00     0.290 C 
ATOM      9  N   UNL d   1      -3.681  -0.941   0.803  0.00  0.00    -0.255 N 
ATOM     10  H   UNL d   1      -3.507  -0.070   1.302  0.00  0.00     0.191 HD
ATOM     11  O   UNL d   1      -2.848  -2.612  -0.521  0.00  0.00    -0.264 OA
BRANCH   9  12
ATOM     12  N   UNL d   1      -4.985  -1.558   0.870  0.00  0.00    -0.220 N 
ATOM     13  H   UNL d   1      -5.149  -2.456   0.401  0.00  0.00     0.200 HD
BRANCH  12  14
ATOM     14  S   UNL d   1      -6.236  -0.886   1.762  0.00  0.00     0.276 S 
ATOM     15  O   UNL d   1      -7.388  -1.759   1.641  0.00  0.00    -0.199 OA
ATOM     16  O   UNL d   1      -5.704  -0.495   3.053  0.00  0.00    -0.199 OA
BRANCH  14  17
ATOM     17  C   UNL d   1      -6.564   0.602   0.846  0.00  0.00     0.081 A 
ATOM     18  C   UNL d   1      -7.477   0.581  -0.214  0.00  0.00     0.027 A 
ATOM     19  C   UNL d   1      -7.731   1.760  -0.921  0.00  0.00     0.025 A 
ATOM     20  C   UNL d   1      -7.083   2.943  -0.560  0.00  0.00     0.034 A 
ATOM     21  C   UNL d   1      -6.187   2.965   0.509  0.00  0.00     0.025 A 
ATOM     22 CL   UNL d   1      -7.397   4.390  -1.436  0.00  0.00    -0.084 Cl
ATOM     23  C   UNL d   1      -5.930   1.793   1.221  0.00  0.00     0.027 A 
ENDBRANCH  14  17
ENDBRANCH  12  14
ENDBRANCH   9  12
ENDBRANCH   2   8
BRANCH   1  24
ATOM     24  C   UNL d   1       0.354  -2.676  -0.057  0.00  0.00     0.054 A 
ATOM     25  N   UNL d   1      -0.407  -3.613   0.606  0.00  0.00    -0.351 N 
ATOM     26  C   UNL d   1       0.072  -4.820   0.382  0.00  0.00     0.075 A 
ATOM     27  HN  UNL d   1      -1.221  -3.404   1.184  1.00  0.00     0.166 HD
ATOM     28  S   UNL d   1       1.535  -4.871  -0.527  0.00  0.00    -0.084 SA
ATOM     29  C   UNL d   1       1.483  -3.167  -0.679  0.00  0.00     0.082 A 
BRANCH  26  30
ATOM     30  C   UNL d   1      -0.520  -6.090   0.909  0.00  0.00     0.240 C 
BRANCH  30  31
ATOM     31  O   UNL d   1      -1.404  -6.609  -0.091  0.00  0.00    -0.345 OA
BRANCH  31  32
ATOM     32  C   UNL d   1      -2.045  -7.769   0.251  0.00  0.00     0.069 A 
ATOM     33  C   UNL d   1      -3.286  -7.981  -0.355  0.00  0.00     0.038 A 
ATOM     34  C   UNL d   1      -4.016  -9.143  -0.084  0.00  0.00     0.026 A 
ATOM     35  C   UNL d   1      -3.494 -10.100   0.783  0.00  0.00     0.034 A 
ATOM     36  C   UNL d   1      -2.249  -9.905   1.376  0.00  0.00     0.026 A 
ATOM     37 CL   UNL d   1      -4.379 -11.535   1.121  0.00  0.00    -0.084 Cl
ATOM     38  C   UNL d   1      -1.524  -8.742   1.108  0.00  0.00     0.038 A 
ENDBRANCH  31  32
ENDBRANCH  30  31
ENDBRANCH  26  30
ENDBRANCH   1  24
TORSDOF 8
