REMARK  2 active torsions:
REMARK  status: ('A' for Active; 'I' for Inactive)
REMARK    1  A    between atoms: C_7  and  C_1 
REMARK    2  A    between atoms: S_12  and  C_5 
ROOT
ATOM      1  C   UNL d   1      -0.305   1.108   0.021  0.00  0.00     0.068 A 
ATOM      2  C   UNL d   1       1.061   0.787  -0.179  0.00  0.00     0.070 A 
ATOM      3  N   UNL d   1      -1.038   0.011   0.266  0.00  0.00    -0.299 N 
ATOM      4  HN  UNL d   1      -2.040  -0.048   0.452  1.00  0.00     0.187 HD
ATOM      5  C   UNL d   1       1.127  -0.575  -0.045  0.00  0.00     0.086 A 
ATOM      6  N   UNL d   1      -0.144  -0.993   0.208  0.00  0.00    -0.294 N 
ATOM      7  H   UNL d   1      -0.462  -1.943   0.352  0.00  0.00     0.187 HD
ENDROOT
BRANCH   1   8
ATOM      8  C   UNL d   1      -0.906   2.482  -0.032  0.00  0.00     0.033 A 
ATOM      9  S   UNL d   1      -0.028   3.902  -0.397  0.00  0.00    -0.100 SA
ATOM     10  C   UNL d   1      -1.426   4.878  -0.273  0.00  0.00     0.050 A 
ATOM     11  C   UNL d   1      -2.540   4.141   0.062  0.00  0.00     0.008 A 
ATOM     12  C   UNL d   1      -2.238   2.753   0.203  0.00  0.00     0.021 A 
ENDBRANCH   1   8
BRANCH   5  13
ATOM     13  S   UNL d   1       2.402  -1.736  -0.132  0.00  0.00    -0.115 SA
ATOM     14  C   UNL d   1       3.845  -0.692  -0.442  0.00  0.00     0.097 C 
ENDBRANCH   5  13
TORSDOF 2
