REMARK  4 active torsions:
REMARK  status: ('A' for Active; 'I' for Inactive)
REMARK    1  A    between atoms: C_4  and  C_1 
REMARK    2  A    between atoms: C_13  and  C_5 
REMARK    3  A    between atoms: C_11  and  C_13 
REMARK    4  A    between atoms: N_17  and  C_15 
ROOT
ATOM      1  N   UNL d   1      -2.742  -2.461   0.921  0.00  0.00    -0.345 N 
ATOM      2  HN  UNL d   1      -2.070  -2.764   1.626  1.00  0.00     0.167 HD
ATOM      3  C   UNL d   1      -2.536  -1.485   0.056  0.00  0.00     0.103 A 
ATOM      4  C   UNL d   1      -4.011  -3.020   0.735  0.00  0.00     0.090 A 
ATOM      5  S   UNL d   1      -3.833  -1.188  -1.032  0.00  0.00    -0.080 SA
ATOM      6  C   UNL d   1      -4.721  -2.460  -0.314  0.00  0.00     0.085 A 
ENDROOT
BRANCH   3   7
ATOM      7  C   UNL d   1      -1.248  -0.711   0.022  0.00  0.00     0.091 A 
ATOM      8  N   UNL d   1      -1.034   0.340  -0.782  0.00  0.00    -0.258 N 
ATOM      9  O   UNL d   1       0.266   0.745  -0.536  0.00  0.00    -0.242 OA
ATOM     10  HN  UNL d   1      -1.694   0.755  -1.440  1.00  0.00     0.195 HD
ATOM     11  C   UNL d   1       0.826  -0.069   0.398  0.00  0.00     0.074 A 
ATOM     12  C   UNL d   1      -0.103  -0.995   0.804  0.00  0.00     0.068 A 
ATOM     13  C   UNL d   1       2.234   0.199   0.737  0.00  0.00     0.079 C 
ENDBRANCH   3   7
BRANCH   4  14
ATOM     14  C   UNL d   1      -4.553  -4.098   1.570  0.00  0.00     0.200 C 
ATOM     15  O   UNL d   1      -5.662  -4.591   1.387  0.00  0.00    -0.286 OA
BRANCH  14  16
ATOM     16  C   UNL d   1      -3.647  -4.533   2.666  0.00  0.00     0.074 C 
ATOM     17  C   UNL d   1      -4.040  -5.473   3.538  0.00  0.00     0.088 C 
BRANCH  17  18
ATOM     18  N   UNL d   1      -3.366  -6.012   4.627  0.00  0.00    -0.398 N 
ATOM     19  C   UNL d   1      -2.006  -5.651   5.025  0.00  0.00     0.148 C 
ATOM     20  C   UNL d   1      -3.951  -7.086   5.434  0.00  0.00     0.148 C 
ENDBRANCH  17  18
ENDBRANCH  14  16
ENDBRANCH   4  14
TORSDOF 4
