REMARK  7 active torsions:
REMARK  status: ('A' for Active; 'I' for Inactive)
REMARK       I    between atoms: C_2  and  N_1 
REMARK    1  A    between atoms: C_23  and  C_2 
REMARK    2  A    between atoms: C_16  and  N_3 
REMARK    3  A    between atoms: C_8  and  C_24 
REMARK    4  A    between atoms: O_22  and  C_8 
REMARK    5  A    between atoms: C_14  and  C_16 
REMARK    6  A    between atoms: O_21  and  C_23 
REMARK    7  A    between atoms: C_24  and  O_21 
ROOT
ATOM      1  N   UNL d   1      -1.468   0.095   0.322  0.00  0.00    -0.347 N 
ATOM      2  C   UNL d   1      -2.655   0.220   1.032  0.00  0.00     0.243 C 
ATOM      3  N   UNL d   1       1.419  -0.062  -0.223  0.00  0.00     0.095 N 
ATOM      4  C   UNL d   1      -0.840  -1.166  -0.067  0.00  0.00     0.156 C 
ATOM      5  C   UNL d   1      -0.761   1.293  -0.137  0.00  0.00     0.156 C 
ATOM      6  O   UNL d   1      -3.167   1.314   1.269  0.00  0.00    -0.271 OA
ATOM      7  C   UNL d   1       0.758   1.214   0.163  0.00  0.00     0.292 C 
ATOM      8  C   UNL d   1       0.637  -1.177   0.354  0.00  0.00     0.292 C 
ENDROOT
BRANCH   3   9
ATOM      9  C   UNL d   1       1.549  -0.149  -1.692  0.00  0.00     0.311 C 
BRANCH   9  10
ATOM     10  C   UNL d   1       2.190  -1.429  -2.195  0.00  0.00    -0.027 A 
ATOM     11  C   UNL d   1       1.483  -2.274  -3.069  0.00  0.00     0.048 A 
ATOM     12  C   UNL d   1       2.121  -3.400  -3.547  0.00  0.00     0.105 A 
ATOM     13  O   UNL d   1       1.587  -4.310  -4.405  0.00  0.00    -0.323 OA
ATOM     14  C   UNL d   1       3.412  -3.708  -3.191  0.00  0.00     0.105 A 
ATOM     15  C   UNL d   1       2.696  -5.220  -4.560  0.00  0.00     0.352 A 
ATOM     16  O   UNL d   1       3.856  -4.847  -3.786  0.00  0.00    -0.323 OA
ATOM     17  C   UNL d   1       4.133  -2.914  -2.327  0.00  0.00     0.040 A 
ATOM     18  C   UNL d   1       3.512  -1.765  -1.823  0.00  0.00     0.012 A 
ENDBRANCH   9  10
ENDBRANCH   3   9
BRANCH   2  19
ATOM     19  C   UNL d   1      -3.353  -1.075   1.486  0.00  0.00     0.271 C 
BRANCH  19  20
ATOM     20  O   UNL d   1      -2.522  -1.900   2.309  0.00  0.00    -0.372 OA
BRANCH  20  21
ATOM     21  C   UNL d   1      -3.208  -3.057   2.770  0.00  0.00     0.277 C 
BRANCH  21  22
ATOM     22  C   UNL d   1      -3.509  -4.065   1.663  0.00  0.00     0.164 C 
ATOM     23  O   UNL d   1      -4.618  -4.502   1.414  0.00  0.00    -0.648 OA
BRANCH  22  24
ATOM     24  O   UNL d   1      -2.408  -4.399   0.948  0.00  0.00    -0.775 OA
ATOM     25  H   UNL d   1      -1.609  -3.952   1.290  0.00  0.00     0.167 HD
ENDBRANCH  22  24
ENDBRANCH  21  22
ENDBRANCH  20  21
ENDBRANCH  19  20
ENDBRANCH   2  19
TORSDOF 7
