REMARK  2 active torsions:
REMARK  status: ('A' for Active; 'I' for Inactive)
REMARK    1  A    between atoms: S_8  and  C_3 
REMARK    2  A    between atoms: C_7  and  C_4 
ROOT
ATOM      1  N   UNL d   1       1.218   0.555   0.038  0.00  0.00    -0.336 N 
ATOM      2  HN  UNL d   1       2.143   0.984   0.070  1.00  0.00     0.168 HD
ATOM      3  C   UNL d   1       0.103   1.304   0.027  0.00  0.00     0.144 A 
ATOM      4  C   UNL d   1       1.070  -0.787   0.007  0.00  0.00     0.045 A 
ATOM      5  N   UNL d   1      -1.147   0.814  -0.004  0.00  0.00    -0.347 N 
ATOM      6  HN  UNL d   1      -1.965   1.424  -0.014  1.00  0.00     0.167 HD
ATOM      7  C   UNL d   1      -0.183  -1.374  -0.018  0.00  0.00     0.047 A 
ATOM      8  C   UNL d   1      -1.260  -0.522  -0.023  0.00  0.00     0.092 A 
ENDROOT
BRANCH   4   9
ATOM      9  C   UNL d   1       2.321  -1.579   0.019  0.00  0.00    -0.009 A 
ATOM     10  C   UNL d   1       3.475  -1.097   0.667  0.00  0.00     0.015 A 
ATOM     11  C   UNL d   1       4.655  -1.850   0.717  0.00  0.00     0.024 A 
ATOM     12  C   UNL d   1       4.703  -3.100   0.108  0.00  0.00     0.034 A 
ATOM     13  C   UNL d   1       3.587  -3.595  -0.558  0.00  0.00     0.024 A 
ATOM     14 CL   UNL d   1       6.143  -4.037   0.179  0.00  0.00    -0.084 Cl
ATOM     15  C   UNL d   1       2.410  -2.839  -0.605  0.00  0.00     0.015 A 
ENDBRANCH   4   9
BRANCH   3  16
ATOM     16  S   UNL d   1       0.335   3.066   0.062  0.00  0.00    -0.098 SA
ATOM     17  C   UNL d   1      -1.388   3.620   0.021  0.00  0.00     0.099 C 
ENDBRANCH   3  16
TORSDOF 2
