REMARK  3 active torsions:
REMARK  status: ('A' for Active; 'I' for Inactive)
REMARK    1  A    between atoms: N_2  and  S_1 
REMARK    2  A    between atoms: C_3  and  N_2 
REMARK    3  A    between atoms: C_8  and  C_3 
ROOT
ATOM      1  C   UNL d   1       0.901  -2.727   0.812  0.00  0.00     0.118 C 
ATOM      2  N   UNL d   1       1.569  -3.184  -0.186  0.00  0.00    -0.384 N 
ATOM      3  HN  UNL d   1       1.885  -4.148  -0.286  1.00  0.00     0.157 HD
ATOM      4  H   UNL d   1       1.739  -2.431  -0.871  0.00  0.00     0.157 HD
ENDROOT
BRANCH   1   5
ATOM      5  N   UNL d   1       0.591  -1.368   0.957  0.00  0.00    -0.270 N 
ATOM      6  H   UNL d   1       0.077  -1.039   1.769  0.00  0.00     0.180 HD
BRANCH   5   7
ATOM      7  S   UNL d   1       0.988  -0.104  -0.052  0.00  0.00     0.228 S 
ATOM      8  O   UNL d   1      -0.021   0.907   0.159  0.00  0.00    -0.206 OA
ATOM      9  O   UNL d   1       1.284  -0.636  -1.364  0.00  0.00    -0.206 OA
ATOM     10  C   UNL d   1       2.508   0.477   0.668  0.00  0.00     0.186 C 
ENDBRANCH   5   7
ENDBRANCH   1   5
BRANCH   1  11
ATOM     11  C   UNL d   1       0.417  -3.637   1.884  0.00  0.00     0.011 A 
ATOM     12  C   UNL d   1      -0.700  -3.340   2.668  0.00  0.00     0.032 A 
ATOM     13  C   UNL d   1      -1.081  -4.259   3.631  0.00  0.00     0.088 A 
ATOM     14  N   UNL d   1      -0.431  -5.419   3.860  0.00  0.00    -0.375 N 
ATOM     15  C   UNL d   1       0.638  -5.689   3.081  0.00  0.00     0.088 A 
ATOM     16  HN  UNL d   1      -0.733  -6.063   4.591  1.00  0.00     0.164 HD
ATOM     17  C   UNL d   1       1.095  -4.840   2.090  0.00  0.00     0.032 A 
ENDBRANCH   1  11
TORSDOF 3
