REMARK  3 active torsions:
REMARK  status: ('A' for Active; 'I' for Inactive)
REMARK    1  A    between atoms: C_2  and  C_1 
REMARK       I    between atoms: C_3  and  N_5 
REMARK    2  A    between atoms: O_12  and  C_4 
REMARK    3  A    between atoms: N_5  and  C_7 
ROOT
ATOM      1  C   UNL d   1       1.327  -0.323  -0.033  0.00  0.00     0.045 A 
ATOM      2  C   UNL d   1       0.465  -1.426  -0.172  0.00  0.00     0.082 A 
ATOM      3  C   UNL d   1       0.768   0.967   0.126  0.00  0.00     0.047 A 
ATOM      4  C   UNL d   1      -0.608   1.191   0.125  0.00  0.00     0.035 A 
ATOM      5  C   UNL d   1      -0.921  -1.185  -0.133  0.00  0.00     0.040 A 
ATOM      6  C   UNL d   1      -1.456   0.095   0.020  0.00  0.00     0.032 A 
ENDROOT
BRANCH   4   7
ATOM      7  N   UNL d   1      -1.190   2.470   0.242  0.00  0.00    -0.327 N 
ATOM      8  C   UNL d   1      -0.538   3.685   0.134  0.00  0.00     0.218 C 
ATOM      9  O   UNL d   1       0.643   3.854  -0.158  0.00  0.00    -0.274 OA
ATOM     10  C   UNL d   1      -1.434   4.870   0.389  0.00  0.00     0.117 C 
ATOM     11  H   UNL d   1      -2.200   2.495   0.323  0.00  0.00     0.169 HD
ENDBRANCH   4   7
BRANCH   1  12
ATOM     12  C   UNL d   1       2.816  -0.359   0.010  0.00  0.00     0.158 C 
ATOM     13  O   UNL d   1       3.412  -1.196   0.680  0.00  0.00    -0.293 OA
ATOM     14  C   UNL d   1       3.581   0.744  -0.691  0.00  0.00     0.097 C 
ENDBRANCH   1  12
BRANCH   2  15
ATOM     15  O   UNL d   1       0.696  -2.749  -0.391  0.00  0.00    -0.355 OA
ATOM     16  C   UNL d   1       2.004  -3.295  -0.398  0.00  0.00     0.210 C 
ENDBRANCH   2  15
TORSDOF 3
