REMARK  6 active torsions:
REMARK  status: ('A' for Active; 'I' for Inactive)
REMARK    1  A    between atoms: C_7  and  C_1 
REMARK    2  A    between atoms: C_8  and  N_2 
REMARK    3  A    between atoms: O_10  and  C_3 
REMARK    4  A    between atoms: C_9  and  C_7 
REMARK    5  A    between atoms: O_12  and  C_9 
REMARK    6  A    between atoms: C_16  and  O_12 
ROOT
ATOM      1  C   UNL d   1       0.014  -1.320   0.020  0.00  0.00     0.027 C 
ATOM      2  N   UNL d   1       1.093   0.622   0.095  0.00  0.00    -0.234 N 
ATOM      3  C   UNL d   1       1.274  -0.760   0.068  0.00  0.00     0.171 C 
ATOM      4  N   UNL d   1      -0.214   0.941   0.269  0.00  0.00    -0.296 N 
ATOM      5  HN  UNL d   1      -0.609   1.861   0.465  1.00  0.00     0.187 HD
ATOM      6  C   UNL d   1      -0.872  -0.215   0.127  0.00  0.00     0.033 C 
ATOM      7  C   UNL d   1      -2.358  -0.224   0.154  0.00  0.00     0.070 C 
ENDROOT
BRANCH   1   8
ATOM      8  C   UNL d   1      -0.305  -2.777  -0.008  0.00  0.00     0.156 C 
BRANCH   8   9
ATOM      9  C   UNL d   1      -1.133  -3.212  -1.194  0.00  0.00     0.263 C 
ATOM     10  O   UNL d   1      -1.507  -2.509  -2.122  0.00  0.00    -0.265 OA
BRANCH   9  11
ATOM     11  O   UNL d   1      -1.460  -4.530  -1.034  0.00  0.00    -0.322 OA
BRANCH  11  12
ATOM     12  C   UNL d   1      -2.447  -5.043  -1.939  0.00  0.00     0.174 C 
ATOM     13  C   UNL d   1      -3.819  -4.833  -1.325  0.00  0.00     0.034 C 
ENDBRANCH  11  12
ENDBRANCH   9  11
ENDBRANCH   8   9
ENDBRANCH   1   8
BRANCH   3  14
ATOM     14  O   UNL d   1       2.450  -1.386   0.147  0.00  0.00    -0.344 OA
ATOM     15  H   UNL d   1       3.094  -0.791   0.571  0.00  0.00     0.219 HD
ENDBRANCH   3  14
BRANCH   2  16
ATOM     16  C   UNL d   1       2.080   1.643   0.004  0.00  0.00     0.059 A 
ATOM     17  C   UNL d   1       3.299   1.411  -0.649  0.00  0.00     0.031 A 
ATOM     18  C   UNL d   1       4.269   2.414  -0.691  0.00  0.00     0.002 A 
ATOM     19  C   UNL d   1       4.028   3.647  -0.087  0.00  0.00     0.000 A 
ATOM     20  C   UNL d   1       2.804   3.893   0.535  0.00  0.00     0.002 A 
ATOM     21  C   UNL d   1       1.823   2.900   0.567  0.00  0.00     0.031 A 
ENDBRANCH   2  16
TORSDOF 6
