REMARK  5 active torsions:
REMARK  status: ('A' for Active; 'I' for Inactive)
REMARK       I    between atoms: N_3  and  C_1 
REMARK    1  A    between atoms: C_8  and  C_1 
REMARK    2  A    between atoms: C_2  and  C_6 
REMARK       I    between atoms: N_9  and  C_2 
REMARK    3  A    between atoms: C_6  and  N_3 
REMARK    4  A    between atoms: O_7  and  C_8 
REMARK    5  A    between atoms: C_10  and  O_7 
ROOT
ATOM      1  C   UNL d   1       1.016  -0.049   0.135  0.00  0.00     0.242 C 
ATOM      2  N   UNL d   1       0.426   0.330   1.313  0.00  0.00    -0.350 N 
ATOM      3  O   UNL d   1       0.365  -0.348  -0.865  0.00  0.00    -0.271 OA
ATOM      4  H   UNL d   1       1.014   0.581   2.107  0.00  0.00     0.163 HD
ENDROOT
BRANCH   1   5
ATOM      5  C   UNL d   1       2.546  -0.081   0.142  0.00  0.00     0.278 C 
BRANCH   5   6
ATOM      6  O   UNL d   1       3.072   0.348   1.393  0.00  0.00    -0.342 OA
BRANCH   6   7
ATOM      7  C   UNL d   1       4.434   0.389   1.515  0.00  0.00     0.069 A 
ATOM      8  C   UNL d   1       5.363   0.044   0.531  0.00  0.00     0.037 A 
ATOM      9  C   UNL d   1       6.734   0.137   0.797  0.00  0.00     0.003 A 
ATOM     10  C   UNL d   1       7.181   0.574   2.043  0.00  0.00     0.000 A 
ATOM     11  C   UNL d   1       6.258   0.918   3.027  0.00  0.00     0.003 A 
ATOM     12  C   UNL d   1       4.891   0.825   2.761  0.00  0.00     0.037 A 
ENDBRANCH   6   7
ENDBRANCH   5   6
ENDBRANCH   1   5
BRANCH   2  13
ATOM     13  C   UNL d   1      -1.010   0.423   1.451  0.00  0.00     0.225 C 
BRANCH  13  14
ATOM     14  C   UNL d   1      -1.408   0.865   2.856  0.00  0.00     0.233 C 
ATOM     15  O   UNL d   1      -0.603   1.113   3.749  0.00  0.00    -0.272 OA
ATOM     16  N   UNL d   1      -2.753   0.974   3.070  0.00  0.00    -0.369 N 
ATOM     17  H   UNL d   1      -3.446   0.779   2.360  0.00  0.00     0.159 HD
ATOM     18  H   UNL d   1      -3.064   1.265   3.988  0.00  0.00     0.159 HD
ENDBRANCH  13  14
ENDBRANCH   2  13
TORSDOF 5
