REMARK  5 active torsions:
REMARK  status: ('A' for Active; 'I' for Inactive)
REMARK    1  A    between atoms: C_6  and  C_1 
REMARK    2  A    between atoms: C_8  and  N_3 
REMARK    3  A    between atoms: N_9  and  C_4 
REMARK    4  A    between atoms: O_11  and  C_6 
REMARK    5  A    between atoms: C_14  and  O_11 
ROOT
ATOM      1  C   UNL d   1       1.046   0.623  -0.093  0.00  0.00     0.062 A 
ATOM      2  C   UNL d   1      -0.353  -1.142  -0.050  0.00  0.00     0.270 A 
ATOM      3  N   UNL d   1      -1.138  -0.001  -0.231  0.00  0.00    -0.308 N 
ATOM      4  C   UNL d   1       1.075  -0.705   0.037  0.00  0.00     0.089 A 
ATOM      5  C   UNL d   1      -0.319   1.187  -0.203  0.00  0.00     0.179 A 
ATOM      6  O   UNL d   1      -0.659  -2.322  -0.024  0.00  0.00    -0.266 OA
ENDROOT
BRANCH   3   7
ATOM      7  C   UNL d   1      -2.527   0.012  -0.535  0.00  0.00     0.037 A 
ATOM      8  C   UNL d   1      -3.302  -1.155  -0.477  0.00  0.00     0.030 A 
ATOM      9  C   UNL d   1      -4.645  -1.159  -0.867  0.00  0.00     0.002 A 
ATOM     10  C   UNL d   1      -5.242   0.011  -1.322  0.00  0.00     0.000 A 
ATOM     11  C   UNL d   1      -4.503   1.188  -1.356  0.00  0.00     0.002 A 
ATOM     12  C   UNL d   1      -3.162   1.192  -0.953  0.00  0.00     0.030 A 
ENDBRANCH   3   7
BRANCH   1  13
ATOM     13  C   UNL d   1       2.266   1.416  -0.144  0.00  0.00     0.292 C 
ATOM     14  O   UNL d   1       3.359   0.965  -0.458  0.00  0.00    -0.259 OA
BRANCH  13  15
ATOM     15  O   UNL d   1       2.010   2.680   0.268  0.00  0.00    -0.318 OA
BRANCH  15  16
ATOM     16  C   UNL d   1       3.184   3.446   0.588  0.00  0.00     0.174 C 
ATOM     17  C   UNL d   1       3.550   3.182   2.038  0.00  0.00     0.034 C 
ENDBRANCH  15  16
ENDBRANCH  13  15
ENDBRANCH   1  13
BRANCH   4  18
ATOM     18  N   UNL d   1       2.106  -1.603   0.152  0.00  0.00    -0.297 NA
ATOM     19  H   UNL d   1       1.843  -2.526  -0.194  0.00  0.00     0.124 HD
ATOM     20  H   UNL d   1       2.982  -1.250  -0.236  0.00  0.00     0.124 HD
ENDBRANCH   4  18
TORSDOF 5
