REMARK  1 active torsions:
REMARK  status: ('A' for Active; 'I' for Inactive)
REMARK       I    between atoms: N_2  and  C_1 
REMARK       I    between atoms: N_3  and  C_1 
REMARK       I    between atoms: C_5  and  N_3 
REMARK    1  A    between atoms: C_7  and  C_5 
ROOT
ATOM      1  C   UNL d   1       0.908  -0.452  -0.237  0.00  0.00     0.325 C 
ATOM      2  N   UNL d   1       0.191  -1.475  -0.865  0.00  0.00    -0.325 N 
ATOM      3  N   UNL d   1       0.682   0.817  -0.730  0.00  0.00    -0.275 N 
ATOM      4  C   UNL d   1      -1.912  -2.336  -1.796  0.00  0.00    -0.022 A 
ATOM      5  C   UNL d   1       1.149   2.002  -0.186  0.00  0.00     0.261 C 
ATOM      6  C   UNL d   1      -0.830  -1.292  -1.923  0.00  0.00     0.119 C 
ATOM      7  C   UNL d   1      -1.794  -3.451  -0.990  0.00  0.00    -0.008 A 
ATOM      8  C   UNL d   1       0.572  -2.869  -0.554  0.00  0.00     0.133 C 
ATOM      9  S   UNL d   1      -3.157  -4.463  -1.043  0.00  0.00    -0.106 SA
ATOM     10  C   UNL d   1      -0.618  -3.732  -0.115  0.00  0.00     0.067 C 
ATOM     11  C   UNL d   1      -3.190  -2.310  -2.442  0.00  0.00     0.017 A 
ATOM     12  C   UNL d   1      -3.961  -3.408  -2.123  0.00  0.00     0.051 A 
ATOM     13  O   UNL d   1       1.709  -0.692   0.662  0.00  0.00    -0.247 OA
ATOM     14  O   UNL d   1       1.774   2.130   0.859  0.00  0.00    -0.267 OA
ATOM     15  C   UNL d   1      -0.180  -1.310  -3.308  0.00  0.00     0.037 C 
ATOM     16  H   UNL d   1       0.227   0.889  -1.620  0.00  0.00     0.173 HD
ENDROOT
BRANCH   5  17
ATOM     17  C   UNL d   1       0.892   3.225  -0.998  0.00  0.00     0.054 A 
ATOM     18  C   UNL d   1      -0.322   3.507  -1.643  0.00  0.00     0.049 A 
ATOM     19 CL   UNL d   1      -1.720   2.504  -1.516  0.00  0.00    -0.083 Cl
ATOM     20  C   UNL d   1      -0.453   4.671  -2.410  0.00  0.00     0.025 A 
ATOM     21  C   UNL d   1       0.609   5.567  -2.523  0.00  0.00     0.002 A 
ATOM     22  C   UNL d   1       1.807   5.310  -1.861  0.00  0.00     0.001 A 
ATOM     23  C   UNL d   1       1.948   4.146  -1.101  0.00  0.00     0.019 A 
ENDBRANCH   5  17
TORSDOF 1
