REMARK  8 active torsions:
REMARK  status: ('A' for Active; 'I' for Inactive)
REMARK    1  A    between atoms: C_3  and  C_1 
REMARK    2  A    between atoms: C_2  and  C_5 
REMARK       I    between atoms: N_8  and  C_3 
REMARK       I    between atoms: C_6  and  N_9 
REMARK    3  A    between atoms: C_15  and  C_6 
REMARK    4  A    between atoms: N_9  and  N_8 
REMARK    5  A    between atoms: C_30  and  C_12 
REMARK    6  A    between atoms: C_14  and  S_20 
REMARK    7  A    between atoms: C_17  and  C_18 
REMARK    8  A    between atoms: S_20  and  C_30 
ROOT
ATOM      1  C   UNL d   1       0.321   3.456   0.250  0.00  0.00     0.144 A 
ATOM      2  O   UNL d   1       0.023   4.752   0.598  0.00  0.00    -0.309 OA
ATOM      3  C   UNL d   1       1.695   3.315   0.152  0.00  0.00     0.045 A 
ATOM      4  C   UNL d   1       1.217   5.416   0.755  0.00  0.00     0.063 A 
ATOM      5  C   UNL d   1       2.267   4.565   0.470  0.00  0.00     0.036 A 
ENDROOT
BRANCH   1   6
ATOM      6  C   UNL d   1      -0.716   2.461   0.051  0.00  0.00     0.293 C 
ATOM      7  N   UNL d   1      -2.028   2.877   0.180  0.00  0.00    -0.261 N 
ATOM      8  H   UNL d   1      -2.290   3.849   0.353  0.00  0.00     0.190 HD
ATOM      9  O   UNL d   1      -0.466   1.283  -0.223  0.00  0.00    -0.264 OA
BRANCH   7  10
ATOM     10  N   UNL d   1      -3.055   1.941  -0.068  0.00  0.00    -0.263 N 
ATOM     11  C   UNL d   1      -4.378   2.324   0.033  0.00  0.00     0.270 C 
ATOM     12  O   UNL d   1      -4.723   3.461   0.347  0.00  0.00    -0.266 OA
ATOM     13  H   UNL d   1      -2.760   0.971  -0.148  0.00  0.00     0.190 HD
BRANCH  11  14
ATOM     14  C   UNL d   1      -5.400   1.270  -0.246  0.00  0.00     0.033 A 
ATOM     15  C   UNL d   1      -6.635   1.315   0.406  0.00  0.00     0.017 A 
ATOM     16  C   UNL d   1      -7.612   0.334   0.160  0.00  0.00     0.009 A 
ATOM     17  C   UNL d   1      -7.391  -0.713  -0.756  0.00  0.00    -0.051 A 
ATOM     18  C   UNL d   1      -6.156  -0.714  -1.431  0.00  0.00     0.009 A 
ATOM     19  C   UNL d   1      -5.172   0.258  -1.180  0.00  0.00     0.017 A 
BRANCH  17  20
ATOM     20  C   UNL d   1      -8.454  -1.812  -0.975  0.00  0.00    -0.024 C 
ATOM     21  C   UNL d   1      -8.032  -2.875  -2.018  0.00  0.00     0.019 C 
ATOM     22  C   UNL d   1      -8.711  -2.558   0.354  0.00  0.00     0.019 C 
ATOM     23  C   UNL d   1      -9.790  -1.210  -1.463  0.00  0.00     0.019 C 
ENDBRANCH  17  20
ENDBRANCH  11  14
ENDBRANCH   7  10
ENDBRANCH   1   6
BRANCH   4  24
ATOM     24  C   UNL d   1       1.187   6.857   1.152  0.00  0.00     0.145 C 
BRANCH  24  25
ATOM     25  S   UNL d   1       0.500   7.075   2.825  0.00  0.00    -0.106 SA
BRANCH  25  26
ATOM     26  C   UNL d   1       0.639   8.845   3.019  0.00  0.00     0.069 A 
ATOM     27  N   UNL d   1       1.226   9.566   2.037  0.00  0.00    -0.360 N 
ATOM     28  C   UNL d   1       1.315  10.912   2.219  0.00  0.00     0.105 A 
ATOM     29  HN  UNL d   1       1.587   9.119   1.195  1.00  0.00     0.166 HD
ATOM     30  C   UNL d   1       0.846  11.584   3.341  0.00  0.00     0.063 A 
ATOM     31  C   UNL d   1       0.250  10.816   4.340  0.00  0.00     0.020 A 
ATOM     32  C   UNL d   1       0.143   9.433   4.178  0.00  0.00     0.038 A 
BRANCH  30  33
ATOM     33  C   UNL d   1       0.982  13.072   3.457  0.00  0.00     0.418 C 
ATOM     34  F   UNL d   1       1.595  13.650   2.386  0.00  0.00    -0.166 F 
ATOM     35  F   UNL d   1      -0.221  13.697   3.577  0.00  0.00    -0.166 F 
ATOM     36  F   UNL d   1       1.707  13.444   4.547  0.00  0.00    -0.166 F 
ENDBRANCH  30  33
ENDBRANCH  25  26
ENDBRANCH  24  25
ENDBRANCH   4  24
TORSDOF 8
