REMARK  4 active torsions:
REMARK  status: ('A' for Active; 'I' for Inactive)
REMARK    1  A    between atoms: S_12  and  C_6 
REMARK    2  A    between atoms: C_16  and  S_12 
REMARK    3  A    between atoms: C_14  and  C_16 
REMARK    4  A    between atoms: C_15  and  C_14 
ROOT
ATOM      1  C   UNL d   1      -0.099  -0.618  -0.981  0.00  0.00     0.075 A 
ATOM      2  N   UNL d   1       1.789   0.484  -1.628  0.00  0.00    -0.263 N 
ATOM      3  HN  UNL d   1       2.746   0.689  -1.917  1.00  0.00     0.194 HD
ATOM      4  C   UNL d   1      -0.373   0.734  -1.065  0.00  0.00     0.186 A 
ATOM      5  O   UNL d   1       0.753   1.389  -1.463  0.00  0.00    -0.218 OA
ATOM      6  C   UNL d   1      -1.162  -1.428  -0.598  0.00  0.00     0.087 A 
ATOM      7  C   UNL d   1       1.272  -0.717  -1.330  0.00  0.00     0.046 A 
ATOM      8  N   UNL d   1      -1.538   1.344  -0.806  0.00  0.00    -0.330 N 
ATOM      9  HN  UNL d   1      -1.689   2.350  -0.886  1.00  0.00     0.168 HD
ATOM     10  N   UNL d   1      -2.361  -0.867  -0.311  0.00  0.00    -0.346 N 
ATOM     11  HN  UNL d   1      -3.151  -1.439  -0.014  1.00  0.00     0.167 HD
ATOM     12  C   UNL d   1      -2.476   0.470  -0.429  0.00  0.00     0.183 A 
ATOM     13  C   UNL d   1       2.141  -1.918  -1.372  0.00  0.00     0.071 C 
ENDROOT
BRANCH   6  14
ATOM     14  S   UNL d   1      -0.944  -3.178  -0.496  0.00  0.00    -0.103 SA
BRANCH  14  15
ATOM     15  C   UNL d   1      -2.617  -3.720  -0.013  0.00  0.00     0.164 C 
BRANCH  15  16
ATOM     16  C   UNL d   1      -2.701  -5.239  -0.057  0.00  0.00     0.169 C 
ATOM     17  O   UNL d   1      -2.188  -5.899  -0.963  0.00  0.00    -0.291 OA
BRANCH  16  18
ATOM     18  C   UNL d   1      -3.470  -5.975   0.998  0.00  0.00     0.011 A 
ATOM     19  C   UNL d   1      -4.228  -5.337   1.988  0.00  0.00     0.017 A 
ATOM     20  C   UNL d   1      -4.901  -6.090   2.958  0.00  0.00     0.025 A 
ATOM     21  C   UNL d   1      -4.833  -7.482   2.936  0.00  0.00     0.034 A 
ATOM     22  C   UNL d   1      -4.102  -8.132   1.946  0.00  0.00     0.025 A 
ATOM     23 CL   UNL d   1      -5.655  -8.399   4.136  0.00  0.00    -0.084 Cl
ATOM     24  C   UNL d   1      -3.424  -7.380   0.982  0.00  0.00     0.017 A 
ENDBRANCH  16  18
ENDBRANCH  15  16
ENDBRANCH  14  15
ENDBRANCH   6  14
TORSDOF 4
