REMARK  12 active torsions:
REMARK  status: ('A' for Active; 'I' for Inactive)
REMARK    1  A    between atoms: N_3  and  S_1 
REMARK    2  A    between atoms: C_4  and  S_1 
REMARK    3  A    between atoms: S_2  and  N_3 
REMARK    4  A    between atoms: C_5  and  S_2 
REMARK    5  A    between atoms: C_24  and  N_3 
REMARK    6  A    between atoms: C_6  and  C_10 
REMARK    7  A    between atoms: C_7  and  C_11 
REMARK    8  A    between atoms: C_8  and  C_12 
REMARK    9  A    between atoms: C_9  and  C_13 
REMARK   10  A    between atoms: C_37  and  C_24 
REMARK   11  A    between atoms: C_39  and  C_37 
REMARK   12  A    between atoms: N_38  and  C_39 
ROOT
ATOM      1  N   UNL d   1       0.345  -0.882   1.170  0.00  0.00    -0.194 N 
ENDROOT
BRANCH   1   2
ATOM      2  S   UNL d   1      -1.342  -0.981   1.379  0.00  0.00     0.274 S 
ATOM      3  O   UNL d   1      -1.940   0.317   1.578  0.00  0.00    -0.199 OA
ATOM      4  O   UNL d   1      -1.827  -1.872   0.342  0.00  0.00    -0.199 OA
BRANCH   2   5
ATOM      5  C   UNL d   1      -1.581  -1.867   2.920  0.00  0.00     0.082 A 
ATOM      6  C   UNL d   1      -1.027  -1.359   4.096  0.00  0.00     0.041 A 
ATOM      7  C   UNL d   1      -1.206  -2.047   5.306  0.00  0.00     0.050 A 
ATOM      8  C   UNL d   1      -1.969  -3.234   5.315  0.00  0.00     0.032 A 
ATOM      9  C   UNL d   1      -2.567  -3.727   4.143  0.00  0.00     0.050 A 
ATOM     10  C   UNL d   1      -2.359  -3.037   2.938  0.00  0.00     0.041 A 
BRANCH   7  11
ATOM     11  C   UNL d   1      -0.600  -1.537   6.595  0.00  0.00     0.417 C 
ATOM     12  F   UNL d   1       0.016  -0.331   6.467  0.00  0.00    -0.166 F 
ATOM     13  F   UNL d   1      -1.530  -1.383   7.577  0.00  0.00    -0.166 F 
ATOM     14  F   UNL d   1       0.336  -2.389   7.096  0.00  0.00    -0.166 F 
ENDBRANCH   7  11
BRANCH   9  15
ATOM     15  C   UNL d   1      -3.431  -4.970   4.201  0.00  0.00     0.417 C 
ATOM     16  F   UNL d   1      -4.011  -5.285   3.011  0.00  0.00    -0.166 F 
ATOM     17  F   UNL d   1      -2.726  -6.071   4.578  0.00  0.00    -0.166 F 
ATOM     18  F   UNL d   1      -4.450  -4.851   5.095  0.00  0.00    -0.166 F 
ENDBRANCH   9  15
ENDBRANCH   2   5
ENDBRANCH   1   2
BRANCH   1  19
ATOM     19  S   UNL d   1       0.785   0.231  -0.038  0.00  0.00     0.274 S 
ATOM     20  O   UNL d   1       2.196   0.106  -0.341  0.00  0.00    -0.199 OA
ATOM     21  O   UNL d   1       0.294   1.529   0.332  0.00  0.00    -0.199 OA
BRANCH  19  22
ATOM     22  C   UNL d   1      -0.057  -0.256  -1.546  0.00  0.00     0.082 A 
ATOM     23  C   UNL d   1      -1.050   0.609  -2.022  0.00  0.00     0.041 A 
ATOM     24  C   UNL d   1      -1.526   0.486  -3.330  0.00  0.00     0.050 A 
ATOM     25  C   UNL d   1      -1.067  -0.576  -4.127  0.00  0.00     0.032 A 
ATOM     26  C   UNL d   1      -0.120  -1.493  -3.636  0.00  0.00     0.050 A 
ATOM     27  C   UNL d   1       0.419  -1.301  -2.351  0.00  0.00     0.041 A 
BRANCH  24  28
ATOM     28  C   UNL d   1      -2.434   1.549  -3.906  0.00  0.00     0.417 C 
ATOM     29  F   UNL d   1      -2.795   2.501  -3.001  0.00  0.00    -0.166 F 
ATOM     30  F   UNL d   1      -1.837   2.221  -4.931  0.00  0.00    -0.166 F 
ATOM     31  F   UNL d   1      -3.591   1.044  -4.408  0.00  0.00    -0.166 F 
ENDBRANCH  24  28
BRANCH  26  32
ATOM     32  C   UNL d   1       0.323  -2.640  -4.530  0.00  0.00     0.417 C 
ATOM     33  F   UNL d   1       1.257  -3.448  -3.959  0.00  0.00    -0.166 F 
ATOM     34  F   UNL d   1      -0.716  -3.453  -4.872  0.00  0.00    -0.166 F 
ATOM     35  F   UNL d   1       0.861  -2.211  -5.705  0.00  0.00    -0.166 F 
ENDBRANCH  26  32
ENDBRANCH  19  22
ENDBRANCH   1  19
BRANCH   1  36
ATOM     36  C   UNL d   1       1.053  -2.190   1.240  0.00  0.00     0.156 C 
BRANCH  36  37
ATOM     37  C   UNL d   1       2.585  -2.150   1.225  0.00  0.00     0.052 C 
BRANCH  37  38
ATOM     38  C   UNL d   1       3.237  -1.242   2.282  0.00  0.00     0.273 C 
BRANCH  38  39
ATOM     39  N   UNL d   1       3.023  -1.677   3.676  0.00  0.00     0.080 N 
ATOM     40  C   UNL d   1       3.605  -3.001   3.925  0.00  0.00     0.309 C 
ATOM     41  C   UNL d   1       3.663  -0.710   4.585  0.00  0.00     0.309 C 
ENDBRANCH  38  39
ENDBRANCH  37  38
ENDBRANCH  36  37
ENDBRANCH   1  36
TORSDOF 12
