REMARK  3 active torsions:
REMARK  status: ('A' for Active; 'I' for Inactive)
REMARK    1  A    between atoms: N_9  and  C_1 
REMARK    2  A    between atoms: C_12  and  N_3 
REMARK    3  A    between atoms: N_4  and  N_9 
ROOT
ATOM      1  C   UNL d   1      -0.877   1.155  -0.029  0.00  0.00     0.090 A 
ATOM      2  C   UNL d   1      -1.511  -0.018  -0.150  0.00  0.00     0.133 A 
ATOM      3  N   UNL d   1       0.592  -1.239   0.030  0.00  0.00    -0.218 N 
ATOM      4  C   UNL d   1      -0.783  -1.314  -0.190  0.00  0.00     0.291 A 
ATOM      5  N   UNL d   1       1.282  -0.060   0.182  0.00  0.00    -0.300 N 
ATOM      6  HN  UNL d   1       2.291  -0.049   0.333  1.00  0.00     0.186 HD
ATOM      7  C   UNL d   1       0.595   1.035   0.126  0.00  0.00     0.140 A 
ATOM      8  O   UNL d   1      -1.406  -2.363  -0.359  0.00  0.00    -0.264 OA
ATOM      9 CL   UNL d   1      -3.243  -0.097  -0.231  0.00  0.00    -0.076 Cl
ENDROOT
BRANCH   1  10
ATOM     10  N   UNL d   1      -1.468   2.417   0.034  0.00  0.00    -0.305 N 
ATOM     11  C   UNL d   1      -1.662   3.086   1.321  0.00  0.00     0.172 C 
BRANCH  10  12
ATOM     12  N   UNL d   1      -1.499   3.308  -1.060  0.00  0.00    -0.161 NA
ATOM     13  C   UNL d   1      -0.794   3.073  -2.220  0.00  0.00     0.227 C 
ATOM     14  O   UNL d   1       0.294   2.595  -2.433  0.00  0.00    -0.277 OA
ATOM     15  C   UNL d   1      -1.975   3.623  -3.074  0.00  0.00     0.044 C 
ATOM     16  C   UNL d   1      -2.796   3.416  -1.768  0.00  0.00     0.141 C 
ATOM     17  C   UNL d   1      -1.808   5.077  -3.504  0.00  0.00     0.026 C 
ATOM     18  C   UNL d   1      -2.392   2.724  -4.230  0.00  0.00     0.026 C 
ENDBRANCH  10  12
ENDBRANCH   1  10
BRANCH   3  19
ATOM     19  C   UNL d   1       1.401  -2.416   0.025  0.00  0.00     0.082 A 
ATOM     20  C   UNL d   1       2.316  -2.720   1.050  0.00  0.00     0.064 A 
ATOM     21  C   UNL d   1       2.998  -3.946   1.051  0.00  0.00     0.050 A 
ATOM     22 CL   UNL d   1       2.545  -1.709   2.438  0.00  0.00    -0.082 Cl
ATOM     23  C   UNL d   1       2.792  -4.860   0.021  0.00  0.00     0.035 A 
ATOM     24  C   UNL d   1       1.923  -4.562  -1.022  0.00  0.00     0.026 A 
ATOM     25 CL   UNL d   1       3.593  -6.383   0.052  0.00  0.00    -0.084 Cl
ATOM     26  C   UNL d   1       1.228  -3.350  -1.014  0.00  0.00     0.035 A 
ENDBRANCH   3  19
TORSDOF 3
