REMARK  7 active torsions:
REMARK  status: ('A' for Active; 'I' for Inactive)
REMARK    1  A    between atoms: C_3  and  S_1 
REMARK    2  A    between atoms: O_5  and  S_1 
REMARK    3  A    between atoms: S_2  and  C_4 
REMARK    4  A    between atoms: C_16  and  S_2 
REMARK    5  A    between atoms: C_4  and  C_8 
REMARK    6  A    between atoms: N_6  and  O_5 
REMARK    7  A    between atoms: N_18  and  C_8 
ROOT
ATOM      1  N   UNL d   1       0.643  -0.734  -2.442  0.00  0.00    -0.241 N 
ATOM      2  HN  UNL d   1       0.309  -0.780  -1.479  1.00  0.00     0.196 HD
ATOM      3  C   UNL d   1       0.318  -1.579  -3.372  0.00  0.00     0.090 C 
ENDROOT
BRANCH   1   4
ATOM      4  O   UNL d   1       1.524   0.260  -2.938  0.00  0.00    -0.146 OA
BRANCH   4   5
ATOM      5  S   UNL d   1       1.533   1.644  -2.045  0.00  0.00     0.321 S 
ATOM      6  O   UNL d   1       0.269   2.336  -2.214  0.00  0.00    -0.191 OA
ATOM      7  O   UNL d   1       2.057   1.343  -0.723  0.00  0.00    -0.191 OA
BRANCH   5   8
ATOM      8  C   UNL d   1       2.737   2.688  -2.810  0.00  0.00     0.126 A 
ATOM      9  C   UNL d   1       3.003   2.569  -4.168  0.00  0.00     0.143 A 
ATOM     10  C   UNL d   1       3.941   3.401  -4.773  0.00  0.00     0.086 A 
ATOM     11  F   UNL d   1       2.361   1.671  -4.928  0.00  0.00    -0.204 F 
ATOM     12  C   UNL d   1       4.606   4.348  -4.002  0.00  0.00     0.119 A 
ATOM     13  C   UNL d   1       4.354   4.474  -2.639  0.00  0.00     0.044 A 
ATOM     14  F   UNL d   1       5.504   5.155  -4.581  0.00  0.00    -0.206 F 
ATOM     15  C   UNL d   1       3.415   3.638  -2.033  0.00  0.00     0.032 A 
ENDBRANCH   5   8
ENDBRANCH   4   5
ENDBRANCH   1   4
BRANCH   3  16
ATOM     16  C   UNL d   1      -0.626  -2.694  -2.974  0.00  0.00     0.217 C 
BRANCH  16  17
ATOM     17  S   UNL d   1      -2.140  -2.509  -3.871  0.00  0.00     0.181 S 
ATOM     18  O   UNL d   1      -2.734  -1.224  -3.548  0.00  0.00    -0.222 OA
ATOM     19  O   UNL d   1      -1.868  -2.856  -5.257  0.00  0.00    -0.222 OA
BRANCH  17  20
ATOM     20  C   UNL d   1      -3.220  -3.756  -3.206  0.00  0.00     0.059 A 
ATOM     21  C   UNL d   1      -4.017  -3.445  -2.099  0.00  0.00     0.023 A 
ATOM     22  C   UNL d   1      -4.955  -4.372  -1.644  0.00  0.00     0.002 A 
ATOM     23  C   UNL d   1      -5.098  -5.598  -2.295  0.00  0.00     0.000 A 
ATOM     24  C   UNL d   1      -4.300  -5.904  -3.399  0.00  0.00     0.002 A 
ATOM     25  C   UNL d   1      -3.359  -4.982  -3.862  0.00  0.00     0.023 A 
ENDBRANCH  17  20
ENDBRANCH  16  17
ENDBRANCH   3  16
BRANCH   3  26
ATOM     26  N   UNL d   1       0.789  -1.527  -4.665  0.00  0.00    -0.290 NA
ATOM     27  H   UNL d   1       0.176  -1.902  -5.392  0.00  0.00     0.125 HD
ATOM     28  H   UNL d   1       1.165  -0.618  -4.924  0.00  0.00     0.125 HD
ENDBRANCH   3  26
TORSDOF 7
