REMARK  6 active torsions:
REMARK  status: ('A' for Active; 'I' for Inactive)
REMARK    1  A    between atoms: N_3  and  N_1 
REMARK    2  A    between atoms: C_10  and  C_2 
REMARK       I    between atoms: C_6  and  N_3 
REMARK    3  A    between atoms: C_18  and  N_3 
REMARK    4  A    between atoms: N_5  and  C_11 
REMARK    5  A    between atoms: C_13  and  C_6 
REMARK    6  A    between atoms: C_9  and  C_15 
ROOT
ATOM      1  N   UNL d   1       2.157  -1.481   0.207  0.00  0.00    -0.211 N 
ATOM      2  C   UNL d   1       3.356  -1.060   0.807  0.00  0.00     0.277 C 
ATOM      3  O   UNL d   1       3.429  -0.261   1.742  0.00  0.00    -0.265 OA
ENDROOT
BRANCH   1   4
ATOM      4  N   UNL d   1       0.992  -0.627   0.328  0.00  0.00    -0.227 N 
ATOM      5  C   UNL d   1       0.968   0.689  -0.148  0.00  0.00     0.076 C 
ATOM      6  C   UNL d   1      -0.227   1.289  -0.043  0.00  0.00     0.085 C 
ATOM      7  S   UNL d   1      -1.421   0.260   0.654  0.00  0.00    -0.068 SA
ATOM      8  C   UNL d   1      -0.212  -1.021   0.956  0.00  0.00     0.165 C 
ATOM      9  S   UNL d   1      -0.618  -2.348   1.882  0.00  0.00    -0.050 SA
BRANCH   5  10
ATOM     10  C   UNL d   1       2.121   1.512  -0.528  0.00  0.00    -0.004 A 
ATOM     11  C   UNL d   1       2.799   2.223   0.480  0.00  0.00     0.050 A 
ATOM     12  C   UNL d   1       3.838   3.100   0.155  0.00  0.00     0.103 A 
ATOM     13  C   UNL d   1       4.182   3.320  -1.182  0.00  0.00     0.036 A 
ATOM     14  C   UNL d   1       3.481   2.649  -2.189  0.00  0.00     0.003 A 
ATOM     15  C   UNL d   1       2.458   1.748  -1.865  0.00  0.00     0.014 A 
BRANCH  12  16
ATOM     16  N   UNL d   1       4.559   3.803   1.223  0.00  0.00    -0.116 N 
ATOM     17  O   UNL d   1       4.085   3.761   2.367  0.00  0.00    -0.532 OA
ATOM     18  O   UNL d   1       5.594   4.410   0.913  0.00  0.00    -0.532 OA
ENDBRANCH  12  16
ENDBRANCH   5  10
ENDBRANCH   1   4
BRANCH   1  19
ATOM     19  C   UNL d   1       1.963  -2.886  -0.023  0.00  0.00     0.060 A 
ATOM     20  C   UNL d   1       2.493  -3.816   0.897  0.00  0.00     0.031 A 
ATOM     21  C   UNL d   1       2.305  -5.184   0.724  0.00  0.00     0.002 A 
ATOM     22  C   UNL d   1       1.607  -5.644  -0.390  0.00  0.00     0.000 A 
ATOM     23  C   UNL d   1       1.084  -4.735  -1.312  0.00  0.00     0.002 A 
ATOM     24  C   UNL d   1       1.242  -3.355  -1.123  0.00  0.00     0.031 A 
ENDBRANCH   1  19
BRANCH   2  25
ATOM     25  C   UNL d   1       4.636  -1.615   0.230  0.00  0.00     0.034 A 
ATOM     26  C   UNL d   1       4.729  -2.083  -1.090  0.00  0.00     0.018 A 
ATOM     27  C   UNL d   1       5.899  -2.707  -1.542  0.00  0.00     0.017 A 
ATOM     28  C   UNL d   1       7.011  -2.831  -0.700  0.00  0.00     0.048 A 
ATOM     29  C   UNL d   1       6.941  -2.291   0.594  0.00  0.00     0.017 A 
ATOM     30  C   UNL d   1       5.765  -1.685   1.054  0.00  0.00     0.018 A 
BRANCH  28  31
ATOM     31  C   UNL d   1       8.242  -3.569  -1.175  0.00  0.00     0.417 C 
ATOM     32  F   UNL d   1       9.311  -3.443  -0.342  0.00  0.00    -0.166 F 
ATOM     33  F   UNL d   1       8.021  -4.908  -1.300  0.00  0.00    -0.166 F 
ATOM     34  F   UNL d   1       8.668  -3.147  -2.398  0.00  0.00    -0.166 F 
ENDBRANCH  28  31
ENDBRANCH   2  25
TORSDOF 6
