REMARK  3 active torsions:
REMARK  status: ('A' for Active; 'I' for Inactive)
REMARK    1  A    between atoms: C_2  and  S_1 
REMARK    2  A    between atoms: O_5  and  S_1 
REMARK    3  A    between atoms: C_10  and  O_5 
ROOT
ATOM      1  S   UNL d   1       1.171  -0.066  -0.121  0.00  0.00     0.303 S 
ATOM      2  O   UNL d   1       0.313   0.811  -0.891  0.00  0.00    -0.193 OA
ATOM      3  O   UNL d   1       2.574  -0.197  -0.481  0.00  0.00    -0.193 OA
ENDROOT
BRANCH   1   4
ATOM      4  C   UNL d   1       0.466  -1.713  -0.178  0.00  0.00     0.095 A 
ATOM      5  C   UNL d   1      -0.919  -1.951  -0.223  0.00  0.00     0.001 A 
ATOM      6  C   UNL d   1      -1.341  -3.282  -0.380  0.00  0.00     0.129 A 
ATOM      7  C   UNL d   1      -1.995  -0.907  -0.147  0.00  0.00     0.053 C 
ATOM      8  F   UNL d   1      -2.656  -3.538  -0.474  0.00  0.00    -0.205 F 
ATOM      9  C   UNL d   1      -0.447  -4.357  -0.445  0.00  0.00    -0.023 A 
ATOM     10  C   UNL d   1       0.921  -4.098  -0.369  0.00  0.00     0.011 A 
ATOM     11  C   UNL d   1      -0.962  -5.753  -0.627  0.00  0.00     0.051 C 
ATOM     12  C   UNL d   1       1.375  -2.785  -0.242  0.00  0.00     0.027 A 
ENDBRANCH   1   4
BRANCH   1  13
ATOM     13  O   UNL d   1       1.081   0.334   1.458  0.00  0.00    -0.228 OA
BRANCH  13  14
ATOM     14  C   UNL d   1       1.664   1.478   1.938  0.00  0.00     0.105 A 
ATOM     15  C   UNL d   1       2.158   2.527   1.169  0.00  0.00     0.125 A 
ATOM     16  N   UNL d   1       2.709   3.651   1.690  0.00  0.00    -0.373 N 
ATOM     17  C   UNL d   1       2.773   3.736   3.034  0.00  0.00     0.088 A 
ATOM     18  HN  UNL d   1       3.060   4.399   1.091  1.00  0.00     0.164 HD
ATOM     19  C   UNL d   1       2.312   2.746   3.886  0.00  0.00     0.020 A 
ATOM     20  C   UNL d   1       1.749   1.601   3.324  0.00  0.00     0.041 A 
ENDBRANCH  13  14
ENDBRANCH   1  13
TORSDOF 3
