REMARK  3 active torsions:
REMARK  status: ('A' for Active; 'I' for Inactive)
REMARK       I    between atoms: C_4  and  N_1 
REMARK    1  A    between atoms: C_5  and  N_1 
REMARK    2  A    between atoms: C_2  and  C_3 
REMARK       I    between atoms: N_10  and  C_4 
REMARK    3  A    between atoms: C_16  and  N_10 
ROOT
ATOM      1  N   UNL d   1       1.194   0.105  -0.351  0.00  0.00    -0.293 N 
ATOM      2  C   UNL d   1       0.602   1.280  -0.716  0.00  0.00     0.326 C 
ATOM      3  N   UNL d   1       1.278   2.427  -0.412  0.00  0.00    -0.309 N 
ATOM      4  O   UNL d   1      -0.471   1.209  -1.311  0.00  0.00    -0.247 OA
ATOM      5  H   UNL d   1       0.665  -0.705  -0.650  0.00  0.00     0.172 HD
ATOM      6  H   UNL d   1       2.198   2.273  -0.009  0.00  0.00     0.170 HD
ENDROOT
BRANCH   1   7
ATOM      7  C   UNL d   1       2.306  -0.133   0.466  0.00  0.00     0.131 A 
ATOM      8  N   UNL d   1       2.987   0.918   0.988  0.00  0.00    -0.350 N 
ATOM      9  C   UNL d   1       3.960   0.647   1.893  0.00  0.00     0.106 A 
ATOM     10  HN  UNL d   1       2.774   1.876   0.710  1.00  0.00     0.166 HD
ATOM     11  C   UNL d   1       4.312  -0.633   2.300  0.00  0.00     0.065 A 
ATOM     12  C   UNL d   1       3.652  -1.706   1.696  0.00  0.00     0.045 A 
ATOM     13  C   UNL d   1       2.639  -1.458   0.771  0.00  0.00     0.079 A 
ATOM     14 CL   UNL d   1       1.809  -2.800   0.071  0.00  0.00    -0.080 Cl
BRANCH  11  15
ATOM     15  C   UNL d   1       5.337  -0.819   3.377  0.00  0.00     0.418 C 
ATOM     16  F   UNL d   1       5.522  -2.120   3.728  0.00  0.00    -0.166 F 
ATOM     17  F   UNL d   1       6.561  -0.347   3.015  0.00  0.00    -0.166 F 
ATOM     18  F   UNL d   1       5.005  -0.165   4.522  0.00  0.00    -0.166 F 
ENDBRANCH  11  15
ENDBRANCH   1   7
BRANCH   3  19
ATOM     19  C   UNL d   1       0.883   3.755  -0.653  0.00  0.00     0.036 A 
ATOM     20  C   UNL d   1      -0.409   4.120  -1.040  0.00  0.00     0.031 A 
ATOM     21  C   UNL d   1      -0.736   5.465  -1.256  0.00  0.00     0.026 A 
ATOM     22  C   UNL d   1       0.236   6.449  -1.092  0.00  0.00     0.034 A 
ATOM     23  C   UNL d   1       1.527   6.099  -0.706  0.00  0.00     0.026 A 
ATOM     24 CL   UNL d   1      -0.161   8.099  -1.367  0.00  0.00    -0.084 Cl
ATOM     25  C   UNL d   1       1.846   4.756  -0.477  0.00  0.00     0.031 A 
ENDBRANCH   3  19
TORSDOF 3
