REMARK  3 active torsions:
REMARK  status: ('A' for Active; 'I' for Inactive)
REMARK    1  A    between atoms: C_3  and  N_1 
REMARK    2  A    between atoms: C_2  and  C_4 
REMARK    3  A    between atoms: C_9  and  C_2 
ROOT
ATOM      1  C   UNL d   1       0.179  -1.179   0.390  0.00  0.00     0.103 A 
ATOM      2  C   UNL d   1      -0.049  -2.779   2.188  0.00  0.00     0.017 A 
ATOM      3  C   UNL d   1       0.665  -1.740   1.580  0.00  0.00     0.051 A 
ATOM      4  C   UNL d   1      -1.258  -3.216   1.626  0.00  0.00     0.015 A 
ATOM      5  C   UNL d   1      -1.017  -1.633  -0.184  0.00  0.00     0.036 A 
ATOM      6  C   UNL d   1      -1.737  -2.649   0.443  0.00  0.00     0.003 A 
ENDROOT
BRANCH   2   7
ATOM      7  C   UNL d   1       0.405  -3.408   3.456  0.00  0.00     0.192 C 
ATOM      8  O   UNL d   1      -0.444  -3.787   4.260  0.00  0.00    -0.287 OA
BRANCH   7   9
ATOM      9  C   UNL d   1       1.845  -3.588   3.778  0.00  0.00     0.015 A 
ATOM     10  C   UNL d   1       2.808  -3.808   2.784  0.00  0.00     0.015 A 
ATOM     11  C   UNL d   1       4.149  -3.974   3.135  0.00  0.00     0.001 A 
ATOM     12  C   UNL d   1       4.530  -3.947   4.477  0.00  0.00     0.000 A 
ATOM     13  C   UNL d   1       3.572  -3.758   5.471  0.00  0.00     0.001 A 
ATOM     14  C   UNL d   1       2.231  -3.582   5.124  0.00  0.00     0.015 A 
ENDBRANCH   7   9
ENDBRANCH   2   7
BRANCH   1  15
ATOM     15  N   UNL d   1       0.936  -0.104  -0.264  0.00  0.00    -0.116 N 
ATOM     16  O   UNL d   1       1.997   0.255   0.266  0.00  0.00    -0.532 OA
ATOM     17  O   UNL d   1       0.475   0.373  -1.310  0.00  0.00    -0.532 OA
ENDBRANCH   1  15
TORSDOF 3
