REMARK  2 active torsions:
REMARK  status: ('A' for Active; 'I' for Inactive)
REMARK    1  A    between atoms: C_2  and  C_1 
REMARK       I    between atoms: N_3  and  C_1 
REMARK    2  A    between atoms: C_10  and  N_3 
ROOT
ATOM      1  C   UNL d   1       1.007  -0.074   0.040  0.00  0.00     0.256 C 
ATOM      2  N   UNL d   1       0.247  -0.437  -1.061  0.00  0.00    -0.323 N 
ATOM      3  O   UNL d   1       2.229  -0.025   0.103  0.00  0.00    -0.267 OA
ATOM      4  H   UNL d   1      -0.743  -0.236  -1.035  0.00  0.00     0.169 HD
ENDROOT
BRANCH   1   5
ATOM      5  C   UNL d   1       0.239   0.339   1.245  0.00  0.00     0.034 A 
ATOM      6  C   UNL d   1       0.787   1.329   2.072  0.00  0.00     0.042 A 
ATOM      7  C   UNL d   1       0.111   1.740   3.223  0.00  0.00     0.056 A 
ATOM      8 CL   UNL d   1       0.838   2.976   4.186  0.00  0.00    -0.083 Cl
ATOM      9  C   UNL d   1      -1.113   1.150   3.559  0.00  0.00     0.055 A 
ATOM     10  C   UNL d   1      -1.643   0.137   2.752  0.00  0.00     0.026 A 
ATOM     11 CL   UNL d   1      -2.018   1.622   4.952  0.00  0.00    -0.083 Cl
ATOM     12  C   UNL d   1      -0.969  -0.274   1.599  0.00  0.00     0.019 A 
ENDBRANCH   1   5
BRANCH   2  13
ATOM     13  C   UNL d   1       0.738  -0.996  -2.262  0.00  0.00     0.035 A 
ATOM     14  C   UNL d   1       2.052  -1.443  -2.421  0.00  0.00     0.031 A 
ATOM     15  C   UNL d   1       2.463  -2.046  -3.613  0.00  0.00     0.026 A 
ATOM     16  C   UNL d   1       1.560  -2.199  -4.660  0.00  0.00     0.034 A 
ATOM     17  C   UNL d   1       0.253  -1.740  -4.527  0.00  0.00     0.026 A 
ATOM     18 CL   UNL d   1       2.057  -2.973  -6.112  0.00  0.00    -0.084 Cl
ATOM     19  C   UNL d   1      -0.160  -1.143  -3.329  0.00  0.00     0.031 A 
ENDBRANCH   2  13
TORSDOF 2
