REMARK  3 active torsions:
REMARK  status: ('A' for Active; 'I' for Inactive)
REMARK    1  A    between atoms: C_3  and  C_1 
REMARK    2  A    between atoms: N_8  and  C_2 
REMARK    3  A    between atoms: O_9  and  C_3 
ROOT
ATOM      1  C   UNL d   1      -0.599  -1.315  -0.002  0.00  0.00     0.072 A 
ATOM      2  C   UNL d   1      -1.148   0.011  -0.001  0.00  0.00     0.049 A 
ATOM      3  S   UNL d   1       1.392   0.346   0.001  0.00  0.00    -0.110 SA
ATOM      4  C   UNL d   1       0.787  -1.253  -0.001  0.00  0.00     0.069 A 
ATOM      5  C   UNL d   1      -0.188   0.994   0.001  0.00  0.00     0.079 A 
ENDROOT
BRANCH   1   6
ATOM      6  C   UNL d   1      -1.353  -2.568  -0.003  0.00  0.00     0.295 C 
ATOM      7  O   UNL d   1      -2.579  -2.623  -0.005  0.00  0.00    -0.259 OA
BRANCH   6   8
ATOM      8  O   UNL d   1      -0.543  -3.670  -0.002  0.00  0.00    -0.322 OA
ATOM      9  C   UNL d   1      -1.240  -4.915  -0.003  0.00  0.00     0.213 C 
ENDBRANCH   6   8
ENDBRANCH   1   6
BRANCH   2  10
ATOM     10  N   UNL d   1      -2.465   0.290  -0.001  0.00  0.00    -0.398 N 
ATOM     11  H   UNL d   1      -3.167  -0.451  -0.006  0.00  0.00     0.156 HD
ATOM     12  H   UNL d   1      -2.845   1.231  -0.007  0.00  0.00     0.156 HD
ENDBRANCH   2  10
TORSDOF 3
