REMARK  3 active torsions:
REMARK  status: ('A' for Active; 'I' for Inactive)
REMARK    1  A    between atoms: C_11  and  N_1 
REMARK    2  A    between atoms: C_9  and  C_11 
REMARK    3  A    between atoms: C_14  and  C_10 
ROOT
ATOM      1  N   UNL d   1       1.369  -4.138  -0.949  0.00  0.00    -0.355 N 
ATOM      2  HN  UNL d   1       0.920  -4.351  -1.840  1.00  0.00     0.166 HD
ATOM      3  C   UNL d   1       0.883  -3.308  -0.042  0.00  0.00     0.071 A 
ATOM      4  C   UNL d   1       2.578  -4.680  -0.522  0.00  0.00     0.024 A 
ATOM      5  S   UNL d   1       1.828  -3.163   1.388  0.00  0.00    -0.085 SA
ATOM      6  C   UNL d   1       2.971  -4.252   0.735  0.00  0.00     0.077 A 
ENDROOT
BRANCH   3   7
ATOM      7  C   UNL d   1      -0.415  -2.579  -0.159  0.00  0.00     0.213 C 
BRANCH   7   8
ATOM      8  N   UNL d   1      -0.228  -1.259  -0.751  0.00  0.00    -0.289 N 
ATOM      9  N   UNL d   1      -0.058  -0.200   0.079  0.00  0.00    -0.301 N 
ATOM     10  C   UNL d   1       0.012   0.860  -0.738  0.00  0.00     0.041 A 
ATOM     11  HN  UNL d   1       0.003  -0.208   1.097  1.00  0.00     0.187 HD
ATOM     12  C   UNL d   1       0.211   2.220  -0.182  0.00  0.00     0.071 C 
ATOM     13  C   UNL d   1      -0.142   0.469  -2.080  0.00  0.00     0.058 A 
ATOM     14  C   UNL d   1      -0.310  -0.897  -2.078  0.00  0.00     0.044 A 
ATOM     15 BR   UNL d   1      -0.137   1.620  -3.557  0.00  0.00    -0.047 Br
ATOM     16  C   UNL d   1      -0.529  -1.835  -3.207  0.00  0.00     0.071 C 
ENDBRANCH   7   8
ENDBRANCH   3   7
BRANCH   4  17
ATOM     17  C   UNL d   1       3.341  -5.644  -1.424  0.00  0.00    -0.008 C 
ATOM     18  C   UNL d   1       2.577  -5.918  -2.735  0.00  0.00     0.021 C 
ATOM     19  C   UNL d   1       4.717  -5.049  -1.786  0.00  0.00     0.021 C 
ATOM     20  C   UNL d   1       3.557  -6.994  -0.709  0.00  0.00     0.021 C 
ENDBRANCH   4  17
TORSDOF 3
