REMARK  9 active torsions:
REMARK  status: ('A' for Active; 'I' for Inactive)
REMARK    1  A    between atoms: S_4  and  C_1 
REMARK    2  A    between atoms: C_7  and  C_2 
REMARK    3  A    between atoms: N_11  and  C_3 
REMARK    4  A    between atoms: C_12  and  S_4 
REMARK    5  A    between atoms: S_8  and  C_5 
REMARK    6  A    between atoms: O_15  and  C_7 
REMARK    7  A    between atoms: C_14  and  S_8 
REMARK    8  A    between atoms: C_18  and  C_14 
REMARK    9  A    between atoms: C_25  and  O_15 
ROOT
ATOM      1  C   UNL d   1      -0.591  -1.262   0.120  0.00  0.00     0.111 A 
ATOM      2  C   UNL d   1      -0.106   1.037   0.129  0.00  0.00     0.109 A 
ATOM      3  C   UNL d   1      -1.098   0.079   0.240  0.00  0.00     0.072 A 
ATOM      4  C   UNL d   1       0.793  -1.285   0.019  0.00  0.00     0.066 A 
ATOM      5  S   UNL d   1       1.438   0.300   0.066  0.00  0.00    -0.073 SA
ENDROOT
BRANCH   4   6
ATOM      6  S   UNL d   1       1.838  -2.687  -0.256  0.00  0.00    -0.116 SA
BRANCH   6   7
ATOM      7  C   UNL d   1       3.348  -2.344   0.695  0.00  0.00     0.118 C 
BRANCH   7   8
ATOM      8  C   UNL d   1       4.268  -3.546   0.675  0.00  0.00    -0.047 A 
ATOM      9  C   UNL d   1       4.243  -4.495   1.709  0.00  0.00     0.031 A 
ATOM     10  C   UNL d   1       5.071  -5.620   1.653  0.00  0.00     0.034 A 
ATOM     11 CL   UNL d   1       5.027  -6.778   2.926  0.00  0.00    -0.084 Cl
ATOM     12  C   UNL d   1       5.927  -5.817   0.572  0.00  0.00     0.024 A 
ATOM     13  C   UNL d   1       5.957  -4.884  -0.463  0.00  0.00     0.002 A 
ATOM     14  C   UNL d   1       5.133  -3.757  -0.412  0.00  0.00     0.008 A 
ENDBRANCH   7   8
ENDBRANCH   6   7
ENDBRANCH   4   6
BRANCH   1  15
ATOM     15  S   UNL d   1      -1.612  -2.679   0.015  0.00  0.00     0.183 S 
ATOM     16  O   UNL d   1      -2.967  -2.214   0.258  0.00  0.00    -0.222 OA
ATOM     17  O   UNL d   1      -1.251  -3.278  -1.256  0.00  0.00    -0.222 OA
BRANCH  15  18
ATOM     18  C   UNL d   1      -1.129  -3.762   1.361  0.00  0.00     0.105 C 
ATOM     19  C   UNL d   1      -1.390  -3.123   2.719  0.00  0.00     0.026 C 
ATOM     20  C   UNL d   1      -1.863  -5.096   1.242  0.00  0.00     0.026 C 
ENDBRANCH  15  18
ENDBRANCH   1  15
BRANCH   3  21
ATOM     21  N   UNL d   1      -2.400   0.406   0.390  0.00  0.00    -0.397 N 
ATOM     22  H   UNL d   1      -2.741   1.365   0.283  0.00  0.00     0.156 HD
ATOM     23  H   UNL d   1      -3.143  -0.300   0.322  0.00  0.00     0.156 HD
ENDBRANCH   3  21
BRANCH   2  24
ATOM     24  C   UNL d   1      -0.274   2.482   0.009  0.00  0.00     0.302 C 
ATOM     25  O   UNL d   1      -1.352   3.067  -0.020  0.00  0.00    -0.259 OA
BRANCH  24  26
ATOM     26  O   UNL d   1       0.930   3.096  -0.183  0.00  0.00    -0.317 OA
BRANCH  26  27
ATOM     27  C   UNL d   1       0.884   4.399  -0.779  0.00  0.00     0.174 C 
ATOM     28  C   UNL d   1       0.868   4.231  -2.290  0.00  0.00     0.034 C 
ENDBRANCH  26  27
ENDBRANCH  24  26
ENDBRANCH   2  24
TORSDOF 9
