REMARK  5 active torsions:
REMARK  status: ('A' for Active; 'I' for Inactive)
REMARK    1  A    between atoms: S_2  and  C_1 
REMARK    2  A    between atoms: C_3  and  C_1 
REMARK    3  A    between atoms: C_11  and  S_2 
REMARK       I    between atoms: N_6  and  C_3 
REMARK    4  A    between atoms: C_8  and  N_6 
REMARK    5  A    between atoms: N_15  and  C_7 
ROOT
ATOM      1  C   UNL d   1       0.920  -0.052  -0.416  0.00  0.00     0.147 C 
ATOM      2  C   UNL d   1       2.228  -0.187  -0.105  0.00  0.00     0.114 C 
ENDROOT
BRANCH   1   3
ATOM      3  S   UNL d   1      -0.028  -1.484  -0.120  0.00  0.00     0.213 S 
ATOM      4  O   UNL d   1       0.477  -2.149   1.068  0.00  0.00    -0.217 OA
ATOM      5  O   UNL d   1      -1.445  -1.132  -0.137  0.00  0.00    -0.217 OA
BRANCH   3   6
ATOM      6  C   UNL d   1       0.201  -2.649  -1.452  0.00  0.00     0.064 A 
ATOM      7  C   UNL d   1       1.214  -3.611  -1.347  0.00  0.00     0.024 A 
ATOM      8  C   UNL d   1       1.174  -4.751  -2.155  0.00  0.00     0.002 A 
ATOM      9  C   UNL d   1       0.120  -4.938  -3.049  0.00  0.00     0.000 A 
ATOM     10  C   UNL d   1      -0.877  -3.970  -3.169  0.00  0.00     0.002 A 
ATOM     11  C   UNL d   1      -0.838  -2.822  -2.376  0.00  0.00     0.024 A 
ENDBRANCH   3   6
ENDBRANCH   1   3
BRANCH   1  12
ATOM     12  C   UNL d   1       0.294   1.313  -0.544  0.00  0.00     0.269 C 
ATOM     13  N   UNL d   1      -1.075   1.412  -0.325  0.00  0.00    -0.320 N 
ATOM     14  H   UNL d   1      -1.569   0.557  -0.066  0.00  0.00     0.169 HD
ATOM     15  O   UNL d   1       0.999   2.287  -0.790  0.00  0.00    -0.266 OA
BRANCH  13  16
ATOM     16  C   UNL d   1      -1.810   2.610  -0.136  0.00  0.00     0.077 A 
ATOM     17  C   UNL d   1      -1.451   3.883  -0.606  0.00  0.00     0.184 A 
ATOM     18  C   UNL d   1      -2.158   5.014  -0.204  0.00  0.00     0.195 A 
ATOM     19  F   UNL d   1      -0.485   4.048  -1.520  0.00  0.00    -0.200 F 
ATOM     20  F   UNL d   1      -1.790   6.228  -0.640  0.00  0.00    -0.199 F 
ATOM     21  C   UNL d   1      -3.248   4.888   0.644  0.00  0.00     0.158 A 
ATOM     22  C   UNL d   1      -3.681   3.632   1.050  0.00  0.00     0.048 A 
ATOM     23  F   UNL d   1      -3.903   5.977   1.070  0.00  0.00    -0.203 F 
ATOM     24  C   UNL d   1      -2.974   2.495   0.646  0.00  0.00     0.036 A 
ENDBRANCH  13  16
ENDBRANCH   1  12
BRANCH   2  25
ATOM     25  N   UNL d   1       3.102   0.724   0.504  0.00  0.00    -0.397 N 
ATOM     26  C   UNL d   1       2.621   1.520   1.649  0.00  0.00     0.148 C 
ATOM     27  C   UNL d   1       4.556   0.557   0.459  0.00  0.00     0.148 C 
ENDBRANCH   2  25
TORSDOF 5
