REMARK  6 active torsions:
REMARK  status: ('A' for Active; 'I' for Inactive)
REMARK    1  A    between atoms: C_9  and  C_3 
REMARK    2  A    between atoms: C_8  and  C_4 
REMARK    3  A    between atoms: C_7  and  O_14 
REMARK       I    between atoms: N_12  and  C_7 
REMARK    4  A    between atoms: O_14  and  N_10 
REMARK    5  A    between atoms: C_19  and  N_12 
REMARK    6  A    between atoms: C_17  and  C_18 
ROOT
ATOM      1  C   UNL d   1      -0.049  -2.632  -0.292  0.00  0.00    -0.002 A 
ATOM      2  C   UNL d   1       0.675  -3.483   0.559  0.00  0.00     0.015 A 
ATOM      3  C   UNL d   1      -0.934  -3.212  -1.215  0.00  0.00     0.015 A 
ATOM      4  C   UNL d   1      -0.423  -5.425  -0.382  0.00  0.00    -0.019 A 
ATOM      5  C   UNL d   1      -1.124  -4.597  -1.258  0.00  0.00     0.014 A 
ATOM      6  C   UNL d   1       0.492  -4.873   0.519  0.00  0.00     0.014 A 
ENDROOT
BRANCH   4   7
ATOM      7  C   UNL d   1      -0.644  -6.884  -0.402  0.00  0.00     0.126 C 
ATOM      8  N   UNL d   1      -1.558  -7.447  -1.135  0.00  0.00    -0.267 N 
ATOM      9  HN  UNL d   1      -2.223  -6.973  -1.746  1.00  0.00     0.194 HD
BRANCH   8  10
ATOM     10  O   UNL d   1      -1.457  -8.842  -0.923  0.00  0.00    -0.181 OA
BRANCH  10  11
ATOM     11  C   UNL d   1      -2.379  -9.594  -1.631  0.00  0.00     0.387 C 
ATOM     12  N   UNL d   1      -3.337  -8.860  -2.295  0.00  0.00    -0.301 N 
ATOM     13  H   UNL d   1      -3.209  -7.862  -2.178  0.00  0.00     0.171 HD
ATOM     14  O   UNL d   1      -2.290 -10.820  -1.604  0.00  0.00    -0.236 OA
BRANCH  12  15
ATOM     15  C   UNL d   1      -4.394  -9.345  -3.098  0.00  0.00     0.036 A 
ATOM     16  C   UNL d   1      -4.629 -10.706  -3.330  0.00  0.00     0.029 A 
ATOM     17  C   UNL d   1      -5.663 -11.126  -4.176  0.00  0.00     0.002 A 
ATOM     18  C   UNL d   1      -6.484 -10.190  -4.795  0.00  0.00     0.000 A 
ATOM     19  C   UNL d   1      -6.282  -8.834  -4.552  0.00  0.00     0.002 A 
ATOM     20  C   UNL d   1      -5.246  -8.414  -3.706  0.00  0.00     0.029 A 
ENDBRANCH  12  15
ENDBRANCH  10  11
ENDBRANCH   8  10
ENDBRANCH   4   7
BRANCH   1  21
ATOM     21  C   UNL d   1       0.157  -1.175  -0.206  0.00  0.00     0.084 A 
ATOM     22  N   UNL d   1       1.296  -0.607   0.136  0.00  0.00    -0.352 N 
ATOM     23  C   UNL d   1       1.190   0.780   0.124  0.00  0.00     0.024 A 
ATOM     24  HN  UNL d   1       2.145  -1.117   0.377  1.00  0.00     0.166 HD
ATOM     25  C   UNL d   1      -0.077   1.241  -0.185  0.00  0.00     0.077 A 
ATOM     26  S   UNL d   1      -1.132  -0.069  -0.496  0.00  0.00    -0.081 SA
BRANCH  23  27
ATOM     27  C   UNL d   1       2.421   1.626   0.421  0.00  0.00    -0.008 C 
ATOM     28  C   UNL d   1       3.652   0.737   0.700  0.00  0.00     0.021 C 
ATOM     29  C   UNL d   1       2.745   2.528  -0.787  0.00  0.00     0.021 C 
ATOM     30  C   UNL d   1       2.186   2.515   1.657  0.00  0.00     0.021 C 
ENDBRANCH  23  27
ENDBRANCH   1  21
TORSDOF 6
