REMARK  3 active torsions:
REMARK  status: ('A' for Active; 'I' for Inactive)
REMARK    1  A    between atoms: C_13  and  C_4 
REMARK    2  A    between atoms: C_10  and  C_17 
REMARK    3  A    between atoms: C_17  and  N_11 
ROOT
ATOM      1  C   UNL d   1       0.089  -0.690  -0.022  0.00  0.00     0.057 A 
ATOM      2  C   UNL d   1       0.025   0.655  -0.017  0.00  0.00     0.002 A 
ATOM      3  S   UNL d   1       1.639  -1.308  -0.022  0.00  0.00    -0.080 SA
ATOM      4  C   UNL d   1       2.292   0.289  -0.020  0.00  0.00     0.028 A 
ATOM      5  C   UNL d   1       1.299   1.284  -0.034  0.00  0.00    -0.031 A 
ATOM      6  S   UNL d   1      -1.395  -1.451  -0.024  0.00  0.00    -0.093 SA
ATOM      7  C   UNL d   1      -1.303   1.166   0.010  0.00  0.00    -0.043 A 
ATOM      8  C   UNL d   1      -2.184   0.080  -0.005  0.00  0.00     0.058 A 
ATOM      9  C   UNL d   1       1.640   2.739  -0.056  0.00  0.00     0.050 C 
ATOM     10  C   UNL d   1      -1.819   2.562   0.055  0.00  0.00     0.049 C 
ENDROOT
BRANCH   4  11
ATOM     11  C   UNL d   1       3.735   0.436   0.003  0.00  0.00     0.102 C 
ATOM     12  N   UNL d   1       4.241   1.620  -0.033  0.00  0.00    -0.393 N 
ATOM     13  HN  UNL d   1       3.641   2.441  -0.115  1.00  0.00     0.159 HD
BRANCH  12  14
ATOM     14  C   UNL d   1       5.686   1.759   0.046  0.00  0.00     0.165 C 
BRANCH  14  15
ATOM     15  C   UNL d   1       6.024   2.554   1.274  0.00  0.00    -0.000 A 
ATOM     16  S   UNL d   1       7.096   1.918   2.451  0.00  0.00    -0.105 SA
ATOM     17  C   UNL d   1       6.951   3.312   3.431  0.00  0.00     0.050 A 
ATOM     18  C   UNL d   1       6.105   4.248   2.879  0.00  0.00     0.008 A 
ATOM     19  C   UNL d   1       5.572   3.811   1.633  0.00  0.00     0.017 A 
ENDBRANCH  14  15
ENDBRANCH  12  14
ENDBRANCH   4  11
TORSDOF 3
