REMARK  5 active torsions:
REMARK  status: ('A' for Active; 'I' for Inactive)
REMARK    1  A    between atoms: S_2  and  N_1 
REMARK    2  A    between atoms: C_3  and  N_1 
REMARK    3  A    between atoms: C_11  and  N_1 
REMARK    4  A    between atoms: C_6  and  C_7 
REMARK    5  A    between atoms: C_19  and  C_11 
ROOT
ATOM      1  N   UNL d   1       0.960   0.179   0.145  0.00  0.00    -0.255 N 
ENDROOT
BRANCH   1   2
ATOM      2  S   UNL d   1      -0.096   0.543  -1.121  0.00  0.00     0.230 S 
ATOM      3  O   UNL d   1       0.447   1.657  -1.866  0.00  0.00    -0.206 OA
ATOM      4  O   UNL d   1      -0.426  -0.686  -1.812  0.00  0.00    -0.206 OA
ATOM      5  C   UNL d   1      -1.582   1.114  -0.312  0.00  0.00     0.186 C 
ENDBRANCH   1   2
BRANCH   1   6
ATOM      6  C   UNL d   1       0.417  -0.661   1.165  0.00  0.00     0.139 A 
ATOM      7  N   UNL d   1      -0.007   0.077   2.219  0.00  0.00    -0.349 N 
ATOM      8  C   UNL d   1      -0.517  -0.581   3.286  0.00  0.00     0.106 A 
ATOM      9  HN  UNL d   1       0.055   1.095   2.208  1.00  0.00     0.166 HD
ATOM     10  C   UNL d   1      -0.648  -1.959   3.350  0.00  0.00     0.065 A 
ATOM     11  C   UNL d   1      -0.245  -2.699   2.233  0.00  0.00     0.045 A 
ATOM     12  C   UNL d   1       0.299  -2.053   1.121  0.00  0.00     0.079 A 
ATOM     13 CL   UNL d   1       0.834  -3.035  -0.188  0.00  0.00    -0.080 Cl
BRANCH  10  14
ATOM     14  C   UNL d   1      -1.179  -2.597   4.597  0.00  0.00     0.418 C 
ATOM     15  F   UNL d   1      -1.242  -3.954   4.524  0.00  0.00    -0.166 F 
ATOM     16  F   UNL d   1      -0.411  -2.316   5.684  0.00  0.00    -0.166 F 
ATOM     17  F   UNL d   1      -2.435  -2.177   4.903  0.00  0.00    -0.166 F 
ENDBRANCH  10  14
ENDBRANCH   1   6
BRANCH   1  18
ATOM     18  C   UNL d   1       2.361  -0.109  -0.251  0.00  0.00     0.181 C 
BRANCH  18  19
ATOM     19  C   UNL d   1       3.258   1.102  -0.133  0.00  0.00    -0.039 A 
ATOM     20  C   UNL d   1       3.835   1.450   1.099  0.00  0.00     0.010 A 
ATOM     21  C   UNL d   1       4.596   2.616   1.218  0.00  0.00     0.024 A 
ATOM     22  C   UNL d   1       4.776   3.443   0.112  0.00  0.00     0.034 A 
ATOM     23  C   UNL d   1       4.232   3.098  -1.123  0.00  0.00     0.024 A 
ATOM     24 CL   UNL d   1       5.654   4.914   0.276  0.00  0.00    -0.084 Cl
ATOM     25  C   UNL d   1       3.484   1.927  -1.244  0.00  0.00     0.010 A 
ENDBRANCH  18  19
ENDBRANCH   1  18
TORSDOF 5
