REMARK  6 active torsions:
REMARK  status: ('A' for Active; 'I' for Inactive)
REMARK    1  A    between atoms: C_6  and  S_1 
REMARK    2  A    between atoms: C_18  and  S_1 
REMARK    3  A    between atoms: N_2  and  C_3 
REMARK    4  A    between atoms: N_4  and  C_7 
REMARK    5  A    between atoms: O_11  and  C_5 
REMARK    6  A    between atoms: C_13  and  O_11 
ROOT
ATOM      1  C   UNL d   1      -0.823  -2.108  -3.565  0.00  0.00     0.136 C 
ATOM      2  C   UNL d   1      -1.251  -0.823  -3.209  0.00  0.00     0.112 C 
ATOM      3  C   UNL d   1       0.375  -0.806  -1.395  0.00  0.00     0.067 C 
ATOM      4  C   UNL d   1      -0.569  -0.148  -2.179  0.00  0.00     0.063 C 
ATOM      5  C   UNL d   1       0.186  -2.748  -2.808  0.00  0.00     0.040 C 
ATOM      6  C   UNL d   1       0.767  -2.105  -1.708  0.00  0.00     0.026 C 
ENDROOT
BRANCH   2   7
ATOM      7  O   UNL d   1      -2.313  -0.206  -3.848  0.00  0.00    -0.291 OA
BRANCH   7   8
ATOM      8  C   UNL d   1      -3.132   0.597  -3.055  0.00  0.00     0.148 A 
ATOM      9  N   UNL d   1      -3.292   0.273  -1.745  0.00  0.00    -0.344 N 
ATOM     10  C   UNL d   1      -3.848   1.207  -0.939  0.00  0.00     0.126 A 
ATOM     11  HN  UNL d   1      -3.006  -0.637  -1.384  1.00  0.00     0.167 HD
ATOM     12  C   UNL d   1      -4.283   2.437  -1.403  0.00  0.00     0.118 A 
ATOM     13  C   UNL d   1      -4.198   2.715  -2.771  0.00  0.00     0.041 A 
ATOM     14  C   UNL d   1      -3.611   1.771  -3.618  0.00  0.00     0.059 A 
BRANCH  12  15
ATOM     15  N   UNL d   1      -4.762   3.430  -0.453  0.00  0.00    -0.114 N 
ATOM     16  O   UNL d   1      -4.696   3.150   0.753  0.00  0.00    -0.532 OA
ATOM     17  O   UNL d   1      -5.186   4.500  -0.906  0.00  0.00    -0.532 OA
ENDBRANCH  12  15
ENDBRANCH   7   8
ENDBRANCH   2   7
BRANCH   1  18
ATOM     18  N   UNL d   1      -1.364  -2.821  -4.734  0.00  0.00    -0.113 N 
ATOM     19  O   UNL d   1      -2.208  -2.257  -5.442  0.00  0.00    -0.532 OA
ATOM     20  O   UNL d   1      -0.915  -3.954  -4.968  0.00  0.00    -0.532 OA
ENDBRANCH   1  18
BRANCH   3  21
ATOM     21  S   UNL d   1       1.102   0.067  -0.027  0.00  0.00     0.206 S 
ATOM     22  O   UNL d   1       1.003   1.488  -0.328  0.00  0.00    -0.217 OA
ATOM     23  O   UNL d   1       2.400  -0.533   0.213  0.00  0.00    -0.217 OA
BRANCH  21  24
ATOM     24  C   UNL d   1       0.098  -0.242   1.411  0.00  0.00     0.064 A 
ATOM     25  C   UNL d   1       0.381  -1.349   2.218  0.00  0.00     0.024 A 
ATOM     26  C   UNL d   1      -0.332  -1.539   3.403  0.00  0.00     0.002 A 
ATOM     27  C   UNL d   1      -1.317  -0.626   3.782  0.00  0.00     0.000 A 
ATOM     28  C   UNL d   1      -1.598   0.478   2.976  0.00  0.00     0.002 A 
ATOM     29  C   UNL d   1      -0.888   0.677   1.790  0.00  0.00     0.024 A 
ENDBRANCH  21  24
ENDBRANCH   3  21
TORSDOF 6
