REMARK  8 active torsions:
REMARK  status: ('A' for Active; 'I' for Inactive)
REMARK    1  A    between atoms: C_9  and  N_1 
REMARK    2  A    between atoms: C_14  and  C_2 
REMARK    3  A    between atoms: S_13  and  C_5 
REMARK    4  A    between atoms: N_8  and  C_15 
REMARK    5  A    between atoms: C_10  and  C_11 
REMARK    6  A    between atoms: C_29  and  S_13 
REMARK    7  A    between atoms: C_18  and  C_19 
REMARK    8  A    between atoms: C_30  and  C_29 
ROOT
ATOM      1  N   UNL d   1      -0.370  -1.272  -0.008  0.00  0.00    -0.275 N 
ATOM      2  C   UNL d   1       0.889  -0.646   0.004  0.00  0.00     0.139 A 
ATOM      3  N   UNL d   1       0.706   0.665   0.027  0.00  0.00    -0.282 N 
ATOM      4  HN  UNL d   1       1.444   1.364   0.108  1.00  0.00     0.188 HD
ATOM      5  C   UNL d   1      -1.270  -0.212  -0.117  0.00  0.00     0.168 A 
ATOM      6  N   UNL d   1      -0.630   0.933  -0.074  0.00  0.00    -0.278 N 
ATOM      7  HN  UNL d   1      -1.055   1.859  -0.111  1.00  0.00     0.189 HD
ENDROOT
BRANCH   5   8
ATOM      8  S   UNL d   1      -3.010  -0.328  -0.081  0.00  0.00    -0.087 SA
BRANCH   8   9
ATOM      9  C   UNL d   1      -3.505   1.200  -0.944  0.00  0.00     0.121 C 
BRANCH   9  10
ATOM     10  C   UNL d   1      -5.016   1.345  -1.001  0.00  0.00    -0.048 A 
ATOM     11  C   UNL d   1      -5.701   2.056   0.000  0.00  0.00     0.010 A 
ATOM     12  C   UNL d   1      -7.095   2.180  -0.028  0.00  0.00     0.036 A 
ATOM     13  C   UNL d   1      -7.821   1.584  -1.067  0.00  0.00     0.102 A 
ATOM     14  C   UNL d   1      -7.154   0.876  -2.076  0.00  0.00     0.036 A 
ATOM     15  C   UNL d   1      -5.761   0.759  -2.041  0.00  0.00     0.010 A 
BRANCH  13  16
ATOM     16  N   UNL d   1      -9.283   1.696  -1.100  0.00  0.00    -0.116 N 
ATOM     17  O   UNL d   1      -9.890   1.143  -2.027  0.00  0.00    -0.532 OA
ATOM     18  O   UNL d   1      -9.831   2.343  -0.189  0.00  0.00    -0.532 OA
ENDBRANCH  13  16
ENDBRANCH   9  10
ENDBRANCH   8   9
ENDBRANCH   5   8
BRANCH   1  19
ATOM     19  C   UNL d   1      -0.635  -2.677   0.047  0.00  0.00     0.044 A 
ATOM     20  C   UNL d   1      -1.660  -3.242  -0.721  0.00  0.00     0.046 A 
ATOM     21  C   UNL d   1      -1.855  -4.635  -0.752  0.00  0.00     0.050 A 
ATOM     22  C   UNL d   1      -0.989  -5.462  -0.023  0.00  0.00     0.016 A 
ATOM     23  C   UNL d   1       0.021  -4.907   0.759  0.00  0.00     0.003 A 
ATOM     24  C   UNL d   1       0.182  -3.521   0.816  0.00  0.00     0.030 A 
BRANCH  21  25
ATOM     25  C   UNL d   1      -2.967  -5.244  -1.572  0.00  0.00     0.417 C 
ATOM     26  F   UNL d   1      -3.732  -4.321  -2.219  0.00  0.00    -0.166 F 
ATOM     27  F   UNL d   1      -2.500  -6.083  -2.537  0.00  0.00    -0.166 F 
ATOM     28  F   UNL d   1      -3.828  -5.980  -0.817  0.00  0.00    -0.166 F 
ENDBRANCH  21  25
ENDBRANCH   1  19
BRANCH   2  29
ATOM     29  C   UNL d   1       2.225  -1.270  -0.076  0.00  0.00     0.010 A 
ATOM     30  C   UNL d   1       2.497  -2.389  -0.872  0.00  0.00     0.016 A 
ATOM     31  C   UNL d   1       3.765  -2.991  -0.873  0.00  0.00     0.009 A 
ATOM     32  C   UNL d   1       4.833  -2.465  -0.126  0.00  0.00    -0.051 A 
ATOM     33  C   UNL d   1       4.572  -1.300   0.611  0.00  0.00     0.009 A 
ATOM     34  C   UNL d   1       3.293  -0.716   0.638  0.00  0.00     0.016 A 
BRANCH  32  35
ATOM     35  C   UNL d   1       6.208  -3.160  -0.137  0.00  0.00    -0.024 C 
ATOM     36  C   UNL d   1       7.281  -2.419   0.693  0.00  0.00     0.019 C 
ATOM     37  C   UNL d   1       6.077  -4.583   0.452  0.00  0.00     0.019 C 
ATOM     38  C   UNL d   1       6.747  -3.270  -1.580  0.00  0.00     0.019 C 
ENDBRANCH  32  35
ENDBRANCH   2  29
TORSDOF 8
