REMARK  4 active torsions:
REMARK  status: ('A' for Active; 'I' for Inactive)
REMARK    1  A    between atoms: C_6  and  C_11 
REMARK    2  A    between atoms: O_12  and  N_8 
REMARK    3  A    between atoms: C_10  and  O_12 
REMARK    4  A    between atoms: C_13  and  C_10 
ROOT
ATOM      1  C   UNL d   1      -0.677   0.517   0.067  0.00  0.00     0.024 A 
ATOM      2  C   UNL d   1      -1.118  -0.797   0.017  0.00  0.00     0.025 A 
ATOM      3  N   UNL d   1      -0.018  -1.618  -0.014  0.00  0.00    -0.353 N 
ATOM      4  C   UNL d   1       0.746   0.487   0.083  0.00  0.00     0.005 A 
ATOM      5  C   UNL d   1       1.136  -0.856   0.020  0.00  0.00     0.045 A 
ATOM      6  C   UNL d   1      -1.635   1.622   0.072  0.00  0.00     0.045 C 
ATOM      7  N   UNL d   1      -1.197   2.816   0.329  0.00  0.00    -0.261 N 
ATOM      8  HN  UNL d   1      -0.223   3.022   0.549  1.00  0.00     0.194 HD
ATOM      9  C   UNL d   1      -2.543  -1.237  -0.028  0.00  0.00     0.058 C 
ATOM     10  C   UNL d   1      -0.021  -3.063  -0.096  0.00  0.00     0.156 C 
ATOM     11  C   UNL d   1       1.751   1.479   0.123  0.00  0.00     0.014 A 
ATOM     12  C   UNL d   1       2.489  -1.239  -0.009  0.00  0.00     0.030 A 
ATOM     13  C   UNL d   1      -3.074   1.252  -0.274  0.00  0.00     0.060 C 
ATOM     14  C   UNL d   1      -3.464  -0.077   0.388  0.00  0.00     0.012 C 
ATOM     15  C   UNL d   1       3.100   1.105   0.088  0.00  0.00     0.001 A 
ATOM     16  C   UNL d   1       3.461  -0.236   0.023  0.00  0.00     0.002 A 
ENDROOT
BRANCH   7  17
ATOM     17  O   UNL d   1      -2.206   3.802   0.272  0.00  0.00    -0.195 OA
BRANCH  17  18
ATOM     18  C   UNL d   1      -1.686   5.017   0.632  0.00  0.00     0.315 C 
ATOM     19  O   UNL d   1      -0.544   5.253   1.006  0.00  0.00    -0.257 OA
BRANCH  18  20
ATOM     20  C   UNL d   1      -2.705   6.102   0.510  0.00  0.00     0.042 A 
ATOM     21  C   UNL d   1      -2.327   7.412   0.867  0.00  0.00     0.034 A 
ATOM     22  C   UNL d   1      -3.224   8.488   0.749  0.00  0.00     0.048 A 
ATOM     23  C   UNL d   1      -4.519   8.235   0.273  0.00  0.00     0.016 A 
ATOM     24  C   UNL d   1      -4.906   6.941  -0.078  0.00  0.00     0.002 A 
ATOM     25  C   UNL d   1      -4.005   5.877   0.038  0.00  0.00     0.018 A 
BRANCH  22  26
ATOM     26  C   UNL d   1      -2.821   9.899   1.111  0.00  0.00     0.417 C 
ATOM     27  F   UNL d   1      -1.539  10.008   1.554  0.00  0.00    -0.166 F 
ATOM     28  F   UNL d   1      -2.926  10.753   0.055  0.00  0.00    -0.166 F 
ATOM     29  F   UNL d   1      -3.603  10.426   2.094  0.00  0.00    -0.166 F 
ENDBRANCH  22  26
ENDBRANCH  18  20
ENDBRANCH  17  18
ENDBRANCH   7  17
TORSDOF 4
