REMARK  4 active torsions:
REMARK  status: ('A' for Active; 'I' for Inactive)
REMARK    1  A    between atoms: C_2  and  C_1 
REMARK    2  A    between atoms: C_6  and  C_2 
REMARK    3  A    between atoms: C_14  and  C_3 
REMARK    4  A    between atoms: C_7  and  C_8 
ROOT
ATOM      1  C   UNL d   1       2.393   0.808   1.514  0.00  0.00     0.096 C 
ATOM      2  C   UNL d   1       2.148   2.134   1.514  0.00  0.00     0.038 C 
ATOM      3  C   UNL d   1       2.532   0.051   2.711  0.00  0.00     0.103 C 
ATOM      4  N   UNL d   1       2.668  -0.578   3.677  0.00  0.00    -0.191 NA
ENDROOT
BRANCH   1   5
ATOM      5  C   UNL d   1       2.495   0.144   0.174  0.00  0.00     0.202 C 
ATOM      6  O   UNL d   1       1.901   0.590  -0.804  0.00  0.00    -0.286 OA
BRANCH   5   7
ATOM      7  C   UNL d   1       3.322  -1.088   0.017  0.00  0.00     0.015 A 
ATOM      8  C   UNL d   1       2.934  -2.042  -0.927  0.00  0.00     0.016 A 
ATOM      9  C   UNL d   1       3.667  -3.227  -1.081  0.00  0.00     0.009 A 
ATOM     10  C   UNL d   1       4.808  -3.493  -0.300  0.00  0.00    -0.051 A 
ATOM     11  C   UNL d   1       5.213  -2.494   0.599  0.00  0.00     0.009 A 
ATOM     12  C   UNL d   1       4.492  -1.302   0.748  0.00  0.00     0.016 A 
BRANCH  10  13
ATOM     13  C   UNL d   1       5.553  -4.836  -0.430  0.00  0.00    -0.024 C 
ATOM     14  C   UNL d   1       6.750  -4.975   0.539  0.00  0.00     0.019 C 
ATOM     15  C   UNL d   1       4.584  -5.998  -0.119  0.00  0.00     0.019 C 
ATOM     16  C   UNL d   1       6.101  -5.006  -1.862  0.00  0.00     0.019 C 
ENDBRANCH  10  13
ENDBRANCH   5   7
ENDBRANCH   1   5
BRANCH   2  17
ATOM     17  C   UNL d   1       2.083   2.968   2.719  0.00  0.00    -0.035 A 
ATOM     18  C   UNL d   1       3.239   3.620   3.166  0.00  0.00     0.011 A 
ATOM     19  C   UNL d   1       3.201   4.415   4.312  0.00  0.00     0.001 A 
ATOM     20  C   UNL d   1       2.008   4.566   5.017  0.00  0.00     0.000 A 
ATOM     21  C   UNL d   1       0.854   3.919   4.577  0.00  0.00     0.001 A 
ATOM     22  C   UNL d   1       0.889   3.120   3.431  0.00  0.00     0.011 A 
ENDBRANCH   2  17
TORSDOF 4
