REMARK  6 active torsions:
REMARK  status: ('A' for Active; 'I' for Inactive)
REMARK       I    between atoms: N_2  and  C_1 
REMARK    1  A    between atoms: O_5  and  C_1 
REMARK    2  A    between atoms: C_4  and  N_2 
REMARK    3  A    between atoms: C_3  and  C_4 
REMARK       I    between atoms: N_10  and  C_3 
REMARK    4  A    between atoms: C_8  and  C_4 
REMARK    5  A    between atoms: C_9  and  O_5 
REMARK    6  A    between atoms: C_11  and  C_8 
ROOT
ATOM      1  C   UNL d   1       1.140   1.020  -2.317  0.00  0.00     0.179 C 
ENDROOT
BRANCH   1   2
ATOM      2  C   UNL d   1       1.854  -0.258  -2.829  0.00  0.00     0.240 C 
ATOM      3  O   UNL d   1       1.685  -1.355  -2.296  0.00  0.00    -0.271 OA
ATOM      4  N   UNL d   1       2.692  -0.079  -3.909  0.00  0.00    -0.364 N 
ATOM      5  C   UNL d   1       3.431  -1.188  -4.465  0.00  0.00     0.149 C 
ATOM      6  H   UNL d   1       2.992   0.858  -4.144  0.00  0.00     0.161 HD
ENDBRANCH   1   2
BRANCH   1   7
ATOM      7  N   UNL d   1       0.556   0.680  -1.029  0.00  0.00    -0.324 N 
ATOM      8  C   UNL d   1       0.272   1.541  -0.017  0.00  0.00     0.362 C 
ATOM      9  O   UNL d   1       0.517   1.227   1.132  0.00  0.00    -0.238 OA
ATOM     10  H   UNL d   1       0.867  -0.217  -0.666  0.00  0.00     0.165 HD
BRANCH   8  11
ATOM     11  O   UNL d   1      -0.342   2.685  -0.419  0.00  0.00    -0.294 OA
BRANCH  11  12
ATOM     12  C   UNL d   1      -0.810   3.630   0.587  0.00  0.00     0.061 C 
ATOM     13  C   UNL d   1       0.389   4.385   1.169  0.00  0.00     0.046 C 
ATOM     14  C   UNL d   1      -1.719   4.630  -0.151  0.00  0.00     0.046 C 
ATOM     15  C   UNL d   1      -1.665   2.985   1.693  0.00  0.00     0.046 C 
ENDBRANCH  11  12
ENDBRANCH   8  11
ENDBRANCH   1   7
BRANCH   1  16
ATOM     16  C   UNL d   1       0.172   1.597  -3.357  0.00  0.00     0.038 C 
BRANCH  16  17
ATOM     17  C   UNL d   1      -0.997   0.690  -3.799  0.00  0.00    -0.020 C 
ATOM     18  C   UNL d   1      -1.946   0.314  -2.661  0.00  0.00     0.009 C 
ATOM     19  C   UNL d   1      -1.796   1.401  -4.897  0.00  0.00     0.009 C 
ENDBRANCH  16  17
ENDBRANCH   1  16
TORSDOF 6
