REMARK  5 active torsions:
REMARK  status: ('A' for Active; 'I' for Inactive)
REMARK    1  A    between atoms: N_4  and  C_2 
REMARK    2  A    between atoms: S_15  and  C_11 
REMARK    3  A    between atoms: C_17  and  S_15 
REMARK    4  A    between atoms: O_16  and  C_18 
REMARK    5  A    between atoms: C_18  and  C_17 
ROOT
ATOM      1  C   UNL d   1       0.153  -0.756   0.025  0.00  0.00     0.119 A 
ATOM      2  C   UNL d   1      -1.066  -1.464   0.014  0.00  0.00     0.133 A 
ATOM      3  C   UNL d   1       0.164   0.713   0.026  0.00  0.00     0.104 A 
ATOM      4  N   UNL d   1       1.430  -1.164   0.032  0.00  0.00    -0.237 N 
ATOM      5  HN  UNL d   1       1.760  -2.129   0.026  1.00  0.00     0.197 HD
ATOM      6  C   UNL d   1      -2.251  -0.694   0.013  0.00  0.00     0.040 A 
ATOM      7  N   UNL d   1       1.442   1.115   0.049  0.00  0.00    -0.238 N 
ATOM      8  HN  UNL d   1       1.779   2.077   0.065  1.00  0.00     0.197 HD
ATOM      9  O   UNL d   1       2.209  -0.029   0.049  0.00  0.00    -0.156 OA
ATOM     10  C   UNL d   1      -1.034   1.473   0.002  0.00  0.00     0.031 A 
ATOM     11  C   UNL d   1      -2.228   0.722   0.013  0.00  0.00     0.023 A 
ENDROOT
BRANCH  10  12
ATOM     12  S   UNL d   1      -1.048   3.239   0.006  0.00  0.00    -0.125 SA
BRANCH  12  13
ATOM     13  C   UNL d   1      -0.123   3.608  -1.529  0.00  0.00     0.105 C 
BRANCH  13  14
ATOM     14  C   UNL d   1      -0.852   3.124  -2.779  0.00  0.00     0.174 C 
BRANCH  14  15
ATOM     15  O   UNL d   1      -0.090   3.466  -3.932  0.00  0.00    -0.400 OA
ATOM     16  H   UNL d   1      -0.577   3.137  -4.708  0.00  0.00     0.209 HD
ENDBRANCH  14  15
ENDBRANCH  13  14
ENDBRANCH  12  13
ENDBRANCH  10  12
BRANCH   2  17
ATOM     17  N   UNL d   1      -1.104  -2.913   0.003  0.00  0.00    -0.113 N 
ATOM     18  O   UNL d   1      -0.042  -3.545  -0.005  0.00  0.00    -0.532 OA
ATOM     19  O   UNL d   1      -2.226  -3.439  -0.005  0.00  0.00    -0.532 OA
ENDBRANCH   2  17
TORSDOF 5
