REMARK  5 active torsions:
REMARK  status: ('A' for Active; 'I' for Inactive)
REMARK    1  A    between atoms: O_15  and  C_3 
REMARK    2  A    between atoms: C_9  and  C_14 
REMARK    3  A    between atoms: C_19  and  O_15 
REMARK    4  A    between atoms: C_17  and  C_18 
REMARK    5  A    between atoms: C_18  and  C_19 
ROOT
ATOM      1  O   UNL d   1       0.940   2.801  -0.110  0.00  0.00    -0.327 OA
ENDROOT
BRANCH   1   2
ATOM      2  C   UNL d   1       1.060   1.419  -0.124  0.00  0.00     0.168 A 
ATOM      3  N   UNL d   1      -0.118   0.674  -0.221  0.00  0.00    -0.120 N 
ATOM      4  C   UNL d   1      -0.139  -0.711  -0.256  0.00  0.00     0.706 A 
ATOM      5  C   UNL d   1      -1.425   1.064  -0.301  0.00  0.00     0.226 A 
ATOM      6  N   UNL d   1       1.013  -1.438  -0.194  0.00  0.00    -0.194 N 
ATOM      7  N   UNL d   1      -1.393  -1.107  -0.360  0.00  0.00    -0.130 N 
ATOM      8  C   UNL d   1       2.119  -0.762  -0.096  0.00  0.00     0.027 A 
ATOM      9  HN  UNL d   1       1.008  -2.457  -0.224  1.00  0.00     0.184 HD
ATOM     10  C   UNL d   1       2.218   0.733  -0.048  0.00  0.00     0.082 A 
ATOM     11  C   UNL d   1       3.415  -1.535  -0.034  0.00  0.00     0.069 C 
ATOM     12  N   UNL d   1      -2.203   0.009  -0.388  0.00  0.00    -0.281 N 
ATOM     13  HN  UNL d   1      -1.710  -2.075  -0.411  1.00  0.00     0.205 HD
ATOM     14  HN  UNL d   1      -3.220   0.014  -0.463  1.00  0.00     0.188 HD
ENDBRANCH   1   2
BRANCH   1  15
ATOM     15  C   UNL d   1       2.134   3.557   0.038  0.00  0.00     0.261 C 
BRANCH  15  16
ATOM     16  C   UNL d   1       1.850   5.053   0.021  0.00  0.00     0.183 C 
ATOM     17  O   UNL d   1       1.665   5.698   1.049  0.00  0.00    -0.290 OA
BRANCH  16  18
ATOM     18  C   UNL d   1       1.898   5.751  -1.292  0.00  0.00     0.013 A 
ATOM     19  C   UNL d   1       1.516   5.106  -2.474  0.00  0.00     0.031 A 
ATOM     20  C   UNL d   1       1.669   5.748  -3.714  0.00  0.00     0.048 A 
ATOM     21  C   UNL d   1       2.196   7.048  -3.747  0.00  0.00     0.016 A 
ATOM     22  C   UNL d   1       2.544   7.704  -2.565  0.00  0.00     0.002 A 
ATOM     23  C   UNL d   1       2.389   7.060  -1.337  0.00  0.00     0.015 A 
BRANCH  20  24
ATOM     24  C   UNL d   1       1.295   5.048  -5.000  0.00  0.00     0.417 C 
ATOM     25  F   UNL d   1       0.775   3.805  -4.800  0.00  0.00    -0.166 F 
ATOM     26  F   UNL d   1       0.370   5.734  -5.722  0.00  0.00    -0.166 F 
ATOM     27  F   UNL d   1       2.367   4.875  -5.820  0.00  0.00    -0.166 F 
ENDBRANCH  20  24
ENDBRANCH  16  18
ENDBRANCH  15  16
ENDBRANCH   1  15
TORSDOF 5
