REMARK  5 active torsions:
REMARK  status: ('A' for Active; 'I' for Inactive)
REMARK    1  A    between atoms: C_8  and  N_3 
REMARK    2  A    between atoms: S_10  and  C_7 
REMARK    3  A    between atoms: C_17  and  S_10 
REMARK       I    between atoms: C_11  and  N_12 
REMARK    4  A    between atoms: N_12  and  C_14 
REMARK    5  A    between atoms: C_13  and  C_17 
REMARK       I    between atoms: N_18  and  C_13 
ROOT
ATOM      1  N   UNL d   1       0.444   0.212   1.114  0.00  0.00    -0.259 N 
ATOM      2  HN  UNL d   1       1.007   0.597   1.872  1.00  0.00     0.191 HD
ATOM      3  N   UNL d   1       0.778  -0.689   0.154  0.00  0.00    -0.178 N 
ATOM      4  N   UNL d   1      -0.243  -0.989  -0.694  0.00  0.00     0.003 NA
ATOM      5  N   UNL d   1      -1.262  -0.246  -0.300  0.00  0.00    -0.261 N 
ATOM      6  HN  UNL d   1      -2.188  -0.204  -0.725  1.00  0.00     0.186 HD
ATOM      7  C   UNL d   1      -0.828   0.451   0.788  0.00  0.00     0.174 A 
ENDROOT
BRANCH   3   8
ATOM      8  C   UNL d   1       2.064  -1.267   0.034  0.00  0.00     0.075 A 
ATOM      9  C   UNL d   1       2.321  -2.149  -1.029  0.00  0.00     0.062 A 
ATOM     10  C   UNL d   1       3.588  -2.705  -1.205  0.00  0.00     0.036 A 
ATOM     11  C   UNL d   1       4.593  -2.394  -0.281  0.00  0.00     0.029 A 
ATOM     12  C   UNL d   1       4.339  -1.528   0.789  0.00  0.00     0.005 A 
ATOM     13  C   UNL d   1       3.077  -0.955   0.947  0.00  0.00     0.033 A 
BRANCH  10  14
ATOM     14  N   UNL d   1       3.923  -3.547  -2.289  0.00  0.00    -0.327 N 
ATOM     15  C   UNL d   1       3.091  -3.946  -3.322  0.00  0.00     0.218 C 
ATOM     16  O   UNL d   1       1.900  -3.688  -3.450  0.00  0.00    -0.274 OA
ATOM     17  C   UNL d   1       3.791  -4.772  -4.372  0.00  0.00     0.117 C 
ATOM     18  H   UNL d   1       4.882  -3.867  -2.320  0.00  0.00     0.169 HD
ENDBRANCH  10  14
ENDBRANCH   3   8
BRANCH   7  19
ATOM     19  S   UNL d   1      -1.841   1.529   1.698  0.00  0.00    -0.082 SA
BRANCH  19  20
ATOM     20  C   UNL d   1      -3.470   0.797   1.364  0.00  0.00     0.184 C 
BRANCH  20  21
ATOM     21  C   UNL d   1      -3.578  -0.567   2.016  0.00  0.00     0.225 C 
ATOM     22  O   UNL d   1      -3.825  -0.730   3.208  0.00  0.00    -0.273 OA
ATOM     23  N   UNL d   1      -3.382  -1.644   1.200  0.00  0.00    -0.369 N 
ATOM     24  H   UNL d   1      -2.901  -1.554   0.309  0.00  0.00     0.159 HD
ATOM     25  H   UNL d   1      -3.343  -2.550   1.650  0.00  0.00     0.159 HD
ENDBRANCH  20  21
ENDBRANCH  19  20
ENDBRANCH   7  19
TORSDOF 5
