REMARK  5 active torsions:
REMARK  status: ('A' for Active; 'I' for Inactive)
REMARK    1  A    between atoms: N_4  and  S_1 
REMARK    2  A    between atoms: C_8  and  S_1 
REMARK    3  A    between atoms: C_5  and  C_2 
REMARK    4  A    between atoms: C_3  and  N_4 
REMARK    5  A    between atoms: O_15  and  C_5 
ROOT
ATOM      1  N   UNL d   1       0.614  -0.277  -1.493  0.00  0.00    -0.180 NA
ATOM      2  H   UNL d   1      -0.373  -0.179  -1.742  0.00  0.00     0.146 HD
ENDROOT
BRANCH   1   3
ATOM      3  C   UNL d   1       1.440   0.538  -2.307  0.00  0.00     0.046 A 
ATOM      4  C   UNL d   1       2.768   0.324  -2.645  0.00  0.00     0.102 A 
ATOM      5  S   UNL d   1       3.349   1.572  -3.684  0.00  0.00    -0.094 SA
ATOM      6  C   UNL d   1       1.854   2.384  -3.678  0.00  0.00     0.052 A 
ATOM      7  C   UNL d   1       0.921   1.729  -2.910  0.00  0.00     0.033 A 
BRANCH   4   8
ATOM      8  C   UNL d   1       3.632  -0.791  -2.291  0.00  0.00     0.301 C 
ATOM      9  O   UNL d   1       3.255  -1.902  -1.935  0.00  0.00    -0.259 OA
BRANCH   8  10
ATOM     10  O   UNL d   1       4.949  -0.443  -2.413  0.00  0.00    -0.322 OA
ATOM     11  C   UNL d   1       5.896  -1.462  -2.091  0.00  0.00     0.213 C 
ENDBRANCH   8  10
ENDBRANCH   4   8
ENDBRANCH   1   3
BRANCH   1  12
ATOM     12  S   UNL d   1       0.639   0.040   0.193  0.00  0.00     0.245 S 
ATOM     13  O   UNL d   1      -0.477   0.937   0.431  0.00  0.00    -0.206 OA
ATOM     14  O   UNL d   1       1.986   0.354   0.617  0.00  0.00    -0.206 OA
BRANCH  12  15
ATOM     15  C   UNL d   1       0.217  -1.550   0.857  0.00  0.00     0.074 A 
ATOM     16  C   UNL d   1       1.066  -2.629   0.610  0.00  0.00     0.025 A 
ATOM     17  C   UNL d   1       0.726  -3.896   1.080  0.00  0.00     0.008 A 
ATOM     18  C   UNL d   1      -0.455  -4.091   1.807  0.00  0.00    -0.062 A 
ATOM     19  C   UNL d   1      -1.287  -2.994   2.074  0.00  0.00     0.008 A 
ATOM     20  C   UNL d   1      -0.811  -5.470   2.280  0.00  0.00     0.048 C 
ATOM     21  C   UNL d   1      -0.955  -1.722   1.599  0.00  0.00     0.025 A 
ENDBRANCH  12  15
ENDBRANCH   1  12
TORSDOF 5
