REMARK  3 active torsions:
REMARK  status: ('A' for Active; 'I' for Inactive)
REMARK    1  A    between atoms: C_2  and  C_1 
REMARK       I    between atoms: N_5  and  C_2 
REMARK    2  A    between atoms: C_14  and  N_5 
REMARK    3  A    between atoms: C_11  and  C_14 
ROOT
ATOM      1  C   UNL d   1      -2.422  -2.235   0.003  0.00  0.00     0.253 C 
ATOM      2  N   UNL d   1      -2.502  -3.605  -0.082  0.00  0.00    -0.353 N 
ATOM      3  O   UNL d   1      -1.347  -1.656   0.125  0.00  0.00    -0.268 OA
ATOM      4  H   UNL d   1      -3.401  -4.049  -0.210  0.00  0.00     0.163 HD
ENDROOT
BRANCH   2   5
ATOM      5  C   UNL d   1      -1.349  -4.470   0.053  0.00  0.00     0.161 C 
BRANCH   5   6
ATOM      6  C   UNL d   1      -0.829  -4.942  -1.280  0.00  0.00    -0.037 A 
ATOM      7  C   UNL d   1      -0.265  -4.027  -2.185  0.00  0.00     0.032 A 
ATOM      8  C   UNL d   1       0.256  -4.465  -3.404  0.00  0.00     0.036 A 
ATOM      9 CL   UNL d   1       0.946  -3.326  -4.493  0.00  0.00    -0.084 Cl
ATOM     10  C   UNL d   1       0.232  -5.814  -3.741  0.00  0.00     0.047 A 
ATOM     11  C   UNL d   1      -0.325  -6.726  -2.849  0.00  0.00     0.036 A 
ATOM     12  C   UNL d   1      -0.855  -6.301  -1.628  0.00  0.00     0.032 A 
ATOM     13 CL   UNL d   1      -0.347  -8.401  -3.249  0.00  0.00    -0.084 Cl
ENDBRANCH   5   6
ENDBRANCH   2   5
BRANCH   1  14
ATOM     14  C   UNL d   1      -3.691  -1.432  -0.056  0.00  0.00     0.053 A 
ATOM     15  C   UNL d   1      -5.004  -1.937  -0.042  0.00  0.00     0.051 A 
ATOM     16  C   UNL d   1      -6.103  -1.063  -0.073  0.00  0.00     0.048 A 
ATOM     17 CL   UNL d   1      -5.407  -3.619   0.032  0.00  0.00    -0.083 Cl
ATOM     18  C   UNL d   1      -5.908   0.314  -0.115  0.00  0.00     0.035 A 
ATOM     19  C   UNL d   1      -4.622   0.836  -0.130  0.00  0.00     0.025 A 
ATOM     20 CL   UNL d   1      -7.264   1.370  -0.140  0.00  0.00    -0.084 Cl
ATOM     21  C   UNL d   1      -3.525  -0.031  -0.102  0.00  0.00     0.020 A 
ENDBRANCH   1  14
TORSDOF 3
