REMARK  2 active torsions:
REMARK  status: ('A' for Active; 'I' for Inactive)
REMARK    1  A    between atoms: C_8  and  C_1 
REMARK    2  A    between atoms: C_7  and  C_3 
ROOT
ATOM      1  C   UNL d   1      -0.140  -1.060   0.022  0.00  0.00     0.074 A 
ATOM      2  S   UNL d   1       1.412  -0.347  -0.054  0.00  0.00    -0.066 SA
ATOM      3  C   UNL d   1       0.720   1.222  -0.042  0.00  0.00     0.092 A 
ATOM      4  N   UNL d   1      -0.596   1.236  -0.027  0.00  0.00    -0.352 N 
ATOM      5  HN  UNL d   1      -1.166   2.082  -0.031  1.00  0.00     0.166 HD
ATOM      6  C   UNL d   1      -1.102  -0.059  -0.006  0.00  0.00     0.027 A 
ATOM      7  C   UNL d   1      -2.582  -0.233   0.006  0.00  0.00     0.070 C 
ENDROOT
BRANCH   3   8
ATOM      8  C   UNL d   1       1.500   2.439  -0.043  0.00  0.00     0.038 A 
ATOM      9  S   UNL d   1       3.220   2.463  -0.118  0.00  0.00    -0.099 SA
ATOM     10  C   UNL d   1       3.280   4.167  -0.067  0.00  0.00     0.050 A 
ATOM     11  C   UNL d   1       2.024   4.724   0.007  0.00  0.00     0.008 A 
ATOM     12  C   UNL d   1       1.002   3.730   0.022  0.00  0.00     0.022 A 
ENDBRANCH   3   8
BRANCH   1  13
ATOM     13  C   UNL d   1      -0.334  -2.500   0.074  0.00  0.00     0.164 C 
ATOM     14  O   UNL d   1      -1.429  -3.021  -0.157  0.00  0.00    -0.292 OA
ATOM     15  C   UNL d   1       0.827  -3.406   0.427  0.00  0.00     0.097 C 
ENDBRANCH   1  13
TORSDOF 2
