REMARK  4 active torsions:
REMARK  status: ('A' for Active; 'I' for Inactive)
REMARK    1  A    between atoms: S_3  and  C_1 
REMARK    2  A    between atoms: C_4  and  C_1 
REMARK    3  A    between atoms: C_5  and  C_1 
REMARK    4  A    between atoms: C_2  and  S_3 
ROOT
ATOM      1  C   UNL d   1      -1.131   0.177  -1.665  0.00  0.00     0.145 A 
ATOM      2  N   UNL d   1      -1.605   0.786  -0.569  0.00  0.00    -0.347 N 
ATOM      3  HN  UNL d   1      -0.987   1.112   0.174  1.00  0.00     0.167 HD
ATOM      4  N   UNL d   1      -1.882  -0.252  -2.692  0.00  0.00    -0.347 N 
ATOM      5  HN  UNL d   1      -1.469  -0.703  -3.508  1.00  0.00     0.167 HD
ATOM      6  C   UNL d   1      -3.800   0.543  -1.498  0.00  0.00     0.034 A 
ATOM      7  C   UNL d   1      -3.208  -0.053  -2.585  0.00  0.00     0.091 A 
ATOM      8  C   UNL d   1      -2.940   0.943  -0.504  0.00  0.00     0.091 A 
ENDROOT
BRANCH   1   9
ATOM      9  S   UNL d   1       0.618  -0.057  -1.816  0.00  0.00    -0.074 SA
BRANCH   9  10
ATOM     10  C   UNL d   1       1.085  -0.133  -0.048  0.00  0.00     0.193 C 
BRANCH  10  11
ATOM     11  C   UNL d   1       0.468  -1.351   0.624  0.00  0.00     0.144 C 
ATOM     12  O   UNL d   1      -0.251  -1.233   1.623  0.00  0.00    -0.297 OA
ATOM     13  C   UNL d   1       0.764  -2.730   0.075  0.00  0.00     0.092 C 
ENDBRANCH  10  11
BRANCH  10  14
ATOM     14  C   UNL d   1       2.597  -0.110   0.060  0.00  0.00     0.144 C 
ATOM     15  O   UNL d   1       3.247  -1.073   0.470  0.00  0.00    -0.297 OA
ATOM     16  C   UNL d   1       3.309   1.177  -0.290  0.00  0.00     0.092 C 
ENDBRANCH  10  14
ENDBRANCH   9  10
ENDBRANCH   1   9
TORSDOF 4
