REMARK  5 active torsions:
REMARK  status: ('A' for Active; 'I' for Inactive)
REMARK    1  A    between atoms: N_2  and  S_1 
REMARK    2  A    between atoms: C_7  and  S_1 
REMARK    3  A    between atoms: S_6  and  N_2 
REMARK    4  A    between atoms: C_20  and  S_6 
REMARK    5  A    between atoms: S_21  and  C_11 
ROOT
ATOM      1  C   UNL d   1      -1.770  -4.905   0.910  0.00  0.00     0.141 A 
ATOM      2  N   UNL d   1      -1.505  -6.119   1.501  0.00  0.00    -0.315 N 
ATOM      3  C   UNL d   1       0.385  -1.760   0.123  0.00  0.00     0.121 A 
ATOM      4  N   UNL d   1      -3.075  -4.806   0.726  0.00  0.00    -0.282 N 
ATOM      5  HN  UNL d   1      -3.565  -3.998   0.343  1.00  0.00     0.188 HD
ATOM      6  C   UNL d   1      -0.813  -3.899   0.534  0.00  0.00     0.052 A 
ATOM      7  C   UNL d   1      -2.711  -6.764   1.586  0.00  0.00     0.162 A 
ATOM      8  N   UNL d   1      -3.663  -5.982   1.139  0.00  0.00    -0.278 N 
ATOM      9  HN  UNL d   1      -4.658  -6.204   1.103  1.00  0.00     0.189 HD
ATOM     10  S   UNL d   1      -1.142  -2.226   0.741  0.00  0.00    -0.073 SA
ATOM     11  C   UNL d   1       1.139  -2.862  -0.230  0.00  0.00     0.034 A 
ATOM     12  C   UNL d   1       0.437  -4.086  -0.026  0.00  0.00     0.025 A 
ATOM     13  C   UNL d   1      -0.246  -6.613   1.995  0.00  0.00     0.160 C 
ENDROOT
BRANCH   3  14
ATOM     14  S   UNL d   1       0.749  -0.007   0.050  0.00  0.00     0.276 S 
ATOM     15  O   UNL d   1       1.758   0.108  -0.985  0.00  0.00    -0.199 OA
ATOM     16  O   UNL d   1      -0.531   0.658  -0.102  0.00  0.00    -0.199 OA
BRANCH  14  17
ATOM     17  N   UNL d   1       1.392   0.424   1.550  0.00  0.00    -0.236 N 
ATOM     18  HN  UNL d   1       0.781   0.843   2.251  1.00  0.00     0.189 HD
BRANCH  17  19
ATOM     19  S   UNL d   1       2.992   0.184   1.910  0.00  0.00     0.061 S 
ATOM     20  O   UNL d   1       3.458  -1.138   1.566  0.00  0.00    -0.244 OA
ATOM     21  C   UNL d   1       3.114   0.458   3.655  0.00  0.00     0.143 C 
BRANCH  19  22
ATOM     22  C   UNL d   1       3.906   1.452   1.129  0.00  0.00     0.038 A 
ATOM     23  C   UNL d   1       3.592   2.787   1.393  0.00  0.00     0.022 A 
ATOM     24  C   UNL d   1       4.380   3.800   0.846  0.00  0.00     0.001 A 
ATOM     25  C   UNL d   1       5.469   3.476   0.037  0.00  0.00     0.000 A 
ATOM     26  C   UNL d   1       5.765   2.140  -0.239  0.00  0.00     0.001 A 
ATOM     27  C   UNL d   1       4.981   1.121   0.305  0.00  0.00     0.022 A 
ENDBRANCH  19  22
ENDBRANCH  17  19
ENDBRANCH  14  17
ENDBRANCH   3  14
BRANCH   7  28
ATOM     28  S   UNL d   1      -2.875  -8.375   2.197  0.00  0.00    -0.097 SA
ATOM     29  C   UNL d   1      -4.649  -8.651   2.013  0.00  0.00     0.099 C 
ENDBRANCH   7  28
TORSDOF 5
