REMARK  7 active torsions:
REMARK  status: ('A' for Active; 'I' for Inactive)
REMARK    1  A    between atoms: C_5  and  C_1 
REMARK    2  A    between atoms: N_17  and  C_4 
REMARK    3  A    between atoms: N_9  and  C_6 
REMARK    4  A    between atoms: C_20  and  N_9 
REMARK    5  A    between atoms: N_16  and  C_23 
REMARK    6  A    between atoms: C_24  and  N_17 
REMARK    7  A    between atoms: C_23  and  C_24 
ROOT
ATOM      1  C   UNL d   1      -2.110  -3.964  -3.609  0.00  0.00     0.114 C 
ENDROOT
BRANCH   1   2
ATOM      2  C   UNL d   1      -3.063  -3.673  -4.779  0.00  0.00     0.137 C 
BRANCH   2   3
ATOM      3  N   UNL d   1      -3.414  -4.806  -5.625  0.00  0.00    -0.366 N 
ATOM      4  C   UNL d   1      -4.490  -5.629  -5.467  0.00  0.00     0.172 C 
ATOM      5  S   UNL d   1      -5.213  -6.005  -4.010  0.00  0.00    -0.041 SA
ATOM      6  H   UNL d   1      -2.830  -4.977  -6.433  0.00  0.00     0.161 HD
BRANCH   4   7
ATOM      7  N   UNL d   1      -4.994  -6.211  -6.597  0.00  0.00    -0.332 N 
ATOM      8  H   UNL d   1      -5.635  -6.973  -6.398  0.00  0.00     0.168 HD
BRANCH   7   9
ATOM      9  C   UNL d   1      -4.976  -5.764  -7.938  0.00  0.00     0.049 A 
ATOM     10  C   UNL d   1      -4.527  -4.517  -8.366  0.00  0.00     0.117 A 
ATOM     11  N   UNL d   1      -4.525  -4.101  -9.659  0.00  0.00    -0.373 N 
ATOM     12  C   UNL d   1      -5.032  -4.955 -10.569  0.00  0.00     0.088 A 
ATOM     13  HN  UNL d   1      -4.159  -3.188  -9.928  1.00  0.00     0.164 HD
ATOM     14  C   UNL d   1      -5.547  -6.198 -10.246  0.00  0.00     0.019 A 
ATOM     15  C   UNL d   1      -5.520  -6.604  -8.911  0.00  0.00     0.032 A 
ENDBRANCH   7   9
ENDBRANCH   4   7
ENDBRANCH   2   3
ENDBRANCH   1   2
BRANCH   1  16
ATOM     16  N   UNL d   1      -1.876  -2.717  -2.899  0.00  0.00    -0.263 NA
ATOM     17  H   UNL d   1      -1.592  -1.914  -3.449  0.00  0.00     0.130 HD
BRANCH  16  18
ATOM     18  C   UNL d   1      -1.086  -2.744  -1.773  0.00  0.00     0.157 A 
ATOM     19  N   UNL d   1      -0.504  -1.579  -1.468  0.00  0.00    -0.329 N 
ATOM     20  C   UNL d   1       0.241  -1.514  -0.335  0.00  0.00     0.120 A 
ATOM     21  HN  UNL d   1      -0.616  -0.763  -2.070  1.00  0.00     0.168 HD
ATOM     22  C   UNL d   1       0.415  -2.616   0.481  0.00  0.00     0.051 A 
ATOM     23  C   UNL d   1      -0.205  -3.769   0.071  0.00  0.00     0.093 A 
ATOM     24  N   UNL d   1      -0.950  -3.856  -1.044  0.00  0.00    -0.343 N 
ATOM     25  HN  UNL d   1      -1.392  -4.732  -1.322  1.00  0.00     0.167 HD
BRANCH  20  26
ATOM     26  C   UNL d   1       0.887  -0.198   0.055  0.00  0.00     0.432 C 
ATOM     27  F   UNL d   1       0.678   0.818  -0.829  0.00  0.00    -0.165 F 
ATOM     28  F   UNL d   1       2.243  -0.304   0.180  0.00  0.00    -0.165 F 
ATOM     29  F   UNL d   1       0.448   0.262   1.263  0.00  0.00    -0.165 F 
ENDBRANCH  20  26
ENDBRANCH  16  18
ENDBRANCH   1  16
TORSDOF 7
