REMARK  3 active torsions:
REMARK  status: ('A' for Active; 'I' for Inactive)
REMARK    1  A    between atoms: C_2  and  S_1 
REMARK    2  A    between atoms: C_3  and  S_1 
REMARK    3  A    between atoms: C_12  and  C_5 
ROOT
ATOM      1  C   UNL d   1       0.416  -0.456  -1.489  0.00  0.00     0.147 C 
ATOM      2  C   UNL d   1      -0.388  -1.514  -1.711  0.00  0.00     0.048 C 
ATOM      3  C   UNL d   1       0.838  -0.055  -0.197  0.00  0.00     0.112 C 
ATOM      4  N   UNL d   1       1.125   0.240   0.889  0.00  0.00    -0.191 NA
ENDROOT
BRANCH   1   5
ATOM      5  S   UNL d   1       0.848   0.529  -2.845  0.00  0.00     0.248 S 
ATOM      6  O   UNL d   1       0.947  -0.271  -4.053  0.00  0.00    -0.214 OA
ATOM      7  O   UNL d   1       0.050   1.744  -2.845  0.00  0.00    -0.214 OA
BRANCH   5   8
ATOM      8  C   UNL d   1       2.508   1.101  -2.581  0.00  0.00     0.210 A 
ATOM      9  N   UNL d   1       3.188   1.964  -3.408  0.00  0.00    -0.337 N 
ATOM     10  C   UNL d   1       4.395   2.243  -2.819  0.00  0.00     0.110 A 
ATOM     11  C   UNL d   1       2.761   2.512  -4.672  0.00  0.00     0.158 C 
ATOM     12  C   UNL d   1       4.418   1.494  -1.669  0.00  0.00     0.107 A 
ATOM     13  N   UNL d   1       3.265   0.771  -1.546  0.00  0.00    -0.341 N 
ATOM     14  HN  UNL d   1       3.034   0.109  -0.804  1.00  0.00     0.167 HD
ENDBRANCH   5   8
ENDBRANCH   1   5
BRANCH   2  15
ATOM     15  C   UNL d   1      -0.862  -2.423  -0.656  0.00  0.00    -0.012 A 
ATOM     16  C   UNL d   1      -0.165  -3.589  -0.296  0.00  0.00     0.044 A 
ATOM     17 CL   UNL d   1       1.307  -4.042  -1.083  0.00  0.00    -0.083 Cl
ATOM     18  C   UNL d   1      -0.648  -4.418   0.719  0.00  0.00     0.024 A 
ATOM     19  C   UNL d   1      -1.829  -4.090   1.387  0.00  0.00     0.002 A 
ATOM     20  C   UNL d   1      -2.525  -2.933   1.042  0.00  0.00     0.001 A 
ATOM     21  C   UNL d   1      -2.046  -2.102   0.025  0.00  0.00     0.013 A 
ENDBRANCH   2  15
TORSDOF 3
