REMARK  6 active torsions:
REMARK  status: ('A' for Active; 'I' for Inactive)
REMARK    1  A    between atoms: C_8  and  C_1 
REMARK    2  A    between atoms: N_7  and  C_2 
REMARK    3  A    between atoms: C_10  and  C_6 
REMARK    4  A    between atoms: C_9  and  N_7 
REMARK    5  A    between atoms: O_22  and  C_8 
REMARK    6  A    between atoms: C_17  and  C_10 
ROOT
ATOM      1  C   UNL d   1       3.147  -3.357   1.254  0.00  0.00     0.110 C 
ATOM      2  C   UNL d   1       3.732  -2.724   0.219  0.00  0.00     0.115 C 
ATOM      3  C   UNL d   1       3.037  -2.757   2.536  0.00  0.00     0.105 C 
ATOM      4  N   UNL d   1       2.994  -2.316   3.611  0.00  0.00    -0.191 NA
ENDROOT
BRANCH   1   5
ATOM      5  C   UNL d   1       2.657  -4.751   1.028  0.00  0.00     0.204 C 
ATOM      6  O   UNL d   1       2.223  -5.119  -0.060  0.00  0.00    -0.286 OA
BRANCH   5   7
ATOM      7  C   UNL d   1       2.707  -5.728   2.152  0.00  0.00     0.016 A 
ATOM      8  C   UNL d   1       1.674  -6.669   2.276  0.00  0.00     0.017 A 
ATOM      9  C   UNL d   1       1.691  -7.598   3.323  0.00  0.00     0.025 A 
ATOM     10  C   UNL d   1       2.746  -7.595   4.234  0.00  0.00     0.034 A 
ATOM     11  C   UNL d   1       3.796  -6.690   4.096  0.00  0.00     0.025 A 
ATOM     12 CL   UNL d   1       2.759  -8.721   5.535  0.00  0.00    -0.084 Cl
ATOM     13  C   UNL d   1       3.784  -5.764   3.048  0.00  0.00     0.017 A 
ENDBRANCH   5   7
ENDBRANCH   1   5
BRANCH   2  14
ATOM     14  N   UNL d   1       4.301  -1.462   0.168  0.00  0.00    -0.361 N 
ATOM     15  H   UNL d   1       5.243  -1.477  -0.234  0.00  0.00     0.165 HD
BRANCH  14  16
ATOM     16  C   UNL d   1       3.649  -0.252   0.136  0.00  0.00     0.085 A 
ATOM     17  C   UNL d   1       4.317   0.967   0.036  0.00  0.00     0.111 A 
ATOM     18  S   UNL d   1       3.214   2.286  -0.085  0.00  0.00    -0.062 SA
ATOM     19  C   UNL d   1       1.869   1.275   0.057  0.00  0.00     0.104 A 
ATOM     20  N   UNL d   1       0.611   1.772   0.041  0.00  0.00    -0.357 N 
ATOM     21  C   UNL d   1       2.215  -0.067   0.178  0.00  0.00     0.095 A 
ATOM     22  C   UNL d   1      -0.319   0.805   0.169  0.00  0.00     0.106 A 
ATOM     23  HN  UNL d   1       0.392   2.764  -0.057  1.00  0.00     0.166 HD
ATOM     24  C   UNL d   1      -0.016  -0.538   0.291  0.00  0.00     0.105 A 
ATOM     25  N   UNL d   1       1.242  -1.027   0.296  0.00  0.00    -0.360 N 
ATOM     26  HN  UNL d   1       1.451  -2.022   0.380  1.00  0.00     0.165 HD
BRANCH  17  27
ATOM     27  C   UNL d   1       5.729   1.310   0.034  0.00  0.00     0.302 C 
ATOM     28  O   UNL d   1       6.194   2.444  -0.024  0.00  0.00    -0.259 OA
BRANCH  27  29
ATOM     29  O   UNL d   1       6.509   0.189   0.130  0.00  0.00    -0.322 OA
ATOM     30  C   UNL d   1       7.903   0.480   0.270  0.00  0.00     0.213 C 
ENDBRANCH  27  29
ENDBRANCH  17  27
ENDBRANCH  14  16
ENDBRANCH   2  14
TORSDOF 6
