REMARK  5 active torsions:
REMARK  status: ('A' for Active; 'I' for Inactive)
REMARK    1  A    between atoms: C_7  and  C_3 
REMARK    2  A    between atoms: N_6  and  C_17 
REMARK    3  A    between atoms: O_11  and  C_10 
REMARK    4  A    between atoms: C_12  and  O_11 
REMARK    5  A    between atoms: C_19  and  C_12 
ROOT
ATOM      1  C   UNL d   1       1.268  -2.786  -0.325  0.00  0.00    -0.006 C 
ATOM      2  C   UNL d   1       1.626  -5.597  -0.267  0.00  0.00     0.091 C 
ATOM      3  C   UNL d   1       2.433  -4.762   0.531  0.00  0.00    -0.027 C 
ATOM      4  C   UNL d   1       0.739  -5.032  -1.195  0.00  0.00    -0.027 C 
ATOM      5  C   UNL d   1       2.210  -3.375   0.527  0.00  0.00     0.023 C 
ATOM      6  C   UNL d   1       0.595  -3.618  -1.228  0.00  0.00     0.023 C 
ATOM      7  C   UNL d   1       3.558  -5.292   1.374  0.00  0.00     0.051 C 
ATOM      8  C   UNL d   1      -0.037  -5.813  -2.216  0.00  0.00     0.051 C 
ENDROOT
BRANCH   1   9
ATOM      9  C   UNL d   1       1.124  -1.286  -0.261  0.00  0.00     0.070 A 
ATOM     10  N   UNL d   1       2.208  -0.631   0.060  0.00  0.00    -0.294 N 
ATOM     11  N   UNL d   1       2.198   0.733   0.172  0.00  0.00    -0.261 N 
ATOM     12  HN  UNL d   1       3.073  -1.143   0.228  1.00  0.00     0.187 HD
ATOM     13  C   UNL d   1       1.090   1.531  -0.086  0.00  0.00     0.272 A 
ATOM     14  C   UNL d   1       3.430   1.360   0.600  0.00  0.00     0.181 C 
ATOM     15  C   UNL d   1      -0.141   0.820  -0.473  0.00  0.00     0.046 A 
ATOM     16  O   UNL d   1       1.090   2.752   0.013  0.00  0.00    -0.266 OA
ATOM     17  C   UNL d   1      -1.297   1.567  -0.752  0.00  0.00     0.018 A 
ATOM     18  C   UNL d   1      -0.163  -0.575  -0.507  0.00  0.00     0.009 A 
ATOM     19  C   UNL d   1      -2.489   0.918  -1.059  0.00  0.00     0.001 A 
ATOM     20  C   UNL d   1      -2.537  -0.472  -1.038  0.00  0.00     0.001 A 
ATOM     21  C   UNL d   1      -1.389  -1.214  -0.735  0.00  0.00     0.015 A 
ENDBRANCH   1   9
BRANCH   2  22
ATOM     22  O   UNL d   1       1.884  -6.993  -0.145  0.00  0.00    -0.274 OA
BRANCH  22  23
ATOM     23  C   UNL d   1       0.910  -7.964   0.101  0.00  0.00     0.298 C 
ATOM     24  O   UNL d   1      -0.302  -7.840  -0.010  0.00  0.00    -0.259 OA
BRANCH  23  25
ATOM     25  C   UNL d   1       1.550  -9.221   0.617  0.00  0.00     0.040 A 
ATOM     26  C   UNL d   1       0.819 -10.419   0.621  0.00  0.00     0.020 A 
ATOM     27  C   UNL d   1       1.292 -11.543   1.318  0.00  0.00     0.037 A 
ATOM     28  C   UNL d   1       2.501 -11.462   2.022  0.00  0.00     0.102 A 
ATOM     29  C   UNL d   1       3.279 -10.300   1.952  0.00  0.00     0.037 A 
ATOM     30  C   UNL d   1       2.804  -9.187   1.247  0.00  0.00     0.020 A 
BRANCH  28  31
ATOM     31  N   UNL d   1       2.917 -12.560   2.906  0.00  0.00    -0.116 N 
ATOM     32  O   UNL d   1       2.132 -13.506   3.059  0.00  0.00    -0.532 OA
ATOM     33  O   UNL d   1       4.016 -12.459   3.471  0.00  0.00    -0.532 OA
ENDBRANCH  28  31
ENDBRANCH  23  25
ENDBRANCH  22  23
ENDBRANCH   2  22
TORSDOF 5
