REMARK  5 active torsions:
REMARK  status: ('A' for Active; 'I' for Inactive)
REMARK    1  A    between atoms: C_5  and  C_1 
REMARK    2  A    between atoms: C_23  and  N_2 
REMARK       I    between atoms: N_10  and  C_5 
REMARK    3  A    between atoms: C_7  and  C_12 
REMARK       I    between atoms: C_9  and  N_11 
REMARK    4  A    between atoms: C_13  and  C_9 
REMARK    5  A    between atoms: N_11  and  N_10 
ROOT
ATOM      1  C   UNL d   1       1.810  -5.043   1.252  0.00  0.00     0.270 C 
ATOM      2  N   UNL d   1       1.216  -3.809   1.075  0.00  0.00    -0.263 N 
ATOM      3  O   UNL d   1       1.343  -6.069   0.762  0.00  0.00    -0.266 OA
ATOM      4  H   UNL d   1       1.640  -2.915   1.315  0.00  0.00     0.190 HD
ENDROOT
BRANCH   2   5
ATOM      5  N   UNL d   1       0.001  -3.762   0.379  0.00  0.00    -0.262 N 
ATOM      6  C   UNL d   1      -0.523  -2.541  -0.008  0.00  0.00     0.288 C 
ATOM      7  O   UNL d   1       0.080  -1.498   0.249  0.00  0.00    -0.264 OA
ATOM      8  H   UNL d   1      -0.405  -4.658   0.122  0.00  0.00     0.190 HD
BRANCH   6   9
ATOM      9  C   UNL d   1      -1.788  -2.605  -0.709  0.00  0.00     0.122 A 
ATOM     10  N   UNL d   1      -2.380  -1.565  -1.395  0.00  0.00    -0.287 N 
ATOM     11  N   UNL d   1      -3.570  -1.887  -1.945  0.00  0.00    -0.302 N 
ATOM     12  C   UNL d   1      -3.727  -3.181  -1.673  0.00  0.00     0.024 A 
ATOM     13  HN  UNL d   1      -4.207  -1.275  -2.455  1.00  0.00     0.186 HD
ATOM     14  C   UNL d   1      -2.668  -3.666  -0.878  0.00  0.00     0.063 A 
ATOM     15  C   UNL d   1      -4.895  -3.909  -2.221  0.00  0.00     0.070 C 
BRANCH  10  16
ATOM     16  C   UNL d   1      -1.837  -0.262  -1.738  0.00  0.00     0.145 C 
ATOM     17  C   UNL d   1      -1.206  -0.287  -3.122  0.00  0.00     0.028 C 
ENDBRANCH  10  16
ENDBRANCH   6   9
ENDBRANCH   2   5
BRANCH   1  18
ATOM     18  C   UNL d   1       3.043  -5.100   2.087  0.00  0.00     0.033 A 
ATOM     19  C   UNL d   1       3.314  -4.151   3.081  0.00  0.00     0.018 A 
ATOM     20  C   UNL d   1       4.413  -4.319   3.933  0.00  0.00     0.017 A 
ATOM     21  C   UNL d   1       5.253  -5.437   3.812  0.00  0.00     0.048 A 
ATOM     22  C   UNL d   1       4.997  -6.365   2.791  0.00  0.00     0.017 A 
ATOM     23  C   UNL d   1       3.899  -6.200   1.941  0.00  0.00     0.018 A 
BRANCH  21  24
ATOM     24  C   UNL d   1       6.389  -5.673   4.783  0.00  0.00     0.417 C 
ATOM     25  F   UNL d   1       6.486  -4.715   5.747  0.00  0.00    -0.166 F 
ATOM     26  F   UNL d   1       6.265  -6.854   5.445  0.00  0.00    -0.166 F 
ATOM     27  F   UNL d   1       7.604  -5.712   4.170  0.00  0.00    -0.166 F 
ENDBRANCH  21  24
ENDBRANCH   1  18
TORSDOF 5
