REMARK  3 active torsions:
REMARK  status: ('A' for Active; 'I' for Inactive)
REMARK    1  A    between atoms: C_2  and  C_1 
REMARK    2  A    between atoms: N_3  and  C_5 
REMARK    3  A    between atoms: N_11  and  C_8 
ROOT
ATOM      1  C   UNL d   1       1.165   1.602  -0.762  0.00  0.00     0.065 A 
ATOM      2  C   UNL d   1      -0.087   4.026  -1.219  0.00  0.00     0.128 A 
ATOM      3  N   UNL d   1       1.179   3.841  -1.676  0.00  0.00    -0.350 N 
ATOM      4  HN  UNL d   1       1.667   4.578  -2.185  1.00  0.00     0.166 HD
ATOM      5  C   UNL d   1      -0.139   1.802  -0.300  0.00  0.00     0.045 A 
ATOM      6  C   UNL d   1      -0.776   3.025  -0.530  0.00  0.00     0.079 A 
ATOM      7  C   UNL d   1       1.772   2.650  -1.437  0.00  0.00     0.106 A 
ATOM      8 CL   UNL d   1      -2.388   3.239   0.047  0.00  0.00    -0.080 Cl
ENDROOT
BRANCH   2   9
ATOM      9  N   UNL d   1      -0.689   5.263  -1.515  0.00  0.00    -0.337 N 
ATOM     10  C   UNL d   1       0.084   6.286  -1.651  0.00  0.00     0.180 C 
ATOM     11  HN  UNL d   1      -1.700   5.347  -1.619  1.00  0.00     0.168 HD
BRANCH  10  12
ATOM     12  N   UNL d   1      -0.299   7.572  -1.949  0.00  0.00    -0.373 N 
ATOM     13  C   UNL d   1      -1.690   7.944  -2.223  0.00  0.00     0.149 C 
ATOM     14  C   UNL d   1      -1.815   8.488  -3.655  0.00  0.00     0.187 C 
ATOM     15  O   UNL d   1      -0.889   9.563  -3.900  0.00  0.00    -0.388 OA
ATOM     16  C   UNL d   1       0.462   9.113  -3.697  0.00  0.00     0.187 C 
ATOM     17  C   UNL d   1       0.670   8.626  -2.257  0.00  0.00     0.149 C 
ENDBRANCH  10  12
ENDBRANCH   2   9
BRANCH   1  18
ATOM     18  C   UNL d   1       1.915   0.322  -0.564  0.00  0.00     0.418 C 
ATOM     19  F   UNL d   1       1.199  -0.632   0.090  0.00  0.00    -0.166 F 
ATOM     20  F   UNL d   1       3.056   0.496   0.158  0.00  0.00    -0.166 F 
ATOM     21  F   UNL d   1       2.300  -0.240  -1.742  0.00  0.00    -0.166 F 
ENDBRANCH   1  18
TORSDOF 3
