REMARK  11 active torsions:
REMARK  status: ('A' for Active; 'I' for Inactive)
REMARK    1  A    between atoms: C_2  and  C_1 
REMARK    2  A    between atoms: C_3  and  C_1 
REMARK    3  A    between atoms: O_9  and  C_1 
REMARK    4  A    between atoms: C_4  and  C_2 
REMARK    5  A    between atoms: O_10  and  C_2 
REMARK    6  A    between atoms: O_5  and  C_3 
REMARK    7  A    between atoms: O_6  and  C_4 
REMARK    8  A    between atoms: C_11  and  O_5 
REMARK    9  A    between atoms: C_12  and  O_6 
REMARK   10  A    between atoms: C_13  and  C_11 
REMARK   11  A    between atoms: C_14  and  C_12 
ROOT
ATOM      1  C   UNL d   1       0.765  -0.076  -0.127  0.00  0.00     0.256 C 
ENDROOT
BRANCH   1   2
ATOM      2  C   UNL d   1       0.331   1.405  -0.127  0.00  0.00     0.256 C 
BRANCH   2   3
ATOM      3  C   UNL d   1      -1.181   1.487   0.093  0.00  0.00     0.291 C 
ATOM      4  O   UNL d   1      -1.766   0.887   0.989  0.00  0.00    -0.262 OA
BRANCH   3   5
ATOM      5  O   UNL d   1      -1.765   2.284  -0.842  0.00  0.00    -0.315 OA
BRANCH   5   6
ATOM      6  C   UNL d   1      -3.198   2.316  -0.853  0.00  0.00     0.217 C 
BRANCH   6   7
ATOM      7  C   UNL d   1      -3.690   3.743  -0.892  0.00  0.00    -0.034 A 
ATOM      8  C   UNL d   1      -3.340   4.595  -1.950  0.00  0.00     0.009 A 
ATOM      9  C   UNL d   1      -3.845   5.897  -2.009  0.00  0.00     0.001 A 
ATOM     10  C   UNL d   1      -4.704   6.360  -1.014  0.00  0.00     0.000 A 
ATOM     11  C   UNL d   1      -5.053   5.526   0.045  0.00  0.00     0.001 A 
ATOM     12  C   UNL d   1      -4.548   4.225   0.107  0.00  0.00     0.009 A 
ENDBRANCH   6   7
ENDBRANCH   5   6
ENDBRANCH   3   5
ENDBRANCH   2   3
BRANCH   2  13
ATOM     13  O   UNL d   1       1.063   2.117   0.881  0.00  0.00    -0.382 OA
ATOM     14  H   UNL d   1       1.072   1.559   1.683  0.00  0.00     0.210 HD
ENDBRANCH   2  13
ENDBRANCH   1   2
BRANCH   1  15
ATOM     15  C   UNL d   1       0.277  -0.761  -1.410  0.00  0.00     0.291 C 
ATOM     16  O   UNL d   1      -0.483  -0.237  -2.218  0.00  0.00    -0.262 OA
BRANCH  15  17
ATOM     17  O   UNL d   1       0.736  -2.037  -1.479  0.00  0.00    -0.315 OA
BRANCH  17  18
ATOM     18  C   UNL d   1       0.223  -2.841  -2.553  0.00  0.00     0.217 C 
BRANCH  18  19
ATOM     19  C   UNL d   1       1.356  -3.395  -3.378  0.00  0.00    -0.034 A 
ATOM     20  C   UNL d   1       2.316  -4.237  -2.800  0.00  0.00     0.009 A 
ATOM     21  C   UNL d   1       3.340  -4.784  -3.577  0.00  0.00     0.001 A 
ATOM     22  C   UNL d   1       3.415  -4.494  -4.938  0.00  0.00     0.000 A 
ATOM     23  C   UNL d   1       2.470  -3.654  -5.523  0.00  0.00     0.001 A 
ATOM     24  C   UNL d   1       1.445  -3.107  -4.748  0.00  0.00     0.009 A 
ENDBRANCH  18  19
ENDBRANCH  17  18
ENDBRANCH  15  17
ENDBRANCH   1  15
BRANCH   1  25
ATOM     25  O   UNL d   1       2.181  -0.168   0.070  0.00  0.00    -0.382 OA
ATOM     26  H   UNL d   1       2.588   0.639  -0.295  0.00  0.00     0.210 HD
ENDBRANCH   1  25
TORSDOF 11
