REMARK  7 active torsions:
REMARK  status: ('A' for Active; 'I' for Inactive)
REMARK    1  A    between atoms: N_3  and  S_1 
REMARK    2  A    between atoms: C_10  and  S_1 
REMARK    3  A    between atoms: C_2  and  S_8 
REMARK    4  A    between atoms: S_8  and  N_3 
REMARK    5  A    between atoms: C_11  and  C_6 
REMARK    6  A    between atoms: O_20  and  C_11 
REMARK    7  A    between atoms: C_25  and  O_20 
ROOT
ATOM      1  C   UNL d   1       2.476  -1.947   2.424  0.00  0.00     0.062 A 
ATOM      2  S   UNL d   1       3.384  -3.389   2.558  0.00  0.00    -0.075 SA
ATOM      3  C   UNL d   1       4.876  -2.569   2.676  0.00  0.00     0.088 A 
ATOM      4  C   UNL d   1       3.297  -0.840   2.526  0.00  0.00    -0.004 A 
ATOM      5  C   UNL d   1       4.688  -1.194   2.652  0.00  0.00    -0.022 A 
ATOM      6  C   UNL d   1       2.909   0.539   2.526  0.00  0.00     0.010 A 
ATOM      7  C   UNL d   1       3.816   1.527   2.592  0.00  0.00    -0.025 A 
ATOM      8  C   UNL d   1       5.779  -0.162   2.766  0.00  0.00     0.045 A 
ATOM      9  C   UNL d   1       5.302   1.299   2.671  0.00  0.00     0.032 A 
ENDROOT
BRANCH   1  10
ATOM     10  S   UNL d   1       0.721  -1.916   2.219  0.00  0.00    -0.079 SA
ATOM     11  C   UNL d   1       0.680  -1.357   0.497  0.00  0.00     0.108 C 
BRANCH  10  12
ATOM     12  N   UNL d   1       0.557  -3.506   2.088  0.00  0.00    -0.259 N 
ATOM     13  HN  UNL d   1       1.049  -4.108   2.748  1.00  0.00     0.186 HD
BRANCH  12  14
ATOM     14  S   UNL d   1      -0.407  -4.222   0.885  0.00  0.00     0.269 S 
ATOM     15  O   UNL d   1       0.329  -4.189  -0.366  0.00  0.00    -0.200 OA
ATOM     16  O   UNL d   1      -1.764  -3.714   0.939  0.00  0.00    -0.200 OA
BRANCH  14  17
ATOM     17  C   UNL d   1      -0.450  -5.922   1.403  0.00  0.00     0.102 A 
ATOM     18  C   UNL d   1      -1.058  -6.312   2.597  0.00  0.00     0.057 A 
ATOM     19 CL   UNL d   1      -1.710  -5.210   3.753  0.00  0.00    -0.083 Cl
ATOM     20  C   UNL d   1      -1.147  -7.677   2.907  0.00  0.00     0.025 A 
ATOM     21  C   UNL d   1      -0.632  -8.642   2.038  0.00  0.00     0.002 A 
ATOM     22  C   UNL d   1      -0.007  -8.250   0.859  0.00  0.00     0.002 A 
ATOM     23  C   UNL d   1       0.086  -6.894   0.540  0.00  0.00     0.027 A 
ENDBRANCH  14  17
ENDBRANCH  12  14
ENDBRANCH  10  12
ENDBRANCH   1  10
BRANCH   3  24
ATOM     24  C   UNL d   1       6.125  -3.307   2.803  0.00  0.00     0.300 C 
ATOM     25  O   UNL d   1       7.229  -2.799   2.949  0.00  0.00    -0.259 OA
BRANCH  24  26
ATOM     26  O   UNL d   1       5.913  -4.655   2.735  0.00  0.00    -0.317 OA
BRANCH  26  27
ATOM     27  C   UNL d   1       7.066  -5.492   2.868  0.00  0.00     0.174 C 
ATOM     28  C   UNL d   1       7.744  -5.668   1.523  0.00  0.00     0.034 C 
ENDBRANCH  26  27
ENDBRANCH  24  26
ENDBRANCH   3  24
TORSDOF 7
