REMARK  3 active torsions:
REMARK  status: ('A' for Active; 'I' for Inactive)
REMARK    1  A    between atoms: N_7  and  C_3 
REMARK    2  A    between atoms: C_8  and  C_4 
REMARK    3  A    between atoms: C_9  and  N_7 
ROOT
ATOM      1  N   UNL d   1       1.398  -0.558  -0.418  0.00  0.00    -0.333 N 
ATOM      2  HN  UNL d   1       2.258  -1.023  -0.706  1.00  0.00     0.168 HD
ATOM      3  C   UNL d   1       0.292  -1.186  -0.090  0.00  0.00     0.149 A 
ATOM      4  C   UNL d   1       1.248   0.816  -0.323  0.00  0.00     0.086 A 
ATOM      5  S   UNL d   1      -1.012  -0.146   0.342  0.00  0.00    -0.063 SA
ATOM      6  C   UNL d   1       0.010   1.216   0.144  0.00  0.00     0.086 A 
ENDROOT
BRANCH   3   7
ATOM      7  N   UNL d   1       0.138  -2.529  -0.097  0.00  0.00    -0.335 N 
ATOM      8  H   UNL d   1      -0.791  -2.928  -0.161  0.00  0.00     0.168 HD
BRANCH   7   9
ATOM      9  C   UNL d   1       1.172  -3.474   0.084  0.00  0.00     0.056 A 
ATOM     10  C   UNL d   1       1.094  -4.753  -0.496  0.00  0.00     0.060 A 
ATOM     11 CL   UNL d   1      -0.291  -5.223  -1.421  0.00  0.00    -0.082 Cl
ATOM     12  C   UNL d   1       2.137  -5.675  -0.351  0.00  0.00     0.026 A 
ATOM     13  C   UNL d   1       3.275  -5.337   0.381  0.00  0.00     0.002 A 
ATOM     14  C   UNL d   1       3.378  -4.072   0.950  0.00  0.00     0.002 A 
ATOM     15  C   UNL d   1       2.343  -3.149   0.791  0.00  0.00     0.031 A 
ENDBRANCH   7   9
ENDBRANCH   3   7
BRANCH   4  16
ATOM     16  C   UNL d   1       2.332   1.730  -0.691  0.00  0.00     0.172 C 
ATOM     17  O   UNL d   1       2.233   2.944  -0.518  0.00  0.00    -0.291 OA
ATOM     18  C   UNL d   1       3.577   1.152  -1.321  0.00  0.00     0.098 C 
ENDBRANCH   4  16
TORSDOF 3
