REMARK  4 active torsions:
REMARK  status: ('A' for Active; 'I' for Inactive)
REMARK    1  A    between atoms: C_4  and  S_1 
REMARK    2  A    between atoms: C_6  and  S_1 
REMARK    3  A    between atoms: C_5  and  C_6 
REMARK    4  A    between atoms: C_13  and  C_7 
ROOT
ATOM      1  N   UNL d   1       0.421  -3.962  -0.989  0.00  0.00    -0.352 N 
ATOM      2  HN  UNL d   1      -0.205  -4.406  -0.318  1.00  0.00     0.166 HD
ATOM      3  C   UNL d   1       0.807  -2.703  -0.939  0.00  0.00     0.065 A 
ATOM      4  C   UNL d   1       0.986  -4.598  -2.087  0.00  0.00     0.049 A 
ATOM      5  S   UNL d   1       1.856  -2.211  -2.211  0.00  0.00    -0.085 SA
ATOM      6  C   UNL d   1       1.761  -3.781  -2.887  0.00  0.00     0.081 A 
ENDROOT
BRANCH   3   7
ATOM      7  C   UNL d   1       0.486  -1.780   0.178  0.00  0.00     0.211 C 
BRANCH   7   8
ATOM      8  S   UNL d   1      -0.919  -0.784  -0.231  0.00  0.00     0.187 S 
ATOM      9  O   UNL d   1      -1.290  -0.013   0.942  0.00  0.00    -0.222 OA
ATOM     10  O   UNL d   1      -0.706  -0.118  -1.504  0.00  0.00    -0.222 OA
BRANCH   8  11
ATOM     11  C   UNL d   1      -2.292  -1.879  -0.513  0.00  0.00     0.100 A 
ATOM     12  S   UNL d   1      -2.736  -2.907   0.780  0.00  0.00    -0.090 SA
ATOM     13  C   UNL d   1      -4.067  -3.536  -0.091  0.00  0.00     0.051 A 
ATOM     14  C   UNL d   1      -4.168  -2.986  -1.349  0.00  0.00     0.009 A 
ATOM     15  C   UNL d   1      -3.136  -2.035  -1.597  0.00  0.00     0.031 A 
ENDBRANCH   8  11
ENDBRANCH   7   8
ENDBRANCH   3   7
BRANCH   4  16
ATOM     16  C   UNL d   1       0.765  -6.018  -2.334  0.00  0.00    -0.009 A 
ATOM     17  C   UNL d   1      -0.407  -6.630  -1.865  0.00  0.00     0.015 A 
ATOM     18  C   UNL d   1      -0.627  -7.997  -2.064  0.00  0.00     0.024 A 
ATOM     19  C   UNL d   1       0.328  -8.763  -2.728  0.00  0.00     0.034 A 
ATOM     20  C   UNL d   1       1.500  -8.174  -3.195  0.00  0.00     0.024 A 
ATOM     21 CL   UNL d   1       0.067 -10.447  -2.962  0.00  0.00    -0.084 Cl
ATOM     22  C   UNL d   1       1.718  -6.807  -2.999  0.00  0.00     0.015 A 
ENDBRANCH   4  16
TORSDOF 4
