REMARK  31 active torsions:
REMARK  status: ('A' for Active; 'I' for Inactive)
REMARK    1  A    between atoms: C22_7  and  C1_1 
REMARK    2  A    between atoms: C14_6  and  O1_8 
REMARK       I    between atoms: N_32  and  C14_6 
REMARK    3  A    between atoms: O1_8  and  C22_7 
REMARK       I    between atoms: N_18  and  C_73 
REMARK    4  A    between atoms: C_29  and  N_18 
REMARK    5  A    between atoms: C_19  and  C_24 
REMARK       I    between atoms: N_74  and  C_19 
REMARK    6  A    between atoms: C_20  and  C_27 
REMARK       I    between atoms: N_26  and  C_20 
REMARK    7  A    between atoms: C_21  and  C_34 
REMARK       I    between atoms: N_23  and  C_21 
REMARK    8  A    between atoms: C_22  and  C_36 
REMARK       I    between atoms: N_25  and  C_22 
REMARK    9  A    between atoms: C_24  and  N_23 
REMARK   10  A    between atoms: C_30  and  C_24 
REMARK   11  A    between atoms: C_34  and  N_25 
REMARK   12  A    between atoms: C_36  and  N_26 
REMARK   13  A    between atoms: C_27  and  N_32 
REMARK   14  A    between atoms: C_28  and  C_27 
REMARK   15  A    between atoms: C_31  and  C_28 
REMARK   16  A    between atoms: C_33  and  C_29 
REMARK   17  A    between atoms: C_53  and  C_29 
REMARK   18  A    between atoms: C_35  and  C_30 
REMARK   19  A    between atoms: O_38  and  C_31 
REMARK   20  A    between atoms: O_54  and  C_33 
REMARK   21  A    between atoms: C_50  and  C_34 
REMARK       I    between atoms: N_51  and  C_35 
REMARK   22  A    between atoms: C_37  and  C_52 
REMARK   23  A    between atoms: O_43  and  C_37 
REMARK   24  A    between atoms: C_48  and  O_38 
REMARK   25  A    between atoms: C_49  and  O_43 
REMARK   26  A    between atoms: C_52  and  C_50 
REMARK   27  A    between atoms: C_62  and  C_53 
REMARK   28  A    between atoms: C_73  and  CA_75 
REMARK   29  A    between atoms: CA_75  and  N_74 
REMARK   30  A    between atoms: CB_77  and  CA_75 
REMARK   31  A    between atoms: CG_78  and  CB_77 
ROOT
ATOM      1  C   UNK d   1       6.305   3.856   4.645  0.00  0.00     0.177 C 
ENDROOT
BRANCH   1   2
ATOM      2  C   UNK d   1       6.374   4.982   5.726  0.00  0.00     0.241 C 
ATOM      3  N   UNK d   1       5.975   6.245   5.246  0.00  0.00    -0.346 N 
ATOM      4  H   UNK d   1       5.489   6.225   4.350  0.00  0.00     0.163 HD
ATOM      5  O   UNK d   1       6.582   4.758   6.909  0.00  0.00    -0.271 OA
BRANCH   3   6
ATOM      6  C   UNK d   1       5.623   7.363   6.170  0.00  0.00     0.185 C 
BRANCH   6   7
ATOM      7  C   UNK d   1       5.743   8.862   5.672  0.00  0.00     0.241 C 
ATOM      8  N   LEU d   2       6.002   9.038   4.342  0.00  0.00    -0.346 N 
ATOM      9  H   LEU d   2       5.749   8.207   3.814  0.00  0.00     0.163 HD
ATOM     10  O   UNK d   1       5.612   9.818   6.438  0.00  0.00    -0.271 OA
BRANCH   8  11
ATOM     11  CA  LEU d   2       5.746  10.256   3.534  0.00  0.00     0.177 C 
BRANCH  11  12
ATOM     12  C   LEU d   2       5.880  11.778   3.933  0.00  0.00     0.241 C 
ATOM     13  N   UNK d   1       6.423  12.133   5.143  0.00  0.00    -0.344 N 
ATOM     14  H   UNK d   1       6.493  11.395   5.840  0.00  0.00     0.163 HD
ATOM     15  O   LEU d   2       5.586  12.658   3.103  0.00  0.00    -0.271 OA
BRANCH  13  16
ATOM     16  C   UNK d   1       7.001  13.498   5.351  0.00  0.00     0.186 C 
BRANCH  16  17
ATOM     17  C   UNK d   1       5.999  14.578   5.840  0.00  0.00     0.163 C 
ATOM     18  O   UNK d   1       5.938  15.723   5.405  0.00  0.00    -0.648 OA
BRANCH  17  19
ATOM     19  O   UNK d   1       5.305  14.200   6.946  0.00  0.00    -0.775 OA
ATOM     20  H   UNK d   1       5.519  13.285   7.232  0.00  0.00     0.167 HD
ENDBRANCH  17  19
ENDBRANCH  16  17
BRANCH  16  21
ATOM     21  C   UNK d   1       8.216  13.386   6.325  0.00  0.00     0.014 C 
ATOM     22  C   UNK d   1       8.720  14.719   6.893  0.00  0.00     0.012 C 
BRANCH  21  23
ATOM     23  C   UNK d   1       9.387  12.599   5.691  0.00  0.00     0.002 C 
ATOM     24  C   UNK d   1      10.165  13.333   4.603  0.00  0.00     0.005 C 
ENDBRANCH  21  23
ENDBRANCH  16  21
ENDBRANCH  13  16
ENDBRANCH  11  12
BRANCH  11  25
ATOM     25  CB  LEU d   2       6.613  10.074   2.247  0.00  0.00     0.038 C 
BRANCH  25  26
ATOM     26  CG  LEU d   2       8.087  10.532   2.388  0.00  0.00    -0.020 C 
ATOM     27  CD1 LEU d   2       8.906   9.661   3.342  0.00  0.00     0.009 C 
ATOM     28  CD2 LEU d   2       8.740  10.591   1.005  0.00  0.00     0.009 C 
ENDBRANCH  25  26
ENDBRANCH  11  25
ENDBRANCH   8  11
ENDBRANCH   6   7
BRANCH   6  29
ATOM     29  C   UNK d   1       4.205   7.162   6.728  0.00  0.00     0.137 C 
BRANCH  29  30
ATOM     30  C   UNK d   1       3.193   7.224   5.615  0.00  0.00     0.217 C 
ATOM     31  O   UNK d   1       3.385   7.787   4.545  0.00  0.00    -0.274 OA
ATOM     32  N   UNK d   1       2.014   6.607   5.872  0.00  0.00    -0.370 N 
ATOM     33  H   UNK d   1       1.717   6.370   6.808  0.00  0.00     0.159 HD
ATOM     34  H   UNK d   1       1.308   6.697   5.148  0.00  0.00     0.159 HD
ENDBRANCH  29  30
ENDBRANCH   6  29
ENDBRANCH   3   6
ENDBRANCH   1   2
BRANCH   1  35
ATOM     35  N   UNK d   1       4.886   3.513   4.622  0.00  0.00    -0.346 N 
ATOM     36  C   UNK d   1       4.104   3.653   3.495  0.00  0.00     0.240 C 
ATOM     37  O   UNK d   1       4.621   3.897   2.405  0.00  0.00    -0.271 OA
ATOM     38  H   UNK d   1       4.513   3.109   5.471  0.00  0.00     0.163 HD
BRANCH  36  39
ATOM     39  C   UNK d   1       2.595   3.358   3.685  0.00  0.00     0.172 C 
ATOM     40  C   UNK d   1       2.136   3.301   5.143  0.00  0.00     0.042 C 
BRANCH  39  41
ATOM     41  N   UNK d   1       1.636   4.106   2.865  0.00  0.00    -0.346 N 
ATOM     42  C   UNK d   1       1.847   5.306   2.222  0.00  0.00     0.241 C 
ATOM     43  O   UNK d   1       2.860   5.977   2.390  0.00  0.00    -0.271 OA
ATOM     44  H   UNK d   1       0.750   3.633   2.748  0.00  0.00     0.163 HD
BRANCH  42  45
ATOM     45  C   UNK d   1       0.689   5.863   1.329  0.00  0.00     0.188 C 
BRANCH  45  46
ATOM     46  N   UNK d   1       0.310   7.150   1.972  0.00  0.00    -0.323 N 
ATOM     47  C14 <1> d   1      -0.774   7.956   1.806  0.00  0.00     0.361 C 
ATOM     48  O9  <1> d   1      -0.784   9.129   2.115  0.00  0.00    -0.239 OA
ATOM     49  H   UNK d   1       1.094   7.673   2.356  0.00  0.00     0.165 HD
BRANCH  47  50
ATOM     50  O1  <1> d   1      -1.862   7.268   1.350  0.00  0.00    -0.303 OA
BRANCH  50  51
ATOM     51  C22 <1> d   1      -3.170   7.775   1.698  0.00  0.00     0.194 C 
BRANCH  51  52
ATOM     52  C1  <1> d   1      -3.655   7.180   3.041  0.00  0.00     0.078 A 
ATOM     53  C4  <1> d   1      -2.782   7.657   4.196  0.00  0.00    -0.036 A 
ATOM     54  C2  <1> d   1      -2.116   6.566   4.787  0.00  0.00    -0.018 A 
ATOM     55  C33 <1> d   1      -2.530   8.962   4.593  0.00  0.00     0.009 A 
ATOM     56  C31 <1> d   1      -1.191   6.774   5.791  0.00  0.00     0.013 A 
ATOM     57  C3  <1> d   1      -2.534   5.345   4.135  0.00  0.00    -0.018 A 
ATOM     58  C49 <1> d   1      -0.893   8.091   6.162  0.00  0.00     0.001 A 
ATOM     59  C50 <1> d   1      -1.553   9.174   5.564  0.00  0.00     0.001 A 
ATOM     60  C5  <1> d   1      -3.480   5.661   3.133  0.00  0.00    -0.036 A 
ATOM     61  C32 <1> d   1      -2.111   4.037   4.325  0.00  0.00     0.013 A 
ATOM     62  C34 <1> d   1      -4.073   4.664   2.373  0.00  0.00     0.009 A 
ATOM     63  C47 <1> d   1      -3.663   3.342   2.582  0.00  0.00     0.001 A 
ATOM     64  C48 <1> d   1      -2.674   3.033   3.532  0.00  0.00     0.001 A 
ENDBRANCH  51  52
ENDBRANCH  50  51
ENDBRANCH  47  50
ENDBRANCH  45  46
BRANCH  45  65
ATOM     65  C   UNK d   1      -0.439   4.887   1.027  0.00  0.00     0.146 C 
BRANCH  65  66
ATOM     66  C   UNK d   1      -0.008   3.583   0.398  0.00  0.00     0.262 C 
ATOM     67  O   UNK d   1       0.120   2.549   1.047  0.00  0.00    -0.265 OA
BRANCH  66  68
ATOM     68  O   UNK d   1       0.115   3.713  -0.941  0.00  0.00    -0.311 OA
BRANCH  68  69
ATOM     69  C   UNK d   1       0.172   2.568  -1.840  0.00  0.00     0.060 C 
ATOM     70  C   UNK d   1      -1.167   1.820  -1.842  0.00  0.00     0.045 C 
ATOM     71  C   UNK d   1       0.411   3.196  -3.223  0.00  0.00     0.045 C 
ATOM     72  C   UNK d   1       1.319   1.597  -1.541  0.00  0.00     0.045 C 
ENDBRANCH  68  69
ENDBRANCH  66  68
ENDBRANCH  65  66
ENDBRANCH  45  65
ENDBRANCH  42  45
ENDBRANCH  39  41
ENDBRANCH  36  39
ENDBRANCH   1  35
BRANCH   1  73
ATOM     73  C   UNK d   1       7.109   2.550   4.848  0.00  0.00     0.044 C 
BRANCH  73  74
ATOM     74  C   UNK d   1       6.985   1.692   3.567  0.00  0.00     0.113 C 
BRANCH  74  75
ATOM     75  C   UNK d   1       7.628   0.317   3.575  0.00  0.00     0.259 C 
ATOM     76  O   UNK d   1       7.813  -0.378   4.555  0.00  0.00    -0.265 OA
BRANCH  75  77
ATOM     77  O   UNK d   1       7.917  -0.011   2.280  0.00  0.00    -0.311 OA
BRANCH  77  78
ATOM     78  C   UNK d   1       8.728  -1.159   1.913  0.00  0.00     0.060 C 
ATOM     79  C   UNK d   1       8.076  -2.496   2.276  0.00  0.00     0.045 C 
ATOM     80  C   UNK d   1       8.859  -1.065   0.382  0.00  0.00     0.045 C 
ATOM     81  C   UNK d   1      10.119  -1.030   2.536  0.00  0.00     0.045 C 
ENDBRANCH  77  78
ENDBRANCH  75  77
ENDBRANCH  74  75
ENDBRANCH  73  74
ENDBRANCH   1  73
TORSDOF 31
