REMARK  7 active torsions:
REMARK  status: ('A' for Active; 'I' for Inactive)
REMARK    1  A    between atoms: C_7  and  C_1 
REMARK    2  A    between atoms: S_11  and  C_4 
REMARK    3  A    between atoms: O_20  and  C_7 
REMARK    4  A    between atoms: C_8  and  N_10 
REMARK    5  A    between atoms: C_9  and  C_19 
REMARK       I    between atoms: N_10  and  C_9 
REMARK    6  A    between atoms: C_19  and  S_11 
REMARK    7  A    between atoms: C_24  and  O_20 
ROOT
ATOM      1  S   UNL d   1      -2.676   1.396   0.793  0.00  0.00    -0.085 SA
ENDROOT
BRANCH   1   2
ATOM      2  C   UNL d   1      -1.352   0.366   0.425  0.00  0.00     0.145 A 
ATOM      3  N   UNL d   1      -1.395  -0.933   0.279  0.00  0.00    -0.330 N 
ATOM      4  C   UNL d   1      -0.080  -1.325   0.053  0.00  0.00     0.132 A 
ATOM      5  HN  UNL d   1      -2.219  -1.532   0.321  1.00  0.00     0.168 HD
ATOM      6  C   UNL d   1       0.749  -0.209   0.080  0.00  0.00     0.040 A 
ATOM      7  N   UNL d   1      -0.094   0.861   0.276  0.00  0.00    -0.338 N 
ATOM      8  C   UNL d   1       2.215  -0.036  -0.041  0.00  0.00     0.071 C 
ATOM      9  H   UNL d   1       0.160   1.836   0.341  0.00  0.00     0.168 HD
BRANCH   4  10
ATOM     10  C   UNL d   1       0.289  -2.727  -0.141  0.00  0.00     0.312 C 
ATOM     11  O   UNL d   1       1.433  -3.120  -0.340  0.00  0.00    -0.258 OA
BRANCH  10  12
ATOM     12  O   UNL d   1      -0.803  -3.544  -0.053  0.00  0.00    -0.317 OA
BRANCH  12  13
ATOM     13  C   UNL d   1      -0.547  -4.951  -0.133  0.00  0.00     0.175 C 
ATOM     14  C   UNL d   1      -0.148  -5.474   1.234  0.00  0.00     0.034 C 
ENDBRANCH  12  13
ENDBRANCH  10  12
ENDBRANCH   4  10
ENDBRANCH   1   2
BRANCH   1  15
ATOM     15  C   UNL d   1      -3.897   0.167   1.352  0.00  0.00     0.185 C 
BRANCH  15  16
ATOM     16  C   UNL d   1      -4.667  -0.416   0.179  0.00  0.00     0.231 C 
ATOM     17  N   UNL d   1      -3.957  -1.324  -0.590  0.00  0.00    -0.326 N 
ATOM     18  H   UNL d   1      -3.010  -1.540  -0.267  0.00  0.00     0.169 HD
ATOM     19  O   UNL d   1      -5.840  -0.092  -0.002  0.00  0.00    -0.272 OA
BRANCH  17  20
ATOM     20  C   UNL d   1      -4.354  -1.885  -1.825  0.00  0.00     0.037 A 
ATOM     21  C   UNL d   1      -5.516  -1.508  -2.503  0.00  0.00     0.053 A 
ATOM     22  C   UNL d   1      -5.819  -2.057  -3.749  0.00  0.00     0.037 A 
ATOM     23 CL   UNL d   1      -7.238  -1.545  -4.580  0.00  0.00    -0.084 Cl
ATOM     24  C   UNL d   1      -4.982  -2.999  -4.335  0.00  0.00     0.048 A 
ATOM     25  C   UNL d   1      -3.831  -3.386  -3.658  0.00  0.00     0.037 A 
ATOM     26  C   UNL d   1      -3.510  -2.833  -2.414  0.00  0.00     0.053 A 
ATOM     27 CL   UNL d   1      -2.783  -4.556  -4.366  0.00  0.00    -0.084 Cl
ENDBRANCH  17  20
ENDBRANCH  15  16
ENDBRANCH   1  15
TORSDOF 7
