REMARK  4 active torsions:
REMARK  status: ('A' for Active; 'I' for Inactive)
REMARK    1  A    between atoms: C_3  and  C_1 
REMARK       I    between atoms: C_2  and  N_4 
REMARK    2  A    between atoms: C_6  and  C_2 
REMARK    3  A    between atoms: N_4  and  C_5 
REMARK    4  A    between atoms: O_21  and  C_11 
ROOT
ATOM      1  C   UNL d   1       0.345  -1.266   0.742  0.00  0.00     0.052 A 
ATOM      2  C   UNL d   1       0.526  -3.666   0.370  0.00  0.00     0.038 A 
ATOM      3  C   UNL d   1       0.609  -2.354  -0.103  0.00  0.00     0.046 A 
ATOM      4  C   UNL d   1      -0.059  -1.513   2.060  0.00  0.00     0.053 A 
ATOM      5  C   UNL d   1       0.115  -3.890   1.695  0.00  0.00     0.066 A 
ATOM      6  C   UNL d   1      -0.182  -2.818   2.540  0.00  0.00     0.071 A 
ENDROOT
BRANCH   2   7
ATOM      7  N   UNL d   1       0.904  -4.795  -0.395  0.00  0.00    -0.323 N 
ATOM      8  C   UNL d   1       1.401  -4.793  -1.688  0.00  0.00     0.256 C 
ATOM      9  O   UNL d   1       1.465  -3.833  -2.449  0.00  0.00    -0.267 OA
ATOM     10  H   UNL d   1       0.928  -5.668   0.111  0.00  0.00     0.169 HD
BRANCH   8  11
ATOM     11  C   UNL d   1       1.972  -6.088  -2.155  0.00  0.00     0.032 A 
ATOM     12  C   UNL d   1       1.448  -7.327  -1.768  0.00  0.00     0.018 A 
ATOM     13  C   UNL d   1       2.066  -8.507  -2.193  0.00  0.00     0.025 A 
ATOM     14  C   UNL d   1       3.194  -8.449  -3.013  0.00  0.00     0.034 A 
ATOM     15  C   UNL d   1       3.702  -7.221  -3.429  0.00  0.00     0.025 A 
ATOM     16 CL   UNL d   1       3.963  -9.905  -3.511  0.00  0.00    -0.084 Cl
ATOM     17  C   UNL d   1       3.089  -6.042  -3.005  0.00  0.00     0.018 A 
ENDBRANCH   8  11
ENDBRANCH   2   7
BRANCH   1  18
ATOM     18  C   UNL d   1       0.542   0.150   0.267  0.00  0.00     0.417 C 
ATOM     19  F   UNL d   1       0.987   0.248  -1.016  0.00  0.00    -0.166 F 
ATOM     20  F   UNL d   1       1.454   0.823   1.025  0.00  0.00    -0.166 F 
ATOM     21  F   UNL d   1      -0.603   0.886   0.322  0.00  0.00    -0.166 F 
ENDBRANCH   1  18
BRANCH   6  22
ATOM     22  O   UNL d   1      -0.572  -2.900   3.848  0.00  0.00    -0.356 OA
ATOM     23  C   UNL d   1      -0.730  -4.197   4.405  0.00  0.00     0.210 C 
ENDBRANCH   6  22
TORSDOF 4
