REMARK  10 active torsions:
REMARK  status: ('A' for Active; 'I' for Inactive)
REMARK    1  A    between atoms: O_20  and  C_1 
REMARK    2  A    between atoms: O_19  and  C_2 
REMARK    3  A    between atoms: N_3  and  C_17 
REMARK    4  A    between atoms: C_16  and  N_4 
REMARK    5  A    between atoms: O_21  and  C_5 
REMARK    6  A    between atoms: O_23  and  C_6 
REMARK    7  A    between atoms: O_24  and  C_7 
REMARK    8  A    between atoms: O_22  and  C_8 
REMARK    9  A    between atoms: C_17  and  C_10 
REMARK   10  A    between atoms: C_11  and  C_16 
ROOT
ATOM      1  N   UNL d   1      -3.857  -0.593  -0.367  0.00  0.00    -0.385 N 
ATOM      2  N   UNL d   1      -3.265  -1.795  -2.414  0.00  0.00     0.109 N 
ATOM      3  C   UNL d   1      -4.035  -0.698  -1.805  0.00  0.00     0.393 C 
ATOM      4  C   UNL d   1      -3.382  -3.052  -0.314  0.00  0.00     0.050 C 
ATOM      5  C   UNL d   1      -3.668  -3.070  -1.809  0.00  0.00     0.276 C 
ATOM      6  C   UNL d   1      -4.009  -1.841   0.360  0.00  0.00     0.120 C 
ENDROOT
BRANCH   1   7
ATOM      7  C   UNL d   1      -2.773   0.283   0.067  0.00  0.00     0.157 C 
BRANCH   7   8
ATOM      8  C   UNL d   1      -3.119   1.747  -0.164  0.00  0.00    -0.035 A 
ATOM      9  C   UNL d   1      -4.333   2.285   0.292  0.00  0.00     0.048 A 
ATOM     10  C   UNL d   1      -4.686   3.625   0.066  0.00  0.00     0.104 A 
ATOM     11  C   UNL d   1      -3.817   4.453  -0.669  0.00  0.00     0.135 A 
ATOM     12  C   UNL d   1      -2.578   3.928  -1.109  0.00  0.00     0.104 A 
ATOM     13  C   UNL d   1      -2.232   2.598  -0.824  0.00  0.00     0.048 A 
BRANCH  10  14
ATOM     14  O   UNL d   1      -5.910   3.925   0.612  0.00  0.00    -0.353 OA
ATOM     15  C   UNL d   1      -6.360   5.269   0.623  0.00  0.00     0.210 C 
ENDBRANCH  10  14
BRANCH  11  16
ATOM     16  O   UNL d   1      -4.154   5.774  -0.837  0.00  0.00    -0.351 OA
ATOM     17  C   UNL d   1      -4.045   6.305  -2.155  0.00  0.00     0.210 C 
ENDBRANCH  11  16
BRANCH  12  18
ATOM     18  O   UNL d   1      -1.702   4.777  -1.742  0.00  0.00    -0.353 OA
ATOM     19  C   UNL d   1      -0.841   4.200  -2.722  0.00  0.00     0.210 C 
ENDBRANCH  12  18
ENDBRANCH   7   8
ENDBRANCH   1   7
BRANCH   2  20
ATOM     20  C   UNL d   1      -3.548  -1.776  -3.867  0.00  0.00     0.313 C 
BRANCH  20  21
ATOM     21  C   UNL d   1      -2.905  -2.874  -4.686  0.00  0.00    -0.025 A 
ATOM     22  C   UNL d   1      -3.680  -3.824  -5.343  0.00  0.00     0.048 A 
ATOM     23  C   UNL d   1      -3.117  -4.817  -6.160  0.00  0.00     0.104 A 
ATOM     24  C   UNL d   1      -1.706  -4.881  -6.322  0.00  0.00     0.135 A 
ATOM     25  C   UNL d   1      -0.914  -3.948  -5.620  0.00  0.00     0.104 A 
ATOM     26  C   UNL d   1      -1.517  -2.954  -4.824  0.00  0.00     0.048 A 
BRANCH  23  27
ATOM     27  O   UNL d   1      -3.919  -5.773  -6.732  0.00  0.00    -0.353 OA
ATOM     28  C   UNL d   1      -5.191  -5.305  -7.194  0.00  0.00     0.210 C 
ENDBRANCH  23  27
BRANCH  24  29
ATOM     29  O   UNL d   1      -1.024  -5.762  -7.117  0.00  0.00    -0.351 OA
ATOM     30  C   UNL d   1      -1.674  -6.567  -8.089  0.00  0.00     0.210 C 
ENDBRANCH  24  29
BRANCH  25  31
ATOM     31  O   UNL d   1       0.451  -3.798  -5.597  0.00  0.00    -0.353 OA
ATOM     32  C   UNL d   1       1.305  -4.793  -6.131  0.00  0.00     0.210 C 
ENDBRANCH  25  31
ENDBRANCH  20  21
ENDBRANCH   2  20
TORSDOF 10
