REMARK  7 active torsions:
REMARK  status: ('A' for Active; 'I' for Inactive)
REMARK    1  A    between atoms: C_2  and  S_1 
REMARK    2  A    between atoms: C_8  and  S_1 
REMARK    3  A    between atoms: C_3  and  C_2 
REMARK    4  A    between atoms: N_9  and  C_3 
REMARK    5  A    between atoms: O_10  and  N_6 
REMARK    6  A    between atoms: C_16  and  O_10 
REMARK    7  A    between atoms: C_14  and  C_16 
ROOT
ATOM      1  C   UNL d   1       0.900   0.096   2.660  0.00  0.00     0.089 C 
ATOM      2  N   UNL d   1       1.932  -0.652   2.399  0.00  0.00    -0.259 N 
ATOM      3  HN  UNL d   1       2.574  -1.023   3.100  1.00  0.00     0.195 HD
ENDROOT
BRANCH   1   4
ATOM      4  C   UNL d   1       0.602   0.398   4.108  0.00  0.00     0.212 C 
BRANCH   4   5
ATOM      5  S   UNL d   1       0.734   2.140   4.423  0.00  0.00     0.154 S 
ATOM      6  O   UNL d   1      -0.171   2.813   3.501  0.00  0.00    -0.227 OA
ATOM      7  O   UNL d   1       2.136   2.504   4.465  0.00  0.00    -0.227 OA
BRANCH   5   8
ATOM      8  C   UNL d   1       0.050   2.336   6.081  0.00  0.00     0.100 C 
ATOM      9  C   UNL d   1       0.854   1.567   7.124  0.00  0.00     0.026 C 
ATOM     10  C   UNL d   1      -0.021   3.815   6.453  0.00  0.00     0.026 C 
ENDBRANCH   5   8
ENDBRANCH   4   5
ENDBRANCH   1   4
BRANCH   1  11
ATOM     11  N   UNL d   1       0.052   0.579   1.688  0.00  0.00    -0.290 NA
ATOM     12  H   UNL d   1      -0.295   1.528   1.847  0.00  0.00     0.125 HD
ATOM     13  H   UNL d   1       0.468   0.480   0.764  0.00  0.00     0.125 HD
ENDBRANCH   1  11
BRANCH   2  14
ATOM     14  O   UNL d   1       2.038  -0.876   1.011  0.00  0.00    -0.275 OA
BRANCH  14  15
ATOM     15  C   UNL d   1       3.330  -1.411   0.726  0.00  0.00     0.240 C 
BRANCH  15  16
ATOM     16  C   UNL d   1       3.357  -1.886  -0.706  0.00  0.00    -0.031 A 
ATOM     17  C   UNL d   1       4.080  -1.187  -1.682  0.00  0.00     0.033 A 
ATOM     18  C   UNL d   1       4.102  -1.644  -3.002  0.00  0.00     0.034 A 
ATOM     19 CL   UNL d   1       5.000  -0.780  -4.187  0.00  0.00    -0.084 Cl
ATOM     20  C   UNL d   1       3.405  -2.794  -3.365  0.00  0.00     0.024 A 
ATOM     21  C   UNL d   1       2.675  -3.491  -2.404  0.00  0.00     0.002 A 
ATOM     22  C   UNL d   1       2.649  -3.039  -1.082  0.00  0.00     0.009 A 
ENDBRANCH  15  16
ENDBRANCH  14  15
ENDBRANCH   2  14
TORSDOF 7
