REMARK  5 active torsions:
REMARK  status: ('A' for Active; 'I' for Inactive)
REMARK    1  A    between atoms: C_7  and  C_1 
REMARK    2  A    between atoms: O_10  and  C_4 
REMARK    3  A    between atoms: C_8  and  C_6 
REMARK    4  A    between atoms: O_11  and  C_7 
REMARK    5  A    between atoms: C_14  and  O_11 
ROOT
ATOM      1  C   UNL d   1       0.069   1.325  -0.053  0.00  0.00     0.133 A 
ATOM      2  N   UNL d   1       1.443  -0.563  -0.073  0.00  0.00    -0.329 N 
ATOM      3  HN  UNL d   1       2.316  -1.090  -0.092  1.00  0.00     0.168 HD
ATOM      4  C   UNL d   1       1.353   0.819  -0.061  0.00  0.00     0.166 A 
ATOM      5  S   UNL d   1      -1.052   0.033  -0.107  0.00  0.00    -0.061 SA
ATOM      6  C   UNL d   1       0.238  -1.100  -0.056  0.00  0.00     0.087 A 
ENDROOT
BRANCH   6   7
ATOM      7  C   UNL d   1      -0.034  -2.546  -0.037  0.00  0.00    -0.002 A 
ATOM      8  C   UNL d   1       0.903  -3.430  -0.603  0.00  0.00     0.014 A 
ATOM      9  C   UNL d   1       0.673  -4.808  -0.613  0.00  0.00     0.001 A 
ATOM     10  C   UNL d   1      -0.492  -5.327  -0.053  0.00  0.00     0.000 A 
ATOM     11  C   UNL d   1      -1.424  -4.470   0.525  0.00  0.00     0.001 A 
ATOM     12  C   UNL d   1      -1.195  -3.093   0.537  0.00  0.00     0.014 A 
ENDBRANCH   6   7
BRANCH   1  13
ATOM     13  C   UNL d   1      -0.353   2.700   0.024  0.00  0.00     0.304 C 
ATOM     14  O   UNL d   1       0.303   3.679  -0.309  0.00  0.00    -0.259 OA
BRANCH  13  15
ATOM     15  O   UNL d   1      -1.566   2.775   0.652  0.00  0.00    -0.317 OA
BRANCH  15  16
ATOM     16  C   UNL d   1      -1.874   4.037   1.251  0.00  0.00     0.174 C 
ATOM     17  C   UNL d   1      -1.230   4.082   2.627  0.00  0.00     0.034 C 
ENDBRANCH  15  16
ENDBRANCH  13  15
ENDBRANCH   1  13
BRANCH   4  18
ATOM     18  O   UNL d   1       2.416   1.656  -0.005  0.00  0.00    -0.340 OA
ATOM     19  C   UNL d   1       3.657   0.965   0.038  0.00  0.00     0.211 C 
ENDBRANCH   4  18
TORSDOF 5
