REMARK  2 active torsions:
REMARK  status: ('A' for Active; 'I' for Inactive)
REMARK    1  A    between atoms: N_13  and  C_5 
REMARK    2  A    between atoms: S_14  and  C_8 
ROOT
ATOM      1  N   UNL d   1      -0.209  -0.552  -0.070  0.00  0.00    -0.070 N 
ATOM      2  C   UNL d   1      -0.192   0.809   0.002  0.00  0.00     0.149 A 
ATOM      3  N   UNL d   1       0.990   1.473   0.032  0.00  0.00    -0.321 N 
ATOM      4  HN  UNL d   1       1.029   2.491   0.073  1.00  0.00     0.169 HD
ATOM      5  C   UNL d   1       0.988  -1.281  -0.104  0.00  0.00     0.701 A 
ATOM      6  N   UNL d   1       2.116  -0.635  -0.052  0.00  0.00    -0.169 N 
ATOM      7  HN  UNL d   1       3.006  -1.134  -0.052  1.00  0.00     0.186 HD
ATOM      8  C   UNL d   1       2.073   0.748   0.004  0.00  0.00     0.160 A 
ATOM      9  N   UNL d   1      -1.441  -1.108  -0.053  0.00  0.00    -0.282 N 
ATOM     10  HN  UNL d   1      -1.695  -2.095  -0.070  1.00  0.00     0.188 HD
ATOM     11  C   UNL d   1      -1.514   1.182   0.028  0.00  0.00     0.077 A 
ATOM     12  C   UNL d   1      -2.248  -0.034  -0.009  0.00  0.00     0.026 A 
ATOM     13  C   UNL d   1      -3.723  -0.190   0.000  0.00  0.00     0.070 C 
ENDROOT
BRANCH   5  14
ATOM     14  N   UNL d   1       0.925  -2.651  -0.172  0.00  0.00    -0.233 N 
ATOM     15  H   UNL d   1       0.026  -3.052   0.091  0.00  0.00     0.174 HD
ATOM     16  H   UNL d   1       1.740  -3.144   0.167  0.00  0.00     0.174 HD
ENDBRANCH   5  14
BRANCH   8  17
ATOM     17  S   UNL d   1       3.589   1.641   0.042  0.00  0.00    -0.098 SA
ATOM     18  C   UNL d   1       4.794   0.304   0.006  0.00  0.00     0.099 C 
ENDBRANCH   8  17
TORSDOF 2
