REMARK  4 active torsions:
REMARK  status: ('A' for Active; 'I' for Inactive)
REMARK    1  A    between atoms: C_4  and  C_1 
REMARK    2  A    between atoms: N_9  and  N_2 
REMARK    3  A    between atoms: C_10  and  C_4 
REMARK    4  A    between atoms: C_13  and  N_9 
ROOT
ATOM      1  C   UNL d   1       0.967  -0.027  -0.040  0.00  0.00     0.179 C 
ATOM      2  N   UNL d   1       0.319   0.631  -0.962  0.00  0.00    -0.287 N 
ATOM      3  HN  UNL d   1      -0.700   0.663  -0.940  1.00  0.00     0.188 HD
ATOM      4  C   UNL d   1       2.406  -0.090  -0.106  0.00  0.00     0.123 C 
ATOM      5  N   UNL d   1       3.564  -0.111  -0.221  0.00  0.00    -0.190 NA
ENDROOT
BRANCH   1   6
ATOM      6  C   UNL d   1       0.199  -0.716   1.050  0.00  0.00     0.220 C 
ATOM      7  O   UNL d   1       0.646  -1.770   1.488  0.00  0.00    -0.284 OA
BRANCH   6   8
ATOM      8  C   UNL d   1      -1.065  -0.149   1.580  0.00  0.00     0.017 A 
ATOM      9  C   UNL d   1      -2.006  -1.032   2.131  0.00  0.00     0.017 A 
ATOM     10  C   UNL d   1      -3.194  -0.544   2.681  0.00  0.00     0.025 A 
ATOM     11  C   UNL d   1      -3.436   0.828   2.695  0.00  0.00     0.034 A 
ATOM     12  C   UNL d   1      -2.509   1.714   2.146  0.00  0.00     0.025 A 
ATOM     13 CL   UNL d   1      -4.879   1.434   3.407  0.00  0.00    -0.084 Cl
ATOM     14  C   UNL d   1      -1.322   1.228   1.585  0.00  0.00     0.017 A 
ENDBRANCH   6   8
ENDBRANCH   1   6
BRANCH   2  15
ATOM     15  N   UNL d   1       0.996   1.277  -1.954  0.00  0.00    -0.300 N 
ATOM     16  H   UNL d   1       1.910   0.949  -2.281  0.00  0.00     0.187 HD
BRANCH  15  17
ATOM     17  C   UNL d   1       0.240   1.927  -2.955  0.00  0.00     0.050 A 
ATOM     18  C   UNL d   1      -1.148   2.105  -2.843  0.00  0.00     0.057 A 
ATOM     19  C   UNL d   1      -1.856   2.815  -3.814  0.00  0.00     0.074 A 
ATOM     20 CL   UNL d   1      -3.560   3.002  -3.650  0.00  0.00    -0.081 Cl
ATOM     21  C   UNL d   1      -1.181   3.372  -4.896  0.00  0.00     0.138 A 
ATOM     22  C   UNL d   1       0.197   3.233  -5.012  0.00  0.00     0.046 A 
ATOM     23  F   UNL d   1      -1.842   4.061  -5.837  0.00  0.00    -0.204 F 
ATOM     24  C   UNL d   1       0.905   2.522  -4.039  0.00  0.00     0.034 A 
ENDBRANCH  15  17
ENDBRANCH   2  15
TORSDOF 4
