REMARK  2 active torsions:
REMARK  status: ('A' for Active; 'I' for Inactive)
REMARK    1  A    between atoms: N_9  and  C_2 
REMARK       I    between atoms: C_7  and  N_9 
REMARK       I    between atoms: N_11  and  C_7 
REMARK    2  A    between atoms: C_16  and  N_11 
ROOT
ATOM      1  C   UNL d   1       1.873  -2.436   0.099  0.00  0.00     0.325 C 
ATOM      2  N   UNL d   1       0.573  -2.382  -0.359  0.00  0.00    -0.304 N 
ATOM      3  N   UNL d   1       2.252  -3.747   0.330  0.00  0.00    -0.309 N 
ATOM      4  O   UNL d   1       2.573  -1.444   0.262  0.00  0.00    -0.247 OA
ATOM      5  H   UNL d   1       0.246  -3.197  -0.858  0.00  0.00     0.171 HD
ATOM      6  H   UNL d   1       1.516  -4.441   0.269  0.00  0.00     0.170 HD
ENDROOT
BRANCH   2   7
ATOM      7  C   UNL d   1      -0.154  -1.215  -0.581  0.00  0.00     0.098 A 
ATOM      8  C   UNL d   1      -1.165  -1.123  -1.530  0.00  0.00     0.144 A 
ATOM      9  O   UNL d   1      -1.671   0.147  -1.481  0.00  0.00    -0.234 OA
ATOM     10  C   UNL d   1      -1.585  -2.062  -2.539  0.00  0.00     0.043 A 
ATOM     11  N   UNL d   1      -1.010   0.893  -0.536  0.00  0.00    -0.263 N 
ATOM     12  C   UNL d   1      -0.079   0.088  -0.007  0.00  0.00     0.058 A 
ATOM     13  HN  UNL d   1      -1.191   1.865  -0.286  1.00  0.00     0.194 HD
ATOM     14  C   UNL d   1       0.813   0.649   1.036  0.00  0.00     0.072 C 
ATOM     15  S   UNL d   1      -1.451  -3.763  -2.365  0.00  0.00    -0.099 SA
ATOM     16  C   UNL d   1      -2.091  -1.731  -3.781  0.00  0.00     0.022 A 
ATOM     17  C   UNL d   1      -1.934  -4.039  -3.979  0.00  0.00     0.050 A 
ATOM     18  C   UNL d   1      -2.263  -2.869  -4.624  0.00  0.00     0.008 A 
ENDBRANCH   2   7
BRANCH   3  19
ATOM     19  C   UNL d   1       3.470  -4.187   0.880  0.00  0.00     0.036 A 
ATOM     20  C   UNL d   1       4.553  -3.344   1.134  0.00  0.00     0.030 A 
ATOM     21  C   UNL d   1       5.681  -3.819   1.808  0.00  0.00     0.009 A 
ATOM     22  C   UNL d   1       5.750  -5.151   2.223  0.00  0.00    -0.062 A 
ATOM     23  C   UNL d   1       4.700  -6.016   1.903  0.00  0.00     0.009 A 
ATOM     24  C   UNL d   1       6.910  -5.607   3.055  0.00  0.00     0.048 C 
ATOM     25  C   UNL d   1       3.571  -5.538   1.231  0.00  0.00     0.030 A 
ENDBRANCH   3  19
TORSDOF 2
