REMARK  6 active torsions:
REMARK  status: ('A' for Active; 'I' for Inactive)
REMARK    1  A    between atoms: S_5  and  C_1 
REMARK    2  A    between atoms: C_4  and  C_2 
REMARK    3  A    between atoms: C_3  and  C_6 
REMARK       I    between atoms: N_8  and  C_4 
REMARK    4  A    between atoms: C_14  and  S_5 
REMARK    5  A    between atoms: C_13  and  N_8 
REMARK    6  A    between atoms: C_9  and  C_13 
ROOT
ATOM      1  C   UNL d   1      -0.435   0.974  -0.955  0.00  0.00     0.090 A 
ATOM      2  C   UNL d   1       0.521   1.158   0.045  0.00  0.00     0.065 A 
ATOM      3  N   UNL d   1      -0.815  -0.266  -1.370  0.00  0.00    -0.359 N 
ATOM      4  HN  UNL d   1      -1.531  -0.382  -2.086  1.00  0.00     0.166 HD
ATOM      5  C   UNL d   1       1.145   0.022   0.582  0.00  0.00     0.021 A 
ATOM      6  C   UNL d   1      -0.216  -1.339  -0.807  0.00  0.00     0.089 A 
ATOM      7  C   UNL d   1       0.769  -1.246   0.156  0.00  0.00     0.018 A 
ENDROOT
BRANCH   2   8
ATOM      8  C   UNL d   1       0.921   2.464   0.621  0.00  0.00     0.254 C 
ATOM      9  N   UNL d   1      -0.087   3.358   0.894  0.00  0.00    -0.352 N 
ATOM     10  H   UNL d   1      -1.030   3.166   0.576  0.00  0.00     0.163 HD
ATOM     11  O   UNL d   1       2.097   2.658   0.906  0.00  0.00    -0.268 OA
BRANCH   9  12
ATOM     12  C   UNL d   1       0.166   4.667   1.465  0.00  0.00     0.163 C 
BRANCH  12  13
ATOM     13  C   UNL d   1      -0.693   4.946   2.680  0.00  0.00    -0.019 A 
ATOM     14  C   UNL d   1      -1.111   6.249   3.008  0.00  0.00     0.043 A 
ATOM     15  C   UNL d   1      -1.847   6.499   4.172  0.00  0.00     0.048 A 
ATOM     16 CL   UNL d   1      -0.729   7.611   2.013  0.00  0.00    -0.084 Cl
ATOM     17  C   UNL d   1      -2.161   5.450   5.030  0.00  0.00     0.035 A 
ATOM     18  C   UNL d   1      -1.748   4.155   4.738  0.00  0.00     0.024 A 
ATOM     19 CL   UNL d   1      -3.049   5.760   6.470  0.00  0.00    -0.084 Cl
ATOM     20  C   UNL d   1      -1.012   3.907   3.576  0.00  0.00     0.012 A 
ENDBRANCH  12  13
ENDBRANCH   9  12
ENDBRANCH   2   8
BRANCH   1  21
ATOM     21  S   UNL d   1      -1.320   2.300  -1.750  0.00  0.00    -0.072 SA
BRANCH  21  22
ATOM     22  C   UNL d   1      -0.497   2.542  -3.317  0.00  0.00     0.007 A 
ATOM     23  C   UNL d   1      -0.693   3.780  -3.949  0.00  0.00     0.035 A 
ATOM     24  C   UNL d   1      -0.159   4.048  -5.222  0.00  0.00     0.049 A 
ATOM     25  C   UNL d   1       0.611   3.063  -5.853  0.00  0.00     0.016 A 
ATOM     26  C   UNL d   1       0.820   1.832  -5.232  0.00  0.00     0.002 A 
ATOM     27  C   UNL d   1       0.262   1.571  -3.976  0.00  0.00     0.019 A 
BRANCH  24  28
ATOM     28  C   UNL d   1      -0.403   5.376  -5.896  0.00  0.00     0.417 C 
ATOM     29  F   UNL d   1      -1.456   6.063  -5.370  0.00  0.00    -0.166 F 
ATOM     30  F   UNL d   1       0.669   6.209  -5.808  0.00  0.00    -0.166 F 
ATOM     31  F   UNL d   1      -0.672   5.250  -7.226  0.00  0.00    -0.166 F 
ENDBRANCH  24  28
ENDBRANCH  21  22
ENDBRANCH   1  21
TORSDOF 6
