REMARK  3 active torsions:
REMARK  status: ('A' for Active; 'I' for Inactive)
REMARK    1  A    between atoms: C_2  and  C_1 
REMARK       I    between atoms: N_5  and  C_2 
REMARK    2  A    between atoms: N_7  and  N_5 
REMARK    3  A    between atoms: C_9  and  N_7 
ROOT
ATOM      1  C   UNL d   1       0.716   2.545   0.300  0.00  0.00     0.274 C 
ATOM      2  N   UNL d   1       1.493   3.601  -0.178  0.00  0.00    -0.282 N 
ATOM      3  O   UNL d   1       1.266   1.498   0.652  0.00  0.00    -0.266 OA
ATOM      4  H   UNL d   1       1.077   4.381  -0.676  0.00  0.00     0.184 HD
ENDROOT
BRANCH   2   5
ATOM      5  N   UNL d   1       2.848   3.335  -0.422  0.00  0.00    -0.203 NA
ATOM      6  H   UNL d   1       3.145   2.510   0.119  0.00  0.00     0.153 HD
BRANCH   5   7
ATOM      7  C   UNL d   1       3.756   4.401  -0.211  0.00  0.00     0.033 A 
ATOM      8  C   UNL d   1       3.644   5.438   0.737  0.00  0.00    -0.038 A 
ATOM      9  C   UNL d   1       4.660   6.420   0.799  0.00  0.00     0.032 A 
ATOM     10  C   UNL d   1       2.502   5.609   1.701  0.00  0.00     0.050 C 
ATOM     11  C   UNL d   1       5.800   6.334   0.003  0.00  0.00     0.034 A 
ATOM     12  C   UNL d   1       5.960   5.267  -0.866  0.00  0.00     0.026 A 
ATOM     13 CL   UNL d   1       7.019   7.543   0.113  0.00  0.00    -0.084 Cl
ATOM     14  C   UNL d   1       4.948   4.311  -0.963  0.00  0.00     0.027 A 
ENDBRANCH   5   7
ENDBRANCH   2   5
BRANCH   1  15
ATOM     15  C   UNL d   1      -0.721   2.775   0.368  0.00  0.00     0.091 A 
ATOM     16  C   UNL d   1      -1.722   1.893   0.716  0.00  0.00     0.034 A 
ATOM     17  C   UNL d   1      -3.021   2.477   0.733  0.00  0.00     0.028 A 
ATOM     18 BR   UNL d   1      -1.531   0.063   1.165  0.00  0.00    -0.049 Br
ATOM     19  C   UNL d   1      -2.980   3.807   0.381  0.00  0.00     0.052 A 
ATOM     20  S   UNL d   1      -1.392   4.326   0.026  0.00  0.00    -0.095 SA
ENDBRANCH   1  15
TORSDOF 3
