REMARK  5 active torsions:
REMARK  status: ('A' for Active; 'I' for Inactive)
REMARK    1  A    between atoms: S_20  and  C_3 
REMARK    2  A    between atoms: S_14  and  C_8 
REMARK    3  A    between atoms: C_13  and  C_19 
REMARK    4  A    between atoms: C_15  and  C_13 
REMARK    5  A    between atoms: C_19  and  S_14 
ROOT
ATOM      1  C   UNL d   1      -0.871  -0.512  -0.024  0.00  0.00     0.022 A 
ATOM      2  C   UNL d   1       0.587  -0.370  -0.028  0.00  0.00     0.054 A 
ATOM      3  C   UNL d   1      -1.606  -1.690   0.010  0.00  0.00     0.053 A 
ATOM      4  N   UNL d   1       1.342  -1.481  -0.044  0.00  0.00    -0.336 N 
ATOM      5  HN  UNL d   1       0.914  -2.407  -0.067  1.00  0.00     0.168 HD
ATOM      6  C   UNL d   1      -1.731   0.646  -0.033  0.00  0.00    -0.037 A 
ATOM      7  S   UNL d   1      -3.299  -1.380   0.011  0.00  0.00    -0.093 SA
ATOM      8  C   UNL d   1       2.673  -1.337  -0.028  0.00  0.00     0.144 A 
ATOM      9  C   UNL d   1      -3.067   0.304  -0.023  0.00  0.00     0.059 A 
ATOM     10  C   UNL d   1       1.133   0.901  -0.020  0.00  0.00    -0.015 A 
ATOM     11  N   UNL d   1       3.305  -0.158  -0.002  0.00  0.00    -0.346 N 
ATOM     12  HN  UNL d   1       4.323  -0.091   0.020  1.00  0.00     0.167 HD
ATOM     13  C   UNL d   1       2.517   0.938  -0.005  0.00  0.00     0.099 A 
ATOM     14  C   UNL d   1      -1.209   2.046  -0.045  0.00  0.00     0.045 A 
ATOM     15  C   UNL d   1       0.325   2.169  -0.025  0.00  0.00     0.047 A 
ENDROOT
BRANCH   8  16
ATOM     16  S   UNL d   1       3.596  -2.854  -0.047  0.00  0.00    -0.086 SA
BRANCH  16  17
ATOM     17  C   UNL d   1       5.307  -2.254  -0.042  0.00  0.00     0.161 C 
BRANCH  17  18
ATOM     18  C   UNL d   1       6.256  -3.408  -0.350  0.00  0.00     0.144 C 
ATOM     19  O   UNL d   1       6.539  -3.655  -1.531  0.00  0.00    -0.296 OA
BRANCH  18  20
ATOM     20  C   UNL d   1       6.803  -4.313   0.785  0.00  0.00     0.010 C 
ATOM     21  C   UNL d   1       5.818  -5.456   1.063  0.00  0.00     0.022 C 
ATOM     22  C   UNL d   1       8.138  -4.930   0.314  0.00  0.00     0.022 C 
ATOM     23  C   UNL d   1       7.080  -3.542   2.081  0.00  0.00     0.022 C 
ENDBRANCH  18  20
ENDBRANCH  17  18
ENDBRANCH  16  17
ENDBRANCH   8  16
BRANCH   3  24
ATOM     24  S   UNL d   1      -1.072  -3.371   0.082  0.00  0.00    -0.126 SA
ATOM     25  C   UNL d   1      -0.957  -3.731  -1.685  0.00  0.00     0.096 C 
ENDBRANCH   3  24
TORSDOF 5
