REMARK  1 active torsions:
REMARK  status: ('A' for Active; 'I' for Inactive)
REMARK    1  A    between atoms: N_8  and  C_5 
ROOT
ATOM      1  C   UNL d   1      -1.183  -0.567   0.091  0.00  0.00     0.059 A 
ATOM      2  C   UNL d   1      -1.685   0.855   0.195  0.00  0.00     0.258 A 
ATOM      3  N   UNL d   1      -0.545   1.644   0.147  0.00  0.00    -0.322 N 
ATOM      4  C   UNL d   1       0.290  -0.488   0.057  0.00  0.00     0.008 A 
ATOM      5  C   UNL d   1      -1.903  -1.699   0.045  0.00  0.00     0.102 C 
ATOM      6  C   UNL d   1       0.606   0.874   0.071  0.00  0.00     0.046 A 
ATOM      7  O   UNL d   1      -2.815   1.275   0.332  0.00  0.00    -0.267 OA
ATOM      8  C   UNL d   1       1.304  -1.430  -0.004  0.00  0.00     0.015 A 
ATOM      9  C   UNL d   1       1.902   1.347   0.019  0.00  0.00     0.030 A 
ATOM     10  C   UNL d   1       2.630  -0.974  -0.053  0.00  0.00     0.001 A 
ATOM     11  C   UNL d   1       2.926   0.401  -0.045  0.00  0.00     0.002 A 
ATOM     12  H   UNL d   1      -0.586   2.648   0.211  0.00  0.00     0.169 HD
ENDROOT
BRANCH   5  13
ATOM     13  N   UNL d   1      -3.266  -1.960  -0.051  0.00  0.00    -0.398 N 
ATOM     14  C   UNL d   1      -4.236  -1.004  -0.586  0.00  0.00     0.148 C 
ATOM     15  C   UNL d   1      -3.865  -3.175   0.496  0.00  0.00     0.148 C 
ENDBRANCH   5  13
TORSDOF 1
