REMARK  2 active torsions:
REMARK  status: ('A' for Active; 'I' for Inactive)
REMARK    1  A    between atoms: N_3  and  N_1 
REMARK    2  A    between atoms: C_5  and  C_4 
ROOT
ATOM      1  N   UNL d   1       0.688  -0.048   0.078  0.00  0.00    -0.313 N 
ATOM      2  HN  UNL d   1       0.513   0.739   0.703  1.00  0.00     0.185 HD
ATOM      3  C   UNL d   1       1.195   0.061  -1.114  0.00  0.00     0.118 C 
ENDROOT
BRANCH   1   4
ATOM      4  N   UNL d   1       0.420  -1.347   0.386  0.00  0.00    -0.328 N 
ATOM      5  C   UNL d   1       0.628  -1.755   1.785  0.00  0.00     0.142 C 
ATOM      6  C   UNL d   1      -0.597  -1.590   2.686  0.00  0.00     0.021 C 
ATOM      7  C   UNL d   1      -1.817  -2.277   2.084  0.00  0.00     0.003 C 
ATOM      8  C   UNL d   1      -2.047  -1.756   0.672  0.00  0.00     0.021 C 
ATOM      9  C   UNL d   1      -0.797  -1.955  -0.184  0.00  0.00     0.142 C 
ENDBRANCH   1   4
BRANCH   3  10
ATOM     10  C   UNL d   1       1.604   1.344  -1.719  0.00  0.00    -0.019 A 
ATOM     11  C   UNL d   1       1.631   2.529  -0.981  0.00  0.00     0.014 A 
ATOM     12  C   UNL d   1       2.047   3.716  -1.595  0.00  0.00     0.024 A 
ATOM     13  C   UNL d   1       2.424   3.708  -2.938  0.00  0.00     0.034 A 
ATOM     14  C   UNL d   1       2.397   2.527  -3.679  0.00  0.00     0.024 A 
ATOM     15 CL   UNL d   1       2.933   5.170  -3.692  0.00  0.00    -0.084 Cl
ATOM     16  C   UNL d   1       1.988   1.341  -3.066  0.00  0.00     0.014 A 
ENDBRANCH   3  10
TORSDOF 2
