REMARK  2 active torsions:
REMARK  status: ('A' for Active; 'I' for Inactive)
REMARK    1  A    between atoms: C_4  and  C_1 
REMARK       I    between atoms: N_7  and  C_4 
REMARK    2  A    between atoms: C_9  and  N_7 
ROOT
ATOM      1  C   UNL d   1      -2.489  -1.421  -0.146  0.00  0.00     0.274 C 
ATOM      2  N   UNL d   1      -3.707  -0.801   0.064  0.00  0.00    -0.322 N 
ATOM      3  O   UNL d   1      -1.435  -0.855  -0.419  0.00  0.00    -0.266 OA
ATOM      4  H   UNL d   1      -4.456  -1.414   0.371  0.00  0.00     0.169 HD
ENDROOT
BRANCH   1   5
ATOM      5  C   UNL d   1      -2.514  -2.877   0.024  0.00  0.00     0.125 A 
ATOM      6  N   UNL d   1      -3.642  -3.568   0.266  0.00  0.00    -0.256 N 
ATOM      7  O   UNL d   1      -3.255  -4.901   0.342  0.00  0.00    -0.242 OA
ATOM      8  HN  UNL d   1      -4.584  -3.193   0.372  1.00  0.00     0.195 HD
ATOM      9  C   UNL d   1      -1.910  -4.995   0.158  0.00  0.00     0.075 A 
ATOM     10  C   UNL d   1      -1.394  -3.743  -0.039  0.00  0.00     0.071 A 
ATOM     11  C   UNL d   1      -1.317  -6.343   0.207  0.00  0.00     0.079 C 
ENDBRANCH   1   5
BRANCH   2  12
ATOM     12  C   UNL d   1      -3.971   0.584  -0.013  0.00  0.00     0.036 A 
ATOM     13  C   UNL d   1      -3.066   1.514  -0.533  0.00  0.00     0.053 A 
ATOM     14  C   UNL d   1      -3.379   2.873  -0.543  0.00  0.00     0.036 A 
ATOM     15 CL   UNL d   1      -2.249   4.004  -1.185  0.00  0.00    -0.084 Cl
ATOM     16  C   UNL d   1      -4.594   3.325  -0.040  0.00  0.00     0.024 A 
ATOM     17  C   UNL d   1      -5.513   2.405   0.462  0.00  0.00     0.004 A 
ATOM     18  C   UNL d   1      -5.207   1.039   0.466  0.00  0.00     0.029 A 
ENDBRANCH   2  12
TORSDOF 2
