REMARK  2 active torsions:
REMARK  status: ('A' for Active; 'I' for Inactive)
REMARK    1  A    between atoms: C_8  and  N_1 
REMARK    2  A    between atoms: C_9  and  C_4 
ROOT
ATOM      1  N   UNL d   1      -0.282  -1.140   0.081  0.00  0.00    -0.243 N 
ATOM      2  N   UNL d   1       0.975  -0.638   0.111  0.00  0.00    -0.235 N 
ATOM      3  HN  UNL d   1       1.828  -1.193   0.177  1.00  0.00     0.209 HD
ATOM      4  C   UNL d   1      -0.378   1.057  -0.035  0.00  0.00     0.119 A 
ATOM      5  C   UNL d   1      -1.185  -0.078  -0.031  0.00  0.00     0.064 A 
ATOM      6  N   UNL d   1       0.928   0.676   0.042  0.00  0.00    -0.280 N 
ATOM      7  HN  UNL d   1       1.733   1.303   0.045  1.00  0.00     0.188 HD
ATOM      8  C   UNL d   1      -2.666  -0.190  -0.025  0.00  0.00     0.073 C 
ENDROOT
BRANCH   1   9
ATOM      9  C   UNL d   1      -0.479  -2.554   0.076  0.00  0.00     0.081 A 
ATOM     10  C   UNL d   1      -1.579  -3.104  -0.606  0.00  0.00     0.057 A 
ATOM     11  C   UNL d   1      -1.749  -4.490  -0.690  0.00  0.00     0.036 A 
ATOM     12 CL   UNL d   1      -3.094  -5.133  -1.549  0.00  0.00    -0.084 Cl
ATOM     13  C   UNL d   1      -0.834  -5.353  -0.104  0.00  0.00     0.026 A 
ATOM     14  C   UNL d   1       0.257  -4.826   0.584  0.00  0.00     0.028 A 
ATOM     15  C   UNL d   1       0.440  -3.437   0.684  0.00  0.00     0.062 A 
ATOM     16 CL   UNL d   1       1.768  -2.954   1.688  0.00  0.00    -0.082 Cl
ENDBRANCH   1   9
BRANCH   4  17
ATOM     17  C   UNL d   1      -0.762   2.465  -0.085  0.00  0.00     0.175 C 
ATOM     18  O   UNL d   1      -1.936   2.823  -0.168  0.00  0.00    -0.291 OA
ATOM     19  C   UNL d   1       0.329   3.510  -0.012  0.00  0.00     0.098 C 
ENDBRANCH   4  17
TORSDOF 2
