REMARK  5 active torsions:
REMARK  status: ('A' for Active; 'I' for Inactive)
REMARK    1  A    between atoms: N_2  and  S_1 
REMARK    2  A    between atoms: C_9  and  S_1 
REMARK       I    between atoms: C_3  and  N_11 
REMARK       I    between atoms: N_4  and  C_3 
REMARK    3  A    between atoms: C_5  and  N_4 
REMARK    4  A    between atoms: N_11  and  C_18 
REMARK    5  A    between atoms: C_18  and  C_23 
ROOT
ATOM      1  N   UNL d   1       0.623  -0.707  -1.331  0.00  0.00    -0.307 N 
ATOM      2  C   UNL d   1       0.794  -2.179  -1.389  0.00  0.00     0.136 C 
ATOM      3  C   UNL d   1       1.175   0.037  -2.486  0.00  0.00     0.136 C 
ATOM      4  C   UNL d   1       0.600  -0.521  -3.785  0.00  0.00     0.027 C 
ATOM      5  C   UNL d   1       0.263  -2.740  -2.707  0.00  0.00     0.027 C 
ATOM      6  C   UNL d   1       0.853  -2.028  -3.934  0.00  0.00     0.006 C 
ENDROOT
BRANCH   6   7
ATOM      7  C   UNL d   1       2.340  -2.394  -4.125  0.00  0.00     0.129 C 
BRANCH   7   8
ATOM      8  N   UNL d   1       2.996  -1.647  -5.179  0.00  0.00    -0.342 N 
ATOM      9  C   UNL d   1       2.985  -1.797  -6.532  0.00  0.00     0.320 C 
ATOM     10  N   UNL d   1       2.177  -2.785  -7.021  0.00  0.00    -0.306 N 
ATOM     11  O   UNL d   1       3.653  -1.003  -7.186  0.00  0.00    -0.247 OA
ATOM     12  H   UNL d   1       1.454  -3.096  -6.396  0.00  0.00     0.171 HD
ATOM     13  H   UNL d   1       3.623  -0.897  -4.910  0.00  0.00     0.164 HD
BRANCH  10  14
ATOM     14  C   UNL d   1       1.971  -3.049  -8.396  0.00  0.00     0.075 A 
ATOM     15  C   UNL d   1       2.927  -2.825  -9.399  0.00  0.00     0.146 A 
ATOM     16  C   UNL d   1       2.614  -3.003 -10.744  0.00  0.00     0.086 A 
ATOM     17  F   UNL d   1       4.195  -2.512  -9.099  0.00  0.00    -0.204 F 
ATOM     18  C   UNL d   1       1.344  -3.435 -11.091  0.00  0.00     0.119 A 
ATOM     19  C   UNL d   1       0.398  -3.731 -10.115  0.00  0.00     0.044 A 
ATOM     20  F   UNL d   1       1.026  -3.585 -12.383  0.00  0.00    -0.206 F 
ATOM     21  C   UNL d   1       0.715  -3.552  -8.766  0.00  0.00     0.036 A 
ENDBRANCH  10  14
ENDBRANCH   7   8
ENDBRANCH   6   7
BRANCH   1  22
ATOM     22  S   UNL d   1       0.867   0.002   0.210  0.00  0.00     0.260 S 
ATOM     23  O   UNL d   1      -0.018  -0.669   1.141  0.00  0.00    -0.200 OA
ATOM     24  O   UNL d   1       0.850   1.441   0.067  0.00  0.00    -0.200 OA
BRANCH  22  25
ATOM     25  C   UNL d   1       2.533  -0.479   0.632  0.00  0.00     0.079 A 
ATOM     26  C   UNL d   1       3.620   0.272   0.176  0.00  0.00     0.025 A 
ATOM     27  C   UNL d   1       4.913  -0.112   0.531  0.00  0.00     0.002 A 
ATOM     28  C   UNL d   1       5.117  -1.227   1.349  0.00  0.00     0.000 A 
ATOM     29  C   UNL d   1       4.029  -1.961   1.821  0.00  0.00     0.002 A 
ATOM     30  C   UNL d   1       2.733  -1.584   1.468  0.00  0.00     0.025 A 
ENDBRANCH  22  25
ENDBRANCH   1  22
TORSDOF 5
