REMARK  3 active torsions:
REMARK  status: ('A' for Active; 'I' for Inactive)
REMARK    1  A    between atoms: C_2  and  C_1 
REMARK    2  A    between atoms: C_6  and  C_2 
REMARK    3  A    between atoms: C_11  and  C_5 
ROOT
ATOM      1  C   UNL d   1       0.617   0.940  -0.044  0.00  0.00     0.081 C 
ATOM      2  N   UNL d   1       1.154  -0.245  -0.067  0.00  0.00    -0.321 N 
ATOM      3  HN  UNL d   1       2.138  -0.471  -0.209  1.00  0.00     0.180 HD
ATOM      4  C   UNL d   1      -0.874   1.000   0.080  0.00  0.00     0.088 C 
ATOM      5  N   UNL d   1       0.138  -1.114   0.134  0.00  0.00    -0.239 NA
ATOM      6  C   UNL d   1      -1.169  -0.495  -0.100  0.00  0.00     0.126 C 
ATOM      7  H   UNL d   1       0.263  -1.998  -0.364  0.00  0.00     0.146 HD
ENDROOT
BRANCH   1   8
ATOM      8  C   UNL d   1       1.417   2.201  -0.193  0.00  0.00     0.206 C 
ATOM      9  O   UNL d   1       0.935   3.109  -0.859  0.00  0.00    -0.285 OA
BRANCH   8  10
ATOM     10  C   UNL d   1       2.763   2.310   0.425  0.00  0.00     0.017 A 
ATOM     11  C   UNL d   1       3.141   1.509   1.509  0.00  0.00     0.028 A 
ATOM     12  C   UNL d   1       4.430   1.606   2.057  0.00  0.00    -0.025 A 
ATOM     13  C   UNL d   1       4.824   0.795   3.133  0.00  0.00     0.012 A 
ATOM     14  C   UNL d   1       5.350   2.532   1.513  0.00  0.00    -0.026 A 
ATOM     15  C   UNL d   1       6.109   0.896   3.668  0.00  0.00     0.001 A 
ATOM     16  C   UNL d   1       7.015   1.808   3.134  0.00  0.00     0.001 A 
ATOM     17  C   UNL d   1       6.639   2.620   2.063  0.00  0.00     0.012 A 
ATOM     18  C   UNL d   1       4.954   3.341   0.436  0.00  0.00     0.013 A 
ATOM     19  C   UNL d   1       3.668   3.236  -0.101  0.00  0.00     0.016 A 
ENDBRANCH   8  10
ENDBRANCH   1   8
BRANCH   4  20
ATOM     20  C   UNL d   1      -1.352   1.582   1.391  0.00  0.00    -0.047 A 
ATOM     21  C   UNL d   1      -2.141   2.742   1.387  0.00  0.00     0.008 A 
ATOM     22  C   UNL d   1      -2.632   3.272   2.580  0.00  0.00     0.001 A 
ATOM     23  C   UNL d   1      -2.332   2.658   3.794  0.00  0.00     0.000 A 
ATOM     24  C   UNL d   1      -1.532   1.518   3.816  0.00  0.00     0.001 A 
ATOM     25  C   UNL d   1      -1.042   0.986   2.623  0.00  0.00     0.008 A 
ENDBRANCH   4  20
TORSDOF 3
