REMARK  4 active torsions:
REMARK  status: ('A' for Active; 'I' for Inactive)
REMARK    1  A    between atoms: C_8  and  C_2 
REMARK    2  A    between atoms: S_9  and  C_3 
REMARK    3  A    between atoms: C_16  and  S_9 
REMARK    4  A    between atoms: C_17  and  C_16 
ROOT
ATOM      1  C   UNL d   1      -0.745  -0.004  -0.041  0.00  0.00     0.079 A 
ATOM      2  C   UNL d   1      -0.084  -1.292   0.002  0.00  0.00     0.003 A 
ATOM      3  C   UNL d   1       0.142   1.059  -0.003  0.00  0.00     0.062 A 
ATOM      4  C   UNL d   1       1.290  -1.123   0.038  0.00  0.00     0.065 A 
ATOM      5  S   UNL d   1       1.765   0.516   0.041  0.00  0.00    -0.092 SA
ATOM      6  C   UNL d   1      -2.163   0.181  -0.124  0.00  0.00     0.102 C 
ATOM      7  N   UNL d   1      -3.317   0.319  -0.138  0.00  0.00    -0.191 NA
ENDROOT
BRANCH   2   8
ATOM      8  C   UNL d   1      -0.680  -2.638   0.015  0.00  0.00    -0.024 A 
ATOM      9  C   UNL d   1      -0.071  -3.711  -0.659  0.00  0.00     0.014 A 
ATOM     10  C   UNL d   1      -0.628  -4.996  -0.619  0.00  0.00     0.024 A 
ATOM     11  C   UNL d   1      -1.811  -5.218   0.080  0.00  0.00     0.034 A 
ATOM     12  C   UNL d   1      -2.438  -4.168   0.741  0.00  0.00     0.024 A 
ATOM     13 CL   UNL d   1      -2.493  -6.795   0.136  0.00  0.00    -0.084 Cl
ATOM     14  C   UNL d   1      -1.869  -2.889   0.719  0.00  0.00     0.014 A 
ENDBRANCH   2   8
BRANCH   3  15
ATOM     15  S   UNL d   1      -0.201   2.790  -0.080  0.00  0.00    -0.121 SA
BRANCH  15  16
ATOM     16  C   UNL d   1      -1.088   3.074   1.486  0.00  0.00     0.080 C 
BRANCH  16  17
ATOM     17  C   UNL d   1      -1.408   4.562   1.637  0.00  0.00     0.006 C 
ATOM     18  C   UNL d   1      -2.197   4.834   2.911  0.00  0.00     0.006 C 
ENDBRANCH  16  17
ENDBRANCH  15  16
ENDBRANCH   3  15
TORSDOF 4
