REMARK  4 active torsions:
REMARK  status: ('A' for Active; 'I' for Inactive)
REMARK    1  A    between atoms: N_3  and  C_1 
REMARK    2  A    between atoms: C_7  and  N_3 
REMARK    3  A    between atoms: N_8  and  C_7 
REMARK       I    between atoms: C_9  and  N_8 
REMARK    4  A    between atoms: C_13  and  C_9 
ROOT
ATOM      1  C   UNL d   1       0.913  -3.517   0.259  0.00  0.00     0.180 C 
ATOM      2  S   UNL d   1       2.194  -4.579   0.468  0.00  0.00    -0.040 SA
ENDROOT
BRANCH   1   3
ATOM      3  N   UNL d   1       1.219  -2.188   0.361  0.00  0.00    -0.318 N 
ATOM      4  H   UNL d   1       2.189  -2.042   0.630  0.00  0.00     0.170 HD
BRANCH   3   5
ATOM      5  C   UNL d   1       0.605  -1.134  -0.311  0.00  0.00     0.125 A 
ATOM      6  N   UNL d   1       1.128   0.144  -0.315  0.00  0.00    -0.281 N 
ATOM      7  N   UNL d   1       0.498   0.980  -1.161  0.00  0.00    -0.302 N 
ATOM      8  C   UNL d   1       2.227   0.680   0.453  0.00  0.00     0.179 C 
ATOM      9  C   UNL d   1      -0.472   0.236  -1.697  0.00  0.00     0.025 A 
ATOM     10  HN  UNL d   1       0.713   1.959  -1.350  1.00  0.00     0.186 HD
ATOM     11  C   UNL d   1      -0.493  -1.066  -1.143  0.00  0.00     0.076 A 
ATOM     12  C   UNL d   1      -1.334   0.800  -2.764  0.00  0.00     0.070 C 
ENDBRANCH   3   5
ENDBRANCH   1   3
BRANCH   1  13
ATOM     13  N   UNL d   1      -0.408  -3.853   0.059  0.00  0.00    -0.299 N 
ATOM     14  C   UNL d   1      -0.885  -5.064  -0.419  0.00  0.00     0.257 C 
ATOM     15  O   UNL d   1      -0.232  -5.839  -1.118  0.00  0.00    -0.267 OA
ATOM     16  H   UNL d   1      -1.043  -3.263   0.578  0.00  0.00     0.171 HD
BRANCH  14  17
ATOM     17  C   UNL d   1      -2.315  -5.405  -0.186  0.00  0.00     0.032 A 
ATOM     18  C   UNL d   1      -3.323  -4.443  -0.064  0.00  0.00     0.017 A 
ATOM     19  C   UNL d   1      -4.657  -4.847   0.055  0.00  0.00     0.001 A 
ATOM     20  C   UNL d   1      -4.990  -6.202   0.054  0.00  0.00     0.000 A 
ATOM     21  C   UNL d   1      -3.990  -7.165  -0.065  0.00  0.00     0.001 A 
ATOM     22  C   UNL d   1      -2.659  -6.767  -0.186  0.00  0.00     0.017 A 
ENDBRANCH  14  17
ENDBRANCH   1  13
TORSDOF 4
