REMARK  1 active torsions:
REMARK  status: ('A' for Active; 'I' for Inactive)
REMARK    1  A    between atoms: N_4  and  N_1 
ROOT
ATOM      1  N   UNL d   1       1.937   0.020  -0.045  0.00  0.00    -0.175 N 
ATOM      2  C   UNL d   1       1.244  -0.408   1.054  0.00  0.00     0.281 A 
ATOM      3  C   UNL d   1       1.133   0.525  -1.028  0.00  0.00     0.281 A 
ATOM      4  C   UNL d   1      -0.164  -0.132   0.759  0.00  0.00     0.050 A 
ATOM      5  C   UNL d   1      -0.234   0.392  -0.520  0.00  0.00     0.050 A 
ATOM      6  O   UNL d   1       1.620  -0.908   2.095  0.00  0.00    -0.265 OA
ATOM      7  O   UNL d   1       1.394   1.000  -2.115  0.00  0.00    -0.265 OA
ATOM      8  C   UNL d   1      -1.291  -0.311   1.538  0.00  0.00     0.018 A 
ATOM      9  C   UNL d   1      -1.441   0.711  -1.114  0.00  0.00     0.018 A 
ATOM     10  C   UNL d   1      -2.522   0.026   0.967  0.00  0.00     0.001 A 
ATOM     11  C   UNL d   1      -2.598   0.517  -0.353  0.00  0.00     0.001 A 
ENDROOT
BRANCH   1  12
ATOM     12  N   UNL d   1       3.283  -0.019  -0.137  0.00  0.00    -0.253 N 
ATOM     13  C   UNL d   1       4.146   0.653   0.699  0.00  0.00     0.031 A 
ATOM     14  C   UNL d   1       5.428   0.369   0.265  0.00  0.00     0.029 A 
ATOM     15  C   UNL d   1       3.733   1.478   1.867  0.00  0.00     0.070 C 
ATOM     16  C   UNL d   1       5.327  -0.486  -0.856  0.00  0.00     0.029 A 
ATOM     17  C   UNL d   1       3.984  -0.724  -1.089  0.00  0.00     0.031 A 
ATOM     18  C   UNL d   1       3.369  -1.531  -2.178  0.00  0.00     0.070 C 
ENDBRANCH   1  12
TORSDOF 1
