REMARK  8 active torsions:
REMARK  status: ('A' for Active; 'I' for Inactive)
REMARK    1  A    between atoms: O_9  and  C_3 
REMARK    2  A    between atoms: O_17  and  C_4 
REMARK    3  A    between atoms: S_10  and  C_5 
REMARK    4  A    between atoms: C_18  and  O_9 
REMARK    5  A    between atoms: C_13  and  S_10 
REMARK    6  A    between atoms: C_11  and  C_13 
REMARK    7  A    between atoms: C_12  and  C_11 
REMARK    8  A    between atoms: O_28  and  C_20 
ROOT
ATOM      1  N   UNL d   1      -0.576   1.276   0.397  0.00  0.00    -0.315 N 
ATOM      2  HN  UNL d   1      -1.000   2.194   0.534  1.00  0.00     0.170 HD
ATOM      3  C   UNL d   1      -0.806  -1.097   0.053  0.00  0.00     0.149 A 
ATOM      4  C   UNL d   1      -1.323   0.165   0.292  0.00  0.00     0.178 A 
ATOM      5  C   UNL d   1       0.747   1.123   0.315  0.00  0.00     0.146 A 
ATOM      6  N   UNL d   1       1.362  -0.058   0.146  0.00  0.00    -0.338 N 
ATOM      7  HN  UNL d   1       2.379  -0.126   0.113  1.00  0.00     0.168 HD
ATOM      8  C   UNL d   1       0.579  -1.154   0.023  0.00  0.00     0.045 A 
ATOM      9  C   UNL d   1       1.300  -2.465  -0.084  0.00  0.00     0.071 C 
ENDROOT
BRANCH   5  10
ATOM     10  S   UNL d   1       1.738   2.574   0.551  0.00  0.00    -0.086 SA
BRANCH  10  11
ATOM     11  C   UNL d   1       3.395   1.848   0.414  0.00  0.00     0.166 C 
BRANCH  11  12
ATOM     12  C   UNL d   1       4.443   2.893   0.734  0.00  0.00     0.169 C 
ATOM     13  O   UNL d   1       5.010   3.520  -0.165  0.00  0.00    -0.291 OA
BRANCH  12  14
ATOM     14  C   UNL d   1       4.805   3.178   2.161  0.00  0.00     0.011 A 
ATOM     15  C   UNL d   1       4.267   2.475   3.244  0.00  0.00     0.018 A 
ATOM     16  C   UNL d   1       4.637   2.808   4.551  0.00  0.00     0.037 A 
ATOM     17  C   UNL d   1       5.537   3.847   4.801  0.00  0.00     0.068 A 
ATOM     18  C   UNL d   1       6.096   4.534   3.725  0.00  0.00     0.037 A 
ATOM     19  C   UNL d   1       5.731   4.201   2.414  0.00  0.00     0.018 A 
BRANCH  17  20
ATOM     20  O   UNL d   1       5.783   4.088   6.123  0.00  0.00    -0.356 OA
ATOM     21  C   UNL d   1       6.533   5.256   6.433  0.00  0.00     0.210 C 
ENDBRANCH  17  20
ENDBRANCH  12  14
ENDBRANCH  11  12
ENDBRANCH  10  11
ENDBRANCH   5  10
BRANCH   4  22
ATOM     22  O   UNL d   1      -2.647   0.408   0.509  0.00  0.00    -0.344 OA
ATOM     23  H   UNL d   1      -3.082  -0.431   0.720  0.00  0.00     0.219 HD
ENDBRANCH   4  22
BRANCH   3  24
ATOM     24  O   UNL d   1      -1.485  -2.284  -0.030  0.00  0.00    -0.304 OA
BRANCH  24  25
ATOM     25  C   UNL d   1      -2.717  -2.372  -0.627  0.00  0.00     0.076 A 
ATOM     26  C   UNL d   1      -3.144  -1.596  -1.707  0.00  0.00     0.039 A 
ATOM     27  C   UNL d   1      -4.460  -1.716  -2.168  0.00  0.00     0.026 A 
ATOM     28  C   UNL d   1      -5.323  -2.641  -1.582  0.00  0.00     0.034 A 
ATOM     29  C   UNL d   1      -4.876  -3.469  -0.555  0.00  0.00     0.026 A 
ATOM     30 CL   UNL d   1      -6.952  -2.757  -2.122  0.00  0.00    -0.084 Cl
ATOM     31  C   UNL d   1      -3.570  -3.337  -0.083  0.00  0.00     0.039 A 
ENDBRANCH  24  25
ENDBRANCH   3  24
TORSDOF 8
