REMARK  3 active torsions:
REMARK  status: ('A' for Active; 'I' for Inactive)
REMARK    1  A    between atoms: C_2  and  C_1 
REMARK       I    between atoms: N_3  and  C_2 
REMARK       I    between atoms: C_5  and  N_6 
REMARK    2  A    between atoms: C_13  and  C_5 
REMARK    3  A    between atoms: N_6  and  C_14 
ROOT
ATOM      1  C   UNL d   1      -2.412  -2.320  -0.074  0.00  0.00     0.255 C 
ATOM      2  N   UNL d   1      -2.490  -3.716   0.042  0.00  0.00    -0.348 N 
ATOM      3  O   UNL d   1      -2.841  -1.723  -1.059  0.00  0.00    -0.267 OA
ATOM      4  C   UNL d   1      -1.966  -4.553   1.127  0.00  0.00     0.128 C 
ATOM      5  C   UNL d   1      -3.159  -4.452  -1.031  0.00  0.00     0.128 C 
ATOM      6  C   UNL d   1      -3.760  -6.266   0.632  0.00  0.00     0.087 C 
ATOM      7  C   UNL d   1      -4.276  -5.328  -0.463  0.00  0.00     0.045 C 
ATOM      8  C   UNL d   1      -3.033  -5.466   1.712  0.00  0.00     0.045 C 
ENDROOT
BRANCH   1   9
ATOM      9  C   UNL d   1      -1.790  -1.502   1.003  0.00  0.00     0.053 A 
ATOM     10  C   UNL d   1      -2.404  -0.335   1.490  0.00  0.00     0.051 A 
ATOM     11  C   UNL d   1      -1.788   0.413   2.503  0.00  0.00     0.048 A 
ATOM     12 CL   UNL d   1      -3.937   0.243   0.934  0.00  0.00    -0.083 Cl
ATOM     13  C   UNL d   1      -0.580  -0.014   3.048  0.00  0.00     0.035 A 
ATOM     14  C   UNL d   1       0.046  -1.156   2.562  0.00  0.00     0.025 A 
ATOM     15 CL   UNL d   1       0.153   0.880   4.321  0.00  0.00    -0.084 Cl
ATOM     16  C   UNL d   1      -0.531  -1.863   1.506  0.00  0.00     0.020 A 
ENDBRANCH   1   9
BRANCH   6  17
ATOM     17  N   UNL d   1      -2.911  -7.305   0.056  0.00  0.00    -0.356 N 
ATOM     18  C   UNL d   1      -2.640  -8.505   0.683  0.00  0.00     0.222 C 
ATOM     19  O   UNL d   1      -3.142  -8.817   1.761  0.00  0.00    -0.273 OA
ATOM     20  H   UNL d   1      -2.410  -7.098  -0.796  0.00  0.00     0.162 HD
BRANCH  18  21
ATOM     21  C   UNL d   1      -1.687  -9.397  -0.112  0.00  0.00     0.078 C 
ATOM     22  C   UNL d   1      -1.516 -10.792   0.510  0.00  0.00     0.014 C 
ATOM     23  C   UNL d   1      -0.597 -10.816   1.733  0.00  0.00     0.001 C 
ATOM     24  C   UNL d   1       0.725 -10.098   1.487  0.00  0.00     0.000 C 
ATOM     25  C   UNL d   1       0.505  -8.689   0.954  0.00  0.00     0.001 C 
ATOM     26  C   UNL d   1      -0.323  -8.722  -0.328  0.00  0.00     0.014 C 
ENDBRANCH  18  21
ENDBRANCH   6  17
TORSDOF 3
