REMARK  2 active torsions:
REMARK  status: ('A' for Active; 'I' for Inactive)
REMARK    1  A    between atoms: N_6  and  C_1 
REMARK    2  A    between atoms: O_16  and  C_10 
ROOT
ATOM      1  C   UNL d   1      -2.181  -0.697   0.105  0.00  0.00     0.377 C 
ATOM      2  C   UNL d   1      -1.024  -1.704  -0.310  0.00  0.00     0.037 C 
ATOM      3  O   UNL d   1      -1.570   0.604   0.365  0.00  0.00    -0.314 OA
ATOM      4  C   UNL d   1       0.115  -0.742  -0.461  0.00  0.00    -0.010 A 
ATOM      5  C   UNL d   1      -0.260   0.512  -0.021  0.00  0.00     0.079 A 
ATOM      6  C   UNL d   1       1.455  -1.018  -0.741  0.00  0.00     0.047 A 
ATOM      7  C   UNL d   1       0.648   1.539   0.127  0.00  0.00     0.040 A 
ATOM      8  C   UNL d   1       2.385  -0.011  -0.527  0.00  0.00     0.066 A 
ATOM      9  C   UNL d   1      -1.377  -2.382  -1.644  0.00  0.00     0.025 C 
ATOM     10  C   UNL d   1      -0.555  -2.739   0.741  0.00  0.00     0.025 C 
ATOM     11  C   UNL d   1       1.998   1.272  -0.125  0.00  0.00     0.039 A 
ENDROOT
BRANCH   1  12
ATOM     12  N   UNL d   1      -3.063  -1.084   1.228  0.00  0.00     0.122 N 
ATOM     13  C   UNL d   1      -4.056  -0.028   1.557  0.00  0.00     0.302 C 
ATOM     14  C   UNL d   1      -5.324  -0.010   0.676  0.00  0.00     0.198 C 
ATOM     15  O   UNL d   1      -5.938  -1.299   0.570  0.00  0.00    -0.388 OA
ATOM     16  C   UNL d   1      -5.000  -2.266   0.104  0.00  0.00     0.198 C 
ATOM     17  C   UNL d   1      -3.802  -2.349   1.052  0.00  0.00     0.302 C 
ENDBRANCH   1  12
BRANCH   8  18
ATOM     18  O   UNL d   1       3.726  -0.265  -0.632  0.00  0.00    -0.361 OA
ATOM     19  H   UNL d   1       3.854  -1.222  -0.560  0.00  0.00     0.217 HD
ENDBRANCH   8  18
TORSDOF 2
