REMARK  5 active torsions:
REMARK  status: ('A' for Active; 'I' for Inactive)
REMARK    1  A    between atoms: C_2  and  C_1 
REMARK       I    between atoms: N_4  and  C_2 
REMARK       I    between atoms: C_3  and  N_5 
REMARK    2  A    between atoms: C_6  and  C_3 
REMARK    3  A    between atoms: N_5  and  N_4 
REMARK    4  A    between atoms: N_11  and  C_7 
REMARK    5  A    between atoms: O_14  and  C_12 
ROOT
ATOM      1  C   UNL d   1       0.836   2.588  -0.117  0.00  0.00     0.271 C 
ATOM      2  N   UNL d   1       0.181   3.753   0.232  0.00  0.00    -0.263 N 
ATOM      3  O   UNL d   1       0.328   1.752  -0.867  0.00  0.00    -0.266 OA
ATOM      4  H   UNL d   1       0.633   4.545   0.687  0.00  0.00     0.190 HD
ENDROOT
BRANCH   2   5
ATOM      5  N   UNL d   1      -1.087   3.991  -0.319  0.00  0.00    -0.263 N 
ATOM      6  C   UNL d   1      -1.746   5.151   0.037  0.00  0.00     0.270 C 
ATOM      7  O   UNL d   1      -1.243   6.000   0.771  0.00  0.00    -0.266 OA
ATOM      8  H   UNL d   1      -1.538   3.193  -0.762  0.00  0.00     0.190 HD
BRANCH   6   9
ATOM      9  C   UNL d   1      -3.128   5.328  -0.487  0.00  0.00     0.036 A 
ATOM     10  C   UNL d   1      -4.035   6.073   0.286  0.00  0.00     0.053 A 
ATOM     11  C   UNL d   1      -5.330   6.305  -0.176  0.00  0.00     0.069 A 
ATOM     12  C   UNL d   1      -5.714   5.800  -1.421  0.00  0.00     0.037 A 
ATOM     13  C   UNL d   1      -4.814   5.065  -2.199  0.00  0.00     0.004 A 
ATOM     14  C   UNL d   1      -3.520   4.826  -1.733  0.00  0.00     0.017 A 
BRANCH  11  15
ATOM     15  O   UNL d   1      -6.307   7.003   0.481  0.00  0.00    -0.356 OA
ATOM     16  C   UNL d   1      -5.974   7.523   1.763  0.00  0.00     0.210 C 
ENDBRANCH  11  15
ENDBRANCH   6   9
ENDBRANCH   2   5
BRANCH   1  17
ATOM     17  C   UNL d   1       2.202   2.372   0.451  0.00  0.00     0.054 A 
ATOM     18  C   UNL d   1       3.149   1.610  -0.269  0.00  0.00     0.021 A 
ATOM     19  C   UNL d   1       4.409   1.387   0.305  0.00  0.00     0.024 A 
ATOM     20  C   UNL d   1       4.699   1.826   1.597  0.00  0.00     0.002 A 
ATOM     21  C   UNL d   1       3.749   2.545   2.317  0.00  0.00     0.001 A 
ATOM     22  C   UNL d   1       2.505   2.825   1.746  0.00  0.00     0.019 A 
BRANCH  18  23
ATOM     23  N   UNL d   1       2.966   1.270  -1.626  0.00  0.00    -0.302 NA
ATOM     24  H   UNL d   1       1.970   1.180  -1.855  0.00  0.00     0.124 HD
ATOM     25  H   UNL d   1       3.491   0.453  -1.918  0.00  0.00     0.124 HD
ENDBRANCH  18  23
ENDBRANCH   1  17
TORSDOF 5
