REMARK  9 active torsions:
REMARK  status: ('A' for Active; 'I' for Inactive)
REMARK    1  A    between atoms: C_9  and  C_1 
REMARK    2  A    between atoms: C_3  and  C_2 
REMARK    3  A    between atoms: C_6  and  C_10 
REMARK    4  A    between atoms: C_7  and  C_11 
REMARK    5  A    between atoms: S_17  and  C_8 
REMARK    6  A    between atoms: O_20  and  C_9 
REMARK    7  A    between atoms: C_16  and  S_17 
REMARK    8  A    between atoms: C_31  and  O_20 
REMARK    9  A    between atoms: C_32  and  C_31 
ROOT
ATOM      1  C   UNL d   1      -0.001  -1.391  -0.038  0.00  0.00     0.086 A 
ATOM      2  C   UNL d   1       1.236  -0.773  -0.032  0.00  0.00     0.136 A 
ATOM      3  N   UNL d   1       1.342   0.596  -0.002  0.00  0.00    -0.332 N 
ATOM      4  HN  UNL d   1       2.256   1.048   0.030  1.00  0.00     0.168 HD
ATOM      5  C   UNL d   1       0.214   1.326  -0.017  0.00  0.00     0.149 A 
ATOM      6  N   UNL d   1      -1.016   0.801  -0.051  0.00  0.00    -0.345 N 
ATOM      7  HN  UNL d   1      -1.850   1.389  -0.062  1.00  0.00     0.167 HD
ATOM      8  C   UNL d   1      -1.097  -0.547  -0.069  0.00  0.00     0.110 A 
ENDROOT
BRANCH   5   9
ATOM      9  S   UNL d   1       0.367   3.088   0.083  0.00  0.00    -0.054 SA
BRANCH   9  10
ATOM     10  C   UNL d   1       0.469   3.557  -1.635  0.00  0.00     0.010 A 
ATOM     11  C   UNL d   1      -0.474   4.454  -2.152  0.00  0.00     0.035 A 
ATOM     12  C   UNL d   1      -0.385   4.918  -3.476  0.00  0.00     0.050 A 
ATOM     13  C   UNL d   1       0.670   4.466  -4.285  0.00  0.00     0.032 A 
ATOM     14  C   UNL d   1       1.629   3.572  -3.783  0.00  0.00     0.050 A 
ATOM     15  C   UNL d   1       1.520   3.128  -2.452  0.00  0.00     0.035 A 
BRANCH  12  16
ATOM     16  C   UNL d   1      -1.401   5.908  -3.998  0.00  0.00     0.417 C 
ATOM     17  F   UNL d   1      -1.196   6.261  -5.297  0.00  0.00    -0.166 F 
ATOM     18  F   UNL d   1      -2.673   5.429  -3.938  0.00  0.00    -0.166 F 
ATOM     19  F   UNL d   1      -1.402   7.071  -3.290  0.00  0.00    -0.166 F 
ENDBRANCH  12  16
BRANCH  14  20
ATOM     20  C   UNL d   1       2.785   3.108  -4.638  0.00  0.00     0.417 C 
ATOM     21  F   UNL d   1       2.742   3.586  -5.913  0.00  0.00    -0.166 F 
ATOM     22  F   UNL d   1       3.990   3.492  -4.135  0.00  0.00    -0.166 F 
ATOM     23  F   UNL d   1       2.836   1.753  -4.750  0.00  0.00    -0.166 F 
ENDBRANCH  14  20
ENDBRANCH   9  10
ENDBRANCH   5   9
BRANCH   2  24
ATOM     24  C   UNL d   1       2.544  -1.537  -0.096  0.00  0.00     0.433 C 
ATOM     25  F   UNL d   1       2.441  -2.850  -0.443  0.00  0.00    -0.165 F 
ATOM     26  F   UNL d   1       3.398  -1.008  -1.023  0.00  0.00    -0.165 F 
ATOM     27  F   UNL d   1       3.222  -1.513   1.084  0.00  0.00    -0.165 F 
ENDBRANCH   2  24
BRANCH   1  28
ATOM     28  C   UNL d   1      -0.261  -2.828  -0.141  0.00  0.00     0.297 C 
ATOM     29  O   UNL d   1      -1.034  -3.277  -0.973  0.00  0.00    -0.259 OA
BRANCH  28  30
ATOM     30  O   UNL d   1       0.411  -3.511   0.809  0.00  0.00    -0.313 OA
BRANCH  30  31
ATOM     31  C   UNL d   1       0.326  -4.943   0.691  0.00  0.00     0.217 C 
BRANCH  31  32
ATOM     32  C   UNL d   1      -0.606  -5.509   1.730  0.00  0.00    -0.034 A 
ATOM     33  C   UNL d   1      -1.961  -5.711   1.438  0.00  0.00     0.009 A 
ATOM     34  C   UNL d   1      -2.822  -6.250   2.398  0.00  0.00     0.001 A 
ATOM     35  C   UNL d   1      -2.335  -6.582   3.662  0.00  0.00     0.000 A 
ATOM     36  C   UNL d   1      -0.991  -6.376   3.966  0.00  0.00     0.001 A 
ATOM     37  C   UNL d   1      -0.131  -5.838   3.007  0.00  0.00     0.009 A 
ENDBRANCH  31  32
ENDBRANCH  30  31
ENDBRANCH  28  30
ENDBRANCH   1  28
TORSDOF 9
