REMARK  6 active torsions:
REMARK  status: ('A' for Active; 'I' for Inactive)
REMARK    1  A    between atoms: C_8  and  C_1 
REMARK    2  A    between atoms: S_10  and  C_5 
REMARK    3  A    between atoms: C_9  and  C_11 
REMARK    4  A    between atoms: O_20  and  C_9 
REMARK    5  A    between atoms: C_18  and  S_10 
REMARK    6  A    between atoms: C_19  and  C_18 
ROOT
ATOM      1  C   UNL d   1       0.872   1.530  -1.877  0.00  0.00     0.209 A 
ATOM      2  N   UNL d   1       1.256   0.393  -2.560  0.00  0.00    -0.312 N 
ATOM      3  N   UNL d   1       0.936   1.271  -0.580  0.00  0.00    -0.279 N 
ATOM      4  HN  UNL d   1       0.712   1.928   0.167  1.00  0.00     0.188 HD
ATOM      5  C   UNL d   1       1.541  -0.541  -1.592  0.00  0.00     0.162 A 
ATOM      6  N   UNL d   1       1.353  -0.021  -0.406  0.00  0.00    -0.278 N 
ATOM      7  HN  UNL d   1       1.491  -0.494   0.488  1.00  0.00     0.189 HD
ATOM      8  C   UNL d   1       1.351   0.169  -3.981  0.00  0.00     0.160 C 
ENDROOT
BRANCH   5   9
ATOM      9  S   UNL d   1       2.070  -2.159  -1.925  0.00  0.00    -0.088 SA
BRANCH   9  10
ATOM     10  C   UNL d   1       2.224  -2.819  -0.234  0.00  0.00     0.121 C 
BRANCH  10  11
ATOM     11  C   UNL d   1       2.720  -4.250  -0.221  0.00  0.00    -0.048 A 
ATOM     12  C   UNL d   1       1.810  -5.321  -0.231  0.00  0.00     0.025 A 
ATOM     13  C   UNL d   1       2.261  -6.651  -0.181  0.00  0.00     0.040 A 
ATOM     14  C   UNL d   1       3.637  -6.909  -0.141  0.00  0.00     0.017 A 
ATOM     15  C   UNL d   1       4.549  -5.854  -0.145  0.00  0.00     0.002 A 
ATOM     16  C   UNL d   1       4.093  -4.533  -0.185  0.00  0.00     0.008 A 
BRANCH  13  17
ATOM     17  C   UNL d   1       1.324  -7.810  -0.147  0.00  0.00     0.292 C 
ATOM     18  O   UNL d   1       1.682  -8.976  -0.135  0.00  0.00    -0.259 OA
BRANCH  17  19
ATOM     19  O   UNL d   1       0.041  -7.371  -0.106  0.00  0.00    -0.323 OA
ATOM     20  C   UNL d   1      -0.938  -8.406  -0.019  0.00  0.00     0.213 C 
ENDBRANCH  17  19
ENDBRANCH  13  17
ENDBRANCH  10  11
ENDBRANCH   9  10
ENDBRANCH   5   9
BRANCH   1  21
ATOM     21  C   UNL d   1       0.454   2.837  -2.462  0.00  0.00     0.450 C 
ATOM     22  F   UNL d   1       0.419   2.853  -3.820  0.00  0.00    -0.163 F 
ATOM     23  F   UNL d   1      -0.793   3.198  -2.057  0.00  0.00    -0.163 F 
ATOM     24  F   UNL d   1       1.291   3.845  -2.099  0.00  0.00    -0.163 F 
ENDBRANCH   1  21
TORSDOF 6
