REMARK  6 active torsions:
REMARK  status: ('A' for Active; 'I' for Inactive)
REMARK    1  A    between atoms: C_7  and  C_1 
REMARK    2  A    between atoms: C_10  and  N_2 
REMARK    3  A    between atoms: C_11  and  C_6 
REMARK       I    between atoms: N_9  and  C_7 
REMARK       I    between atoms: C_8  and  N_12 
REMARK       I    between atoms: N_13  and  C_8 
REMARK    4  A    between atoms: N_12  and  N_9 
REMARK    5  A    between atoms: C_17  and  C_10 
REMARK    6  A    between atoms: C_16  and  N_13 
ROOT
ATOM      1  C   UNL d   1      -0.614  -1.125  -0.147  0.00  0.00     0.122 C 
ATOM      2  N   UNL d   1       0.633  -0.547  -0.018  0.00  0.00    -0.282 N 
ATOM      3  N   UNL d   1       0.606   0.803  -0.135  0.00  0.00    -0.301 N 
ATOM      4  HN  UNL d   1       1.402   1.434  -0.226  1.00  0.00     0.187 HD
ATOM      5  C   UNL d   1      -1.485  -0.040  -0.143  0.00  0.00     0.064 C 
ATOM      6  C   UNL d   1      -0.686   1.127  -0.106  0.00  0.00     0.036 C 
ENDROOT
BRANCH   1   7
ATOM      7  C   UNL d   1      -0.921  -2.547  -0.196  0.00  0.00     0.288 C 
ATOM      8  N   UNL d   1      -2.244  -2.848  -0.558  0.00  0.00    -0.261 N 
ATOM      9  H   UNL d   1      -2.695  -2.179  -1.170  0.00  0.00     0.190 HD
ATOM     10  O   UNL d   1      -0.094  -3.432   0.018  0.00  0.00    -0.264 OA
BRANCH   8  11
ATOM     11  N   UNL d   1      -2.582  -4.209  -0.775  0.00  0.00    -0.248 N 
ATOM     12  C   UNL d   1      -3.876  -4.696  -0.920  0.00  0.00     0.339 C 
ATOM     13  N   UNL d   1      -4.849  -3.728  -0.812  0.00  0.00    -0.308 N 
ATOM     14  O   UNL d   1      -4.058  -5.886  -1.142  0.00  0.00    -0.245 OA
ATOM     15  H   UNL d   1      -4.501  -2.845  -0.485  0.00  0.00     0.170 HD
ATOM     16  H   UNL d   1      -1.819  -4.886  -0.774  0.00  0.00     0.192 HD
BRANCH  13  17
ATOM     17  C   UNL d   1      -6.250  -3.846  -0.948  0.00  0.00     0.036 A 
ATOM     18  C   UNL d   1      -6.937  -5.032  -1.215  0.00  0.00     0.029 A 
ATOM     19  C   UNL d   1      -8.340  -5.035  -1.304  0.00  0.00     0.002 A 
ATOM     20  C   UNL d   1      -9.063  -3.855  -1.142  0.00  0.00     0.000 A 
ATOM     21  C   UNL d   1      -8.387  -2.666  -0.893  0.00  0.00     0.002 A 
ATOM     22  C   UNL d   1      -6.992  -2.665  -0.793  0.00  0.00     0.029 A 
ENDBRANCH  13  17
ENDBRANCH   8  11
ENDBRANCH   1   7
BRANCH   2  23
ATOM     23  C   UNL d   1       1.939  -1.153   0.226  0.00  0.00     0.188 C 
BRANCH  23  24
ATOM     24  C   UNL d   1       2.232  -1.310   1.703  0.00  0.00    -0.038 A 
ATOM     25  C   UNL d   1       2.728  -2.527   2.187  0.00  0.00     0.009 A 
ATOM     26  C   UNL d   1       2.993  -2.697   3.547  0.00  0.00     0.001 A 
ATOM     27  C   UNL d   1       2.775  -1.651   4.441  0.00  0.00     0.000 A 
ATOM     28  C   UNL d   1       2.320  -0.422   3.972  0.00  0.00     0.001 A 
ATOM     29  C   UNL d   1       2.066  -0.247   2.611  0.00  0.00     0.009 A 
ENDBRANCH  23  24
ENDBRANCH   2  23
BRANCH   6  30
ATOM     30  C   UNL d   1      -1.079   2.592  -0.041  0.00  0.00    -0.007 C 
ATOM     31  C   UNL d   1      -2.607   2.773  -0.051  0.00  0.00     0.021 C 
ATOM     32  C   UNL d   1      -0.531   3.226   1.259  0.00  0.00     0.021 C 
ATOM     33  C   UNL d   1      -0.489   3.358  -1.243  0.00  0.00     0.021 C 
ENDBRANCH   6  30
TORSDOF 6
