REMARK  4 active torsions:
REMARK  status: ('A' for Active; 'I' for Inactive)
REMARK    1  A    between atoms: N_14  and  C_5 
REMARK    2  A    between atoms: C_17  and  N_14 
REMARK    3  A    between atoms: C_15  and  C_16 
REMARK    4  A    between atoms: C_16  and  C_17 
ROOT
ATOM      1  C   UNL d   1       2.278  -0.355   0.076  0.00  0.00     0.070 A 
ATOM      2  S   UNL d   1       3.996  -0.448   0.139  0.00  0.00    -0.096 SA
ATOM      3  C   UNL d   1       1.859   0.972   0.012  0.00  0.00     0.060 A 
ATOM      4  C   UNL d   1       2.949   1.907   0.059  0.00  0.00    -0.027 A 
ATOM      5  C   UNL d   1       1.319  -1.381   0.098  0.00  0.00     0.100 A 
ATOM      6  C   UNL d   1       4.162   1.251   0.125  0.00  0.00     0.059 A 
ATOM      7  N   UNL d   1       0.020  -1.016   0.036  0.00  0.00    -0.342 N 
ATOM      8  HN  UNL d   1      -0.716  -1.721   0.059  1.00  0.00     0.167 HD
ATOM      9  N   UNL d   1       0.550   1.319  -0.068  0.00  0.00    -0.351 N 
ATOM     10  HN  UNL d   1       0.236   2.287  -0.132  1.00  0.00     0.166 HD
ATOM     11  C   UNL d   1      -0.289   0.284  -0.056  0.00  0.00     0.182 A 
ATOM     12  C   UNL d   1       2.795   3.392   0.056  0.00  0.00     0.051 C 
ENDROOT
BRANCH   5  13
ATOM     13  N   UNL d   1       1.663  -2.736   0.199  0.00  0.00    -0.277 NA
ATOM     14  H   UNL d   1       2.538  -2.935  -0.274  0.00  0.00     0.129 HD
BRANCH  13  15
ATOM     15  C   UNL d   1       0.565  -3.674  -0.036  0.00  0.00     0.099 C 
BRANCH  15  16
ATOM     16  C   UNL d   1       1.057  -5.119   0.039  0.00  0.00     0.071 C 
BRANCH  16  17
ATOM     17  C   UNL d   1      -0.107  -6.078  -0.004  0.00  0.00     0.010 A 
ATOM     18  N   UNL d   1      -0.545  -6.463  -1.227  0.00  0.00    -0.369 N 
ATOM     19  C   UNL d   1      -1.615  -7.288  -1.271  0.00  0.00     0.088 A 
ATOM     20  HN  UNL d   1      -0.086  -6.144  -2.080  1.00  0.00     0.165 HD
ATOM     21  C   UNL d   1      -2.280  -7.753  -0.149  0.00  0.00     0.017 A 
ATOM     22  C   UNL d   1      -1.820  -7.346   1.097  0.00  0.00     0.003 A 
ATOM     23  C   UNL d   1      -0.721  -6.496   1.175  0.00  0.00     0.025 A 
ENDBRANCH  16  17
ENDBRANCH  15  16
ENDBRANCH  13  15
ENDBRANCH   5  13
TORSDOF 4
