REMARK  2 active torsions:
REMARK  status: ('A' for Active; 'I' for Inactive)
REMARK    1  A    between atoms: C_6  and  C_1 
REMARK       I    between atoms: N_9  and  C_6 
REMARK    2  A    between atoms: C_15  and  N_9 
ROOT
ATOM      1  C   UNL d   1      -0.249  -1.204  -0.066  0.00  0.00     0.125 A 
ATOM      2  C   UNL d   1      -0.869   0.938  -0.156  0.00  0.00     0.118 A 
ATOM      3  C   UNL d   1      -1.370  -0.340  -0.062  0.00  0.00     0.077 A 
ATOM      4  N   UNL d   1       0.891  -0.501  -0.148  0.00  0.00    -0.255 N 
ATOM      5  HN  UNL d   1       1.843  -0.867  -0.157  1.00  0.00     0.195 HD
ATOM      6  O   UNL d   1       0.499   0.833  -0.218  0.00  0.00    -0.236 OA
ATOM      7  C   UNL d   1      -1.580   2.188  -0.181  0.00  0.00     0.040 A 
ATOM      8  S   UNL d   1      -3.291   2.257  -0.019  0.00  0.00    -0.099 SA
ATOM      9  C   UNL d   1      -1.046   3.455  -0.318  0.00  0.00     0.022 A 
ATOM     10  C   UNL d   1      -3.306   3.963  -0.111  0.00  0.00     0.050 A 
ATOM     11  C   UNL d   1      -2.043   4.478  -0.273  0.00  0.00     0.008 A 
ENDROOT
BRANCH   1  12
ATOM     12  C   UNL d   1      -0.323  -2.665  -0.013  0.00  0.00     0.274 C 
ATOM     13  N   UNL d   1       0.897  -3.317   0.039  0.00  0.00    -0.322 N 
ATOM     14  H   UNL d   1       1.712  -2.727   0.169  0.00  0.00     0.169 HD
ATOM     15  O   UNL d   1      -1.423  -3.210  -0.001  0.00  0.00    -0.266 OA
BRANCH  13  16
ATOM     16  C   UNL d   1       1.098  -4.712  -0.071  0.00  0.00     0.035 A 
ATOM     17  C   UNL d   1       0.094  -5.594  -0.479  0.00  0.00     0.030 A 
ATOM     18  C   UNL d   1       0.355  -6.957  -0.638  0.00  0.00     0.009 A 
ATOM     19  C   UNL d   1       1.627  -7.470  -0.384  0.00  0.00    -0.062 A 
ATOM     20  C   UNL d   1       2.630  -6.598   0.051  0.00  0.00     0.009 A 
ATOM     21  C   UNL d   1       1.888  -8.930  -0.605  0.00  0.00     0.048 C 
ATOM     22  C   UNL d   1       2.370  -5.227   0.198  0.00  0.00     0.030 A 
ENDBRANCH  13  16
ENDBRANCH   1  12
TORSDOF 2
