REMARK  6 active torsions:
REMARK  status: ('A' for Active; 'I' for Inactive)
REMARK    1  A    between atoms: S_10  and  C_1 
REMARK    2  A    between atoms: C_8  and  C_3 
REMARK    3  A    between atoms: C_7  and  C_11 
REMARK    4  A    between atoms: O_22  and  C_8 
REMARK    5  A    between atoms: C_14  and  S_10 
REMARK    6  A    between atoms: C_28  and  O_22 
ROOT
ATOM      1  C   UNL d   1       1.306  -1.402  -0.117  0.00  0.00     0.038 A 
ATOM      2  C   UNL d   1       0.028  -0.753  -0.014  0.00  0.00     0.051 A 
ATOM      3  C   UNL d   1       2.467  -0.619  -0.254  0.00  0.00     0.072 A 
ATOM      4  N   UNL d   1       1.156   1.387  -0.027  0.00  0.00    -0.362 N 
ATOM      5  HN  UNL d   1       1.121   2.404   0.045  1.00  0.00     0.165 HD
ATOM      6  C   UNL d   1       0.024   0.662   0.015  0.00  0.00     0.086 A 
ATOM      7  C   UNL d   1       2.337   0.753  -0.167  0.00  0.00     0.107 A 
ATOM      8  C   UNL d   1      -1.243  -1.396   0.037  0.00  0.00     0.130 A 
ATOM      9  C   UNL d   1      -1.197   1.340   0.080  0.00  0.00     0.144 A 
ATOM     10  C   UNL d   1      -2.447  -0.694   0.083  0.00  0.00     0.046 A 
ATOM     11  C   UNL d   1      -2.424   0.687   0.104  0.00  0.00     0.048 A 
ATOM     12  F   UNL d   1      -1.344  -2.732   0.001  0.00  0.00    -0.205 F 
ATOM     13  F   UNL d   1      -1.212   2.683   0.107  0.00  0.00    -0.204 F 
ENDROOT
BRANCH   1  14
ATOM     14  S   UNL d   1       1.462  -3.188   0.086  0.00  0.00    -0.088 SA
BRANCH  14  15
ATOM     15  C   UNL d   1       1.136  -3.874  -1.533  0.00  0.00     0.006 A 
ATOM     16  C   UNL d   1       0.985  -3.113  -2.698  0.00  0.00     0.035 A 
ATOM     17  C   UNL d   1       0.739  -3.724  -3.941  0.00  0.00     0.049 A 
ATOM     18  C   UNL d   1       0.644  -5.120  -4.007  0.00  0.00     0.016 A 
ATOM     19  C   UNL d   1       0.802  -5.890  -2.857  0.00  0.00     0.002 A 
ATOM     20  C   UNL d   1       1.048  -5.269  -1.631  0.00  0.00     0.019 A 
BRANCH  17  21
ATOM     21  C   UNL d   1       0.582  -2.894  -5.190  0.00  0.00     0.417 C 
ATOM     22  F   UNL d   1       0.701  -1.554  -4.973  0.00  0.00    -0.166 F 
ATOM     23  F   UNL d   1       1.510  -3.200  -6.138  0.00  0.00    -0.166 F 
ATOM     24  F   UNL d   1      -0.632  -3.069  -5.783  0.00  0.00    -0.166 F 
ENDBRANCH  17  21
ENDBRANCH  14  15
ENDBRANCH   1  14
BRANCH   3  25
ATOM     25  C   UNL d   1       3.828  -1.103  -0.552  0.00  0.00     0.296 C 
ATOM     26  O   UNL d   1       4.842  -0.585  -0.106  0.00  0.00    -0.259 OA
BRANCH  25  27
ATOM     27  O   UNL d   1       3.768  -2.068  -1.498  0.00  0.00    -0.318 OA
BRANCH  27  28
ATOM     28  C   UNL d   1       5.007  -2.580  -1.999  0.00  0.00     0.174 C 
ATOM     29  C   UNL d   1       5.673  -3.502  -0.995  0.00  0.00     0.034 C 
ENDBRANCH  27  28
ENDBRANCH  25  27
ENDBRANCH   3  25
TORSDOF 6
