REMARK  2 active torsions:
REMARK  status: ('A' for Active; 'I' for Inactive)
REMARK    1  A    between atoms: C_7  and  C_1 
REMARK    2  A    between atoms: N_8  and  C_7 
ROOT
ATOM      1  C   UNL d   1      -1.004   1.062   0.132  0.00  0.00    -0.017 C 
ATOM      2  C   UNL d   1       0.300   1.579   0.372  0.00  0.00    -0.047 C 
ATOM      3  C   UNL d   1      -1.154  -0.347  -0.020  0.00  0.00    -0.047 C 
ATOM      4  C   UNL d   1       1.440   0.773   0.139  0.00  0.00    -0.049 C 
ATOM      5  C   UNL d   1      -0.004  -1.191  -0.061  0.00  0.00    -0.049 C 
ATOM      6  C   UNL d   1       1.293  -0.622  -0.021  0.00  0.00    -0.049 C 
ATOM      7  C   UNL d   1      -2.523  -0.993  -0.089  0.00  0.00     0.049 C 
ATOM      8  C   UNL d   1       0.515   2.983   0.899  0.00  0.00     0.049 C 
ATOM      9  C   UNL d   1       2.818   1.399   0.103  0.00  0.00     0.049 C 
ATOM     10  C   UNL d   1      -0.137  -2.698  -0.139  0.00  0.00     0.049 C 
ATOM     11  C   UNL d   1       2.538  -1.474  -0.137  0.00  0.00     0.049 C 
ENDROOT
BRANCH   1  12
ATOM     12  C   UNL d   1      -2.238   1.980   0.101  0.00  0.00     0.312 C 
BRANCH  12  13
ATOM     13  N   UNL d   1      -1.959   3.350  -0.315  0.00  0.00     0.092 N 
ATOM     14  C   UNL d   1      -1.833   3.571  -1.747  0.00  0.00     0.273 C 
ATOM     15  C   UNL d   1      -1.597   5.075  -1.760  0.00  0.00     0.032 C 
ATOM     16  C   UNL d   1      -2.424   5.604  -0.588  0.00  0.00     0.032 C 
ATOM     17  C   UNL d   1      -2.872   4.364   0.181  0.00  0.00     0.273 C 
ENDBRANCH  12  13
ENDBRANCH   1  12
TORSDOF 2
