REMARK  8 active torsions:
REMARK  status: ('A' for Active; 'I' for Inactive)
REMARK    1  A    between atoms: C_6  and  C_1 
REMARK    2  A    between atoms: C_11  and  N_2 
REMARK    3  A    between atoms: C_20  and  C_3 
REMARK       I    between atoms: N_8  and  C_6 
REMARK    4  A    between atoms: C_13  and  N_8 
REMARK    5  A    between atoms: C_10  and  C_15 
REMARK    6  A    between atoms: C_15  and  S_16 
REMARK    7  A    between atoms: S_16  and  C_18 
REMARK    8  A    between atoms: C_30  and  C_20 
ROOT
ATOM      1  C   UNL d   1      -0.755   2.415  -0.085  0.00  0.00     0.259 C 
ATOM      2  N   UNL d   1       0.092   3.479   0.141  0.00  0.00    -0.323 N 
ATOM      3  O   UNL d   1      -1.940   2.533  -0.389  0.00  0.00    -0.267 OA
ATOM      4  H   UNL d   1       1.007   3.267   0.503  0.00  0.00     0.169 HD
ENDROOT
BRANCH   2   5
ATOM      5  C   UNL d   1      -0.199   4.854  -0.053  0.00  0.00     0.036 A 
ATOM      6  C   UNL d   1      -1.411   5.339  -0.572  0.00  0.00     0.048 A 
ATOM      7  C   UNL d   1      -1.618   6.706  -0.801  0.00  0.00     0.003 A 
ATOM      8  C   UNL d   1      -0.583   7.597  -0.492  0.00  0.00     0.018 A 
ATOM      9  C   UNL d   1       0.622   7.135   0.038  0.00  0.00     0.004 A 
ATOM     10  C   UNL d   1       0.813   5.769   0.255  0.00  0.00     0.029 A 
BRANCH   7  11
ATOM     11  S   UNL d   1      -3.074   7.401  -1.585  0.00  0.00    -0.125 SA
BRANCH  11  12
ATOM     12  C   UNL d   1      -4.400   6.193  -1.225  0.00  0.00     0.121 C 
BRANCH  12  13
ATOM     13  C   UNL d   1      -5.670   6.545  -1.961  0.00  0.00    -0.008 A 
ATOM     14  C   UNL d   1      -6.631   7.380  -1.380  0.00  0.00     0.145 A 
ATOM     15  C   UNL d   1      -7.801   7.712  -2.068  0.00  0.00     0.073 A 
ATOM     16  F   UNL d   1      -6.421   7.858  -0.143  0.00  0.00    -0.204 F 
ATOM     17 CL   UNL d   1      -8.983   8.737  -1.346  0.00  0.00    -0.081 Cl
ATOM     18  C   UNL d   1      -8.026   7.213  -3.349  0.00  0.00     0.027 A 
ATOM     19  C   UNL d   1      -7.074   6.382  -3.946  0.00  0.00     0.002 A 
ATOM     20  C   UNL d   1      -5.902   6.055  -3.257  0.00  0.00     0.011 A 
ENDBRANCH  12  13
ENDBRANCH  11  12
ENDBRANCH   7  11
ENDBRANCH   2   5
BRANCH   1  21
ATOM     21  C   UNL d   1      -0.216   1.066   0.109  0.00  0.00     0.073 C 
ATOM     22  C   UNL d   1       1.059   0.476   0.116  0.00  0.00     0.051 C 
ATOM     23  N   UNL d   1       0.825  -0.904   0.305  0.00  0.00    -0.260 N 
ATOM     24  N   UNL d   1      -0.465  -1.137   0.648  0.00  0.00    -0.304 N 
ATOM     25  C   UNL d   1      -1.092  -0.004   0.393  0.00  0.00     0.126 C 
ATOM     26  HN  UNL d   1      -0.864  -1.999   1.020  1.00  0.00     0.186 HD
BRANCH  22  27
ATOM     27  C   UNL d   1       2.442   1.076   0.129  0.00  0.00     0.060 C 
BRANCH  27  28
ATOM     28  C   UNL d   1       3.083   1.452  -1.211  0.00  0.00     0.002 C 
ATOM     29  C   UNL d   1       2.307   2.411  -2.092  0.00  0.00     0.005 C 
ENDBRANCH  27  28
ENDBRANCH  22  27
BRANCH  23  30
ATOM     30  C   UNL d   1       1.654  -2.058   0.155  0.00  0.00     0.056 A 
ATOM     31  C   UNL d   1       1.303  -3.231   0.852  0.00  0.00     0.031 A 
ATOM     32  C   UNL d   1       1.973  -4.433   0.617  0.00  0.00     0.002 A 
ATOM     33  C   UNL d   1       2.992  -4.484  -0.327  0.00  0.00     0.000 A 
ATOM     34  C   UNL d   1       3.355  -3.328  -1.016  0.00  0.00     0.002 A 
ATOM     35  C   UNL d   1       2.694  -2.118  -0.772  0.00  0.00     0.031 A 
ENDBRANCH  23  30
ENDBRANCH   1  21
TORSDOF 8
