REMARK  3 active torsions:
REMARK  status: ('A' for Active; 'I' for Inactive)
REMARK    1  A    between atoms: N_9  and  C_3 
REMARK    2  A    between atoms: N_4  and  N_9 
REMARK    3  A    between atoms: C_8  and  C_10 
ROOT
ATOM      1  N   UNL d   1      -3.669  -1.422  -0.176  0.00  0.00    -0.308 N 
ATOM      2  HN  UNL d   1      -4.350  -1.439  -0.935  1.00  0.00     0.186 HD
ATOM      3  C   UNL d   1      -3.309  -2.486   0.478  0.00  0.00     0.120 C 
ENDROOT
BRANCH   1   4
ATOM      4  N   UNL d   1      -3.050  -0.275   0.248  0.00  0.00    -0.280 N 
ATOM      5  C   UNL d   1      -3.864   0.939   0.191  0.00  0.00     0.179 C 
BRANCH   4   6
ATOM      6  C   UNL d   1      -1.679   0.001  -0.000  0.00  0.00     0.136 A 
ATOM      7  N   UNL d   1      -1.106   1.085   0.578  0.00  0.00    -0.284 N 
ATOM      8  N   UNL d   1       0.239   1.350   0.443  0.00  0.00    -0.304 N 
ATOM      9  HN  UNL d   1      -1.685   1.720   1.127  1.00  0.00     0.188 HD
ATOM     10  C   UNL d   1       1.014   0.528  -0.288  0.00  0.00     0.022 A 
ATOM     11  HN  UNL d   1       0.647   2.167   0.896  1.00  0.00     0.186 HD
ATOM     12  C   UNL d   1       0.473  -0.572  -0.929  0.00  0.00     0.030 A 
ATOM     13  C   UNL d   1       2.471   0.845  -0.378  0.00  0.00     0.069 C 
ATOM     14  C   UNL d   1      -0.887  -0.837  -0.778  0.00  0.00     0.053 A 
ENDBRANCH   4   6
ENDBRANCH   1   4
BRANCH   3  15
ATOM     15  C   UNL d   1      -4.003  -3.777   0.298  0.00  0.00     0.003 A 
ATOM     16  C   UNL d   1      -3.424  -4.988   0.691  0.00  0.00     0.047 A 
ATOM     17  C   UNL d   1      -4.160  -6.175   0.612  0.00  0.00     0.048 A 
ATOM     18 CL   UNL d   1      -1.794  -5.101   1.258  0.00  0.00    -0.083 Cl
ATOM     19  C   UNL d   1      -5.476  -6.144   0.151  0.00  0.00     0.035 A 
ATOM     20  C   UNL d   1      -6.057  -4.944  -0.253  0.00  0.00     0.025 A 
ATOM     21 CL   UNL d   1      -6.394  -7.597   0.093  0.00  0.00    -0.084 Cl
ATOM     22  C   UNL d   1      -5.320  -3.761  -0.187  0.00  0.00     0.016 A 
ENDBRANCH   3  15
TORSDOF 3
