REMARK  3 active torsions:
REMARK  status: ('A' for Active; 'I' for Inactive)
REMARK    1  A    between atoms: C_14  and  C_5 
REMARK    2  A    between atoms: C_11  and  C_16 
REMARK    3  A    between atoms: C_12  and  C_15 
ROOT
ATOM      1  C   UNL d   1       2.451   0.202  -0.298  0.00  0.00     0.080 A 
ATOM      2  C   UNL d   1       2.863  -1.176  -0.254  0.00  0.00     0.191 A 
ATOM      3  N   UNL d   1       3.357  -1.828  -1.288  0.00  0.00    -0.318 N 
ATOM      4  HN  UNL d   1       3.515  -1.481  -2.234  1.00  0.00     0.169 HD
ATOM      5  C   UNL d   1       3.610  -3.084  -0.793  0.00  0.00     0.138 A 
ATOM      6  C   UNL d   1       1.922   0.992   0.710  0.00  0.00     0.061 A 
ATOM      7  S   UNL d   1       2.593   1.089  -1.763  0.00  0.00    -0.095 SA
ATOM      8  N   UNL d   1       3.291  -3.230   0.500  0.00  0.00    -0.242 N 
ATOM      9  HN  UNL d   1       3.386  -4.062   1.083  1.00  0.00     0.196 HD
ATOM     10  O   UNL d   1       2.799  -1.975   0.860  0.00  0.00    -0.216 OA
ATOM     11  C   UNL d   1       1.641   2.339   0.279  0.00  0.00    -0.032 A 
ATOM     12  C   UNL d   1       1.966   2.503  -1.055  0.00  0.00     0.059 A 
ATOM     13 CL   UNL d   1       1.619   0.471   2.322  0.00  0.00    -0.082 Cl
ATOM     14  C   UNL d   1       1.077   3.448   1.109  0.00  0.00     0.050 C 
ENDROOT
BRANCH   5  15
ATOM     15  C   UNL d   1       4.176  -4.133  -1.635  0.00  0.00     0.011 A 
ATOM     16  C   UNL d   1       4.483  -3.855  -2.976  0.00  0.00     0.031 A 
ATOM     17  C   UNL d   1       5.029  -4.835  -3.821  0.00  0.00     0.049 A 
ATOM     18  C   UNL d   1       5.269  -6.116  -3.302  0.00  0.00     0.032 A 
ATOM     19  C   UNL d   1       4.978  -6.420  -1.962  0.00  0.00     0.049 A 
ATOM     20  C   UNL d   1       4.429  -5.420  -1.138  0.00  0.00     0.031 A 
BRANCH  17  21
ATOM     21  C   UNL d   1       5.351  -4.488  -5.255  0.00  0.00     0.417 C 
ATOM     22  F   UNL d   1       5.847  -5.537  -5.968  0.00  0.00    -0.166 F 
ATOM     23  F   UNL d   1       4.261  -4.050  -5.943  0.00  0.00    -0.166 F 
ATOM     24  F   UNL d   1       6.281  -3.498  -5.351  0.00  0.00    -0.166 F 
ENDBRANCH  17  21
BRANCH  19  25
ATOM     25  C   UNL d   1       5.252  -7.794  -1.395  0.00  0.00     0.417 C 
ATOM     26  F   UNL d   1       5.796  -8.653  -2.301  0.00  0.00    -0.166 F 
ATOM     27  F   UNL d   1       6.119  -7.758  -0.347  0.00  0.00    -0.166 F 
ATOM     28  F   UNL d   1       4.125  -8.401  -0.933  0.00  0.00    -0.166 F 
ENDBRANCH  19  25
ENDBRANCH   5  15
TORSDOF 3
