REMARK  2 active torsions:
REMARK  status: ('A' for Active; 'I' for Inactive)
REMARK    1  A    between atoms: N_5  and  C_1 
REMARK    2  A    between atoms: C_9  and  N_8 
ROOT
ATOM      1  C   UNL d   1      -1.876  -2.197  -0.465  0.00  0.00     0.219 A 
ATOM      2  C   UNL d   1      -0.610  -2.792  -0.526  0.00  0.00     0.155 A 
ATOM      3  N   UNL d   1      -2.822  -2.906  -1.171  0.00  0.00    -0.330 N 
ATOM      4  HN  UNL d   1      -3.812  -2.688  -1.285  1.00  0.00     0.168 HD
ATOM      5  N   UNL d   1      -0.828  -3.901  -1.318  0.00  0.00    -0.331 N 
ATOM      6  C   UNL d   1      -2.163  -3.921  -1.663  0.00  0.00     0.186 A 
ATOM      7  N   UNL d   1       0.545  -2.373   0.068  0.00  0.00    -0.368 N 
ATOM      8  C   UNL d   1       0.050  -4.939  -1.794  0.00  0.00     0.158 C 
ATOM      9  H   UNL d   1       0.505  -1.453   0.524  0.00  0.00     0.161 HD
ENDROOT
BRANCH   7  10
ATOM     10  C   UNL d   1       1.894  -2.921   0.029  0.00  0.00     0.091 C 
ATOM     11  C   UNL d   1       2.689  -2.461   1.287  0.00  0.00     0.064 C 
ATOM     12  C   UNL d   1       4.045  -2.154   0.742  0.00  0.00    -0.050 A 
ATOM     13  C   UNL d   1       5.194  -1.863   1.462  0.00  0.00     0.007 A 
ATOM     14  C   UNL d   1       4.043  -2.120  -0.651  0.00  0.00    -0.050 A 
ATOM     15  C   UNL d   1       6.356  -1.539   0.761  0.00  0.00     0.001 A 
ATOM     16  C   UNL d   1       6.354  -1.501  -0.642  0.00  0.00     0.001 A 
ATOM     17  C   UNL d   1       5.189  -1.792  -1.357  0.00  0.00     0.007 A 
ATOM     18  C   UNL d   1       2.683  -2.411  -1.203  0.00  0.00     0.064 C 
ENDBRANCH   7  10
BRANCH   1  19
ATOM     19  N   UNL d   1      -2.259  -0.988   0.240  0.00  0.00    -0.094 N 
ATOM     20  O   UNL d   1      -1.361  -0.374   0.841  0.00  0.00    -0.530 OA
ATOM     21  O   UNL d   1      -3.449  -0.645   0.195  0.00  0.00    -0.530 OA
ENDBRANCH   1  19
TORSDOF 2
