REMARK  6 active torsions:
REMARK  status: ('A' for Active; 'I' for Inactive)
REMARK       I    between atoms: N_2  and  C_1 
REMARK    1  A    between atoms: C_4  and  C_1 
REMARK    2  A    between atoms: N_3  and  C_4 
REMARK    3  A    between atoms: C_12  and  N_5 
REMARK    4  A    between atoms: C_13  and  N_6 
REMARK    5  A    between atoms: C_18  and  C_12 
REMARK    6  A    between atoms: C_19  and  C_13 
ROOT
ATOM      1  C   UNL d   1       0.466   0.685  -0.360  0.00  0.00     0.253 C 
ATOM      2  N   UNL d   1       0.258   0.537   1.010  0.00  0.00    -0.347 N 
ATOM      3  N   UNL d   1      -0.148   0.490   3.963  0.00  0.00     0.095 N 
ATOM      4  O   UNL d   1       1.136   1.636  -0.790  0.00  0.00    -0.271 OA
ATOM      5  C   UNL d   1       0.712   1.639   1.866  0.00  0.00     0.156 C 
ATOM      6  C   UNL d   1      -0.732  -0.360   1.611  0.00  0.00     0.156 C 
ATOM      7  C   UNL d   1      -0.485  -0.669   3.107  0.00  0.00     0.292 C 
ATOM      8  C   UNL d   1       0.967   1.217   3.321  0.00  0.00     0.292 C 
ENDROOT
BRANCH   1   9
ATOM      9  C   UNL d   1      -0.098  -0.328  -1.401  0.00  0.00     0.310 C 
ATOM     10  C   UNL d   1      -1.630  -0.394  -1.357  0.00  0.00     0.053 C 
BRANCH   9  11
ATOM     11  N   UNL d   1       0.616  -1.639  -1.327  0.00  0.00     0.105 N 
ATOM     12  C   UNL d   1       2.049  -1.495  -1.715  0.00  0.00     0.303 C 
ATOM     13  C   UNL d   1       2.314  -1.300  -3.234  0.00  0.00     0.303 C 
ATOM     14  N   UNL d   1       1.667  -2.290  -4.125  0.00  0.00     0.096 N 
ATOM     15  C   UNL d   1       0.251  -2.440  -3.725  0.00  0.00     0.303 C 
ATOM     16  C   UNL d   1       0.029  -2.673  -2.208  0.00  0.00     0.303 C 
BRANCH  14  17
ATOM     17  C   UNL d   1       2.342  -3.600  -4.121  0.00  0.00     0.311 C 
BRANCH  17  18
ATOM     18  C   UNL d   1       3.763  -3.584  -4.643  0.00  0.00    -0.030 A 
ATOM     19  C   UNL d   1       4.814  -4.038  -3.832  0.00  0.00     0.009 A 
ATOM     20  C   UNL d   1       6.124  -4.065  -4.313  0.00  0.00     0.001 A 
ATOM     21  C   UNL d   1       6.398  -3.642  -5.611  0.00  0.00     0.000 A 
ATOM     22  C   UNL d   1       5.364  -3.188  -6.429  0.00  0.00     0.001 A 
ATOM     23  C   UNL d   1       4.053  -3.159  -5.949  0.00  0.00     0.009 A 
ENDBRANCH  17  18
ENDBRANCH  14  17
ENDBRANCH   9  11
ENDBRANCH   1   9
BRANCH   3  24
ATOM     24  C   UNL d   1      -1.331   1.333   4.213  0.00  0.00     0.311 C 
BRANCH  24  25
ATOM     25  C   UNL d   1      -1.121   2.490   5.178  0.00  0.00    -0.030 A 
ATOM     26  C   UNL d   1      -1.800   3.700   4.961  0.00  0.00     0.009 A 
ATOM     27  C   UNL d   1      -1.671   4.765   5.859  0.00  0.00     0.001 A 
ATOM     28  C   UNL d   1      -0.868   4.631   6.988  0.00  0.00     0.000 A 
ATOM     29  C   UNL d   1      -0.198   3.433   7.223  0.00  0.00     0.001 A 
ATOM     30  C   UNL d   1      -0.335   2.365   6.330  0.00  0.00     0.009 A 
ENDBRANCH  24  25
ENDBRANCH   3  24
TORSDOF 6
