REMARK  3 active torsions:
REMARK  status: ('A' for Active; 'I' for Inactive)
REMARK    1  A    between atoms: C_8  and  C_1 
REMARK       I    between atoms: C_7  and  N_9 
REMARK       I    between atoms: N_10  and  C_7 
REMARK    2  A    between atoms: N_9  and  C_15 
REMARK    3  A    between atoms: C_16  and  N_10 
ROOT
ATOM      1  C   UNL d   1       2.043  -1.629   0.562  0.00  0.00    -0.006 A 
ATOM      2  C   UNL d   1       2.042  -2.901  -0.035  0.00  0.00     0.016 A 
ATOM      3  C   UNL d   1       3.258  -1.147   1.049  0.00  0.00     0.016 A 
ATOM      4  C   UNL d   1       4.453  -3.104   0.214  0.00  0.00     0.036 A 
ATOM      5  C   UNL d   1       4.440  -1.883   0.893  0.00  0.00     0.030 A 
ATOM      6  C   UNL d   1       3.230  -3.632  -0.204  0.00  0.00     0.030 A 
ENDROOT
BRANCH   4   7
ATOM      7  N   UNL d   1       5.641  -3.793  -0.139  0.00  0.00    -0.309 N 
ATOM      8  C   UNL d   1       6.931  -3.302  -0.001  0.00  0.00     0.325 C 
ATOM      9  N   UNL d   1       7.875  -4.087  -0.649  0.00  0.00    -0.309 N 
ATOM     10  O   UNL d   1       7.208  -2.267   0.596  0.00  0.00    -0.247 OA
ATOM     11  H   UNL d   1       7.542  -4.910  -1.126  0.00  0.00     0.170 HD
ATOM     12  H   UNL d   1       5.522  -4.644  -0.669  0.00  0.00     0.170 HD
BRANCH   9  13
ATOM     13  C   UNL d   1       9.246  -3.764  -0.825  0.00  0.00     0.036 A 
ATOM     14  C   UNL d   1       9.865  -2.651  -0.243  0.00  0.00     0.031 A 
ATOM     15  C   UNL d   1      11.200  -2.335  -0.522  0.00  0.00     0.026 A 
ATOM     16  C   UNL d   1      11.933  -3.143  -1.381  0.00  0.00     0.034 A 
ATOM     17  C   UNL d   1      11.349  -4.275  -1.940  0.00  0.00     0.026 A 
ATOM     18 CL   UNL d   1      13.560  -2.730  -1.759  0.00  0.00    -0.084 Cl
ATOM     19  C   UNL d   1      10.012  -4.588  -1.660  0.00  0.00     0.031 A 
ENDBRANCH   9  13
ENDBRANCH   4   7
BRANCH   1  20
ATOM     20  C   UNL d   1       0.820  -0.811   0.571  0.00  0.00     0.077 A 
ATOM     21  C   UNL d   1       0.384   0.232   1.437  0.00  0.00     0.057 A 
ATOM     22  C   UNL d   1      -0.809   0.687   0.935  0.00  0.00     0.131 A 
ATOM     23 BR   UNL d   1       1.189   0.901   2.992  0.00  0.00    -0.047 Br
ATOM     24  N   UNL d   1      -1.047  -0.075  -0.164  0.00  0.00    -0.306 N 
ATOM     25  N   UNL d   1      -0.099  -0.994  -0.401  0.00  0.00    -0.297 N 
ATOM     26  C   UNL d   1      -2.189   0.027  -1.040  0.00  0.00     0.177 C 
ATOM     27  HN  UNL d   1      -0.078  -1.683  -1.153  1.00  0.00     0.187 HD
ENDBRANCH   1  20
TORSDOF 3
