REMARK  2 active torsions:
REMARK  status: ('A' for Active; 'I' for Inactive)
REMARK    1  A    between atoms: C_2  and  C_1 
REMARK       I    between atoms: N_5  and  C_2 
REMARK    2  A    between atoms: C_11  and  N_5 
ROOT
ATOM      1  C   UNL d   1       1.755  -2.977  -0.229  0.00  0.00     0.259 C 
ATOM      2  N   UNL d   1       3.103  -3.175   0.012  0.00  0.00    -0.323 N 
ATOM      3  O   UNL d   1       0.951  -3.853  -0.543  0.00  0.00    -0.267 OA
ATOM      4  H   UNL d   1       3.624  -2.382   0.376  0.00  0.00     0.169 HD
ENDROOT
BRANCH   1   5
ATOM      5  C   UNL d   1       1.228  -1.587  -0.098  0.00  0.00     0.067 A 
ATOM      6  C   UNL d   1       1.991  -0.464   0.196  0.00  0.00     0.090 A 
ATOM      7  C   UNL d   1       1.421   0.806   0.261  0.00  0.00    -0.020 A 
ATOM      8  O   UNL d   1       3.340  -0.447   0.468  0.00  0.00    -0.349 OA
ATOM      9  C   UNL d   1       2.447   1.798   0.653  0.00  0.00     0.068 C 
ATOM     10  C   UNL d   1       0.070   1.008   0.032  0.00  0.00     0.029 A 
ATOM     11  C   UNL d   1       3.694   0.958   0.398  0.00  0.00     0.180 C 
ATOM     12  C   UNL d   1      -0.710  -0.104  -0.277  0.00  0.00     0.012 A 
ATOM     13  C   UNL d   1      -0.144  -1.385  -0.340  0.00  0.00     0.039 A 
ATOM     14 BR   UNL d   1      -2.557   0.116  -0.619  0.00  0.00    -0.051 Br
ENDBRANCH   1   5
BRANCH   2  15
ATOM     15  C   UNL d   1       3.833  -4.361  -0.231  0.00  0.00     0.035 A 
ATOM     16  C   UNL d   1       3.303  -5.469  -0.895  0.00  0.00     0.030 A 
ATOM     17  C   UNL d   1       4.095  -6.588  -1.174  0.00  0.00     0.009 A 
ATOM     18  C   UNL d   1       5.436  -6.624  -0.789  0.00  0.00    -0.062 A 
ATOM     19  C   UNL d   1       5.965  -5.531  -0.096  0.00  0.00     0.009 A 
ATOM     20  C   UNL d   1       6.273  -7.820  -1.132  0.00  0.00     0.048 C 
ATOM     21  C   UNL d   1       5.172  -4.407   0.175  0.00  0.00     0.030 A 
ENDBRANCH   2  15
TORSDOF 2
