REMARK  3 active torsions:
REMARK  status: ('A' for Active; 'I' for Inactive)
REMARK    1  A    between atoms: C_3  and  C_1 
REMARK    2  A    between atoms: C_13  and  C_2 
REMARK    3  A    between atoms: S_14  and  C_13 
ROOT
ATOM      1  C   UNL d   1      -1.268  -0.849  -0.119  0.00  0.00     0.136 A 
ATOM      2  C   UNL d   1       0.062  -1.236  -0.016  0.00  0.00     0.013 A 
ATOM      3  O   UNL d   1      -1.307   0.485  -0.414  0.00  0.00    -0.235 OA
ATOM      4  N   UNL d   1      -0.040   1.015  -0.407  0.00  0.00    -0.265 N 
ATOM      5  HN  UNL d   1       0.220   1.989  -0.559  1.00  0.00     0.194 HD
ATOM      6  C   UNL d   1       0.782  -0.008  -0.159  0.00  0.00     0.038 A 
ATOM      7  C   UNL d   1       2.239   0.255  -0.070  0.00  0.00     0.071 C 
ENDROOT
BRANCH   1   8
ATOM      8  C   UNL d   1      -2.516  -1.657   0.042  0.00  0.00     0.093 A 
ATOM      9  N   UNL d   1      -3.699  -1.178  -0.371  0.00  0.00    -0.258 N 
ATOM     10  O   UNL d   1      -4.633  -2.148  -0.066  0.00  0.00    -0.242 OA
ATOM     11  HN  UNL d   1      -3.873  -0.278  -0.820  1.00  0.00     0.195 HD
ATOM     12  C   UNL d   1      -4.018  -3.182   0.568  0.00  0.00     0.074 A 
ATOM     13  C   UNL d   1      -2.673  -2.923   0.649  0.00  0.00     0.068 A 
ATOM     14  C   UNL d   1      -4.881  -4.288   1.016  0.00  0.00     0.079 C 
ENDBRANCH   1   8
BRANCH   2  15
ATOM     15  C   UNL d   1       0.653  -2.586   0.172  0.00  0.00     0.117 C 
BRANCH  15  16
ATOM     16  S   UNL d   1       0.291  -3.729  -1.202  0.00  0.00    -0.169 SA
ATOM     17  C   UNL d   1       1.035  -2.819  -2.582  0.00  0.00     0.090 C 
ENDBRANCH  15  16
ENDBRANCH   2  15
TORSDOF 3
