REMARK  4 active torsions:
REMARK  status: ('A' for Active; 'I' for Inactive)
REMARK    1  A    between atoms: C_2  and  S_1 
REMARK    2  A    between atoms: C_9  and  S_1 
REMARK    3  A    between atoms: N_8  and  C_3 
REMARK    4  A    between atoms: C_10  and  N_8 
ROOT
ATOM      1  C   UNL d   1       0.386  -0.070   1.589  0.00  0.00     0.154 C 
ATOM      2  C   UNL d   1      -0.434   0.905   2.022  0.00  0.00     0.123 C 
ATOM      3  C   UNL d   1       0.876  -0.128   0.264  0.00  0.00     0.113 C 
ATOM      4  N   UNL d   1       1.209  -0.128  -0.847  0.00  0.00    -0.191 NA
ENDROOT
BRANCH   1   5
ATOM      5  S   UNL d   1       0.877  -1.316   2.697  0.00  0.00     0.190 S 
ATOM      6  O   UNL d   1       0.857  -0.775   4.046  0.00  0.00    -0.222 OA
ATOM      7  O   UNL d   1       2.085  -1.956   2.208  0.00  0.00    -0.222 OA
BRANCH   5   8
ATOM      8  C   UNL d   1      -0.461  -2.522   2.596  0.00  0.00     0.106 C 
ATOM      9  C   UNL d   1      -0.594  -3.131   1.203  0.00  0.00     0.026 C 
ATOM     10  C   UNL d   1      -0.246  -3.632   3.627  0.00  0.00     0.026 C 
ENDBRANCH   5   8
ENDBRANCH   1   5
BRANCH   2  11
ATOM     11  N   UNL d   1      -0.984   1.941   1.299  0.00  0.00    -0.364 N 
ATOM     12  H   UNL d   1      -0.783   1.970   0.299  0.00  0.00     0.165 HD
BRANCH  11  13
ATOM     13  C   UNL d   1      -1.646   3.087   1.776  0.00  0.00     0.032 A 
ATOM     14  C   UNL d   1      -1.577   3.528   3.103  0.00  0.00     0.031 A 
ATOM     15  C   UNL d   1      -2.290   4.659   3.524  0.00  0.00     0.026 A 
ATOM     16  C   UNL d   1      -3.105   5.341   2.625  0.00  0.00     0.034 A 
ATOM     17  C   UNL d   1      -3.211   4.904   1.309  0.00  0.00     0.026 A 
ATOM     18 CL   UNL d   1      -3.987   6.724   3.141  0.00  0.00    -0.084 Cl
ATOM     19  C   UNL d   1      -2.486   3.784   0.891  0.00  0.00     0.031 A 
ENDBRANCH  11  13
ENDBRANCH   2  11
TORSDOF 4
