REMARK  2 active torsions:
REMARK  status: ('A' for Active; 'I' for Inactive)
REMARK       I    between atoms: N_2  and  C_1 
REMARK    1  A    between atoms: C_5  and  C_1 
REMARK    2  A    between atoms: C_7  and  N_2 
ROOT
ATOM      1  C   UNL d   1       0.990  -0.378  -0.087  0.00  0.00     0.256 C 
ATOM      2  N   UNL d   1       0.504   0.586  -0.957  0.00  0.00    -0.323 N 
ATOM      3  O   UNL d   1       2.077  -0.944  -0.165  0.00  0.00    -0.267 OA
ATOM      4  H   UNL d   1      -0.298   1.126  -0.661  0.00  0.00     0.169 HD
ENDROOT
BRANCH   2   5
ATOM      5  C   UNL d   1       1.159   1.025  -2.133  0.00  0.00     0.037 A 
ATOM      6  C   UNL d   1       2.227   0.334  -2.713  0.00  0.00     0.069 A 
ATOM      7  C   UNL d   1       2.888   0.852  -3.825  0.00  0.00     0.104 A 
ATOM      8  O   UNL d   1       3.955   0.127  -4.293  0.00  0.00    -0.346 OA
ATOM      9  C   UNL d   1       2.464   2.049  -4.403  0.00  0.00     0.102 A 
ATOM     10  C   UNL d   1       4.807   0.940  -5.103  0.00  0.00     0.202 C 
ATOM     11  C   UNL d   1       3.986   1.710  -6.125  0.00  0.00     0.202 C 
ATOM     12  O   UNL d   1       3.077   2.618  -5.488  0.00  0.00    -0.346 OA
ATOM     13  C   UNL d   1       1.377   2.728  -3.857  0.00  0.00     0.042 A 
ATOM     14  C   UNL d   1       0.721   2.214  -2.731  0.00  0.00     0.032 A 
ENDBRANCH   2   5
BRANCH   1  15
ATOM     15  C   UNL d   1       0.137  -0.717   1.084  0.00  0.00     0.032 A 
ATOM     16  C   UNL d   1      -1.263  -0.689   1.031  0.00  0.00     0.020 A 
ATOM     17  C   UNL d   1      -2.004  -1.103   2.143  0.00  0.00     0.043 A 
ATOM     18  C   UNL d   1      -1.348  -1.544   3.289  0.00  0.00     0.116 A 
ATOM     19  C   UNL d   1       0.038  -1.575   3.355  0.00  0.00     0.043 A 
ATOM     20  F   UNL d   1      -2.066  -1.961   4.341  0.00  0.00    -0.206 F 
ATOM     21  C   UNL d   1       0.782  -1.163   2.251  0.00  0.00     0.020 A 
ENDBRANCH   1  15
TORSDOF 2
