REMARK  2 active torsions:
REMARK  status: ('A' for Active; 'I' for Inactive)
REMARK    1  A    between atoms: C_6  and  N_1 
REMARK    2  A    between atoms: C_8  and  C_6 
ROOT
ATOM      1  N   UNL d   1       1.692  -0.942  -0.050  0.00  0.00    -0.286 N 
ATOM      2  C   UNL d   1       1.272  -0.157   1.003  0.00  0.00     0.373 A 
ATOM      3  O   UNL d   1       0.833   1.096   0.556  0.00  0.00    -0.259 OA
ATOM      4  C   UNL d   1       1.545  -0.209  -1.204  0.00  0.00     0.073 A 
ATOM      5  C   UNL d   1       1.020   1.007  -0.813  0.00  0.00     0.107 A 
ATOM      6  O   UNL d   1       1.263  -0.482   2.186  0.00  0.00    -0.237 OA
ATOM      7  C   UNL d   1       1.815  -0.505  -2.522  0.00  0.00     0.033 A 
ATOM      8  C   UNL d   1       0.723   1.995  -1.727  0.00  0.00     0.040 A 
ATOM      9  C   UNL d   1       1.539   0.488  -3.466  0.00  0.00     0.002 A 
ATOM     10  C   UNL d   1       0.994   1.727  -3.072  0.00  0.00     0.003 A 
ENDROOT
BRANCH   1  11
ATOM     11  C   UNL d   1       2.118  -2.311   0.038  0.00  0.00     0.173 C 
BRANCH  11  12
ATOM     12  C   UNL d   1       3.615  -2.491   0.114  0.00  0.00    -0.038 A 
ATOM     13  C   UNL d   1       4.298  -3.206  -0.883  0.00  0.00     0.032 A 
ATOM     14  C   UNL d   1       5.654  -3.498  -0.735  0.00  0.00     0.034 A 
ATOM     15 CL   UNL d   1       6.459  -4.436  -1.933  0.00  0.00    -0.084 Cl
ATOM     16  C   UNL d   1       6.353  -3.068   0.391  0.00  0.00     0.024 A 
ATOM     17  C   UNL d   1       5.695  -2.321   1.367  0.00  0.00     0.002 A 
ATOM     18  C   UNL d   1       4.335  -2.034   1.230  0.00  0.00     0.009 A 
ENDBRANCH  11  12
ENDBRANCH   1  11
TORSDOF 2
