REMARK  5 active torsions:
REMARK  status: ('A' for Active; 'I' for Inactive)
REMARK    1  A    between atoms: C_2  and  C_1 
REMARK       I    between atoms: N_8  and  C_2 
REMARK    2  A    between atoms: C_11  and  N_8 
REMARK    3  A    between atoms: C_9  and  S_10 
REMARK    4  A    between atoms: S_10  and  C_15 
REMARK    5  A    between atoms: C_15  and  C_11 
ROOT
ATOM      1  C   UNL d   1      -1.552   4.103  -1.757  0.00  0.00     0.275 C 
ATOM      2  O   UNL d   1      -1.565   2.981  -1.255  0.00  0.00    -0.265 OA
ATOM      3  N   UNL d   1      -0.758   5.120  -1.277  0.00  0.00    -0.354 N 
ATOM      4  H   UNL d   1      -0.931   6.051  -1.647  0.00  0.00     0.162 HD
ENDROOT
BRANCH   3   5
ATOM      5  C   UNL d   1       0.023   4.992  -0.067  0.00  0.00     0.133 C 
BRANCH   5   6
ATOM      6  C   UNL d   1       1.240   5.920  -0.058  0.00  0.00     0.094 C 
BRANCH   6   7
ATOM      7  S   UNL d   1       0.738   7.683  -0.116  0.00  0.00    -0.159 SA
BRANCH   7   8
ATOM      8  C   UNL d   1       2.374   8.548  -0.045  0.00  0.00    -0.003 C 
ATOM      9  C   UNL d   1       3.200   8.239  -1.299  0.00  0.00     0.026 C 
ATOM     10  C   UNL d   1       2.077  10.057  -0.002  0.00  0.00     0.026 C 
ATOM     11  C   UNL d   1       3.144   8.160   1.222  0.00  0.00     0.026 C 
ENDBRANCH   7   8
ENDBRANCH   6   7
ENDBRANCH   5   6
ENDBRANCH   3   5
BRANCH   1  12
ATOM     12  C   UNL d   1      -2.356   4.474  -2.903  0.00  0.00     0.142 A 
ATOM     13  O   UNL d   1      -2.303   5.760  -3.378  0.00  0.00    -0.317 OA
ATOM     14  C   UNL d   1      -3.133   5.825  -4.451  0.00  0.00     0.143 A 
ATOM     15  C   UNL d   1      -3.724   4.605  -4.678  0.00  0.00     0.027 A 
ATOM     16  C   UNL d   1      -3.229   3.735  -3.678  0.00  0.00     0.045 A 
ENDBRANCH   1  12
TORSDOF 5
