REMARK  6 active torsions:
REMARK  status: ('A' for Active; 'I' for Inactive)
REMARK    1  A    between atoms: N_7  and  S_1 
REMARK    2  A    between atoms: C_14  and  S_1 
REMARK    3  A    between atoms: N_2  and  C_15 
REMARK    4  A    between atoms: C_12  and  C_6 
REMARK    5  A    between atoms: N_11  and  C_10 
REMARK    6  A    between atoms: S_23  and  C_10 
ROOT
ATOM      1  C   UNL d   1      -0.736   0.141   2.467  0.00  0.00     0.080 A 
ATOM      2  C   UNL d   1      -1.106   2.726   3.478  0.00  0.00     0.057 A 
ATOM      3  C   UNL d   1      -2.025   0.686   2.534  0.00  0.00     0.027 A 
ATOM      4  C   UNL d   1       0.365   0.872   2.917  0.00  0.00     0.027 A 
ATOM      5  C   UNL d   1       0.177   2.159   3.430  0.00  0.00     0.033 A 
ATOM      6  C   UNL d   1      -2.210   1.973   3.051  0.00  0.00     0.033 A 
ENDROOT
BRANCH   1   7
ATOM      7  S   UNL d   1      -0.514  -1.592   2.066  0.00  0.00     0.264 S 
ATOM      8  O   UNL d   1       0.277  -2.107   3.170  0.00  0.00    -0.200 OA
ATOM      9  O   UNL d   1      -1.845  -2.100   1.807  0.00  0.00    -0.200 OA
BRANCH   7  10
ATOM     10  N   UNL d   1       0.348  -1.629   0.692  0.00  0.00    -0.260 N 
ATOM     11  C   UNL d   1       0.774  -2.745   0.171  0.00  0.00     0.151 C 
ATOM     12  HN  UNL d   1       0.564  -0.750   0.221  1.00  0.00     0.181 HD
BRANCH  11  13
ATOM     13  N   UNL d   1       1.513  -2.769  -1.024  0.00  0.00    -0.361 N 
ATOM     14  C   UNL d   1       2.037  -1.527  -1.623  0.00  0.00     0.129 C 
ATOM     15  C   UNL d   1       1.745  -1.503  -3.137  0.00  0.00    -0.000 C 
ATOM     16  C   UNL d   1       2.344  -0.265  -3.805  0.00  0.00     0.011 C 
ATOM     17  C   UNL d   1       2.272  -2.770  -3.827  0.00  0.00     0.011 C 
ATOM     18  C   UNL d   1       1.752  -4.025  -3.122  0.00  0.00    -0.000 C 
ATOM     19  C   UNL d   1       2.110  -3.973  -1.629  0.00  0.00     0.129 C 
ATOM     20  C   UNL d   1       2.305  -5.288  -3.777  0.00  0.00     0.011 C 
ENDBRANCH  11  13
BRANCH  11  21
ATOM     21  S   UNL d   1       0.489  -4.329   0.935  0.00  0.00    -0.098 SA
ATOM     22  C   UNL d   1      -1.066  -4.780   0.138  0.00  0.00     0.099 C 
ENDBRANCH  11  21
ENDBRANCH   7  10
ENDBRANCH   1   7
BRANCH   2  23
ATOM     23  N   UNL d   1      -1.312   4.043   3.990  0.00  0.00    -0.255 N 
ATOM     24  C   UNL d   1      -0.443   5.132   4.008  0.00  0.00     0.076 C 
ATOM     25  C   UNL d   1      -1.028   6.058   4.850  0.00  0.00     0.069 C 
ATOM     26  C   UNL d   1       0.766   5.278   3.237  0.00  0.00     0.033 A 
ATOM     27  C   UNL d   1      -2.301   5.538   5.185  0.00  0.00     0.135 C 
ATOM     28  N   UNL d   1      -2.502   4.353   4.580  0.00  0.00    -0.289 N 
ATOM     29  HN  UNL d   1      -3.361   3.803   4.564  1.00  0.00     0.187 HD
ATOM     30  S   UNL d   1       2.111   6.159   3.836  0.00  0.00    -0.100 SA
ATOM     31  C   UNL d   1       1.017   4.804   1.961  0.00  0.00     0.021 A 
ATOM     32  C   UNL d   1       3.032   5.849   2.431  0.00  0.00     0.050 A 
ATOM     33  C   UNL d   1       2.337   5.098   1.512  0.00  0.00     0.008 A 
BRANCH  27  34
ATOM     34  C   UNL d   1      -3.324   6.220   6.057  0.00  0.00     0.434 C 
ATOM     35  F   UNL d   1      -4.464   5.503   6.234  0.00  0.00    -0.165 F 
ATOM     36  F   UNL d   1      -2.826   6.476   7.298  0.00  0.00    -0.165 F 
ATOM     37  F   UNL d   1      -3.694   7.424   5.541  0.00  0.00    -0.165 F 
ENDBRANCH  27  34
ENDBRANCH   2  23
TORSDOF 6
