REMARK  1 active torsions:
REMARK  status: ('A' for Active; 'I' for Inactive)
REMARK    1  A    between atoms: C_2  and  N_1 
ROOT
ATOM      1  C   UNL d   1      -0.114   2.240  -0.172  0.00  0.00     0.181 A 
ATOM      2  C   UNL d   1      -0.704   2.883   0.895  0.00  0.00     0.160 A 
ATOM      3  N   UNL d   1       0.454   3.147  -1.037  0.00  0.00    -0.337 N 
ATOM      4  HN  UNL d   1       0.961   2.947  -1.899  1.00  0.00     0.168 HD
ATOM      5  N   UNL d   1      -0.503   4.218   0.650  0.00  0.00    -0.336 N 
ATOM      6  C   UNL d   1       0.204   4.326  -0.516  0.00  0.00     0.185 A 
ATOM      7  C   UNL d   1      -1.378   2.320   2.011  0.00  0.00     0.121 C 
ATOM      8  N   UNL d   1      -1.932   1.910   2.943  0.00  0.00    -0.190 NA
ATOM      9  C   UNL d   1      -0.954   5.348   1.424  0.00  0.00     0.158 C 
ENDROOT
BRANCH   1  10
ATOM     10  N   UNL d   1      -0.087   0.900  -0.378  0.00  0.00     0.055 NA
ATOM     11  O   UNL d   1      -0.094   0.499  -1.713  0.00  0.00    -0.082 OA
ATOM     12  O   UNL d   1       1.094   0.396  -0.917  0.00  0.00    -0.082 OA
ENDBRANCH   1  10
TORSDOF 1
