REMARK  5 active torsions:
REMARK  status: ('A' for Active; 'I' for Inactive)
REMARK    1  A    between atoms: C_7  and  C_1 
REMARK    2  A    between atoms: S_2  and  N_8 
REMARK    3  A    between atoms: C_10  and  S_2 
REMARK    4  A    between atoms: S_15  and  C_4 
REMARK       I    between atoms: N_9  and  C_7 
REMARK    5  A    between atoms: N_8  and  N_9 
ROOT
ATOM      1  C   UNL d   1      -2.659  -2.083   0.015  0.00  0.00     0.278 C 
ATOM      2  N   UNL d   1      -2.208  -3.382   0.208  0.00  0.00    -0.256 N 
ATOM      3  O   UNL d   1      -3.866  -1.853  -0.084  0.00  0.00    -0.265 OA
ATOM      4  H   UNL d   1      -1.219  -3.591   0.336  0.00  0.00     0.191 HD
ENDROOT
BRANCH   2   5
ATOM      5  N   UNL d   1      -3.160  -4.483   0.322  0.00  0.00    -0.220 N 
ATOM      6  H   UNL d   1      -4.159  -4.254   0.343  0.00  0.00     0.200 HD
BRANCH   5   7
ATOM      7  S   UNL d   1      -2.620  -5.946   0.973  0.00  0.00     0.276 S 
ATOM      8  O   UNL d   1      -1.514  -6.409   0.164  0.00  0.00    -0.199 OA
ATOM      9  O   UNL d   1      -2.472  -5.742   2.399  0.00  0.00    -0.199 OA
BRANCH   7  10
ATOM     10  C   UNL d   1      -3.992  -7.045   0.710  0.00  0.00     0.081 A 
ATOM     11  C   UNL d   1      -4.318  -7.427  -0.596  0.00  0.00     0.027 A 
ATOM     12  C   UNL d   1      -5.360  -8.334  -0.810  0.00  0.00     0.025 A 
ATOM     13  C   UNL d   1      -6.060  -8.860   0.277  0.00  0.00     0.034 A 
ATOM     14  C   UNL d   1      -5.725  -8.489   1.580  0.00  0.00     0.025 A 
ATOM     15 CL   UNL d   1      -7.337  -9.982   0.010  0.00  0.00    -0.084 Cl
ATOM     16  C   UNL d   1      -4.686  -7.581   1.801  0.00  0.00     0.027 A 
ENDBRANCH   7  10
ENDBRANCH   5   7
ENDBRANCH   2   5
BRANCH   1  17
ATOM     17  C   UNL d   1      -1.627  -1.043  -0.041  0.00  0.00     0.082 A 
ATOM     18  S   UNL d   1       0.041  -1.456   0.033  0.00  0.00    -0.076 SA
ATOM     19  C   UNL d   1       0.553   0.175  -0.028  0.00  0.00     0.052 A 
ATOM     20  C   UNL d   1      -0.527   1.026  -0.134  0.00  0.00    -0.005 A 
ATOM     21  C   UNL d   1      -1.789   0.337  -0.142  0.00  0.00    -0.023 A 
ATOM     22  C   UNL d   1      -0.473   2.453  -0.198  0.00  0.00     0.010 A 
ATOM     23  C   UNL d   1      -3.100   1.080  -0.206  0.00  0.00     0.045 A 
ATOM     24  C   UNL d   1      -2.974   2.615  -0.325  0.00  0.00     0.032 A 
ATOM     25  C   UNL d   1      -1.587   3.196  -0.293  0.00  0.00    -0.025 A 
BRANCH  19  26
ATOM     26  S   UNL d   1       2.266   0.562   0.120  0.00  0.00    -0.126 SA
ATOM     27  C   UNL d   1       2.635   1.205  -1.526  0.00  0.00     0.096 C 
ENDBRANCH  19  26
ENDBRANCH   1  17
TORSDOF 5
