REMARK  2 active torsions:
REMARK  status: ('A' for Active; 'I' for Inactive)
REMARK    1  A    between atoms: C_11  and  C_1 
REMARK    2  A    between atoms: C_7  and  C_2 
ROOT
ATOM      1  C   UNL d   1      -0.840   0.963  -0.021  0.00  0.00     0.127 A 
ATOM      2  C   UNL d   1      -0.302  -1.190  -0.047  0.00  0.00     0.069 A 
ATOM      3  C   UNL d   1      -1.381  -0.289   0.132  0.00  0.00     0.074 A 
ATOM      4  N   UNL d   1       0.846  -0.505  -0.198  0.00  0.00    -0.260 N 
ATOM      5  HN  UNL d   1       1.783  -0.896  -0.294  1.00  0.00     0.195 HD
ATOM      6  O   UNL d   1       0.503   0.836  -0.196  0.00  0.00    -0.235 OA
ENDROOT
BRANCH   1   7
ATOM      7  C   UNL d   1      -1.405   2.300  -0.063  0.00  0.00     0.071 A 
ATOM      8  N   UNL d   1      -2.751   2.322   0.043  0.00  0.00    -0.344 N 
ATOM      9  C   UNL d   1      -3.347   3.523  -0.043  0.00  0.00     0.077 A 
ATOM     10  HN  UNL d   1      -3.290   1.467   0.180  1.00  0.00     0.167 HD
ATOM     11  C   UNL d   1      -4.840   3.567   0.038  0.00  0.00     0.089 C 
ATOM     12  N   UNL d   1      -2.695   4.686  -0.216  0.00  0.00    -0.356 N 
ATOM     13  C   UNL d   1      -1.355   4.614  -0.309  0.00  0.00     0.091 A 
ATOM     14  HN  UNL d   1      -3.190   5.575  -0.275  1.00  0.00     0.166 HD
ATOM     15  C   UNL d   1      -0.648   3.438  -0.239  0.00  0.00     0.049 A 
ENDBRANCH   1   7
BRANCH   2  16
ATOM     16  C   UNL d   1      -0.324  -2.655  -0.052  0.00  0.00     0.014 A 
ATOM     17  C   UNL d   1      -1.345  -3.411  -0.657  0.00  0.00     0.048 A 
ATOM     18  C   UNL d   1      -1.324  -4.812  -0.604  0.00  0.00     0.048 A 
ATOM     19 CL   UNL d   1      -2.654  -2.711  -1.550  0.00  0.00    -0.083 Cl
ATOM     20  C   UNL d   1      -0.276  -5.467   0.034  0.00  0.00     0.035 A 
ATOM     21  C   UNL d   1       0.757  -4.742   0.617  0.00  0.00     0.025 A 
ATOM     22 CL   UNL d   1      -0.254  -7.187   0.094  0.00  0.00    -0.084 Cl
ATOM     23  C   UNL d   1       0.733  -3.344   0.574  0.00  0.00     0.017 A 
ENDBRANCH   2  16
TORSDOF 2
