REMARK  5 active torsions:
REMARK  status: ('A' for Active; 'I' for Inactive)
REMARK    1  A    between atoms: N_7  and  C_1 
REMARK    2  A    between atoms: C_4  and  N_18 
REMARK    3  A    between atoms: C_22  and  N_6 
REMARK    4  A    between atoms: C_15  and  C_10 
REMARK    5  A    between atoms: N_18  and  N_16 
ROOT
ATOM      1  C   UNL d   1       0.760   5.790   1.375  0.00  0.00     0.133 A 
ATOM      2  C   UNL d   1      -0.379   6.748   1.508  0.00  0.00     0.291 A 
ATOM      3  C   UNL d   1       1.028   5.158   0.226  0.00  0.00     0.094 A 
ATOM      4  N   UNL d   1      -1.114   6.986   0.335  0.00  0.00    -0.220 N 
ATOM      5  N   UNL d   1      -0.828   6.374  -0.868  0.00  0.00    -0.300 N 
ATOM      6  HN  UNL d   1      -1.383   6.566  -1.702  1.00  0.00     0.186 HD
ATOM      7  C   UNL d   1       0.164   5.552  -0.904  0.00  0.00     0.141 A 
ATOM      8  O   UNL d   1      -0.625   7.217   2.619  0.00  0.00    -0.264 OA
ATOM      9 CL   UNL d   1       1.647   5.429   2.823  0.00  0.00    -0.076 Cl
ENDROOT
BRANCH   3  10
ATOM     10  N   UNL d   1       1.954   4.150  -0.037  0.00  0.00    -0.294 N 
ATOM     11  C   UNL d   1       3.393   4.422   0.077  0.00  0.00     0.178 C 
BRANCH  10  12
ATOM     12  N   UNL d   1       1.667   2.798   0.038  0.00  0.00    -0.306 N 
ATOM     13  C   UNL d   1       0.465   2.416   0.342  0.00  0.00     0.156 C 
ATOM     14  HN  UNL d   1       2.395   2.107  -0.144  1.00  0.00     0.186 HD
BRANCH  13  15
ATOM     15  C   UNL d   1       0.096   1.025   0.458  0.00  0.00     0.126 A 
ATOM     16  N   UNL d   1       0.882  -0.106   0.276  0.00  0.00    -0.317 N 
ATOM     17  C   UNL d   1       0.066  -1.185   0.517  0.00  0.00     0.192 A 
ATOM     18  C   UNL d   1       2.279  -0.045  -0.085  0.00  0.00     0.159 C 
ATOM     19  C   UNL d   1      -1.167  -0.672   0.829  0.00  0.00     0.144 A 
ATOM     20  N   UNL d   1      -1.142   0.694   0.786  0.00  0.00    -0.347 N 
ATOM     21  HN  UNL d   1      -1.919   1.328   0.969  1.00  0.00     0.167 HD
BRANCH  17  22
ATOM     22  N   UNL d   1       0.415  -2.565   0.459  0.00  0.00    -0.096 N 
ATOM     23  O   UNL d   1       1.573  -2.866   0.168  0.00  0.00    -0.530 OA
ATOM     24  O   UNL d   1      -0.493  -3.368   0.709  0.00  0.00    -0.530 OA
ENDBRANCH  17  22
ENDBRANCH  13  15
ENDBRANCH  10  12
ENDBRANCH   3  10
BRANCH   4  25
ATOM     25  C   UNL d   1      -2.230   7.889   0.269  0.00  0.00     0.060 A 
ATOM     26  C   UNL d   1      -2.434   8.899   1.220  0.00  0.00     0.031 A 
ATOM     27  C   UNL d   1      -3.523   9.772   1.133  0.00  0.00     0.002 A 
ATOM     28  C   UNL d   1      -4.438   9.648   0.094  0.00  0.00     0.000 A 
ATOM     29  C   UNL d   1      -4.260   8.656  -0.864  0.00  0.00     0.002 A 
ATOM     30  C   UNL d   1      -3.162   7.792  -0.782  0.00  0.00     0.031 A 
ENDBRANCH   4  25
TORSDOF 5
