REMARK  3 active torsions:
REMARK  status: ('A' for Active; 'I' for Inactive)
REMARK    1  A    between atoms: C_2  and  N_1 
REMARK    2  A    between atoms: C_12  and  C_8 
REMARK    3  A    between atoms: O_10  and  C_12 
ROOT
ATOM      1  C   UNL d   1      -0.677  -2.465   0.027  0.00  0.00     0.038 A 
ATOM      2  C   UNL d   1      -1.504  -2.954  -0.999  0.00  0.00     0.039 A 
ATOM      3  C   UNL d   1      -1.843  -4.317  -1.075  0.00  0.00    -0.033 A 
ATOM      4  C   UNL d   1      -0.205  -3.362   0.996  0.00  0.00     0.030 A 
ATOM      5  C   UNL d   1      -0.541  -4.717   0.930  0.00  0.00     0.003 A 
ATOM      6  C   UNL d   1      -1.346  -5.193  -0.103  0.00  0.00     0.009 A 
ENDROOT
BRANCH   1   7
ATOM      7  N   UNL d   1      -0.298  -1.085   0.065  0.00  0.00    -0.333 N 
ATOM      8  C   UNL d   1      -0.713  -0.087  -0.801  0.00  0.00     0.096 A 
ATOM      9  C   UNL d   1      -0.089   1.098  -0.473  0.00  0.00     0.019 A 
ATOM     10  C   UNL d   1       0.731   0.840   0.641  0.00  0.00     0.019 A 
ATOM     11  C   UNL d   1       0.578  -0.492   0.960  0.00  0.00     0.096 A 
ENDBRANCH   1   7
BRANCH   3  12
ATOM     12  C   UNL d   1      -2.642  -4.863  -2.232  0.00  0.00     0.203 C 
BRANCH  12  13
ATOM     13  O   UNL d   1      -3.559  -3.898  -2.729  0.00  0.00    -0.396 OA
ATOM     14  H   UNL d   1      -3.995  -4.302  -3.497  0.00  0.00     0.209 HD
ENDBRANCH  12  13
ENDBRANCH   3  12
TORSDOF 3
