REMARK  4 active torsions:
REMARK  status: ('A' for Active; 'I' for Inactive)
REMARK    1  A    between atoms: C_12  and  N_1 
REMARK    2  A    between atoms: N_9  and  C_15 
REMARK    3  A    between atoms: C_10  and  C_12 
REMARK    4  A    between atoms: C_16  and  C_11 
ROOT
ATOM      1  N   UNL d   1       1.333  -4.153  -0.982  0.00  0.00    -0.351 N 
ATOM      2  HN  UNL d   1       0.869  -4.364  -1.866  1.00  0.00     0.166 HD
ATOM      3  C   UNL d   1       0.883  -3.302  -0.076  0.00  0.00     0.071 A 
ATOM      4  C   UNL d   1       2.529  -4.718  -0.557  0.00  0.00     0.049 A 
ATOM      5  S   UNL d   1       1.872  -3.138   1.325  0.00  0.00    -0.085 SA
ATOM      6  C   UNL d   1       2.980  -4.260   0.665  0.00  0.00     0.081 A 
ENDROOT
BRANCH   3   7
ATOM      7  C   UNL d   1      -0.413  -2.561  -0.158  0.00  0.00     0.213 C 
BRANCH   7   8
ATOM      8  N   UNL d   1      -0.229  -1.239  -0.745  0.00  0.00    -0.289 N 
ATOM      9  N   UNL d   1      -0.008  -0.192   0.088  0.00  0.00    -0.301 N 
ATOM     10  C   UNL d   1       0.043   0.875  -0.719  0.00  0.00     0.041 A 
ATOM     11  HN  UNL d   1       0.097  -0.213   1.102  1.00  0.00     0.187 HD
ATOM     12  C   UNL d   1       0.279   2.228  -0.158  0.00  0.00     0.071 C 
ATOM     13  C   UNL d   1      -0.167   0.500  -2.058  0.00  0.00     0.058 A 
ATOM     14  C   UNL d   1      -0.354  -0.864  -2.063  0.00  0.00     0.044 A 
ATOM     15 BR   UNL d   1      -0.202   1.666  -3.524  0.00  0.00    -0.047 Br
ATOM     16  C   UNL d   1      -0.630  -1.788  -3.192  0.00  0.00     0.071 C 
ENDBRANCH   7   8
ENDBRANCH   3   7
BRANCH   4  17
ATOM     17  C   UNL d   1       3.233  -5.715  -1.360  0.00  0.00    -0.007 A 
ATOM     18  C   UNL d   1       3.113  -5.702  -2.757  0.00  0.00     0.049 A 
ATOM     19  C   UNL d   1       3.779  -6.670  -3.524  0.00  0.00     0.103 A 
ATOM     20  C   UNL d   1       4.565  -7.657  -2.913  0.00  0.00     0.036 A 
ATOM     21  C   UNL d   1       4.682  -7.674  -1.526  0.00  0.00     0.003 A 
ATOM     22  C   UNL d   1       4.020  -6.712  -0.757  0.00  0.00     0.014 A 
BRANCH  19  23
ATOM     23  N   UNL d   1       3.654  -6.657  -4.988  0.00  0.00    -0.116 N 
ATOM     24  O   UNL d   1       2.964  -5.763  -5.500  0.00  0.00    -0.532 OA
ATOM     25  O   UNL d   1       4.246  -7.540  -5.625  0.00  0.00    -0.532 OA
ENDBRANCH  19  23
ENDBRANCH   4  17
TORSDOF 4
