REMARK  3 active torsions:
REMARK  status: ('A' for Active; 'I' for Inactive)
REMARK    1  A    between atoms: S_8  and  C_3 
REMARK    2  A    between atoms: C_7  and  C_4 
REMARK    3  A    between atoms: O_16  and  C_13 
ROOT
ATOM      1  N   UNL d   1      -0.003  -1.370  -0.417  0.00  0.00    -0.336 N 
ATOM      2  HN  UNL d   1       0.073  -2.282  -0.867  1.00  0.00     0.168 HD
ATOM      3  C   UNL d   1      -1.181  -0.729  -0.341  0.00  0.00     0.144 A 
ATOM      4  C   UNL d   1       1.078  -0.766   0.123  0.00  0.00     0.045 A 
ATOM      5  N   UNL d   1      -1.359   0.474   0.225  0.00  0.00    -0.347 N 
ATOM      6  HN  UNL d   1      -2.275   0.922   0.261  1.00  0.00     0.167 HD
ATOM      7  C   UNL d   1       0.984   0.479   0.717  0.00  0.00     0.047 A 
ATOM      8  C   UNL d   1      -0.264   1.054   0.741  0.00  0.00     0.092 A 
ENDROOT
BRANCH   4   9
ATOM      9  C   UNL d   1       2.346  -1.524   0.035  0.00  0.00    -0.009 A 
ATOM     10  C   UNL d   1       2.575  -2.425  -1.022  0.00  0.00     0.016 A 
ATOM     11  C   UNL d   1       3.763  -3.164  -1.121  0.00  0.00     0.037 A 
ATOM     12  C   UNL d   1       4.755  -3.024  -0.155  0.00  0.00     0.068 A 
ATOM     13  C   UNL d   1       4.549  -2.137   0.900  0.00  0.00     0.037 A 
ATOM     14  C   UNL d   1       3.363  -1.399   0.997  0.00  0.00     0.016 A 
BRANCH  12  15
ATOM     15  O   UNL d   1       5.950  -3.688  -0.119  0.00  0.00    -0.356 OA
ATOM     16  C   UNL d   1       6.194  -4.626  -1.159  0.00  0.00     0.210 C 
ENDBRANCH  12  15
ENDBRANCH   4   9
BRANCH   3  17
ATOM     17  S   UNL d   1      -2.574  -1.568  -1.057  0.00  0.00    -0.098 SA
ATOM     18  C   UNL d   1      -3.896  -0.397  -0.667  0.00  0.00     0.099 C 
ENDBRANCH   3  17
TORSDOF 3
