REMARK  5 active torsions:
REMARK  status: ('A' for Active; 'I' for Inactive)
REMARK    1  A    between atoms: C_2  and  S_1 
REMARK    2  A    between atoms: O_9  and  S_1 
REMARK    3  A    between atoms: C_16  and  S_15 
REMARK    4  A    between atoms: C_18  and  S_15 
REMARK    5  A    between atoms: N_19  and  S_15 
ROOT
ATOM      1  S   UNL d   2      -0.006   1.812  -0.018  0.00  0.00    -0.060 SA
ENDROOT
BRANCH   1   2
ATOM      2  C   UNL d   2       1.651   2.237  -0.319  0.00  0.00     0.051 A 
ATOM      3  S   UNL d   2       2.554   3.586   0.182  0.00  0.00    -0.094 SA
ATOM      4  C   UNL d   2       3.909   3.124  -0.759  0.00  0.00     0.051 A 
ATOM      5  C   UNL d   2       3.695   1.939  -1.428  0.00  0.00     0.009 A 
ATOM      6  C   UNL d   2       2.388   1.435  -1.178  0.00  0.00     0.027 A 
ENDBRANCH   1   2
BRANCH   1   7
ATOM      7  C   UNL d   2      -0.498   1.978   1.696  0.00  0.00     0.011 A 
ATOM      8  C   UNL d   2       0.007   2.878   2.628  0.00  0.00     0.021 A 
ATOM      9  C   UNL d   2      -0.485   2.890   3.942  0.00  0.00     0.025 A 
ATOM     10  C   UNL d   2      -1.480   1.992   4.332  0.00  0.00     0.034 A 
ATOM     11  C   UNL d   2      -2.005   1.098   3.421  0.00  0.00     0.025 A 
ATOM     12 CL   UNL d   2      -2.072   2.004   5.950  0.00  0.00    -0.084 Cl
ATOM     13  C   UNL d   2      -1.525   1.106   2.110  0.00  0.00     0.021 A 
ENDBRANCH   1   7
BRANCH   1  14
ATOM     14  N   UNL d   2      -0.601   3.131  -0.439  0.00  0.00    -0.191 NA
ATOM     15  H   UNL d   2      -0.351   3.298  -1.421  0.00  0.00     0.155 HD
ENDBRANCH   1  14
TORSDOF 5
