REMARK  0 active torsions:
REMARK  status: ('A' for Active; 'I' for Inactive)
ROOT
ATOM      1  C   UNL d   1      -0.421  -2.094  -1.234  0.00  0.00     0.069 C 
ATOM      2  C   UNL d   1       7.229   1.363   1.435  0.00  0.00     0.069 C 
ATOM      3  C   UNL d   1       6.800   0.931   0.234  0.00  0.00     0.123 C 
ATOM      4  C   UNL d   1       0.490  -1.119  -1.370  0.00  0.00     0.123 C 
ATOM      5  C   UNL d   1       6.846   1.978  -0.817  0.00  0.00     0.079 C 
ATOM      6  C   UNL d   1       0.165   0.267  -0.868  0.00  0.00     0.079 C 
ATOM      7  C   UNL d   1      -0.888  -1.984   0.174  0.00  0.00     0.064 C 
ATOM      8  C   UNL d   1       8.031   2.640   1.503  0.00  0.00     0.064 C 
ATOM      9  N   UNL d   1       0.991   1.268  -1.002  0.00  0.00    -0.351 N 
ATOM     10  HN  UNL d   1       0.701   2.239  -0.880  1.00  0.00     0.166 HD
ATOM     11  N   UNL d   1       5.784   2.290  -1.493  0.00  0.00    -0.351 N 
ATOM     12  HN  UNL d   1       5.748   3.074  -2.143  1.00  0.00     0.166 HD
ATOM     13  N   UNL d   1      -0.428  -2.719   1.148  0.00  0.00    -0.353 N 
ATOM     14  HN  UNL d   1      -0.807  -2.664   2.093  1.00  0.00     0.166 HD
ATOM     15  N   UNL d   1       8.106   3.471   2.491  0.00  0.00    -0.353 N 
ATOM     16  HN  UNL d   1       8.794   4.223   2.486  1.00  0.00     0.166 HD
ATOM     17  S   UNL d   1       6.812   0.627   2.936  0.00  0.00    -0.083 SA
ATOM     18  S   UNL d   1      -0.303  -3.718  -1.794  0.00  0.00    -0.083 SA
ATOM     19  O   UNL d   1       6.025  -0.174  -0.045  0.00  0.00    -0.305 OA
ATOM     20  O   UNL d   1       1.782  -1.401  -1.756  0.00  0.00    -0.305 OA
ATOM     21  C   UNL d   1      -1.175   0.386  -0.212  0.00  0.00     0.006 A 
ATOM     22  C   UNL d   1      -1.716  -0.788   0.352  0.00  0.00     0.005 A 
ATOM     23  C   UNL d   1       8.770   2.960   0.257  0.00  0.00     0.005 A 
ATOM     24  C   UNL d   1       8.147   2.626  -0.945  0.00  0.00     0.006 A 
ATOM     25  C   UNL d   1       2.327   0.905  -1.334  0.00  0.00     0.069 C 
ATOM     26  C   UNL d   1       4.678   1.438  -1.242  0.00  0.00     0.069 C 
ATOM     27  C   UNL d   1       4.912   0.119  -0.816  0.00  0.00     0.105 C 
ATOM     28  C   UNL d   1       2.696  -0.449  -1.399  0.00  0.00     0.105 C 
ATOM     29  C   UNL d   1       3.352   1.854  -1.383  0.00  0.00     0.065 C 
ATOM     30  C   UNL d   1       3.970  -0.866  -1.032  0.00  0.00     0.079 C 
ATOM     31  C   UNL d   1       0.649  -3.612   0.807  0.00  0.00     0.050 A 
ATOM     32  C   UNL d   1       7.220   3.318   3.572  0.00  0.00     0.050 A 
ATOM     33  C   UNL d   1       6.519   2.133   3.863  0.00  0.00     0.032 A 
ATOM     34  C   UNL d   1       0.790  -4.206  -0.471  0.00  0.00     0.032 A 
ATOM     35  C   UNL d   1      -2.966  -0.809   0.959  0.00  0.00     0.014 A 
ATOM     36  C   UNL d   1      -1.887   1.577  -0.126  0.00  0.00     0.014 A 
ATOM     37  C   UNL d   1      10.006   3.600   0.248  0.00  0.00     0.014 A 
ATOM     38  C   UNL d   1       8.771   2.843  -2.169  0.00  0.00     0.014 A 
ATOM     39  C   UNL d   1       1.718  -3.760   1.697  0.00  0.00     0.031 A 
ATOM     40  C   UNL d   1       6.966   4.467   4.332  0.00  0.00     0.031 A 
ATOM     41  C   UNL d   1       5.552   2.134   4.878  0.00  0.00     0.021 A 
ATOM     42  C   UNL d   1       1.917  -4.958  -0.823  0.00  0.00     0.021 A 
ATOM     43  C   UNL d   1      -3.701   0.376   0.984  0.00  0.00     0.001 A 
ATOM     44  C   UNL d   1      -3.163   1.560   0.455  0.00  0.00     0.001 A 
ATOM     45  C   UNL d   1      10.645   3.822  -0.975  0.00  0.00     0.001 A 
ATOM     46  C   UNL d   1      10.039   3.428  -2.177  0.00  0.00     0.001 A 
ATOM     47  C   UNL d   1       2.874  -4.469   1.327  0.00  0.00     0.002 A 
ATOM     48  C   UNL d   1       2.967  -5.079   0.077  0.00  0.00     0.002 A 
ATOM     49  C   UNL d   1       5.292   3.298   5.609  0.00  0.00     0.002 A 
ATOM     50  C   UNL d   1       6.009   4.461   5.346  0.00  0.00     0.002 A 
ENDROOT
TORSDOF 0
