REMARK  7 active torsions:
REMARK  status: ('A' for Active; 'I' for Inactive)
REMARK    1  A    between atoms: C_2  and  S_1 
REMARK    2  A    between atoms: C_15  and  S_1 
REMARK    3  A    between atoms: C_3  and  C_2 
REMARK    4  A    between atoms: N_18  and  C_3 
REMARK    5  A    between atoms: C_4  and  O_8 
REMARK    6  A    between atoms: C_5  and  C_4 
REMARK    7  A    between atoms: O_8  and  N_6 
ROOT
ATOM      1  C   UNL d   1       1.185  -1.805  -1.739  0.00  0.00     0.089 C 
ATOM      2  N   UNL d   1       2.207  -1.222  -2.281  0.00  0.00    -0.250 N 
ATOM      3  HN  UNL d   1       2.769  -1.629  -3.029  1.00  0.00     0.196 HD
ENDROOT
BRANCH   2   4
ATOM      4  O   UNL d   1       2.447   0.048  -1.709  0.00  0.00    -0.194 OA
BRANCH   4   5
ATOM      5  C   UNL d   1       3.391   0.708  -2.446  0.00  0.00     0.315 C 
ATOM      6  O   UNL d   1       4.045   0.270  -3.383  0.00  0.00    -0.257 OA
BRANCH   5   7
ATOM      7  C   UNL d   1       3.572   2.097  -1.941  0.00  0.00     0.044 A 
ATOM      8  C   UNL d   1       4.701   2.807  -2.376  0.00  0.00     0.041 A 
ATOM      9  C   UNL d   1       4.915   4.115  -1.942  0.00  0.00     0.036 A 
ATOM     10 CL   UNL d   1       6.308   4.973  -2.474  0.00  0.00    -0.084 Cl
ATOM     11  C   UNL d   1       4.012   4.732  -1.083  0.00  0.00     0.047 A 
ATOM     12  C   UNL d   1       2.884   4.030  -0.662  0.00  0.00     0.036 A 
ATOM     13  C   UNL d   1       2.655   2.719  -1.086  0.00  0.00     0.041 A 
ATOM     14 CL   UNL d   1       1.756   4.792   0.391  0.00  0.00    -0.084 Cl
ENDBRANCH   5   7
ENDBRANCH   4   5
ENDBRANCH   2   4
BRANCH   1  15
ATOM     15  C   UNL d   1       0.741  -3.106  -2.366  0.00  0.00     0.212 C 
BRANCH  15  16
ATOM     16  S   UNL d   1       0.899  -4.468  -1.244  0.00  0.00     0.154 S 
ATOM     17  O   UNL d   1       0.391  -5.646  -1.923  0.00  0.00    -0.227 OA
ATOM     18  O   UNL d   1       0.299  -4.050   0.015  0.00  0.00    -0.227 OA
BRANCH  16  19
ATOM     19  C   UNL d   1       2.667  -4.705  -0.962  0.00  0.00     0.100 C 
ATOM     20  C   UNL d   1       2.870  -5.835   0.049  0.00  0.00     0.026 C 
ATOM     21  C   UNL d   1       3.417  -5.017  -2.251  0.00  0.00     0.026 C 
ENDBRANCH  16  19
ENDBRANCH  15  16
ENDBRANCH   1  15
BRANCH   1  22
ATOM     22  N   UNL d   1       0.465  -1.299  -0.682  0.00  0.00    -0.290 NA
ATOM     23  H   UNL d   1       0.005  -1.994  -0.085  0.00  0.00     0.125 HD
ATOM     24  H   UNL d   1       0.955  -0.595  -0.142  0.00  0.00     0.125 HD
ENDBRANCH   1  22
TORSDOF 7
