REMARK  6 active torsions:
REMARK  status: ('A' for Active; 'I' for Inactive)
REMARK    1  A    between atoms: C_8  and  N_3 
REMARK    2  A    between atoms: S_11  and  C_7 
REMARK    3  A    between atoms: C_9  and  C_16 
REMARK       I    between atoms: N_10  and  C_9 
REMARK    4  A    between atoms: C_18  and  N_10 
REMARK    5  A    between atoms: C_16  and  S_11 
REMARK       I    between atoms: C_13  and  N_14 
REMARK    6  A    between atoms: N_14  and  C_15 
ROOT
ATOM      1  N   UNL d   1      -0.283  -1.231  -0.461  0.00  0.00    -0.259 N 
ATOM      2  HN  UNL d   1      -0.411  -2.120  -0.944  1.00  0.00     0.191 HD
ATOM      3  N   UNL d   1       0.837  -0.704   0.108  0.00  0.00    -0.178 N 
ATOM      4  N   UNL d   1       0.638   0.498   0.698  0.00  0.00     0.003 NA
ATOM      5  N   UNL d   1      -0.641   0.785   0.489  0.00  0.00    -0.261 N 
ATOM      6  HN  UNL d   1      -1.134   1.625   0.792  1.00  0.00     0.186 HD
ATOM      7  C   UNL d   1      -1.167  -0.265  -0.211  0.00  0.00     0.174 A 
ENDROOT
BRANCH   7   8
ATOM      8  S   UNL d   1      -2.813  -0.283  -0.786  0.00  0.00    -0.082 SA
BRANCH   8   9
ATOM      9  C   UNL d   1      -2.971  -1.967  -1.452  0.00  0.00     0.185 C 
BRANCH   9  10
ATOM     10  C   UNL d   1      -4.421  -2.217  -1.887  0.00  0.00     0.233 C 
ATOM     11  N   UNL d   1      -4.755  -2.051  -3.249  0.00  0.00    -0.322 N 
ATOM     12  C   UNL d   1      -3.789  -1.521  -4.216  0.00  0.00     0.159 C 
ATOM     13  O   UNL d   1      -5.211  -2.598  -1.016  0.00  0.00    -0.272 OA
BRANCH  11  14
ATOM     14  C   UNL d   1      -6.067  -2.382  -3.783  0.00  0.00     0.036 A 
ATOM     15  C   UNL d   1      -7.217  -2.473  -2.985  0.00  0.00     0.029 A 
ATOM     16  C   UNL d   1      -8.480  -2.731  -3.539  0.00  0.00     0.002 A 
ATOM     17  C   UNL d   1      -8.627  -2.914  -4.909  0.00  0.00     0.000 A 
ATOM     18  C   UNL d   1      -7.505  -2.857  -5.723  0.00  0.00     0.002 A 
ATOM     19  C   UNL d   1      -6.245  -2.597  -5.166  0.00  0.00     0.029 A 
ENDBRANCH  11  14
ENDBRANCH   9  10
ENDBRANCH   8   9
ENDBRANCH   7   8
BRANCH   3  20
ATOM     20  C   UNL d   1       2.109  -1.321   0.015  0.00  0.00     0.075 A 
ATOM     21  C   UNL d   1       2.219  -2.559  -0.636  0.00  0.00     0.062 A 
ATOM     22  C   UNL d   1       3.463  -3.165  -0.817  0.00  0.00     0.036 A 
ATOM     23  C   UNL d   1       4.603  -2.533  -0.310  0.00  0.00     0.029 A 
ATOM     24  C   UNL d   1       4.501  -1.307   0.362  0.00  0.00     0.005 A 
ATOM     25  C   UNL d   1       3.255  -0.696   0.526  0.00  0.00     0.033 A 
BRANCH  22  26
ATOM     26  N   UNL d   1       3.639  -4.382  -1.513  0.00  0.00    -0.327 N 
ATOM     27  C   UNL d   1       2.656  -5.140  -2.127  0.00  0.00     0.218 C 
ATOM     28  O   UNL d   1       1.452  -4.916  -2.139  0.00  0.00    -0.274 OA
ATOM     29  C   UNL d   1       3.196  -6.351  -2.845  0.00  0.00     0.117 C 
ATOM     30  H   UNL d   1       4.593  -4.711  -1.591  0.00  0.00     0.169 HD
ENDBRANCH  22  26
ENDBRANCH   3  20
TORSDOF 6
