REMARK  5 active torsions:
REMARK  status: ('A' for Active; 'I' for Inactive)
REMARK    1  A    between atoms: C_8  and  C_1 
REMARK    2  A    between atoms: S_2  and  N_9 
REMARK    3  A    between atoms: C_12  and  S_2 
REMARK    4  A    between atoms: C_11  and  C_4 
REMARK       I    between atoms: N_10  and  C_8 
REMARK    5  A    between atoms: N_9  and  N_10 
ROOT
ATOM      1  C   UNL d   1      -0.323  -2.631   0.042  0.00  0.00     0.279 C 
ATOM      2  N   UNL d   1       0.819  -3.417   0.061  0.00  0.00    -0.256 N 
ATOM      3  O   UNL d   1      -1.436  -3.161   0.050  0.00  0.00    -0.265 OA
ATOM      4  H   UNL d   1       1.756  -3.019   0.045  0.00  0.00     0.191 HD
ENDROOT
BRANCH   1   5
ATOM      5  C   UNL d   1      -0.120  -1.193   0.012  0.00  0.00     0.098 A 
ATOM      6  S   UNL d   1       1.437  -0.471   0.036  0.00  0.00    -0.064 SA
ATOM      7  C   UNL d   1       0.732   1.097  -0.017  0.00  0.00     0.092 A 
ATOM      8  N   UNL d   1      -0.585   1.099  -0.051  0.00  0.00    -0.352 N 
ATOM      9  C   UNL d   1      -1.083  -0.196  -0.038  0.00  0.00     0.029 A 
ATOM     10  HN  UNL d   1      -1.161   1.940  -0.082  1.00  0.00     0.166 HD
ATOM     11  C   UNL d   1      -2.560  -0.374  -0.080  0.00  0.00     0.070 C 
BRANCH   7  12
ATOM     12  C   UNL d   1       1.481   2.335  -0.023  0.00  0.00     0.038 A 
ATOM     13  S   UNL d   1       3.197   2.418  -0.042  0.00  0.00    -0.099 SA
ATOM     14  C   UNL d   1       3.196   4.127  -0.046  0.00  0.00     0.050 A 
ATOM     15  C   UNL d   1       1.920   4.640  -0.032  0.00  0.00     0.008 A 
ATOM     16  C   UNL d   1       0.936   3.609  -0.019  0.00  0.00     0.022 A 
ENDBRANCH   7  12
ENDBRANCH   1   5
BRANCH   2  17
ATOM     17  N   UNL d   1       0.681  -4.860   0.094  0.00  0.00    -0.220 N 
ATOM     18  H   UNL d   1      -0.259  -5.269   0.105  0.00  0.00     0.200 HD
BRANCH  17  19
ATOM     19  S   UNL d   1       2.055  -5.828   0.100  0.00  0.00     0.276 S 
ATOM     20  O   UNL d   1       2.741  -5.617  -1.157  0.00  0.00    -0.199 OA
ATOM     21  O   UNL d   1       2.732  -5.614   1.361  0.00  0.00    -0.199 OA
BRANCH  19  22
ATOM     22  C   UNL d   1       1.376  -7.469   0.099  0.00  0.00     0.081 A 
ATOM     23  C   UNL d   1       1.149  -8.122  -1.117  0.00  0.00     0.027 A 
ATOM     24  C   UNL d   1       0.690  -9.443  -1.116  0.00  0.00     0.025 A 
ATOM     25  C   UNL d   1       0.469 -10.101   0.095  0.00  0.00     0.034 A 
ATOM     26  C   UNL d   1       0.699  -9.449   1.308  0.00  0.00     0.025 A 
ATOM     27 CL   UNL d   1      -0.076 -11.732   0.092  0.00  0.00    -0.084 Cl
ATOM     28  C   UNL d   1       1.159  -8.129   1.313  0.00  0.00     0.027 A 
ENDBRANCH  19  22
ENDBRANCH  17  19
ENDBRANCH   2  17
TORSDOF 5
