REMARK  3 active torsions:
REMARK  status: ('A' for Active; 'I' for Inactive)
REMARK    1  A    between atoms: C_2  and  C_1 
REMARK       I    between atoms: N_4  and  C_2 
REMARK    2  A    between atoms: C_5  and  CA_3 
REMARK    3  A    between atoms: OXT_17  and  C_5 
ROOT
ATOM      1  C   UNL d   1      -0.718  -1.227   0.565  0.00  0.00     0.134 A 
ATOM      2  CA  UNL d   1      -1.446  -0.108   0.935  0.00  0.00     0.139 A 
ATOM      3  N   UNL d   1       0.631  -1.298   0.802  0.00  0.00    -0.358 N 
ATOM      4  HN  UNL d   1       1.186  -2.101   0.506  1.00  0.00     0.165 HD
ATOM      5  N   UNL d   1      -0.865   0.980   1.555  0.00  0.00    -0.357 N 
ATOM      6  HN  UNL d   1      -1.397   1.815   1.801  1.00  0.00     0.165 HD
ATOM      7  C   UNL d   1       1.188  -0.251   1.448  0.00  0.00     0.105 A 
ATOM      8  C   UNL d   1       0.458   0.864   1.816  0.00  0.00     0.105 A 
ENDROOT
BRANCH   1   9
ATOM      9  C   UNL d   1      -1.281  -2.345  -0.241  0.00  0.00     0.273 C 
ATOM     10  N   UNL d   1      -0.917  -3.664   0.065  0.00  0.00    -0.342 N 
ATOM     11  C   UNL d   1      -1.420  -4.715  -0.824  0.00  0.00     0.165 C 
ATOM     12  C   UNL d   1      -0.300  -4.097   1.323  0.00  0.00     0.131 C 
ATOM     13  C   UNL d   1      -0.975  -6.123  -0.478  0.00  0.00    -0.034 A 
ATOM     14  C   UNL d   1      -1.615  -7.223  -1.067  0.00  0.00     0.009 A 
ATOM     15  C   UNL d   1       0.084  -6.354   0.420  0.00  0.00    -0.049 A 
ATOM     16  C   UNL d   1      -1.218  -8.525  -0.756  0.00  0.00     0.001 A 
ATOM     17  C   UNL d   1      -0.162  -8.744   0.127  0.00  0.00     0.001 A 
ATOM     18  C   UNL d   1       0.496  -7.661   0.707  0.00  0.00     0.008 A 
ATOM     19  C   UNL d   1       0.751  -5.175   1.071  0.00  0.00     0.059 C 
ATOM     20  O   UNL d   1      -1.972  -2.056  -1.216  0.00  0.00    -0.266 OA
ENDBRANCH   1   9
BRANCH   2  21
ATOM     21  C   UNL d   1      -2.919   0.019   0.789  0.00  0.00     0.196 C 
ATOM     22  O   UNL d   1      -3.713  -0.898   0.697  0.00  0.00    -0.645 OA
BRANCH  21  23
ATOM     23  OXT UNL d   1      -3.284   1.325   0.885  0.00  0.00    -0.772 OA
ATOM     24  HXT UNL d   1      -2.492   1.878   1.091  0.00  0.00     0.167 HD
ENDBRANCH  21  23
ENDBRANCH   2  21
TORSDOF 3
