REMARK  4 active torsions:
REMARK  status: ('A' for Active; 'I' for Inactive)
REMARK    1  A    between atoms: C_6  and  C_1 
REMARK    2  A    between atoms: C_2  and  C_3 
REMARK       I    between atoms: C_3  and  N_5 
REMARK    3  A    between atoms: N_5  and  C_4 
REMARK    4  A    between atoms: O_13  and  C_6 
ROOT
ATOM      1  C   UNL d   1       1.069  -0.074  -0.132  0.00  0.00     0.070 C 
ATOM      2  C   UNL d   1       0.478   1.189   0.094  0.00  0.00     0.052 C 
ATOM      3  C   UNL d   1       0.296  -1.249  -0.001  0.00  0.00    -0.043 C 
ATOM      4  C   UNL d   1      -0.912   1.282   0.247  0.00  0.00     0.030 C 
ATOM      5  C   UNL d   1      -1.689   0.130   0.301  0.00  0.00     0.003 C 
ATOM      6  C   UNL d   1      -1.089  -1.122   0.204  0.00  0.00     0.008 C 
ATOM      7  C   UNL d   1       0.851  -2.642  -0.136  0.00  0.00     0.049 C 
ENDROOT
BRANCH   2   8
ATOM      8  N   UNL d   1       1.177   2.410   0.108  0.00  0.00    -0.319 N 
ATOM      9  C   UNL d   1       2.272   2.780   0.865  0.00  0.00     0.330 C 
ATOM     10  O   UNL d   1       2.671   3.940   0.675  0.00  0.00    -0.263 OA
ATOM     11  H   UNL d   1       0.685   3.242  -0.206  0.00  0.00     0.169 HD
BRANCH   9  12
ATOM     12  C   UNL d   1       2.886   1.884   1.972  0.00  0.00     0.472 C 
ATOM     13  F   UNL d   1       2.268   0.687   2.152  0.00  0.00    -0.162 F 
ATOM     14  F   UNL d   1       4.203   1.624   1.759  0.00  0.00    -0.162 F 
ATOM     15  F   UNL d   1       2.815   2.505   3.188  0.00  0.00    -0.162 F 
ENDBRANCH   9  12
ENDBRANCH   2   8
BRANCH   1  16
ATOM     16  C   UNL d   1       2.473  -0.162  -0.627  0.00  0.00     0.179 C 
ATOM     17  O   UNL d   1       3.318  -0.917  -0.186  0.00  0.00    -0.646 OA
BRANCH  16  18
ATOM     18  O   UNL d   1       2.715   0.687  -1.651  0.00  0.00    -0.773 OA
ATOM     19  H   UNL d   1       1.951   1.222  -1.942  0.00  0.00     0.167 HD
ENDBRANCH  16  18
ENDBRANCH   1  16
TORSDOF 4
