REMARK  3 active torsions:
REMARK  status: ('A' for Active; 'I' for Inactive)
REMARK    1  A    between atoms: C_2  and  C_1 
REMARK       I    between atoms: N_6  and  C_2 
REMARK    2  A    between atoms: C_4  and  N_7 
REMARK    3  A    between atoms: N_7  and  N_6 
ROOT
ATOM      1  C   UNL d   1       0.815   2.388   0.523  0.00  0.00     0.274 C 
ATOM      2  N   UNL d   1       1.521   3.488   0.044  0.00  0.00    -0.282 N 
ATOM      3  O   UNL d   1       1.403   1.318   0.705  0.00  0.00    -0.266 OA
ATOM      4  H   UNL d   1       1.059   4.349  -0.228  0.00  0.00     0.184 HD
ENDROOT
BRANCH   2   5
ATOM      5  N   UNL d   1       2.849   3.291  -0.358  0.00  0.00    -0.201 NA
ATOM      6  H   UNL d   1       3.227   2.447   0.096  0.00  0.00     0.153 HD
BRANCH   5   7
ATOM      7  C   UNL d   1       3.732   4.389  -0.174  0.00  0.00     0.051 A 
ATOM      8  C   UNL d   1       4.833   4.418  -1.054  0.00  0.00     0.050 A 
ATOM      9  C   UNL d   1       5.786   5.436  -0.993  0.00  0.00     0.035 A 
ATOM     10 CL   UNL d   1       7.089   5.456  -2.116  0.00  0.00    -0.084 Cl
ATOM     11  C   UNL d   1       5.684   6.435  -0.034  0.00  0.00     0.026 A 
ATOM     12  C   UNL d   1       4.640   6.393   0.891  0.00  0.00     0.027 A 
ATOM     13  C   UNL d   1       3.679   5.370   0.839  0.00  0.00     0.057 A 
ATOM     14 CL   UNL d   1       2.490   5.387   2.096  0.00  0.00    -0.082 Cl
ENDBRANCH   5   7
ENDBRANCH   2   5
BRANCH   1  15
ATOM     15  C   UNL d   1      -0.605   2.595   0.780  0.00  0.00     0.091 A 
ATOM     16  C   UNL d   1      -1.562   1.680   1.178  0.00  0.00     0.034 A 
ATOM     17  C   UNL d   1      -2.854   2.241   1.359  0.00  0.00     0.028 A 
ATOM     18 BR   UNL d   1      -1.308  -0.171   1.486  0.00  0.00    -0.049 Br
ATOM     19  C   UNL d   1      -2.862   3.591   1.089  0.00  0.00     0.052 A 
ATOM     20  S   UNL d   1      -1.322   4.156   0.613  0.00  0.00    -0.095 SA
ENDBRANCH   1  15
TORSDOF 3
