REMARK  6 active torsions:
REMARK  status: ('A' for Active; 'I' for Inactive)
REMARK    1  A    between atoms: C_9  and  C_5 
REMARK    2  A    between atoms: N_7  and  C_10 
REMARK    3  A    between atoms: N_8  and  C_14 
REMARK    4  A    between atoms: O_16  and  C_9 
REMARK    5  A    between atoms: C_24  and  O_16 
REMARK    6  A    between atoms: C_25  and  C_24 
ROOT
ATOM      1  C   UNL d   1      -0.557   0.479  -0.181  0.00  0.00     0.006 A 
ATOM      2  C   UNL d   1      -1.055  -0.850  -0.124  0.00  0.00     0.029 A 
ATOM      3  C   UNL d   1       1.295  -0.967  -0.065  0.00  0.00     0.028 A 
ATOM      4  C   UNL d   1       0.911   0.385  -0.203  0.00  0.00    -0.010 A 
ATOM      5  C   UNL d   1      -1.501   1.512  -0.146  0.00  0.00     0.054 A 
ATOM      6  C   UNL d   1       0.078  -1.781  -0.023  0.00  0.00     0.194 A 
ATOM      7  C   UNL d   1      -3.312  -0.180  -0.158  0.00  0.00     0.104 A 
ATOM      8  C   UNL d   1      -2.392  -1.217  -0.110  0.00  0.00     0.052 A 
ATOM      9  C   UNL d   1      -2.881   1.161  -0.182  0.00  0.00     0.054 A 
ATOM     10  C   UNL d   1       2.599  -1.431  -0.024  0.00  0.00     0.052 A 
ATOM     11  C   UNL d   1       3.601  -0.474  -0.164  0.00  0.00     0.103 A 
ATOM     12  C   UNL d   1       1.928   1.309  -0.386  0.00  0.00     0.016 A 
ATOM     13  O   UNL d   1       0.013  -2.987   0.077  0.00  0.00    -0.287 OA
ATOM     14  C   UNL d   1       3.273   0.884  -0.361  0.00  0.00     0.037 A 
ENDROOT
BRANCH   5  15
ATOM     15  C   UNL d   1      -1.163   2.958   0.058  0.00  0.00     0.295 C 
ATOM     16  O   UNL d   1      -0.089   3.476  -0.148  0.00  0.00    -0.259 OA
BRANCH  15  17
ATOM     17  O   UNL d   1      -2.243   3.557   0.619  0.00  0.00    -0.307 OA
BRANCH  17  18
ATOM     18  C   UNL d   1      -2.189   4.860   1.259  0.00  0.00     0.063 C 
ATOM     19  C   UNL d   1      -3.636   5.100   1.728  0.00  0.00     0.046 C 
ATOM     20  C   UNL d   1      -1.287   4.779   2.500  0.00  0.00     0.046 C 
BRANCH  18  21
ATOM     21  C   UNL d   1      -1.728   5.999   0.324  0.00  0.00     0.033 C 
ATOM     22  C   UNL d   1      -2.589   6.211  -0.915  0.00  0.00     0.008 C 
ENDBRANCH  18  21
ENDBRANCH  17  18
ENDBRANCH  15  17
ENDBRANCH   5  15
BRANCH   7  23
ATOM     23  N   UNL d   1      -4.750  -0.480  -0.126  0.00  0.00    -0.116 N 
ATOM     24  O   UNL d   1      -5.088  -1.669  -0.098  0.00  0.00    -0.532 OA
ATOM     25  O   UNL d   1      -5.535   0.478  -0.121  0.00  0.00    -0.532 OA
ENDBRANCH   7  23
BRANCH  11  26
ATOM     26  N   UNL d   1       5.010  -0.886  -0.117  0.00  0.00    -0.116 N 
ATOM     27  O   UNL d   1       5.252  -2.080   0.102  0.00  0.00    -0.532 OA
ATOM     28  O   UNL d   1       5.871  -0.013  -0.294  0.00  0.00    -0.532 OA
ENDBRANCH  11  26
TORSDOF 6
