REMARK  2 active torsions:
REMARK  status: ('A' for Active; 'I' for Inactive)
REMARK    1  A    between atoms: O_10  and  C_1 
REMARK    2  A    between atoms: C_14  and  O_10 
ROOT
ATOM      1  N   UNL d   1       3.865  -8.731  -0.350  0.00  0.00    -0.191 NA
ATOM      2  C   UNL d   1       3.843  -7.572  -0.295  0.00  0.00     0.099 C 
ATOM      3  C   UNL d   1       3.816  -6.141  -0.219  0.00  0.00     0.044 A 
ATOM      4  C   UNL d   1       3.760  -3.347  -0.055  0.00  0.00     0.078 A 
ATOM      5  C   UNL d   1       4.885  -5.387  -0.715  0.00  0.00     0.025 A 
ATOM      6  C   UNL d   1       2.722  -5.496   0.365  0.00  0.00     0.025 A 
ATOM      7  C   UNL d   1       4.859  -3.991  -0.628  0.00  0.00     0.039 A 
ATOM      8  C   UNL d   1       2.700  -4.103   0.457  0.00  0.00     0.039 A 
ENDROOT
BRANCH   4   9
ATOM      9  O   UNL d   1       3.824  -1.976   0.044  0.00  0.00    -0.288 OA
BRANCH   9  10
ATOM     10  C   UNL d   1       2.717  -1.230  -0.019  0.00  0.00     0.193 A 
ATOM     11  N   UNL d   1       1.641  -1.588  -0.682  0.00  0.00    -0.329 N 
ATOM     12  C   UNL d   1       0.646  -0.647  -0.506  0.00  0.00     0.053 A 
ATOM     13  HN  UNL d   1       1.554  -2.435  -1.243  1.00  0.00     0.168 HD
ATOM     14  C   UNL d   1      -0.656  -0.726  -1.038  0.00  0.00     0.054 A 
ATOM     15  C   UNL d   1       0.996   0.452   0.281  0.00  0.00     0.035 A 
ATOM     16  C   UNL d   1      -1.568   0.292  -0.758  0.00  0.00     0.036 A 
ATOM     17 CL   UNL d   1      -3.162   0.196  -1.400  0.00  0.00    -0.084 Cl
ATOM     18  C   UNL d   1      -1.209   1.378   0.034  0.00  0.00     0.025 A 
ATOM     19  C   UNL d   1       0.081   1.479   0.567  0.00  0.00     0.023 A 
ATOM     20  S   UNL d   1       2.638   0.284   0.774  0.00  0.00    -0.044 SA
ENDBRANCH   9  10
ENDBRANCH   4   9
TORSDOF 2
