REMARK  4 active torsions:
REMARK  status: ('A' for Active; 'I' for Inactive)
REMARK       I    between atoms: N_2  and  C_1 
REMARK    1  A    between atoms: C_3  and  C_1 
REMARK       I    between atoms: C_4  and  N_2 
REMARK       I    between atoms: N_7  and  C_4 
REMARK    2  A    between atoms: C_16  and  N_7 
REMARK    3  A    between atoms: O_15  and  C_8 
REMARK    4  A    between atoms: C_21  and  O_15 
ROOT
ATOM      1  C   UNL d   1       0.225  -3.227  -2.910  0.00  0.00     0.263 C 
ATOM      2  N   UNL d   1       1.572  -3.216  -3.243  0.00  0.00    -0.275 N 
ATOM      3  C   UNL d   1       2.576  -2.472  -2.664  0.00  0.00     0.327 C 
ATOM      4  N   UNL d   1       2.313  -2.007  -1.405  0.00  0.00    -0.307 N 
ATOM      5  O   UNL d   1      -0.203  -2.738  -1.870  0.00  0.00    -0.267 OA
ATOM      6  O   UNL d   1       3.605  -2.288  -3.309  0.00  0.00    -0.247 OA
ATOM      7  H   UNL d   1       1.839  -3.518  -4.171  0.00  0.00     0.173 HD
ATOM      8  H   UNL d   1       1.417  -2.295  -1.014  0.00  0.00     0.170 HD
ENDROOT
BRANCH   4   9
ATOM      9  C   UNL d   1       3.129  -1.175  -0.618  0.00  0.00     0.051 A 
ATOM     10  C   UNL d   1       4.296  -0.559  -1.061  0.00  0.00     0.119 A 
ATOM     11  N   UNL d   1       5.065   0.255  -0.297  0.00  0.00    -0.344 N 
ATOM     12  C   UNL d   1       4.668   0.452   0.978  0.00  0.00     0.148 A 
ATOM     13  HN  UNL d   1       5.905   0.699  -0.669  1.00  0.00     0.167 HD
ATOM     14  C   UNL d   1       3.515  -0.100   1.512  0.00  0.00     0.059 A 
ATOM     15  C   UNL d   1       2.737  -0.925   0.700  0.00  0.00     0.035 A 
BRANCH  12  16
ATOM     16  O   UNL d   1       5.407   1.281   1.812  0.00  0.00    -0.293 OA
BRANCH  16  17
ATOM     17  C   UNL d   1       6.740   1.443   1.528  0.00  0.00     0.093 A 
ATOM     18  C   UNL d   1       7.281   2.717   1.630  0.00  0.00     0.124 A 
ATOM     19  N   UNL d   1       8.590   3.005   1.428  0.00  0.00    -0.373 N 
ATOM     20  C   UNL d   1       9.391   1.965   1.108  0.00  0.00     0.088 A 
ATOM     21  HN  UNL d   1       8.951   3.955   1.513  1.00  0.00     0.164 HD
ATOM     22  C   UNL d   1       8.950   0.655   1.001  0.00  0.00     0.020 A 
ATOM     23  C   UNL d   1       7.603   0.390   1.232  0.00  0.00     0.040 A 
ENDBRANCH  16  17
ENDBRANCH  12  16
ENDBRANCH   4   9
BRANCH   1  24
ATOM     24  C   UNL d   1      -0.685  -3.932  -3.855  0.00  0.00     0.075 A 
ATOM     25  C   UNL d   1      -1.681  -4.795  -3.359  0.00  0.00     0.051 A 
ATOM     26 CL   UNL d   1      -1.882  -5.160  -1.679  0.00  0.00    -0.083 Cl
ATOM     27  C   UNL d   1      -2.547  -5.462  -4.237  0.00  0.00     0.025 A 
ATOM     28  C   UNL d   1      -2.429  -5.292  -5.613  0.00  0.00     0.003 A 
ATOM     29  C   UNL d   1      -1.453  -4.440  -6.117  0.00  0.00     0.025 A 
ATOM     30  C   UNL d   1      -0.594  -3.753  -5.248  0.00  0.00     0.051 A 
ATOM     31 CL   UNL d   1       0.535  -2.676  -5.997  0.00  0.00    -0.083 Cl
ENDBRANCH   1  24
TORSDOF 4
