REMARK  3 active torsions:
REMARK  status: ('A' for Active; 'I' for Inactive)
REMARK    1  A    between atoms: N_2  and  C_1 
REMARK    2  A    between atoms: C_11  and  N_5 
REMARK    3  A    between atoms: O_12  and  C_7 
ROOT
ATOM      1  C   UNL d   1       1.097  -1.145  -0.056  0.00  0.00     0.092 A 
ATOM      2  C   UNL d   1      -0.249  -0.686  -0.018  0.00  0.00     0.005 A 
ATOM      3  C   UNL d   1       2.133  -0.187  -0.043  0.00  0.00     0.094 A 
ATOM      4  C   UNL d   1      -0.510   0.710   0.020  0.00  0.00    -0.024 A 
ATOM      5  C   UNL d   1       1.873   1.175   0.011  0.00  0.00     0.040 A 
ATOM      6  C   UNL d   1       0.555   1.621   0.037  0.00  0.00     0.015 A 
ATOM      7  C   UNL d   1      -1.360  -1.561  -0.026  0.00  0.00     0.014 A 
ATOM      8  C   UNL d   1      -1.834   1.178   0.030  0.00  0.00     0.012 A 
ATOM      9  C   UNL d   1      -2.672  -1.078  -0.008  0.00  0.00     0.001 A 
ATOM     10  C   UNL d   1      -2.908   0.290   0.014  0.00  0.00     0.001 A 
ENDROOT
BRANCH   1  11
ATOM     11  N   UNL d   1       1.357  -2.531  -0.219  0.00  0.00    -0.297 N 
ATOM     12  N   UNL d   1       2.304  -2.940   0.484  0.00  0.00    -0.300 N 
ATOM     13  HN  UNL d   1       2.810  -2.349   1.144  1.00  0.00     0.187 HD
ATOM     14  HN  UNL d   1       0.823  -3.133  -0.846  1.00  0.00     0.187 HD
BRANCH  12  15
ATOM     15  C   UNL d   1       2.605  -4.306   0.273  0.00  0.00     0.048 A 
ATOM     16  C   UNL d   1       2.228  -5.036  -0.866  0.00  0.00     0.031 A 
ATOM     17  C   UNL d   1       2.587  -6.380  -1.011  0.00  0.00     0.002 A 
ATOM     18  C   UNL d   1       3.339  -7.012  -0.025  0.00  0.00     0.000 A 
ATOM     19  C   UNL d   1       3.738  -6.299   1.104  0.00  0.00     0.002 A 
ATOM     20  C   UNL d   1       3.376  -4.956   1.246  0.00  0.00     0.031 A 
ENDBRANCH  12  15
ENDBRANCH   1  11
BRANCH   3  21
ATOM     21  O   UNL d   1       3.455  -0.549  -0.106  0.00  0.00    -0.358 OA
ATOM     22  H   UNL d   1       3.463  -1.526  -0.074  0.00  0.00     0.217 HD
ENDBRANCH   3  21
TORSDOF 3
