REMARK  5 active torsions:
REMARK  status: ('A' for Active; 'I' for Inactive)
REMARK    1  A    between atoms: N_6  and  C_1 
REMARK    2  A    between atoms: N_8  and  C_1 
REMARK    3  A    between atoms: N_2  and  N_6 
REMARK    4  A    between atoms: N_7  and  C_5 
REMARK    5  A    between atoms: C_12  and  C_11 
ROOT
ATOM      1  N   UNL d   1      -1.215  -0.546   3.282  0.00  0.00    -0.309 N 
ATOM      2  HN  UNL d   1      -1.702  -0.329   4.151  1.00  0.00     0.186 HD
ATOM      3  C   UNL d   1      -1.849  -0.918   2.216  0.00  0.00     0.118 C 
ENDROOT
BRANCH   3   4
ATOM      4  C   UNL d   1      -3.320  -1.039   2.225  0.00  0.00    -0.019 A 
ATOM      5  C   UNL d   1      -4.044  -0.772   3.388  0.00  0.00     0.015 A 
ATOM      6  C   UNL d   1      -5.441  -0.855   3.382  0.00  0.00     0.030 A 
ATOM      7  C   UNL d   1      -6.160  -1.200   2.226  0.00  0.00     0.029 A 
ATOM      8  C   UNL d   1      -5.394  -1.469   1.073  0.00  0.00     0.030 A 
ATOM      9  C   UNL d   1      -3.993  -1.400   1.065  0.00  0.00     0.015 A 
BRANCH   7  10
ATOM     10  N   UNL d   1      -7.551  -1.200   2.179  0.00  0.00    -0.390 N 
ATOM     11  C   UNL d   1      -8.246  -2.248   1.428  0.00  0.00     0.149 C 
ATOM     12  C   UNL d   1      -8.334  -0.627   3.272  0.00  0.00     0.149 C 
ENDBRANCH   7  10
ENDBRANCH   3   4
BRANCH   1  13
ATOM     13  N   UNL d   1       0.144  -0.462   3.173  0.00  0.00    -0.277 N 
ATOM     14  H   UNL d   1       0.617  -0.703   2.307  0.00  0.00     0.189 HD
BRANCH  13  15
ATOM     15  C   UNL d   1       0.904  -0.051   4.251  0.00  0.00     0.186 C 
ATOM     16  S   UNL d   1       2.561   0.035   4.121  0.00  0.00    -0.040 SA
BRANCH  15  17
ATOM     17  N   UNL d   1       0.143   0.252   5.349  0.00  0.00    -0.370 N 
ATOM     18  C   UNL d   1       0.547   0.704   6.657  0.00  0.00     0.148 C 
ATOM     19  H   UNL d   1      -0.847   0.104   5.161  0.00  0.00     0.161 HD
ENDBRANCH  15  17
ENDBRANCH  13  15
ENDBRANCH   1  13
TORSDOF 5
