REMARK  4 active torsions:
REMARK  status: ('A' for Active; 'I' for Inactive)
REMARK       I    between atoms: N_8  and  C_1 
REMARK    1  A    between atoms: O_10  and  C_1 
REMARK    2  A    between atoms: N_2  and  O_10 
REMARK    3  A    between atoms: C_4  and  C_7 
REMARK    4  A    between atoms: C_15  and  N_8 
ROOT
ATOM      1  N   UNL d   1      -0.924   0.438   1.015  0.00  0.00    -0.260 N 
ATOM      2  HN  UNL d   1      -1.366   0.133   0.148  1.00  0.00     0.194 HD
ATOM      3  C   UNL d   1      -1.527   1.081   1.981  0.00  0.00     0.039 C 
ATOM      4  C   UNL d   1      -3.031   1.218   1.880  0.00  0.00     0.071 C 
ENDROOT
BRANCH   1   5
ATOM      5  O   UNL d   1       0.427   0.228   1.350  0.00  0.00    -0.181 OA
BRANCH   5   6
ATOM      6  C   UNL d   1       1.226  -0.254   0.338  0.00  0.00     0.387 C 
ATOM      7  N   UNL d   1       0.590  -0.485  -0.860  0.00  0.00    -0.301 N 
ATOM      8  H   UNL d   1      -0.380  -0.189  -0.861  0.00  0.00     0.171 HD
ATOM      9  O   UNL d   1       2.422  -0.412   0.567  0.00  0.00    -0.236 OA
BRANCH   7  10
ATOM     10  C   UNL d   1       1.161  -1.062  -2.015  0.00  0.00     0.036 A 
ATOM     11  C   UNL d   1       2.434  -1.641  -2.022  0.00  0.00     0.030 A 
ATOM     12  C   UNL d   1       2.957  -2.231  -3.176  0.00  0.00     0.009 A 
ATOM     13  C   UNL d   1       2.214  -2.248  -4.357  0.00  0.00    -0.062 A 
ATOM     14  C   UNL d   1       0.941  -1.671  -4.362  0.00  0.00     0.009 A 
ATOM     15  C   UNL d   1       2.792  -2.913  -5.574  0.00  0.00     0.048 C 
ATOM     16  C   UNL d   1       0.416  -1.086  -3.198  0.00  0.00     0.030 A 
ENDBRANCH   7  10
ENDBRANCH   5   6
ENDBRANCH   1   5
BRANCH   3  17
ATOM     17  C   UNL d   1      -0.863   1.685   3.188  0.00  0.00    -0.011 A 
ATOM     18  C   UNL d   1       0.354   2.375   3.047  0.00  0.00     0.023 A 
ATOM     19  C   UNL d   1       0.981   2.858   4.182  0.00  0.00    -0.022 A 
ATOM     20  C   UNL d   1       2.268   3.576   4.312  0.00  0.00     0.068 C 
ATOM     21  C   UNL d   1       0.391   2.735   5.426  0.00  0.00     0.075 A 
ATOM     22  C   UNL d   1       2.416   3.542   5.835  0.00  0.00     0.180 C 
ATOM     23  O   UNL d   1       1.124   3.290   6.440  0.00  0.00    -0.350 OA
ATOM     24  C   UNL d   1      -0.830   2.112   5.593  0.00  0.00     0.038 A 
ATOM     25  C   UNL d   1      -1.454   1.566   4.463  0.00  0.00     0.016 A 
ENDBRANCH   3  17
TORSDOF 4
