REMARK  6 active torsions:
REMARK  status: ('A' for Active; 'I' for Inactive)
REMARK    1  A    between atoms: C_2  and  N_1 
REMARK       I    between atoms: C_3  and  N_1 
REMARK    2  A    between atoms: N_5  and  C_2 
REMARK    3  A    between atoms: C_8  and  C_3 
REMARK    4  A    between atoms: C_4  and  C_6 
REMARK    5  A    between atoms: O_16  and  C_4 
REMARK    6  A    between atoms: C_11  and  N_5 
ROOT
ATOM      1  C   UNL d   1       0.294  -0.157   1.276  0.00  0.00     0.179 C 
ATOM      2  S   UNL d   1      -1.124  -1.014   1.075  0.00  0.00    -0.040 SA
ENDROOT
BRANCH   1   3
ATOM      3  N   UNL d   1       0.848   0.769   0.409  0.00  0.00    -0.299 N 
ATOM      4  C   UNL d   1       0.592   0.930  -0.946  0.00  0.00     0.257 C 
ATOM      5  O   UNL d   1       0.108   0.063  -1.671  0.00  0.00    -0.267 OA
ATOM      6  H   UNL d   1       1.310   1.522   0.896  0.00  0.00     0.171 HD
BRANCH   4   7
ATOM      7  C   UNL d   1       1.029   2.203  -1.583  0.00  0.00     0.032 A 
ATOM      8  C   UNL d   1       2.102   2.975  -1.115  0.00  0.00     0.018 A 
ATOM      9  C   UNL d   1       2.470   4.140  -1.800  0.00  0.00     0.025 A 
ATOM     10  C   UNL d   1       1.779   4.531  -2.948  0.00  0.00     0.034 A 
ATOM     11  C   UNL d   1       0.723   3.763  -3.428  0.00  0.00     0.025 A 
ATOM     12 CL   UNL d   1       2.241   5.962  -3.784  0.00  0.00    -0.084 Cl
ATOM     13  C   UNL d   1       0.352   2.600  -2.748  0.00  0.00     0.018 A 
ENDBRANCH   4   7
ENDBRANCH   1   3
BRANCH   1  14
ATOM     14  N   UNL d   1       0.966  -0.301   2.469  0.00  0.00    -0.333 N 
ATOM     15  H   UNL d   1       0.417  -0.760   3.192  0.00  0.00     0.168 HD
BRANCH  14  16
ATOM     16  C   UNL d   1       2.363  -0.364   2.670  0.00  0.00     0.035 A 
ATOM     17  C   UNL d   1       3.271  -0.537   1.620  0.00  0.00     0.047 A 
ATOM     18  C   UNL d   1       4.629  -0.768   1.888  0.00  0.00     0.041 A 
ATOM     19  C   UNL d   1       5.083  -0.766   3.213  0.00  0.00     0.018 A 
ATOM     20  C   UNL d   1       4.183  -0.570   4.260  0.00  0.00     0.003 A 
ATOM     21  C   UNL d   1       2.826  -0.391   3.989  0.00  0.00     0.029 A 
BRANCH  18  22
ATOM     22  C   UNL d   1       5.599  -1.105   0.809  0.00  0.00     0.293 C 
ATOM     23  O   UNL d   1       6.790  -1.286   1.003  0.00  0.00    -0.259 OA
BRANCH  22  24
ATOM     24  O   UNL d   1       4.957  -1.225  -0.378  0.00  0.00    -0.323 OA
ATOM     25  C   UNL d   1       5.774  -1.698  -1.449  0.00  0.00     0.213 C 
ENDBRANCH  22  24
ENDBRANCH  18  22
ENDBRANCH  14  16
ENDBRANCH   1  14
TORSDOF 6
