REMARK  5 active torsions:
REMARK  status: ('A' for Active; 'I' for Inactive)
REMARK    1  A    between atoms: C_8  and  C_1 
REMARK    2  A    between atoms: N_7  and  C_2 
REMARK    3  A    between atoms: S_3  and  N_7 
REMARK    4  A    between atoms: C_9  and  S_3 
REMARK    5  A    between atoms: C_12  and  C_5 
REMARK       I    between atoms: N_16  and  C_8 
ROOT
ATOM      1  C   UNL d   1      -0.005   1.283   0.081  0.00  0.00     0.100 A 
ATOM      2  C   UNL d   1       1.317   0.880   0.031  0.00  0.00     0.066 A 
ATOM      3  S   UNL d   1      -1.059  -0.053   0.254  0.00  0.00    -0.086 SA
ATOM      4  C   UNL d   1       0.213  -1.200   0.140  0.00  0.00    -0.007 A 
ATOM      5  C   UNL d   1       1.434  -0.544   0.113  0.00  0.00     0.047 A 
ENDROOT
BRANCH   2   6
ATOM      6  N   UNL d   1       2.437   1.698  -0.216  0.00  0.00    -0.279 N 
ATOM      7  H   UNL d   1       2.276   2.521  -0.802  0.00  0.00     0.179 HD
BRANCH   6   8
ATOM      8  S   UNL d   1       3.537   2.108   1.012  0.00  0.00     0.263 S 
ATOM      9  O   UNL d   1       3.771   0.955   1.859  0.00  0.00    -0.200 OA
ATOM     10  O   UNL d   1       4.637   2.796   0.370  0.00  0.00    -0.200 OA
BRANCH   8  11
ATOM     11  C   UNL d   1       2.655   3.330   1.969  0.00  0.00     0.079 A 
ATOM     12  C   UNL d   1       2.043   2.969   3.174  0.00  0.00     0.026 A 
ATOM     13  C   UNL d   1       1.417   3.951   3.950  0.00  0.00     0.008 A 
ATOM     14  C   UNL d   1       1.403   5.294   3.534  0.00  0.00    -0.062 A 
ATOM     15  C   UNL d   1       2.042   5.637   2.337  0.00  0.00     0.008 A 
ATOM     16  C   UNL d   1       0.738   6.333   4.384  0.00  0.00     0.048 C 
ATOM     17  C   UNL d   1       2.670   4.668   1.561  0.00  0.00     0.026 A 
ENDBRANCH   8  11
ENDBRANCH   6   8
ENDBRANCH   2   6
BRANCH   1  18
ATOM     18  C   UNL d   1      -0.532   2.633  -0.006  0.00  0.00     0.258 C 
ATOM     19  O   UNL d   1       0.149   3.620  -0.268  0.00  0.00    -0.267 OA
ATOM     20  N   UNL d   1      -1.874   2.789   0.226  0.00  0.00    -0.365 N 
ATOM     21  H   UNL d   1      -2.470   2.005   0.456  0.00  0.00     0.159 HD
ATOM     22  H   UNL d   1      -2.263   3.722   0.203  0.00  0.00     0.159 HD
ENDBRANCH   1  18
BRANCH   4  23
ATOM     23  C   UNL d   1      -0.102  -2.701   0.061  0.00  0.00    -0.018 C 
ATOM     24  C   UNL d   1      -0.914  -3.006  -1.218  0.00  0.00     0.020 C 
ATOM     25  C   UNL d   1       1.190  -3.542  -0.003  0.00  0.00     0.020 C 
ATOM     26  C   UNL d   1      -0.903  -3.160   1.294  0.00  0.00     0.020 C 
ENDBRANCH   4  23
TORSDOF 5
