REMARK  3 active torsions:
REMARK  status: ('A' for Active; 'I' for Inactive)
REMARK    1  A    between atoms: C_5  and  C_1 
REMARK    2  A    between atoms: N_20  and  C_2 
REMARK    3  A    between atoms: C_12  and  C_10 
ROOT
ATOM      1  C   UNL d   1       4.717  -3.568   1.057  0.00  0.00     0.155 A 
ATOM      2  N   UNL d   1       3.869  -2.540   1.069  0.00  0.00    -0.332 N 
ATOM      3  HN  UNL d   1       3.821  -1.894   1.857  1.00  0.00     0.168 HD
ATOM      4  C   UNL d   1       3.079  -2.397  -0.012  0.00  0.00     0.053 A 
ATOM      5  N   UNL d   1       4.853  -4.438   0.055  0.00  0.00    -0.332 N 
ATOM      6  HN  UNL d   1       5.535  -5.194   0.099  1.00  0.00     0.168 HD
ATOM      7  C   UNL d   1       4.053  -4.279  -1.021  0.00  0.00     0.046 A 
ATOM      8  C   UNL d   1       3.130  -3.257  -1.087  0.00  0.00     0.061 A 
ENDROOT
BRANCH   7   9
ATOM      9  C   UNL d   1       4.214  -5.269  -2.106  0.00  0.00    -0.009 A 
ATOM     10  C   UNL d   1       4.561  -6.604  -1.820  0.00  0.00     0.022 A 
ATOM     11  C   UNL d   1       4.699  -7.575  -2.830  0.00  0.00    -0.039 A 
ATOM     12  C   UNL d   1       5.066  -8.983  -2.458  0.00  0.00     0.050 C 
ATOM     13  C   UNL d   1       4.493  -7.191  -4.162  0.00  0.00     0.040 A 
ATOM     14  C   UNL d   1       4.157  -5.874  -4.472  0.00  0.00     0.025 A 
ATOM     15 CL   UNL d   1       4.648  -8.313  -5.465  0.00  0.00    -0.084 Cl
ATOM     16  C   UNL d   1       4.022  -4.924  -3.455  0.00  0.00     0.015 A 
ENDBRANCH   7   9
BRANCH   1  17
ATOM     17  N   UNL d   1       5.548  -3.726   2.146  0.00  0.00    -0.274 NA
ATOM     18  H   UNL d   1       5.687  -2.838   2.607  0.00  0.00     0.127 HD
ATOM     19  H   UNL d   1       6.375  -4.238   1.872  0.00  0.00     0.127 HD
ENDBRANCH   1  17
BRANCH   4  20
ATOM     20  C   UNL d   1       2.125  -1.280   0.070  0.00  0.00     0.033 A 
ATOM     21  C   UNL d   1       1.574  -0.703   1.203  0.00  0.00     0.040 A 
ATOM     22  C   UNL d   1       0.646   0.319   0.884  0.00  0.00     0.018 A 
ATOM     23 BR   UNL d   1      -0.319   1.245   2.213  0.00  0.00    -0.051 Br
ATOM     24  C   UNL d   1       0.524   0.542  -0.462  0.00  0.00     0.069 A 
ATOM     25  S   UNL d   1       1.550  -0.494  -1.353  0.00  0.00    -0.098 SA
ENDBRANCH   4  20
TORSDOF 3
