REMARK  8 active torsions:
REMARK  status: ('A' for Active; 'I' for Inactive)
REMARK    1  A    between atoms: C_19  and  N_2 
REMARK    2  A    between atoms: N_6  and  C_3 
REMARK    3  A    between atoms: C_4  and  C_8 
REMARK    4  A    between atoms: O_16  and  C_4 
REMARK    5  A    between atoms: C_14  and  N_6 
REMARK    6  A    between atoms: N_11  and  C_21 
REMARK    7  A    between atoms: C_22  and  O_16 
REMARK    8  A    between atoms: C_21  and  C_19 
ROOT
ATOM      1  C   UNL d   1      -3.656  -3.838  -1.613  0.00  0.00     0.172 C 
ATOM      2  S   UNL d   1      -2.366  -3.738  -2.673  0.00  0.00    -0.041 SA
ATOM      3  N   UNL d   1      -3.970  -5.102  -1.202  0.00  0.00    -0.365 N 
ATOM      4  H   UNL d   1      -3.344  -5.810  -1.569  0.00  0.00     0.161 HD
ENDROOT
BRANCH   1   5
ATOM      5  N   UNL d   1      -4.461  -2.832  -1.131  0.00  0.00    -0.333 N 
ATOM      6  H   UNL d   1      -5.407  -3.116  -0.906  0.00  0.00     0.168 HD
BRANCH   5   7
ATOM      7  C   UNL d   1      -4.254  -1.433  -1.157  0.00  0.00     0.034 A 
ATOM      8  C   UNL d   1      -2.986  -0.853  -1.174  0.00  0.00     0.030 A 
ATOM      9  C   UNL d   1      -2.834   0.528  -1.299  0.00  0.00     0.020 A 
ATOM     10  C   UNL d   1      -3.957   1.355  -1.387  0.00  0.00     0.039 A 
ATOM     11  C   UNL d   1      -5.232   0.790  -1.261  0.00  0.00     0.020 A 
ATOM     12  C   UNL d   1      -5.378  -0.597  -1.130  0.00  0.00     0.030 A 
BRANCH  10  13
ATOM     13  C   UNL d   1      -3.838   2.802  -1.720  0.00  0.00     0.293 C 
ATOM     14  O   UNL d   1      -4.789   3.545  -1.879  0.00  0.00    -0.259 OA
BRANCH  13  15
ATOM     15  O   UNL d   1      -2.534   3.097  -1.956  0.00  0.00    -0.318 OA
BRANCH  15  16
ATOM     16  C   UNL d   1      -2.281   4.258  -2.756  0.00  0.00     0.174 C 
ATOM     17  C   UNL d   1      -2.238   3.826  -4.212  0.00  0.00     0.034 C 
ENDBRANCH  15  16
ENDBRANCH  13  15
ENDBRANCH  10  13
ENDBRANCH   5   7
ENDBRANCH   1   5
BRANCH   3  18
ATOM     18  C   UNL d   1      -4.973  -5.537  -0.246  0.00  0.00     0.142 C 
BRANCH  18  19
ATOM     19  C   UNL d   1      -6.228  -6.077  -0.942  0.00  0.00     0.147 C 
BRANCH  19  20
ATOM     20  N   UNL d   1      -7.199  -6.550   0.021  0.00  0.00    -0.331 N 
ATOM     21  C   UNL d   1      -7.851  -5.723   0.930  0.00  0.00     0.318 C 
ATOM     22  N   UNL d   1      -8.779  -6.503   1.605  0.00  0.00    -0.341 N 
ATOM     23  O   UNL d   1      -7.644  -4.540   1.127  0.00  0.00    -0.247 OA
ATOM     24  C   UNL d   1      -8.616  -7.891   1.258  0.00  0.00     0.144 C 
ATOM     25  H   UNL d   1      -9.209  -6.144   2.446  0.00  0.00     0.164 HD
ATOM     26  C   UNL d   1      -7.865  -7.830  -0.067  0.00  0.00     0.147 C 
ENDBRANCH  19  20
ENDBRANCH  18  19
ENDBRANCH   3  18
TORSDOF 8
