REMARK  0 active torsions:
REMARK  status: ('A' for Active; 'I' for Inactive)
ROOT
ATOM      1  C   UNL d   1      -0.744  -0.564   0.117  0.00  0.00    -0.005 A 
ATOM      2  C   UNL d   1       0.737  -0.564  -0.121  0.00  0.00    -0.005 A 
ATOM      3  C   UNL d   1      -1.599   0.495  -0.334  0.00  0.00    -0.014 A 
ATOM      4  C   UNL d   1       1.591   0.498   0.330  0.00  0.00    -0.014 A 
ATOM      5  C   UNL d   1      -1.319  -1.684   0.780  0.00  0.00    -0.018 A 
ATOM      6  C   UNL d   1       1.315  -1.686  -0.778  0.00  0.00    -0.018 A 
ATOM      7  N   UNL d   1      -0.022  -3.670  -0.012  0.00  0.00     0.091 N 
ATOM      8  C   UNL d   1       2.968   0.466  -0.010  0.00  0.00    -0.025 A 
ATOM      9  C   UNL d   1      -2.974   0.465   0.013  0.00  0.00    -0.025 A 
ATOM     10  C   UNL d   1       2.686  -1.710  -1.053  0.00  0.00     0.011 A 
ATOM     11  C   UNL d   1      -2.688  -1.707   1.063  0.00  0.00     0.011 A 
ATOM     12  C   UNL d   1      -3.497  -0.633   0.706  0.00  0.00     0.013 A 
ATOM     13  C   UNL d   1       3.494  -0.635  -0.696  0.00  0.00     0.013 A 
ATOM     14  C   UNL d   1       0.456  -2.876  -1.154  0.00  0.00     0.309 C 
ATOM     15  C   UNL d   1      -0.458  -2.876   1.143  0.00  0.00     0.309 C 
ATOM     16  C   UNL d   1       1.153   1.597   1.111  0.00  0.00     0.013 A 
ATOM     17  C   UNL d   1      -1.163   1.593  -1.119  0.00  0.00     0.013 A 
ATOM     18  C   UNL d   1      -3.817   1.534  -0.340  0.00  0.00     0.012 A 
ATOM     19  C   UNL d   1       3.809   1.534   0.347  0.00  0.00     0.012 A 
ATOM     20  C   UNL d   1      -2.008   2.653  -1.456  0.00  0.00     0.001 A 
ATOM     21  C   UNL d   1       1.996   2.656   1.450  0.00  0.00     0.001 A 
ATOM     22  C   UNL d   1      -3.333   2.629  -1.052  0.00  0.00     0.001 A 
ATOM     23  C   UNL d   1       3.324   2.632   1.054  0.00  0.00     0.001 A 
ATOM     24  H   UNL d   1      -0.808  -4.230  -0.335  0.00  0.00     0.316 HD
ENDROOT
TORSDOF 0
