REMARK  7 active torsions:
REMARK  status: ('A' for Active; 'I' for Inactive)
REMARK    1  A    between atoms: C_11  and  S_1 
REMARK    2  A    between atoms: N_12  and  S_1 
REMARK    3  A    between atoms: C_2  and  C_6 
REMARK    4  A    between atoms: C_5  and  N_16 
REMARK    5  A    between atoms: C_19  and  N_12 
REMARK    6  A    between atoms: N_16  and  C_20 
REMARK    7  A    between atoms: C_20  and  C_19 
ROOT
ATOM      1  N   UNL d   1       5.392   1.876   1.949  0.00  0.00    -0.263 NA
ATOM      2  H   UNL d   1       6.281   1.602   2.354  0.00  0.00     0.130 HD
ENDROOT
BRANCH   1   3
ATOM      3  C   UNL d   1       5.501   3.201   1.571  0.00  0.00     0.157 A 
ATOM      4  N   UNL d   1       6.472   3.898   2.166  0.00  0.00    -0.329 N 
ATOM      5  C   UNL d   1       6.596   5.214   1.851  0.00  0.00     0.120 A 
ATOM      6  HN  UNL d   1       7.102   3.456   2.836  1.00  0.00     0.168 HD
ATOM      7  C   UNL d   1       5.758   5.827   0.938  0.00  0.00     0.051 A 
ATOM      8  C   UNL d   1       4.801   5.026   0.371  0.00  0.00     0.093 A 
ATOM      9  N   UNL d   1       4.662   3.723   0.668  0.00  0.00    -0.343 N 
ATOM     10  HN  UNL d   1       3.944   3.153   0.221  1.00  0.00     0.167 HD
BRANCH   5  11
ATOM     11  C   UNL d   1       7.682   6.043   2.514  0.00  0.00     0.432 C 
ATOM     12  F   UNL d   1       8.459   5.355   3.396  0.00  0.00    -0.165 F 
ATOM     13  F   UNL d   1       8.543   6.585   1.604  0.00  0.00    -0.165 F 
ATOM     14  F   UNL d   1       7.175   7.103   3.209  0.00  0.00    -0.165 F 
ENDBRANCH   5  11
ENDBRANCH   1   3
BRANCH   1  15
ATOM     15  C   UNL d   1       4.817   0.964   0.973  0.00  0.00     0.110 C 
BRANCH  15  16
ATOM     16  C   UNL d   1       3.281   0.988   1.020  0.00  0.00     0.119 C 
BRANCH  16  17
ATOM     17  N   UNL d   1       2.706   0.099  -0.012  0.00  0.00    -0.214 NA
ATOM     18  H   UNL d   1       3.067   0.238  -0.957  0.00  0.00     0.140 HD
BRANCH  17  19
ATOM     19  S   UNL d   1       1.016  -0.019  -0.040  0.00  0.00     0.241 S 
ATOM     20  O   UNL d   1       0.696  -0.994  -1.059  0.00  0.00    -0.206 OA
ATOM     21  O   UNL d   1       0.538  -0.145   1.318  0.00  0.00    -0.206 OA
BRANCH  19  22
ATOM     22  C   UNL d   1       0.532   1.578  -0.659  0.00  0.00     0.074 A 
ATOM     23  C   UNL d   1       0.364   1.757  -2.036  0.00  0.00     0.025 A 
ATOM     24  C   UNL d   1      -0.038   3.001  -2.524  0.00  0.00     0.002 A 
ATOM     25  C   UNL d   1      -0.275   4.055  -1.639  0.00  0.00     0.000 A 
ATOM     26  C   UNL d   1      -0.120   3.868  -0.265  0.00  0.00     0.002 A 
ATOM     27  C   UNL d   1       0.273   2.624   0.232  0.00  0.00     0.025 A 
ENDBRANCH  19  22
ENDBRANCH  17  19
ENDBRANCH  16  17
ENDBRANCH  15  16
ENDBRANCH   1  15
TORSDOF 7
