REMARK  11 active torsions:
REMARK  status: ('A' for Active; 'I' for Inactive)
REMARK    1  A    between atoms: C_18  and  C_4 
REMARK    2  A    between atoms: O_8  and  C_7 
REMARK    3  A    between atoms: C_15  and  O_8 
REMARK    4  A    between atoms: O_14  and  C_9 
REMARK    5  A    between atoms: C_12  and  C_15 
REMARK    6  A    between atoms: O_22  and  C_12 
REMARK    7  A    between atoms: C_13  and  C_16 
REMARK    8  A    between atoms: O_21  and  C_13 
REMARK    9  A    between atoms: C_16  and  O_14 
REMARK   10  A    between atoms: C_28  and  O_21 
REMARK   11  A    between atoms: C_27  and  O_22 
ROOT
ATOM      1  C   UNL d   1      -0.065   0.392  -0.415  0.00  0.00     0.081 A 
ATOM      2  C   UNL d   1      -1.501   0.540  -0.730  0.00  0.00     0.190 C 
ATOM      3  C   UNL d   1      -2.360  -0.630  -0.527  0.00  0.00     0.094 C 
ATOM      4  C   UNL d   1      -1.778  -1.817  -0.348  0.00  0.00     0.090 C 
ATOM      5  C   UNL d   1       0.406  -0.920  -0.275  0.00  0.00     0.095 A 
ATOM      6  O   UNL d   1      -0.415  -2.027  -0.291  0.00  0.00    -0.309 OA
ATOM      7  C   UNL d   1       0.839   1.459  -0.300  0.00  0.00     0.089 A 
ATOM      8  C   UNL d   1       2.685  -0.127  -0.098  0.00  0.00     0.075 A 
ATOM      9  C   UNL d   1       1.768  -1.176  -0.106  0.00  0.00     0.075 A 
ATOM     10  C   UNL d   1       2.216   1.184  -0.193  0.00  0.00     0.074 A 
ATOM     11  O   UNL d   1      -1.998   1.556  -1.195  0.00  0.00    -0.287 OA
ENDROOT
BRANCH   7  12
ATOM     12  O   UNL d   1       0.568   2.805  -0.257  0.00  0.00    -0.335 OA
BRANCH  12  13
ATOM     13  C   UNL d   1      -0.558   3.292   0.469  0.00  0.00     0.224 C 
ATOM     14  C   UNL d   1      -0.182   4.690   0.968  0.00  0.00     0.051 C 
BRANCH  13  15
ATOM     15  C   UNL d   1      -1.125   2.529   1.692  0.00  0.00     0.288 C 
ATOM     16  O   UNL d   1      -0.521   1.694   2.353  0.00  0.00    -0.262 OA
BRANCH  15  17
ATOM     17  O   UNL d   1      -2.412   2.916   1.922  0.00  0.00    -0.320 OA
BRANCH  17  18
ATOM     18  C   UNL d   1      -3.089   2.255   3.002  0.00  0.00     0.174 C 
ATOM     19  C   UNL d   1      -2.782   2.956   4.311  0.00  0.00     0.034 C 
ENDBRANCH  17  18
ENDBRANCH  15  17
ENDBRANCH  13  15
ENDBRANCH  12  13
ENDBRANCH   7  12
BRANCH   8  20
ATOM     20  O   UNL d   1       3.986  -0.491   0.112  0.00  0.00    -0.336 OA
BRANCH  20  21
ATOM     21  C   UNL d   1       5.001   0.241  -0.577  0.00  0.00     0.224 C 
ATOM     22  C   UNL d   1       6.146  -0.743  -0.822  0.00  0.00     0.051 C 
BRANCH  21  23
ATOM     23  C   UNL d   1       5.539   1.465   0.178  0.00  0.00     0.288 C 
ATOM     24  O   UNL d   1       5.086   1.918   1.220  0.00  0.00    -0.262 OA
BRANCH  23  25
ATOM     25  O   UNL d   1       6.524   2.058  -0.563  0.00  0.00    -0.320 OA
BRANCH  25  26
ATOM     26  C   UNL d   1       6.836   3.415  -0.221  0.00  0.00     0.174 C 
ATOM     27  C   UNL d   1       5.929   4.314  -1.041  0.00  0.00     0.034 C 
ENDBRANCH  25  26
ENDBRANCH  23  25
ENDBRANCH  21  23
ENDBRANCH  20  21
ENDBRANCH   8  20
BRANCH   4  28
ATOM     28  C   UNL d   1      -2.604  -3.026  -0.362  0.00  0.00    -0.002 A 
ATOM     29  C   UNL d   1      -2.864  -3.644  -1.593  0.00  0.00     0.014 A 
ATOM     30  C   UNL d   1      -3.722  -4.738  -1.666  0.00  0.00     0.001 A 
ATOM     31  C   UNL d   1      -4.321  -5.229  -0.508  0.00  0.00     0.000 A 
ATOM     32  C   UNL d   1      -4.061  -4.626   0.724  0.00  0.00     0.001 A 
ATOM     33  C   UNL d   1      -3.205  -3.523   0.799  0.00  0.00     0.014 A 
ENDBRANCH   4  28
TORSDOF 11
