REMARK  5 active torsions:
REMARK  status: ('A' for Active; 'I' for Inactive)
REMARK    1  A    between atoms: C_6  and  C_1 
REMARK    2  A    between atoms: C_11  and  C_2 
REMARK       I    between atoms: N_10  and  C_6 
REMARK    3  A    between atoms: C_7  and  C_13 
REMARK       I    between atoms: C_9  and  N_12 
REMARK       I    between atoms: N_14  and  C_9 
REMARK    4  A    between atoms: N_12  and  N_10 
REMARK    5  A    between atoms: C_24  and  N_14 
ROOT
ATOM      1  C   UNL d   1      -0.045  -1.318   0.045  0.00  0.00     0.094 A 
ATOM      2  C   UNL d   1      -1.335  -0.811   0.133  0.00  0.00     0.126 A 
ATOM      3  O   UNL d   1      -1.276   0.547   0.215  0.00  0.00    -0.236 OA
ATOM      4  N   UNL d   1       0.033   0.967   0.188  0.00  0.00    -0.264 N 
ATOM      5  HN  UNL d   1       0.371   1.928   0.241  1.00  0.00     0.194 HD
ATOM      6  C   UNL d   1       0.771  -0.143   0.077  0.00  0.00     0.047 A 
ATOM      7  C   UNL d   1       2.245   0.007  -0.029  0.00  0.00     0.071 C 
ENDROOT
BRANCH   1   8
ATOM      8  C   UNL d   1       0.309  -2.723  -0.097  0.00  0.00     0.275 C 
ATOM      9  N   UNL d   1       1.571  -3.069   0.334  0.00  0.00    -0.262 N 
ATOM     10  H   UNL d   1       2.264  -2.418   0.690  0.00  0.00     0.190 HD
ATOM     11  O   UNL d   1      -0.457  -3.570  -0.547  0.00  0.00    -0.266 OA
BRANCH   9  12
ATOM     12  N   UNL d   1       2.036  -4.380   0.149  0.00  0.00    -0.248 N 
ATOM     13  C   UNL d   1       3.392  -4.587   0.307  0.00  0.00     0.339 C 
ATOM     14  N   UNL d   1       3.786  -5.868  -0.019  0.00  0.00    -0.308 N 
ATOM     15  O   UNL d   1       4.123  -3.659   0.649  0.00  0.00    -0.245 OA
ATOM     16  H   UNL d   1       3.170  -6.361  -0.648  0.00  0.00     0.170 HD
ATOM     17  H   UNL d   1       1.350  -5.105  -0.043  0.00  0.00     0.192 HD
BRANCH  14  18
ATOM     18  C   UNL d   1       5.145  -6.253  -0.039  0.00  0.00     0.036 A 
ATOM     19  C   UNL d   1       6.066  -5.787   0.904  0.00  0.00     0.029 A 
ATOM     20  C   UNL d   1       7.422  -6.099   0.780  0.00  0.00     0.002 A 
ATOM     21  C   UNL d   1       7.863  -6.872  -0.291  0.00  0.00     0.000 A 
ATOM     22  C   UNL d   1       6.942  -7.377  -1.209  0.00  0.00     0.002 A 
ATOM     23  C   UNL d   1       5.582  -7.091  -1.068  0.00  0.00     0.029 A 
ENDBRANCH  14  18
ENDBRANCH   9  12
ENDBRANCH   1   8
BRANCH   2  24
ATOM     24  C   UNL d   1      -2.684  -1.362   0.151  0.00  0.00     0.001 A 
ATOM     25  C   UNL d   1      -2.960  -2.578   0.789  0.00  0.00     0.015 A 
ATOM     26  C   UNL d   1      -4.224  -3.165   0.698  0.00  0.00     0.017 A 
ATOM     27  C   UNL d   1      -5.253  -2.539  -0.023  0.00  0.00     0.048 A 
ATOM     28  C   UNL d   1      -5.007  -1.278  -0.589  0.00  0.00     0.017 A 
ATOM     29  C   UNL d   1      -3.736  -0.697  -0.495  0.00  0.00     0.015 A 
BRANCH  27  30
ATOM     30  C   UNL d   1      -6.571  -3.243  -0.208  0.00  0.00     0.417 C 
ATOM     31  F   UNL d   1      -7.464  -2.546  -0.965  0.00  0.00    -0.166 F 
ATOM     32  F   UNL d   1      -6.424  -4.449  -0.826  0.00  0.00    -0.166 F 
ATOM     33  F   UNL d   1      -7.202  -3.504   0.972  0.00  0.00    -0.166 F 
ENDBRANCH  27  30
ENDBRANCH   2  24
TORSDOF 5
