REMARK  4 active torsions:
REMARK  status: ('A' for Active; 'I' for Inactive)
REMARK       I    between atoms: C_12  and  N_3 
REMARK       I    between atoms: N_19  and  C_12 
REMARK    1  A    between atoms: S_21  and  C_13 
REMARK    2  A    between atoms: C_23  and  N_19 
REMARK    3  A    between atoms: C_25  and  C_23 
REMARK    4  A    between atoms: C_26  and  C_25 
ROOT
ATOM      1  C   UNL d   1      -0.263  -1.126   0.251  0.00  0.00     0.083 A 
ATOM      2  C   UNL d   1      -0.659  -2.510   0.174  0.00  0.00     0.058 C 
ATOM      3  N   UNL d   1       1.044  -0.631   0.135  0.00  0.00    -0.203 N 
ATOM      4  S   UNL d   1       0.118  -3.591  -0.917  0.00  0.00    -0.067 SA
ATOM      5  C   UNL d   1      -0.801  -4.897  -0.303  0.00  0.00     0.092 C 
ATOM      6  N   UNL d   1      -1.764  -4.548   0.524  0.00  0.00    -0.352 N 
ATOM      7  HN  UNL d   1      -2.457  -5.188   0.911  1.00  0.00     0.166 HD
ATOM      8  N   UNL d   1       1.046   0.725  -0.009  0.00  0.00    -0.283 N 
ATOM      9  HN  UNL d   1       1.846   1.328  -0.200  1.00  0.00     0.188 HD
ATOM     10  C   UNL d   1      -1.075  -0.008   0.328  0.00  0.00     0.071 A 
ATOM     11  C   UNL d   1      -1.704  -3.184   0.795  0.00  0.00     0.025 C 
ATOM     12  C   UNL d   1       2.305  -1.283   0.167  0.00  0.00     0.342 C 
ATOM     13  C   UNL d   1      -0.218   1.087   0.152  0.00  0.00     0.087 A 
ATOM     14  C   UNL d   1      -0.554  -6.271  -0.670  0.00  0.00     0.038 A 
ATOM     15  S   UNL d   1       1.012  -6.848  -1.089  0.00  0.00    -0.099 SA
ATOM     16  O   UNL d   1       3.237  -0.862  -0.508  0.00  0.00    -0.245 OA
ATOM     17  C   UNL d   1      -1.477  -7.301  -0.689  0.00  0.00     0.022 A 
ATOM     18  C   UNL d   1       0.451  -8.444  -1.302  0.00  0.00     0.050 A 
ATOM     19  N   UNL d   1       2.361  -2.331   1.065  0.00  0.00    -0.341 N 
ATOM     20  C   UNL d   1      -0.900  -8.552  -1.062  0.00  0.00     0.008 A 
ATOM     21  C   UNL d   1      -2.730  -2.633   1.726  0.00  0.00     0.070 C 
ATOM     22  H   UNL d   1       1.593  -2.508   1.701  0.00  0.00     0.164 HD
ENDROOT
BRANCH  13  23
ATOM     23  S   UNL d   1      -0.719   2.756   0.091  0.00  0.00    -0.115 SA
ATOM     24  C   UNL d   1       0.879   3.592  -0.077  0.00  0.00     0.097 C 
ENDBRANCH  13  23
BRANCH  19  25
ATOM     25  C   UNL d   1       3.581  -3.096   1.225  0.00  0.00     0.124 C 
BRANCH  25  26
ATOM     26  C   UNL d   1       4.715  -2.322   1.902  0.00  0.00     0.019 C 
BRANCH  26  27
ATOM     27  C   UNL d   1       4.397  -1.943   3.349  0.00  0.00    -0.003 C 
ATOM     28  C   UNL d   1       5.561  -1.203   3.991  0.00  0.00     0.005 C 
ENDBRANCH  26  27
ENDBRANCH  25  26
ENDBRANCH  19  25
TORSDOF 4
