REMARK  6 active torsions:
REMARK  status: ('A' for Active; 'I' for Inactive)
REMARK    1  A    between atoms: C_3  and  C_1 
REMARK    2  A    between atoms: C_2  and  O_9 
REMARK    3  A    between atoms: C_7  and  C_3 
REMARK    4  A    between atoms: N_8  and  C_4 
REMARK    5  A    between atoms: C_19  and  N_8 
REMARK    6  A    between atoms: O_9  and  C_18 
ROOT
ATOM      1  C   UNL d   1       0.911  -0.082   0.055  0.00  0.00     0.110 C 
ATOM      2  C   UNL d   1       0.220  -0.639  -0.956  0.00  0.00     0.115 C 
ATOM      3  C   UNL d   1       0.248   0.524   1.152  0.00  0.00     0.105 C 
ATOM      4  N   UNL d   1      -0.320   1.044   2.024  0.00  0.00    -0.191 NA
ENDROOT
BRANCH   1   5
ATOM      5  C   UNL d   1       2.405  -0.146  -0.003  0.00  0.00     0.204 C 
ATOM      6  O   UNL d   1       2.985  -1.037  -0.618  0.00  0.00    -0.286 OA
BRANCH   5   7
ATOM      7  C   UNL d   1       3.212   0.886   0.712  0.00  0.00     0.016 A 
ATOM      8  C   UNL d   1       4.463   0.522   1.227  0.00  0.00     0.018 A 
ATOM      9  C   UNL d   1       5.243   1.452   1.928  0.00  0.00     0.038 A 
ATOM     10  C   UNL d   1       4.768   2.744   2.143  0.00  0.00     0.078 A 
ATOM     11  C   UNL d   1       3.555   3.126   1.564  0.00  0.00     0.038 A 
ATOM     12  C   UNL d   1       2.786   2.212   0.841  0.00  0.00     0.018 A 
BRANCH  10  13
ATOM     13  O   UNL d   1       5.419   3.737   2.804  0.00  0.00    -0.255 OA
BRANCH  13  14
ATOM     14  C   UNL d   1       6.207   3.425   3.946  0.00  0.00     0.530 C 
ATOM     15  F   UNL d   1       6.206   2.119   4.285  0.00  0.00    -0.144 F 
ATOM     16  F   UNL d   1       7.481   3.812   3.718  0.00  0.00    -0.144 F 
ATOM     17  F   UNL d   1       5.736   4.128   5.000  0.00  0.00    -0.144 F 
ENDBRANCH  13  14
ENDBRANCH  10  13
ENDBRANCH   5   7
ENDBRANCH   1   5
BRANCH   2  18
ATOM     18  N   UNL d   1      -1.145  -0.635  -1.167  0.00  0.00    -0.363 N 
ATOM     19  H   UNL d   1      -1.714  -0.060  -0.549  0.00  0.00     0.165 HD
BRANCH  18  20
ATOM     20  C   UNL d   1      -1.855  -1.296  -2.181  0.00  0.00     0.047 A 
ATOM     21  C   UNL d   1      -3.076  -0.789  -2.638  0.00  0.00     0.117 A 
ATOM     22  N   UNL d   1      -3.806  -1.308  -3.655  0.00  0.00    -0.373 N 
ATOM     23  C   UNL d   1      -3.294  -2.397  -4.264  0.00  0.00     0.088 A 
ATOM     24  HN  UNL d   1      -4.693  -0.897  -3.944  1.00  0.00     0.164 HD
ATOM     25  C   UNL d   1      -2.097  -2.985  -3.899  0.00  0.00     0.019 A 
ATOM     26  C   UNL d   1      -1.369  -2.420  -2.852  0.00  0.00     0.032 A 
ENDBRANCH  18  20
ENDBRANCH   2  18
TORSDOF 6
