REMARK  9 active torsions:
REMARK  status: ('A' for Active; 'I' for Inactive)
REMARK    1  A    between atoms: N_5  and  S_1 
REMARK    2  A    between atoms: C_11  and  S_1 
REMARK    3  A    between atoms: C_14  and  C_4 
REMARK    4  A    between atoms: N_9  and  N_5 
REMARK    5  A    between atoms: C_6  and  C_28 
REMARK       I    between atoms: C_10  and  N_9 
REMARK    6  A    between atoms: C_23  and  C_10 
REMARK    7  A    between atoms: S_20  and  C_23 
REMARK    8  A    between atoms: C_28  and  S_20 
REMARK    9  A    between atoms: O_30  and  C_22 
ROOT
ATOM      1  N   UNL d   1       0.148  -4.029  -1.934  0.00  0.00    -0.260 N 
ATOM      2  C   UNL d   1       0.435  -2.911  -2.682  0.00  0.00     0.245 C 
ATOM      3  O   UNL d   1       0.381  -1.773  -2.212  0.00  0.00    -0.271 OA
ATOM      4  H   UNL d   1       0.153  -4.960  -2.355  0.00  0.00     0.190 HD
ENDROOT
BRANCH   2   5
ATOM      5  C   UNL d   1       0.920  -3.176  -4.106  0.00  0.00     0.178 C 
BRANCH   5   6
ATOM      6  S   UNL d   1       0.254  -4.742  -4.791  0.00  0.00    -0.153 SA
BRANCH   6   7
ATOM      7  C   UNL d   1       1.053  -4.733  -6.434  0.00  0.00     0.139 C 
BRANCH   7   8
ATOM      8  C   UNL d   1       0.616  -3.580  -7.285  0.00  0.00     0.060 A 
ATOM      9  N   UNL d   1       1.262  -2.434  -7.372  0.00  0.00    -0.352 N 
ATOM     10  C   UNL d   1       0.575  -1.562  -8.205  0.00  0.00     0.049 A 
ATOM     11  HN  UNL d   1       2.138  -2.219  -6.896  1.00  0.00     0.166 HD
ATOM     12  C   UNL d   1      -0.571  -2.088  -8.772  0.00  0.00     0.081 A 
ATOM     13  S   UNL d   1      -0.811  -3.697  -8.239  0.00  0.00    -0.086 SA
BRANCH  10  14
ATOM     14  C   UNL d   1       1.067  -0.216  -8.475  0.00  0.00    -0.009 A 
ATOM     15  C   UNL d   1       2.447   0.033  -8.471  0.00  0.00     0.015 A 
ATOM     16  C   UNL d   1       2.943   1.307  -8.770  0.00  0.00     0.024 A 
ATOM     17  C   UNL d   1       2.058   2.342  -9.062  0.00  0.00     0.034 A 
ATOM     18  C   UNL d   1       0.683   2.119  -9.046  0.00  0.00     0.024 A 
ATOM     19 CL   UNL d   1       2.663   3.905  -9.450  0.00  0.00    -0.084 Cl
ATOM     20  C   UNL d   1       0.189   0.844  -8.750  0.00  0.00     0.015 A 
ENDBRANCH  10  14
ENDBRANCH   7   8
ENDBRANCH   6   7
ENDBRANCH   5   6
ENDBRANCH   2   5
BRANCH   1  21
ATOM     21  N   UNL d   1      -0.297  -3.897  -0.564  0.00  0.00    -0.220 N 
ATOM     22  H   UNL d   1      -0.358  -2.966  -0.140  0.00  0.00     0.200 HD
BRANCH  21  23
ATOM     23  S   UNL d   1      -0.677  -5.295   0.296  0.00  0.00     0.276 S 
ATOM     24  O   UNL d   1       0.550  -6.049   0.451  0.00  0.00    -0.199 OA
ATOM     25  O   UNL d   1      -1.833  -5.891  -0.335  0.00  0.00    -0.199 OA
BRANCH  23  26
ATOM     26  C   UNL d   1      -1.165  -4.692   1.894  0.00  0.00     0.081 A 
ATOM     27  C   UNL d   1      -2.517  -4.455   2.167  0.00  0.00     0.028 A 
ATOM     28  C   UNL d   1      -2.916  -4.115   3.467  0.00  0.00     0.038 A 
ATOM     29  C   UNL d   1      -1.969  -4.024   4.489  0.00  0.00     0.068 A 
ATOM     30  C   UNL d   1      -0.624  -4.281   4.208  0.00  0.00     0.038 A 
ATOM     31  C   UNL d   1      -0.215  -4.610   2.914  0.00  0.00     0.028 A 
BRANCH  29  32
ATOM     32  O   UNL d   1      -2.243  -3.764   5.804  0.00  0.00    -0.356 OA
ATOM     33  C   UNL d   1      -3.383  -2.953   6.058  0.00  0.00     0.210 C 
ENDBRANCH  29  32
ENDBRANCH  23  26
ENDBRANCH  21  23
ENDBRANCH   1  21
TORSDOF 9
