REMARK  5 active torsions:
REMARK  status: ('A' for Active; 'I' for Inactive)
REMARK    1  A    between atoms: N_2  and  S_1 
REMARK    2  A    between atoms: C_3  and  S_1 
REMARK    3  A    between atoms: C_11  and  N_4 
REMARK    4  A    between atoms: C_19  and  C_11 
REMARK    5  A    between atoms: C_20  and  C_11 
ROOT
ATOM      1  N   UNL d   1       0.673  -1.005  -0.087  0.00  0.00    -0.303 N 
ATOM      2  N   UNL d   1      -0.837  -1.905   2.288  0.00  0.00     0.105 N 
ATOM      3  C   UNL d   1      -0.693  -0.529   0.171  0.00  0.00     0.165 C 
ATOM      4  C   UNL d   1       0.832  -2.411   0.333  0.00  0.00     0.165 C 
ATOM      5  C   UNL d   1      -0.958  -0.566   1.670  0.00  0.00     0.294 C 
ATOM      6  C   UNL d   1       0.348  -2.648   1.788  0.00  0.00     0.294 C 
ENDROOT
BRANCH   1   7
ATOM      7  S   UNL d   1       1.961   0.082   0.016  0.00  0.00     0.261 S 
ATOM      8  O   UNL d   1       1.468   1.391  -0.349  0.00  0.00    -0.200 OA
ATOM      9  O   UNL d   1       3.071  -0.514  -0.705  0.00  0.00    -0.200 OA
BRANCH   7  10
ATOM     10  C   UNL d   1       2.494   0.169   1.725  0.00  0.00     0.082 A 
ATOM     11  C   UNL d   1       2.263   1.334   2.475  0.00  0.00     0.065 A 
ATOM     12  C   UNL d   1       2.939   1.513   3.686  0.00  0.00     0.103 A 
ATOM     13  O   UNL d   1       2.781   2.723   4.317  0.00  0.00    -0.346 OA
ATOM     14  C   UNL d   1       3.786   0.515   4.184  0.00  0.00     0.102 A 
ATOM     15  C   UNL d   1       3.917   2.997   5.149  0.00  0.00     0.202 C 
ATOM     16  C   UNL d   1       4.180   1.824   6.079  0.00  0.00     0.202 C 
ATOM     17  O   UNL d   1       4.505   0.637   5.345  0.00  0.00    -0.346 OA
ATOM     18  C   UNL d   1       3.988  -0.651   3.452  0.00  0.00     0.041 A 
ATOM     19  C   UNL d   1       3.368  -0.810   2.209  0.00  0.00     0.028 A 
ENDBRANCH   7  10
ENDBRANCH   1   7
BRANCH   2  20
ATOM     20  C   UNL d   1      -2.092  -2.704   2.300  0.00  0.00     0.289 C 
BRANCH  20  21
ATOM     21  C   UNL d   1      -1.983  -3.932   3.221  0.00  0.00    -0.021 A 
ATOM     22  C   UNL d   1      -1.518  -3.818   4.545  0.00  0.00     0.010 A 
ATOM     23  C   UNL d   1      -1.458  -4.928   5.389  0.00  0.00     0.001 A 
ATOM     24  C   UNL d   1      -1.828  -6.181   4.915  0.00  0.00     0.000 A 
ATOM     25  C   UNL d   1      -2.258  -6.324   3.597  0.00  0.00     0.001 A 
ATOM     26  C   UNL d   1      -2.344  -5.207   2.757  0.00  0.00     0.010 A 
ENDBRANCH  20  21
BRANCH  20  27
ATOM     27  C   UNL d   1      -3.317  -1.849   2.683  0.00  0.00    -0.021 A 
ATOM     28  C   UNL d   1      -4.387  -1.704   1.785  0.00  0.00     0.010 A 
ATOM     29  C   UNL d   1      -5.411  -0.786   2.044  0.00  0.00     0.001 A 
ATOM     30  C   UNL d   1      -5.390  -0.014   3.204  0.00  0.00     0.000 A 
ATOM     31  C   UNL d   1      -4.354  -0.166   4.120  0.00  0.00     0.001 A 
ATOM     32  C   UNL d   1      -3.330  -1.077   3.863  0.00  0.00     0.010 A 
ENDBRANCH  20  27
ENDBRANCH   2  20
TORSDOF 5
