REMARK  5 active torsions:
REMARK  status: ('A' for Active; 'I' for Inactive)
REMARK    1  A    between atoms: O_10  and  C_3 
REMARK    2  A    between atoms: O_18  and  C_4 
REMARK    3  A    between atoms: S_14  and  C_5 
REMARK    4  A    between atoms: C_6  and  C_11 
REMARK    5  A    between atoms: C_13  and  O_10 
ROOT
ATOM      1  N   UNL d   1      -0.427   1.222   0.604  0.00  0.00    -0.315 N 
ATOM      2  HN  UNL d   1      -0.747   2.083   1.049  1.00  0.00     0.170 HD
ATOM      3  C   UNL d   1      -0.734  -1.116   0.101  0.00  0.00     0.149 A 
ATOM      4  C   UNL d   1      -1.095   0.066   0.728  0.00  0.00     0.178 A 
ATOM      5  C   UNL d   1       0.684   1.177  -0.138  0.00  0.00     0.143 A 
ATOM      6  N   UNL d   1       1.181   0.077  -0.724  0.00  0.00    -0.338 N 
ATOM      7  HN  UNL d   1       2.054   0.100  -1.250  1.00  0.00     0.168 HD
ATOM      8  C   UNL d   1       0.468  -1.065  -0.584  0.00  0.00     0.045 A 
ATOM      9  C   UNL d   1       1.072  -2.299  -1.190  0.00  0.00     0.071 C 
ENDROOT
BRANCH   3  10
ATOM     10  O   UNL d   1      -1.383  -2.317   0.201  0.00  0.00    -0.304 OA
BRANCH  10  11
ATOM     11  C   UNL d   1      -2.748  -2.401   0.042  0.00  0.00     0.077 A 
ATOM     12  C   UNL d   1      -3.551  -1.475  -0.632  0.00  0.00     0.053 A 
ATOM     13  C   UNL d   1      -4.950  -1.623  -0.636  0.00  0.00     0.050 A 
ATOM     14  C   UNL d   1      -5.521  -2.744  -0.013  0.00  0.00     0.016 A 
ATOM     15  C   UNL d   1      -4.714  -3.699   0.602  0.00  0.00     0.004 A 
ATOM     16  C   UNL d   1      -3.332  -3.525   0.631  0.00  0.00     0.037 A 
BRANCH  13  17
ATOM     17  C   UNL d   1      -5.847  -0.580  -1.262  0.00  0.00     0.417 C 
ATOM     18  F   UNL d   1      -5.169   0.435  -1.863  0.00  0.00    -0.166 F 
ATOM     19  F   UNL d   1      -6.665  -1.103  -2.217  0.00  0.00    -0.166 F 
ATOM     20  F   UNL d   1      -6.668   0.007  -0.348  0.00  0.00    -0.166 F 
ENDBRANCH  13  17
ENDBRANCH  10  11
ENDBRANCH   3  10
BRANCH   4  21
ATOM     21  O   UNL d   1      -2.160   0.155   1.578  0.00  0.00    -0.344 OA
ATOM     22  H   UNL d   1      -2.436  -0.746   1.808  0.00  0.00     0.219 HD
ENDBRANCH   4  21
BRANCH   5  23
ATOM     23  S   UNL d   1       1.575   2.689  -0.328  0.00  0.00    -0.107 SA
ATOM     24  H   UNL d   1       0.681   3.399   0.372  0.00  0.00     0.110 HD
ENDBRANCH   5  23
TORSDOF 5
