REMARK  6 active torsions:
REMARK  status: ('A' for Active; 'I' for Inactive)
REMARK    1  A    between atoms: N_2  and  C_1 
REMARK    2  A    between atoms: C_4  and  N_2 
REMARK    3  A    between atoms: C_11  and  N_6 
REMARK    4  A    between atoms: O_8  and  C_7 
REMARK    5  A    between atoms: C_14  and  C_11 
REMARK    6  A    between atoms: C_15  and  C_14 
ROOT
ATOM      1  N   UNL d   1       0.437  -0.886  -0.704  0.00  0.00    -0.333 N 
ATOM      2  H   UNL d   1      -0.511  -0.544  -0.823  0.00  0.00     0.168 HD
ENDROOT
BRANCH   1   3
ATOM      3  C   UNL d   1       1.214  -0.078   0.090  0.00  0.00     0.172 C 
ATOM      4  S   UNL d   1       2.737   0.530  -0.261  0.00  0.00    -0.041 SA
ATOM      5  N   UNL d   1       0.674   0.299   1.281  0.00  0.00    -0.367 N 
ATOM      6  H   UNL d   1       1.306   0.872   1.833  0.00  0.00     0.161 HD
BRANCH   5   7
ATOM      7  C   UNL d   1      -0.457  -0.276   1.984  0.00  0.00     0.122 C 
BRANCH   7   8
ATOM      8  C   UNL d   1      -0.156  -1.667   2.546  0.00  0.00     0.019 C 
BRANCH   8   9
ATOM      9  C   UNL d   1      -1.316  -2.152   3.416  0.00  0.00    -0.003 C 
ATOM     10  C   UNL d   1      -1.084  -3.550   3.965  0.00  0.00     0.005 C 
ENDBRANCH   8   9
ENDBRANCH   7   8
ENDBRANCH   5   7
ENDBRANCH   1   3
BRANCH   1  11
ATOM     11  C   UNL d   1       0.928  -1.744  -1.716  0.00  0.00     0.036 A 
ATOM     12  C   UNL d   1       2.071  -2.518  -1.482  0.00  0.00     0.066 A 
ATOM     13  C   UNL d   1       2.628  -3.292  -2.498  0.00  0.00     0.070 A 
ATOM     14  C   UNL d   1       1.998  -3.334  -3.741  0.00  0.00     0.037 A 
ATOM     15  C   UNL d   1       0.812  -2.623  -3.959  0.00  0.00     0.005 A 
ATOM     16  C   UNL d   1       0.267  -1.840  -2.939  0.00  0.00     0.029 A 
BRANCH  13  17
ATOM     17  O   UNL d   1       3.778  -4.027  -2.391  0.00  0.00    -0.356 OA
ATOM     18  C   UNL d   1       4.502  -3.893  -1.171  0.00  0.00     0.210 C 
ENDBRANCH  13  17
ENDBRANCH   1  11
TORSDOF 6
