REMARK  6 active torsions:
REMARK  status: ('A' for Active; 'I' for Inactive)
REMARK    1  A    between atoms: C_4  and  C_1 
REMARK    2  A    between atoms: C_2  and  C_6 
REMARK    3  A    between atoms: C_3  and  C_5 
REMARK       I    between atoms: N_9  and  C_4 
REMARK    4  A    between atoms: N_12  and  C_7 
REMARK    5  A    between atoms: C_23  and  N_9 
REMARK    6  A    between atoms: C_13  and  N_12 
ROOT
ATOM      1  C   UNL d   1       0.814  -0.073  -0.051  0.00  0.00     0.127 C 
ATOM      2  C   UNL d   1       0.044   0.990   0.244  0.00  0.00     0.116 C 
ATOM      3  C   UNL d   1       0.256  -1.338  -0.376  0.00  0.00     0.106 C 
ATOM      4  N   UNL d   1      -0.154  -2.384  -0.656  0.00  0.00    -0.191 NA
ENDROOT
BRANCH   1   5
ATOM      5  C   UNL d   1       2.311   0.144  -0.046  0.00  0.00     0.268 C 
ATOM      6  N   UNL d   1       3.086  -0.989  -0.233  0.00  0.00    -0.322 N 
ATOM      7  H   UNL d   1       2.620  -1.873  -0.404  0.00  0.00     0.169 HD
ATOM      8  O   UNL d   1       2.758   1.275   0.132  0.00  0.00    -0.266 OA
BRANCH   6   9
ATOM      9  C   UNL d   1       4.502  -1.065  -0.243  0.00  0.00     0.035 A 
ATOM     10  C   UNL d   1       5.357   0.017  -0.013  0.00  0.00     0.031 A 
ATOM     11  C   UNL d   1       6.749  -0.142  -0.083  0.00  0.00     0.026 A 
ATOM     12  C   UNL d   1       7.293  -1.388  -0.375  0.00  0.00     0.034 A 
ATOM     13  C   UNL d   1       6.458  -2.482  -0.580  0.00  0.00     0.026 A 
ATOM     14 CL   UNL d   1       8.999  -1.577  -0.490  0.00  0.00    -0.084 Cl
ATOM     15  C   UNL d   1       5.070  -2.320  -0.510  0.00  0.00     0.031 A 
ENDBRANCH   6   9
ENDBRANCH   1   5
BRANCH   2  16
ATOM     16  N   UNL d   1      -1.325   1.112   0.412  0.00  0.00    -0.364 N 
ATOM     17  H   UNL d   1      -1.852   0.263   0.601  0.00  0.00     0.165 HD
BRANCH  16  18
ATOM     18  C   UNL d   1      -2.009   2.329   0.613  0.00  0.00     0.033 A 
ATOM     19  C   UNL d   1      -1.556   3.522   0.031  0.00  0.00     0.045 A 
ATOM     20  C   UNL d   1      -2.139   4.763   0.332  0.00  0.00     0.050 A 
ATOM     21  C   UNL d   1      -3.210   4.804   1.233  0.00  0.00     0.032 A 
ATOM     22  C   UNL d   1      -3.691   3.629   1.831  0.00  0.00     0.050 A 
ATOM     23  C   UNL d   1      -3.090   2.396   1.502  0.00  0.00     0.045 A 
BRANCH  20  24
ATOM     24  C   UNL d   1      -1.574   6.020  -0.280  0.00  0.00     0.417 C 
ATOM     25  F   UNL d   1      -2.214   7.153   0.121  0.00  0.00    -0.166 F 
ATOM     26  F   UNL d   1      -0.262   6.201   0.036  0.00  0.00    -0.166 F 
ATOM     27  F   UNL d   1      -1.637   6.014  -1.639  0.00  0.00    -0.166 F 
ENDBRANCH  20  24
BRANCH  22  28
ATOM     28  C   UNL d   1      -4.805   3.693   2.851  0.00  0.00     0.417 C 
ATOM     29  F   UNL d   1      -5.228   4.963   3.109  0.00  0.00    -0.166 F 
ATOM     30  F   UNL d   1      -5.911   3.002   2.466  0.00  0.00    -0.166 F 
ATOM     31  F   UNL d   1      -4.435   3.174   4.054  0.00  0.00    -0.166 F 
ENDBRANCH  22  28
ENDBRANCH  16  18
ENDBRANCH   2  16
TORSDOF 6
