REMARK  2 active torsions:
REMARK  status: ('A' for Active; 'I' for Inactive)
REMARK    1  A    between atoms: C_3  and  C_1 
REMARK    2  A    between atoms: C_11  and  C_2 
ROOT
ATOM      1  C   UNL d   1      -0.299   1.044  -0.051  0.00  0.00     0.193 A 
ATOM      2  C   UNL d   1      -0.212  -1.095  -0.046  0.00  0.00     0.176 A 
ATOM      3  O   UNL d   1      -1.084  -0.061   0.178  0.00  0.00    -0.271 OA
ATOM      4  N   UNL d   1       0.937   0.708  -0.375  0.00  0.00    -0.276 N 
ATOM      5  HN  UNL d   1       1.703   1.346  -0.589  1.00  0.00     0.189 HD
ATOM      6  N   UNL d   1       0.991  -0.671  -0.369  0.00  0.00    -0.277 N 
ATOM      7  HN  UNL d   1       1.806  -1.249  -0.574  1.00  0.00     0.189 HD
ENDROOT
BRANCH   1   8
ATOM      8  C   UNL d   1      -0.786   2.451   0.021  0.00  0.00     0.110 A 
ATOM      9  N   UNL d   1      -2.040   2.769   0.370  0.00  0.00    -0.257 N 
ATOM     10  O   UNL d   1      -2.111   4.150   0.283  0.00  0.00    -0.242 OA
ATOM     11  HN  UNL d   1      -2.786   2.129   0.642  1.00  0.00     0.195 HD
ATOM     12  C   UNL d   1      -0.909   4.641  -0.123  0.00  0.00     0.075 A 
ATOM     13  C   UNL d   1      -0.027   3.602  -0.286  0.00  0.00     0.070 A 
ATOM     14  C   UNL d   1      -0.823   6.101  -0.301  0.00  0.00     0.079 C 
ENDBRANCH   1   8
BRANCH   2  15
ATOM     15  C   UNL d   1      -0.759  -2.444   0.065  0.00  0.00     0.038 A 
ATOM     16  C   UNL d   1       0.030  -3.564   0.378  0.00  0.00     0.048 A 
ATOM     17 CL   UNL d   1       1.719  -3.458   0.739  0.00  0.00    -0.083 Cl
ATOM     18  C   UNL d   1      -0.542  -4.843   0.443  0.00  0.00     0.025 A 
ATOM     19  C   UNL d   1      -1.902  -5.024   0.197  0.00  0.00     0.002 A 
ATOM     20  C   UNL d   1      -2.699  -3.928  -0.111  0.00  0.00     0.001 A 
ATOM     21  C   UNL d   1      -2.133  -2.651  -0.174  0.00  0.00     0.017 A 
ENDBRANCH   2  15
TORSDOF 2
