REMARK  6 active torsions:
REMARK  status: ('A' for Active; 'I' for Inactive)
REMARK    1  A    between atoms: C_6  and  C_1 
REMARK    2  A    between atoms: C_2  and  C_15 
REMARK       I    between atoms: N_5  and  C_2 
REMARK    3  A    between atoms: C_13  and  N_5 
REMARK    4  A    between atoms: C_17  and  C_7 
REMARK    5  A    between atoms: O_14  and  C_16 
REMARK    6  A    between atoms: C_15  and  O_14 
ROOT
ATOM      1  C   UNL d   1      -0.331  -6.133   6.175  0.00  0.00     0.246 C 
ATOM      2  N   UNL d   1      -0.151  -7.378   5.586  0.00  0.00    -0.325 N 
ATOM      3  O   UNL d   1      -0.474  -5.917   7.378  0.00  0.00    -0.271 OA
ATOM      4  H   UNL d   1       0.171  -7.389   4.626  0.00  0.00     0.169 HD
ENDROOT
BRANCH   1   5
ATOM      5  C   UNL d   1      -0.380  -4.984   5.167  0.00  0.00     0.278 C 
BRANCH   5   6
ATOM      6  O   UNL d   1       0.918  -4.445   4.963  0.00  0.00    -0.342 OA
BRANCH   6   7
ATOM      7  C   UNL d   1       0.968  -3.289   4.228  0.00  0.00     0.069 A 
ATOM      8  C   UNL d   1       2.069  -2.469   4.473  0.00  0.00     0.037 A 
ATOM      9  C   UNL d   1       2.264  -1.296   3.736  0.00  0.00     0.012 A 
ATOM     10  C   UNL d   1       1.365  -0.924   2.723  0.00  0.00    -0.035 A 
ATOM     11  C   UNL d   1       0.250  -1.750   2.499  0.00  0.00     0.012 A 
ATOM     12  C   UNL d   1       0.053  -2.921   3.243  0.00  0.00     0.037 A 
BRANCH  10  13
ATOM     13  C   UNL d   1       1.657   0.293   1.865  0.00  0.00     0.141 C 
ATOM     14  S   UNL d   1       0.278   1.486   1.804  0.00  0.00    -0.148 SA
ATOM     15  C   UNL d   1       0.353   1.807   0.022  0.00  0.00     0.085 C 
ATOM     16  C   UNL d   1       0.679   0.496  -0.662  0.00  0.00     0.085 C 
ATOM     17  S   UNL d   1       2.132  -0.193   0.167  0.00  0.00    -0.148 SA
ENDBRANCH  10  13
ENDBRANCH   6   7
ENDBRANCH   5   6
ENDBRANCH   1   5
BRANCH   2  18
ATOM     18  C   UNL d   1      -0.345  -8.639   6.197  0.00  0.00     0.034 A 
ATOM     19  C   UNL d   1      -0.895  -8.796   7.470  0.00  0.00     0.030 A 
ATOM     20  C   UNL d   1      -1.143 -10.071   7.992  0.00  0.00     0.010 A 
ATOM     21  C   UNL d   1      -0.844 -11.225   7.257  0.00  0.00    -0.055 A 
ATOM     22  C   UNL d   1      -0.267 -11.066   5.990  0.00  0.00     0.010 A 
ATOM     23  C   UNL d   1      -0.025  -9.787   5.463  0.00  0.00     0.030 A 
BRANCH  21  24
ATOM     24  C   UNL d   1      -1.179 -12.608   7.787  0.00  0.00     0.010 C 
ATOM     25  C   UNL d   1      -0.473 -12.913   9.112  0.00  0.00     0.015 C 
ATOM     26  C   UNL d   1      -2.695 -12.782   7.936  0.00  0.00     0.015 C 
ENDBRANCH  21  24
ENDBRANCH   2  18
TORSDOF 6
