REMARK  5 active torsions:
REMARK  status: ('A' for Active; 'I' for Inactive)
REMARK    1  A    between atoms: C_8  and  C_1 
REMARK    2  A    between atoms: C_11  and  C_4 
REMARK    3  A    between atoms: S_13  and  C_6 
REMARK    4  A    between atoms: O_14  and  C_8 
REMARK    5  A    between atoms: C_17  and  O_14 
ROOT
ATOM      1  C   UNL d   1      -0.686   1.319   0.033  0.00  0.00     0.068 A 
ATOM      2  N   UNL d   1      -0.685  -1.081   0.013  0.00  0.00    -0.348 N 
ATOM      3  HN  UNL d   1      -1.199  -1.962   0.014  1.00  0.00     0.166 HD
ATOM      4  C   UNL d   1      -1.374   0.102   0.008  0.00  0.00     0.059 A 
ATOM      5  C   UNL d   1       1.410   0.075   0.018  0.00  0.00     0.079 A 
ATOM      6  C   UNL d   1       0.670  -1.097   0.018  0.00  0.00     0.088 A 
ATOM      7  C   UNL d   1       0.721   1.292   0.033  0.00  0.00     0.045 A 
ATOM      8  C   UNL d   1       2.840   0.084   0.014  0.00  0.00     0.102 C 
ATOM      9  N   UNL d   1       3.996   0.086   0.014  0.00  0.00    -0.191 NA
ENDROOT
BRANCH   6  10
ATOM     10  S   UNL d   1       1.363  -2.740   0.014  0.00  0.00    -0.124 SA
ATOM     11  H   UNL d   1       2.664  -2.420   0.003  0.00  0.00     0.108 HD
ENDBRANCH   6  10
BRANCH   1  12
ATOM     12  C   UNL d   1      -1.368   2.631   0.135  0.00  0.00     0.295 C 
ATOM     13  O   UNL d   1      -2.407   2.825   0.738  0.00  0.00    -0.259 OA
BRANCH  12  14
ATOM     14  O   UNL d   1      -0.656   3.570  -0.543  0.00  0.00    -0.318 OA
BRANCH  14  15
ATOM     15  C   UNL d   1      -1.221   4.893  -0.541  0.00  0.00     0.174 C 
ATOM     16  C   UNL d   1      -0.988   5.585   0.791  0.00  0.00     0.034 C 
ENDBRANCH  14  15
ENDBRANCH  12  14
ENDBRANCH   1  12
BRANCH   4  17
ATOM     17  C   UNL d   1      -2.841  -0.099  -0.118  0.00  0.00    -0.008 A 
ATOM     18  C   UNL d   1      -3.461  -1.224   0.468  0.00  0.00     0.014 A 
ATOM     19  C   UNL d   1      -4.816  -1.508   0.265  0.00  0.00     0.001 A 
ATOM     20  C   UNL d   1      -5.594  -0.663  -0.519  0.00  0.00     0.000 A 
ATOM     21  C   UNL d   1      -5.020   0.469  -1.086  0.00  0.00     0.001 A 
ATOM     22  C   UNL d   1      -3.660   0.736  -0.899  0.00  0.00     0.014 A 
ENDBRANCH   4  17
TORSDOF 5
