REMARK  6 active torsions:
REMARK  status: ('A' for Active; 'I' for Inactive)
REMARK    1  A    between atoms: C_2  and  S_1 
REMARK    2  A    between atoms: N_3  and  S_1 
REMARK    3  A    between atoms: C_12  and  N_3 
REMARK    4  A    between atoms: N_10  and  C_8 
REMARK    5  A    between atoms: C_17  and  N_10 
REMARK    6  A    between atoms: C_18  and  N_10 
ROOT
ATOM      1  C   UNL d   1       1.526   3.959  -3.504  0.00  0.00     0.030 A 
ATOM      2  C   UNL d   1       1.011   1.579  -2.046  0.00  0.00     0.023 A 
ATOM      3  C   UNL d   1       0.278   3.316  -3.561  0.00  0.00     0.031 A 
ATOM      4  C   UNL d   1       2.521   3.327  -2.739  0.00  0.00     0.031 A 
ATOM      5  C   UNL d   1       0.014   2.143  -2.836  0.00  0.00     0.026 A 
ATOM      6  C   UNL d   1       2.274   2.149  -2.025  0.00  0.00     0.026 A 
ENDROOT
BRANCH   2   7
ATOM      7  N   UNL d   1       0.754   0.440  -1.225  0.00  0.00    -0.181 NA
ATOM      8  H   UNL d   1      -0.099   0.513  -0.672  0.00  0.00     0.146 HD
BRANCH   7   9
ATOM      9  S   UNL d   1       0.797  -1.083  -1.965  0.00  0.00     0.252 S 
ATOM     10  O   UNL d   1       0.414  -2.043  -0.956  0.00  0.00    -0.205 OA
ATOM     11  O   UNL d   1       0.090  -1.014  -3.228  0.00  0.00    -0.205 OA
BRANCH   9  12
ATOM     12  C   UNL d   1       2.479  -1.464  -2.387  0.00  0.00     0.115 A 
ATOM     13  S   UNL d   1       3.602  -1.471  -1.094  0.00  0.00    -0.089 SA
ATOM     14  C   UNL d   1       4.903  -1.839  -2.142  0.00  0.00     0.051 A 
ATOM     15  C   UNL d   1       4.491  -1.976  -3.450  0.00  0.00     0.009 A 
ATOM     16  C   UNL d   1       3.089  -1.765  -3.590  0.00  0.00     0.033 A 
ENDBRANCH   9  12
ENDBRANCH   7   9
ENDBRANCH   2   7
BRANCH   1  17
ATOM     17  N   UNL d   1       1.745   5.179  -4.131  0.00  0.00    -0.382 N 
BRANCH  17  18
ATOM     18  C   UNL d   1       1.209   5.428  -5.473  0.00  0.00     0.118 C 
ATOM     19  C   UNL d   1       0.055   6.417  -5.432  0.00  0.00     0.026 C 
ENDBRANCH  17  18
BRANCH  17  20
ATOM     20  C   UNL d   1       2.726   6.139  -3.608  0.00  0.00     0.118 C 
ATOM     21  C   UNL d   1       2.276   6.712  -2.269  0.00  0.00     0.026 C 
ENDBRANCH  17  20
ENDBRANCH   1  17
TORSDOF 6
