REMARK  5 active torsions:
REMARK  status: ('A' for Active; 'I' for Inactive)
REMARK    1  A    between atoms: C_8  and  C_1 
REMARK    2  A    between atoms: S_10  and  C_5 
REMARK    3  A    between atoms: C_9  and  C_11 
REMARK    4  A    between atoms: C_21  and  S_10 
REMARK    5  A    between atoms: C_22  and  C_21 
ROOT
ATOM      1  C   UNL d   1      -0.840   0.889   0.202  0.00  0.00     0.209 A 
ATOM      2  N   UNL d   1      -1.102  -0.450  -0.009  0.00  0.00    -0.312 N 
ATOM      3  N   UNL d   1       0.474   1.046   0.276  0.00  0.00    -0.279 N 
ATOM      4  HN  UNL d   1       0.960   1.933   0.409  1.00  0.00     0.188 HD
ATOM      5  C   UNL d   1       0.126  -1.067  -0.013  0.00  0.00     0.162 A 
ATOM      6  N   UNL d   1       1.073  -0.177   0.144  0.00  0.00    -0.278 N 
ATOM      7  HN  UNL d   1       2.075  -0.362   0.163  1.00  0.00     0.189 HD
ATOM      8  C   UNL d   1      -2.367  -1.115  -0.191  0.00  0.00     0.160 C 
ENDROOT
BRANCH   5   9
ATOM      9  S   UNL d   1       0.355  -2.774  -0.187  0.00  0.00    -0.088 SA
BRANCH   9  10
ATOM     10  C   UNL d   1       2.172  -2.868  -0.115  0.00  0.00     0.121 C 
BRANCH  10  11
ATOM     11  C   UNL d   1       2.670  -4.289  -0.249  0.00  0.00    -0.048 A 
ATOM     12  C   UNL d   1       2.895  -4.846  -1.514  0.00  0.00     0.009 A 
ATOM     13  C   UNL d   1       3.365  -6.159  -1.643  0.00  0.00     0.017 A 
ATOM     14  C   UNL d   1       3.613  -6.942  -0.508  0.00  0.00     0.047 A 
ATOM     15  C   UNL d   1       3.381  -6.385   0.759  0.00  0.00     0.017 A 
ATOM     16  C   UNL d   1       2.912  -5.074   0.886  0.00  0.00     0.009 A 
BRANCH  14  17
ATOM     17  C   UNL d   1       4.116  -8.360  -0.629  0.00  0.00     0.417 C 
ATOM     18  F   UNL d   1       4.296  -8.767  -1.917  0.00  0.00    -0.166 F 
ATOM     19  F   UNL d   1       5.315  -8.544  -0.010  0.00  0.00    -0.166 F 
ATOM     20  F   UNL d   1       3.265  -9.264  -0.070  0.00  0.00    -0.166 F 
ENDBRANCH  14  17
ENDBRANCH  10  11
ENDBRANCH   9  10
ENDBRANCH   5   9
BRANCH   1  21
ATOM     21  C   UNL d   1      -1.833   1.992   0.336  0.00  0.00     0.450 C 
ATOM     22  F   UNL d   1      -3.125   1.573   0.334  0.00  0.00    -0.163 F 
ATOM     23  F   UNL d   1      -1.669   2.681   1.496  0.00  0.00    -0.163 F 
ATOM     24  F   UNL d   1      -1.728   2.893  -0.676  0.00  0.00    -0.163 F 
ENDBRANCH   1  21
TORSDOF 5
