REMARK  3 active torsions:
REMARK  status: ('A' for Active; 'I' for Inactive)
REMARK    1  A    between atoms: C_6  and  C_1 
REMARK    2  A    between atoms: C_7  and  C_2 
REMARK    3  A    between atoms: S_17  and  C_5 
ROOT
ATOM      1  C   UNL d   1       1.276  -1.231   0.150  0.00  0.00     0.049 A 
ATOM      2  C   UNL d   1      -0.092  -1.338  -0.056  0.00  0.00     0.040 A 
ATOM      3  C   UNL d   1      -0.722  -0.041  -0.113  0.00  0.00     0.082 A 
ATOM      4  S   UNL d   1       1.751   0.400   0.382  0.00  0.00    -0.078 SA
ATOM      5  C   UNL d   1       0.179   0.991   0.073  0.00  0.00     0.063 A 
ATOM      6  C   UNL d   1      -2.131   0.189  -0.262  0.00  0.00     0.102 C 
ATOM      7  N   UNL d   1      -3.275   0.342  -0.373  0.00  0.00    -0.191 NA
ENDROOT
BRANCH   2   8
ATOM      8  C   UNL d   1      -0.823  -2.651  -0.113  0.00  0.00     0.088 A 
ATOM      9  O   UNL d   1      -0.414  -3.774   0.548  0.00  0.00    -0.322 OA
ATOM     10  C   UNL d   1      -1.319  -4.754   0.322  0.00  0.00     0.142 A 
ATOM     11  C   UNL d   1      -2.311  -4.296  -0.506  0.00  0.00     0.027 A 
ATOM     12  C   UNL d   1      -1.998  -2.939  -0.782  0.00  0.00     0.040 A 
ENDBRANCH   2   8
BRANCH   5  13
ATOM     13  S   UNL d   1      -0.163   2.722  -0.015  0.00  0.00    -0.126 SA
ATOM     14  C   UNL d   1       0.393   3.293   1.607  0.00  0.00     0.096 C 
ENDBRANCH   5  13
BRANCH   1  15
ATOM     15  C   UNL d   1       2.301  -2.336   0.128  0.00  0.00     0.067 A 
ATOM     16  N   UNL d   1       3.467  -2.233   0.789  0.00  0.00    -0.300 N 
ATOM     17  N   UNL d   1       4.077  -3.407   0.563  0.00  0.00    -0.311 N 
ATOM     18  HN  UNL d   1       3.809  -1.444   1.337  1.00  0.00     0.187 HD
ATOM     19  C   UNL d   1       3.403  -4.218  -0.298  0.00  0.00     0.109 A 
ATOM     20  H   UNL d   1       4.970  -3.578   1.019  0.00  0.00     0.186 HD
ATOM     21  C   UNL d   1       2.243  -3.545  -0.606  0.00  0.00     0.051 A 
ENDBRANCH   1  15
TORSDOF 3
