REMARK  5 active torsions:
REMARK  status: ('A' for Active; 'I' for Inactive)
REMARK    1  A    between atoms: C_6  and  N_1 
REMARK    2  A    between atoms: C_9  and  C_4 
REMARK    3  A    between atoms: S_5  and  N_10 
REMARK    4  A    between atoms: C_14  and  S_5 
REMARK       I    between atoms: N_13  and  C_9 
REMARK    5  A    between atoms: N_10  and  N_13 
ROOT
ATOM      1  C   UNL d   1      -0.790   2.533  -0.062  0.00  0.00     0.288 C 
ATOM      2  N   UNL d   1       0.236   3.454   0.033  0.00  0.00    -0.255 N 
ATOM      3  O   UNL d   1      -1.971   2.874  -0.142  0.00  0.00    -0.264 OA
ATOM      4  H   UNL d   1       1.196   3.145   0.178  0.00  0.00     0.191 HD
ENDROOT
BRANCH   1   5
ATOM      5  C   UNL d   1      -0.368   1.128  -0.062  0.00  0.00     0.119 A 
ATOM      6  N   UNL d   1       0.915   0.730  -0.093  0.00  0.00    -0.288 N 
ATOM      7  N   UNL d   1       0.883  -0.640  -0.073  0.00  0.00    -0.257 N 
ATOM      8  HN  UNL d   1       1.743   1.325  -0.124  1.00  0.00     0.188 HD
ATOM      9  C   UNL d   1      -0.432  -1.095   0.035  0.00  0.00     0.033 A 
ATOM     10  C   UNL d   1      -1.235   0.023  -0.020  0.00  0.00     0.063 A 
ATOM     11  C   UNL d   1      -0.895  -2.490   0.265  0.00  0.00     0.070 C 
BRANCH   7  12
ATOM     12  C   UNL d   1       2.102  -1.389  -0.110  0.00  0.00     0.100 A 
ATOM     13  C   UNL d   1       3.245  -0.950   0.596  0.00  0.00     0.066 A 
ATOM     14  C   UNL d   1       4.408  -1.737   0.635  0.00  0.00     0.050 A 
ATOM     15 CL   UNL d   1       3.331   0.500   1.546  0.00  0.00    -0.082 Cl
ATOM     16  C   UNL d   1       4.445  -2.968  -0.004  0.00  0.00     0.037 A 
ATOM     17  C   UNL d   1       3.353  -3.398  -0.742  0.00  0.00     0.050 A 
ATOM     18 CL   UNL d   1       5.857  -3.944   0.085  0.00  0.00    -0.084 Cl
ATOM     19  C   UNL d   1       2.208  -2.593  -0.838  0.00  0.00     0.066 A 
ATOM     20 CL   UNL d   1       1.087  -3.084  -2.068  0.00  0.00    -0.082 Cl
ENDBRANCH   7  12
ENDBRANCH   1   5
BRANCH   2  21
ATOM     21  N   UNL d   1      -0.104   4.864  -0.014  0.00  0.00    -0.220 N 
ATOM     22  H   UNL d   1      -1.091   5.133  -0.119  0.00  0.00     0.200 HD
BRANCH  21  23
ATOM     23  S   UNL d   1       1.023   6.090   0.131  0.00  0.00     0.276 S 
ATOM     24  O   UNL d   1       0.320   7.346   0.040  0.00  0.00    -0.199 OA
ATOM     25  O   UNL d   1       1.890   5.775   1.250  0.00  0.00    -0.199 OA
BRANCH  23  26
ATOM     26  C   UNL d   1       1.970   5.880  -1.354  0.00  0.00     0.083 A 
ATOM     27  C   UNL d   1       3.110   5.066  -1.323  0.00  0.00     0.052 A 
ATOM     28  C   UNL d   1       3.857   4.897  -2.485  0.00  0.00     0.074 A 
ATOM     29 CL   UNL d   1       5.238   3.872  -2.457  0.00  0.00    -0.081 Cl
ATOM     30  C   UNL d   1       3.477   5.553  -3.658  0.00  0.00     0.138 A 
ATOM     31  C   UNL d   1       2.355   6.379  -3.681  0.00  0.00     0.045 A 
ATOM     32  F   UNL d   1       4.185   5.399  -4.785  0.00  0.00    -0.204 F 
ATOM     33  C   UNL d   1       1.595   6.552  -2.522  0.00  0.00     0.028 A 
ENDBRANCH  23  26
ENDBRANCH  21  23
ENDBRANCH   2  21
TORSDOF 5
