REMARK  4 active torsions:
REMARK  status: ('A' for Active; 'I' for Inactive)
REMARK    1  A    between atoms: C_9  and  N_2 
REMARK    2  A    between atoms: C_10  and  C_4 
REMARK    3  A    between atoms: C_7  and  O_11 
REMARK    4  A    between atoms: O_11  and  C_18 
ROOT
ATOM      1  C   UNL d   1       0.741   1.236  -0.116  0.00  0.00     0.181 C 
ATOM      2  N   UNL d   1       1.362   0.048   0.311  0.00  0.00    -0.314 N 
ATOM      3  N   UNL d   1      -0.603   1.138  -0.394  0.00  0.00    -0.303 N 
ATOM      4  C   UNL d   1       0.701  -1.215  -0.107  0.00  0.00     0.134 C 
ATOM      5  C   UNL d   1      -1.427   0.059  -0.218  0.00  0.00     0.226 C 
ATOM      6  C   UNL d   1      -0.773  -1.183   0.300  0.00  0.00     0.134 C 
ATOM      7  S   UNL d   1       1.446   2.736  -0.387  0.00  0.00    -0.040 SA
ATOM      8  O   UNL d   1      -2.632   0.141  -0.400  0.00  0.00    -0.273 OA
ATOM      9  H   UNL d   1      -1.069   1.989  -0.682  0.00  0.00     0.171 HD
ENDROOT
BRANCH   2  10
ATOM     10  C   UNL d   1       2.599   0.068   1.039  0.00  0.00     0.037 A 
ATOM     11  C   UNL d   1       2.751   0.968   2.107  0.00  0.00     0.032 A 
ATOM     12  C   UNL d   1       3.893   0.962   2.919  0.00  0.00     0.039 A 
ATOM     13  C   UNL d   1       4.917   0.056   2.671  0.00  0.00     0.078 A 
ATOM     14  C   UNL d   1       4.773  -0.855   1.624  0.00  0.00     0.039 A 
ATOM     15  C   UNL d   1       3.643  -0.828   0.797  0.00  0.00     0.032 A 
BRANCH  13  16
ATOM     16  O   UNL d   1       6.055  -0.081   3.401  0.00  0.00    -0.255 OA
BRANCH  16  17
ATOM     17  C   UNL d   1       6.638   1.073   3.988  0.00  0.00     0.530 C 
ATOM     18  F   UNL d   1       6.128   2.240   3.541  0.00  0.00    -0.144 F 
ATOM     19  F   UNL d   1       6.494   1.018   5.330  0.00  0.00    -0.144 F 
ATOM     20  F   UNL d   1       7.961   1.069   3.707  0.00  0.00    -0.144 F 
ENDBRANCH  16  17
ENDBRANCH  13  16
ENDBRANCH   2  10
BRANCH   4  21
ATOM     21  C   UNL d   1       1.260  -2.552   0.372  0.00  0.00    -0.035 A 
ATOM     22  C   UNL d   1       1.374  -2.858   1.738  0.00  0.00     0.009 A 
ATOM     23  C   UNL d   1       1.896  -4.084   2.152  0.00  0.00     0.001 A 
ATOM     24  C   UNL d   1       2.288  -5.030   1.210  0.00  0.00     0.000 A 
ATOM     25  C   UNL d   1       2.158  -4.755  -0.149  0.00  0.00     0.001 A 
ATOM     26  C   UNL d   1       1.645  -3.525  -0.569  0.00  0.00     0.009 A 
ENDBRANCH   4  21
TORSDOF 4
