REMARK  3 active torsions:
REMARK  status: ('A' for Active; 'I' for Inactive)
REMARK    1  A    between atoms: C_7  and  C_1 
REMARK    2  A    between atoms: C_8  and  C_6 
REMARK    3  A    between atoms: C_11  and  C_10 
REMARK       I    between atoms: N_18  and  C_11 
ROOT
ATOM      1  C   UNL d   1       0.143  -1.191   0.000  0.00  0.00     0.136 A 
ATOM      2  N   UNL d   1      -0.645  -0.073   0.052  0.00  0.00    -0.292 N 
ATOM      3  C   UNL d   1       1.441  -0.717  -0.078  0.00  0.00     0.068 A 
ATOM      4  N   UNL d   1       0.068   1.074   0.076  0.00  0.00    -0.297 N 
ATOM      5  HN  UNL d   1      -0.288   2.026   0.162  1.00  0.00     0.187 HD
ATOM      6  C   UNL d   1       1.342   0.687  -0.038  0.00  0.00     0.067 A 
ATOM      7  C   UNL d   1      -2.084   0.067   0.034  0.00  0.00     0.178 C 
ENDROOT
BRANCH   6   8
ATOM      8  C   UNL d   1       2.473   1.667  -0.133  0.00  0.00     0.034 A 
ATOM      9  S   UNL d   1       4.095   1.228  -0.436  0.00  0.00    -0.083 SA
ATOM     10  C   UNL d   1       4.614   2.861  -0.472  0.00  0.00     0.073 A 
ATOM     11  C   UNL d   1       3.566   3.719  -0.197  0.00  0.00     0.026 A 
ATOM     12  C   UNL d   1       2.330   3.032  -0.008  0.00  0.00     0.023 A 
BRANCH  10  13
ATOM     13  C   UNL d   1       5.988   3.230  -0.764  0.00  0.00     0.256 C 
ATOM     14  O   UNL d   1       6.399   4.389  -0.788  0.00  0.00    -0.267 OA
ATOM     15  N   UNL d   1       6.859   2.212  -1.038  0.00  0.00    -0.366 N 
ATOM     16  H   UNL d   1       6.563   1.248  -1.060  0.00  0.00     0.159 HD
ATOM     17  H   UNL d   1       7.810   2.454  -1.277  0.00  0.00     0.159 HD
ENDBRANCH  10  13
ENDBRANCH   6   8
BRANCH   1  18
ATOM     18  C   UNL d   1      -0.322  -2.591  -0.002  0.00  0.00     0.434 C 
ATOM     19  F   UNL d   1      -1.646  -2.745   0.226  0.00  0.00    -0.165 F 
ATOM     20  F   UNL d   1      -0.057  -3.192  -1.189  0.00  0.00    -0.165 F 
ATOM     21  F   UNL d   1       0.318  -3.318   0.951  0.00  0.00    -0.165 F 
ENDBRANCH   1  18
TORSDOF 3
