REMARK  3 active torsions:
REMARK  status: ('A' for Active; 'I' for Inactive)
REMARK    1  A    between atoms: C_6  and  C_1 
REMARK    2  A    between atoms: C_10  and  N_2 
REMARK    3  A    between atoms: C_12  and  C_3 
REMARK       I    between atoms: N_21  and  C_12 
ROOT
ATOM      1  C   UNL d   1      -0.328  -1.229   0.021  0.00  0.00     0.103 C 
ATOM      2  N   UNL d   1       0.941  -0.681   0.160  0.00  0.00    -0.253 N 
ATOM      3  C   UNL d   1      -1.217  -0.161  -0.073  0.00  0.00     0.086 C 
ATOM      4  N   UNL d   1       0.886   0.664   0.307  0.00  0.00    -0.297 N 
ATOM      5  HN  UNL d   1       1.651   1.294   0.551  1.00  0.00     0.187 HD
ATOM      6  C   UNL d   1      -0.385   0.989   0.062  0.00  0.00     0.040 C 
ATOM      7  C   UNL d   1      -0.755   2.430   0.038  0.00  0.00     0.071 C 
ENDROOT
BRANCH   2   8
ATOM      8  C   UNL d   1       2.223  -1.299   0.076  0.00  0.00     0.058 A 
ATOM      9  C   UNL d   1       3.292  -0.744   0.797  0.00  0.00     0.058 A 
ATOM     10  C   UNL d   1       4.539  -1.371   0.781  0.00  0.00     0.074 A 
ATOM     11 CL   UNL d   1       5.820  -0.732   1.737  0.00  0.00    -0.081 Cl
ATOM     12  C   UNL d   1       4.732  -2.519   0.015  0.00  0.00     0.138 A 
ATOM     13  C   UNL d   1       3.696  -3.042  -0.749  0.00  0.00     0.046 A 
ATOM     14  F   UNL d   1       5.920  -3.140  -0.005  0.00  0.00    -0.204 F 
ATOM     15  C   UNL d   1       2.439  -2.432  -0.724  0.00  0.00     0.034 A 
ENDBRANCH   2   8
BRANCH   1  16
ATOM     16  C   UNL d   1      -0.633  -2.689   0.046  0.00  0.00     0.087 A 
ATOM     17  N   UNL d   1       0.086  -3.527   0.801  0.00  0.00    -0.259 N 
ATOM     18  O   UNL d   1      -0.447  -4.780   0.600  0.00  0.00    -0.242 OA
ATOM     19  HN  UNL d   1       0.871  -3.285   1.405  1.00  0.00     0.195 HD
ATOM     20  C   UNL d   1      -1.483  -4.693  -0.273  0.00  0.00     0.074 A 
ATOM     21  C   UNL d   1      -1.649  -3.382  -0.648  0.00  0.00     0.068 A 
ATOM     22  C   UNL d   1      -2.156  -5.960  -0.603  0.00  0.00     0.079 C 
ENDBRANCH   1  16
BRANCH   3  23
ATOM     23  C   UNL d   1      -2.668  -0.142  -0.199  0.00  0.00     0.255 C 
ATOM     24  O   UNL d   1      -3.243   0.723  -0.856  0.00  0.00    -0.268 OA
ATOM     25  N   UNL d   1      -3.346  -1.104   0.515  0.00  0.00    -0.361 N 
ATOM     26  C   UNL d   1      -4.788  -1.152   0.578  0.00  0.00     0.149 C 
ATOM     27  H   UNL d   1      -2.829  -1.728   1.121  0.00  0.00     0.162 HD
ENDBRANCH   3  23
TORSDOF 3
