REMARK  4 active torsions:
REMARK  status: ('A' for Active; 'I' for Inactive)
REMARK    1  A    between atoms: C_2  and  S_1 
REMARK    2  A    between atoms: C_6  and  S_1 
REMARK    3  A    between atoms: N_9  and  C_3 
REMARK    4  A    between atoms: C_16  and  N_9 
ROOT
ATOM      1  C   UNL d   1       0.658  -0.216   1.757  0.00  0.00     0.159 C 
ATOM      2  C   UNL d   1      -0.052   0.771   2.332  0.00  0.00     0.118 C 
ATOM      3  C   UNL d   1       1.128  -0.133   0.431  0.00  0.00     0.113 C 
ATOM      4  N   UNL d   1       1.545  -0.079  -0.653  0.00  0.00    -0.191 NA
ENDROOT
BRANCH   1   5
ATOM      5  S   UNL d   1       0.929  -1.713   2.587  0.00  0.00     0.218 S 
ATOM      6  O   UNL d   1       0.453  -2.817   1.781  0.00  0.00    -0.216 OA
ATOM      7  O   UNL d   1       0.508  -1.607   3.975  0.00  0.00    -0.216 OA
BRANCH   5   8
ATOM      8  C   UNL d   1       2.718  -1.841   2.623  0.00  0.00     0.065 A 
ATOM      9  C   UNL d   1       3.419  -1.383   3.745  0.00  0.00     0.025 A 
ATOM     10  C   UNL d   1       4.812  -1.480   3.773  0.00  0.00     0.025 A 
ATOM     11  C   UNL d   1       5.494  -2.044   2.695  0.00  0.00     0.034 A 
ATOM     12  C   UNL d   1       4.793  -2.529   1.590  0.00  0.00     0.025 A 
ATOM     13 CL   UNL d   1       7.212  -2.140   2.728  0.00  0.00    -0.084 Cl
ATOM     14  C   UNL d   1       3.398  -2.438   1.554  0.00  0.00     0.025 A 
ENDBRANCH   5   8
ENDBRANCH   1   5
BRANCH   2  15
ATOM     15  N   UNL d   1      -0.405   1.980   1.744  0.00  0.00    -0.392 N 
ATOM     16  H   UNL d   1      -1.394   2.192   1.893  0.00  0.00     0.159 HD
BRANCH  15  17
ATOM     17  C   UNL d   1       0.413   3.200   1.886  0.00  0.00     0.081 C 
ATOM     18  C   UNL d   1       0.044   3.976   3.159  0.00  0.00     0.025 C 
ATOM     19  C   UNL d   1      -1.355   4.589   3.092  0.00  0.00     0.002 C 
ATOM     20  C   UNL d   1      -1.529   5.463   1.854  0.00  0.00     0.000 C 
ATOM     21  C   UNL d   1      -1.160   4.726   0.569  0.00  0.00     0.002 C 
ATOM     22  C   UNL d   1       0.226   4.084   0.646  0.00  0.00     0.025 C 
ENDBRANCH  15  17
ENDBRANCH   2  15
TORSDOF 4
