REMARK  6 active torsions:
REMARK  status: ('A' for Active; 'I' for Inactive)
REMARK    1  A    between atoms: N_6  and  C_1 
REMARK       I    between atoms: C_4  and  N_11 
REMARK    2  A    between atoms: C_7  and  C_4 
REMARK    3  A    between atoms: C_5  and  C_8 
REMARK    4  A    between atoms: C_10  and  C_9 
REMARK    5  A    between atoms: O_26  and  C_10 
REMARK    6  A    between atoms: N_11  and  C_21 
ROOT
ATOM      1  N   UNL d   1       0.315   2.679   0.457  0.00  0.00    -0.254 NA
ATOM      2  C   UNL d   1       0.447   3.358  -0.835  0.00  0.00     0.100 C 
ATOM      3  C   UNL d   1      -0.511   3.365   1.449  0.00  0.00     0.100 C 
ATOM      4  C   UNL d   1       0.109   5.578   0.353  0.00  0.00     0.087 C 
ATOM      5  C   UNL d   1       0.970   4.778  -0.629  0.00  0.00     0.040 C 
ATOM      6  C   UNL d   1      -0.006   4.793   1.667  0.00  0.00     0.040 C 
ENDROOT
BRANCH   4   7
ATOM      7  N   UNL d   1      -1.222   5.922  -0.155  0.00  0.00    -0.352 N 
ATOM      8  C   UNL d   1      -1.443   6.759  -1.225  0.00  0.00     0.253 C 
ATOM      9  O   UNL d   1      -0.548   7.172  -1.956  0.00  0.00    -0.268 OA
ATOM     10  H   UNL d   1      -1.955   5.910   0.554  0.00  0.00     0.163 HD
BRANCH   8  11
ATOM     11  C   UNL d   1      -2.868   7.078  -1.570  0.00  0.00     0.048 A 
ATOM     12  C   UNL d   1      -3.927   7.313  -0.675  0.00  0.00     0.053 A 
ATOM     13  C   UNL d   1      -5.244   7.432  -1.169  0.00  0.00     0.019 A 
ATOM     14  C   UNL d   1      -5.498   7.435  -2.539  0.00  0.00     0.001 A 
ATOM     15  C   UNL d   1      -4.442   7.314  -3.432  0.00  0.00     0.001 A 
ATOM     16  C   UNL d   1      -3.144   7.121  -2.953  0.00  0.00     0.018 A 
BRANCH  12  17
ATOM     17  C   UNL d   1      -3.740   7.489   0.786  0.00  0.00     0.177 C 
ATOM     18  O   UNL d   1      -3.000   6.803   1.466  0.00  0.00    -0.646 OA
BRANCH  17  19
ATOM     19  O   UNL d   1      -4.490   8.485   1.308  0.00  0.00    -0.773 OA
ATOM     20  H   UNL d   1      -4.969   9.045   0.667  0.00  0.00     0.167 HD
ENDBRANCH  17  19
ENDBRANCH  12  17
ENDBRANCH   8  11
ENDBRANCH   4   7
BRANCH   1  21
ATOM     21  C   UNL d   1       0.063   1.305   0.343  0.00  0.00     0.159 A 
ATOM     22  N   UNL d   1      -0.626   0.686   1.316  0.00  0.00    -0.329 N 
ATOM     23  C   UNL d   1      -0.846  -0.653   1.221  0.00  0.00     0.120 A 
ATOM     24  HN  UNL d   1      -0.981   1.213   2.114  1.00  0.00     0.168 HD
ATOM     25  C   UNL d   1      -0.375  -1.391   0.155  0.00  0.00     0.051 A 
ATOM     26  C   UNL d   1       0.314  -0.686  -0.795  0.00  0.00     0.093 A 
ATOM     27  N   UNL d   1       0.534   0.641  -0.718  0.00  0.00    -0.343 N 
ATOM     28  HN  UNL d   1       1.049   1.128  -1.452  1.00  0.00     0.167 HD
BRANCH  23  29
ATOM     29  C   UNL d   1      -1.636  -1.352   2.311  0.00  0.00     0.432 C 
ATOM     30  F   UNL d   1      -2.030  -0.543   3.334  0.00  0.00    -0.165 F 
ATOM     31  F   UNL d   1      -2.779  -1.926   1.831  0.00  0.00    -0.165 F 
ATOM     32  F   UNL d   1      -0.937  -2.372   2.890  0.00  0.00    -0.165 F 
ENDBRANCH  23  29
ENDBRANCH   1  21
TORSDOF 6
