REMARK  2 active torsions:
REMARK  status: ('A' for Active; 'I' for Inactive)
REMARK    1  A    between atoms: C_5  and  N_1 
REMARK    2  A    between atoms: N_12  and  C_11 
ROOT
ATOM      1  C   UNL d   1       2.089  -1.504   0.046  0.00  0.00     0.141 A 
ATOM      2  N   UNL d   1       3.033  -1.424   1.002  0.00  0.00    -0.282 N 
ATOM      3  HN  UNL d   1       2.915  -0.770   1.777  1.00  0.00     0.188 HD
ATOM      4  N   UNL d   1       4.162  -2.222   0.942  0.00  0.00    -0.284 N 
ATOM      5  HN  UNL d   1       4.883  -2.126   1.658  1.00  0.00     0.188 HD
ATOM      6  C   UNL d   1       4.327  -3.123  -0.045  0.00  0.00     0.118 A 
ATOM      7  C   UNL d   1       2.239  -2.379  -1.014  0.00  0.00     0.055 A 
ATOM      8  C   UNL d   1       3.368  -3.197  -1.046  0.00  0.00     0.053 A 
ENDROOT
BRANCH   1   9
ATOM      9  N   UNL d   1       0.906  -0.709   0.135  0.00  0.00    -0.243 N 
ATOM     10  N   UNL d   1      -0.067  -0.844  -0.824  0.00  0.00    -0.297 N 
ATOM     11  C   UNL d   1      -1.071  -0.070  -0.421  0.00  0.00     0.024 A 
ATOM     12  HN  UNL d   1      -0.027  -1.417  -1.667  1.00  0.00     0.187 HD
ATOM     13  C   UNL d   1      -2.325   0.007  -1.209  0.00  0.00     0.070 C 
ATOM     14  C   UNL d   1      -0.762   0.601   0.772  0.00  0.00     0.052 A 
ATOM     15  C   UNL d   1       0.520   0.210   1.105  0.00  0.00     0.034 A 
ATOM     16  C   UNL d   1       1.323   0.665   2.271  0.00  0.00     0.070 C 
ENDBRANCH   1   9
BRANCH   6  17
ATOM     17  N   UNL d   1       5.455  -3.901  -0.112  0.00  0.00    -0.362 N 
ATOM     18  C   UNL d   1       6.687  -3.499   0.567  0.00  0.00     0.150 C 
ATOM     19  C   UNL d   1       7.847  -3.871  -0.379  0.00  0.00     0.187 C 
ATOM     20  O   UNL d   1       7.836  -5.269  -0.725  0.00  0.00    -0.388 OA
ATOM     21  C   UNL d   1       6.593  -5.635  -1.349  0.00  0.00     0.187 C 
ATOM     22  C   UNL d   1       5.397  -5.325  -0.436  0.00  0.00     0.150 C 
ENDBRANCH   6  17
TORSDOF 2
