REMARK  3 active torsions:
REMARK  status: ('A' for Active; 'I' for Inactive)
REMARK    1  A    between atoms: S_7  and  N_9 
REMARK    2  A    between atoms: C_15  and  S_7 
REMARK    3  A    between atoms: N_9  and  C_8 
ROOT
ATOM      1  S   UNL d   1       0.883  -1.650  -0.106  0.00  0.00     0.270 S 
ATOM      2  C   UNL d   1       2.072  -0.479  -0.543  0.00  0.00     0.147 C 
ATOM      3  N   UNL d   1       1.303  -1.972   1.522  0.00  0.00    -0.275 N 
ATOM      4  C   UNL d   1       1.666  -0.869   2.324  0.00  0.00     0.066 A 
ATOM      5  C   UNL d   1       2.042   0.351   1.792  0.00  0.00     0.084 A 
ATOM      6  C   UNL d   1       2.187   0.668   0.378  0.00  0.00     0.215 C 
ATOM      7  C   UNL d   1       2.943  -0.814  -1.500  0.00  0.00     0.126 C 
ATOM      8  S   UNL d   1       2.376   1.510   2.997  0.00  0.00    -0.096 SA
ATOM      9  O   UNL d   1      -0.428  -1.036  -0.099  0.00  0.00    -0.200 OA
ATOM     10  O   UNL d   1       1.104  -2.878  -0.854  0.00  0.00    -0.200 OA
ATOM     11  C   UNL d   1       1.710  -0.852   3.749  0.00  0.00     0.039 A 
ATOM     12  C   UNL d   1       2.071   0.383   4.245  0.00  0.00     0.053 A 
ATOM     13  O   UNL d   1       2.369   1.806  -0.055  0.00  0.00    -0.285 OA
ATOM     14  C   UNL d   1       1.067  -3.320   2.050  0.00  0.00     0.170 C 
ENDROOT
BRANCH   7  15
ATOM     15  N   UNL d   1       4.162  -0.084  -1.696  0.00  0.00    -0.322 N 
ATOM     16  HN  UNL d   1       4.369   0.733  -1.120  1.00  0.00     0.175 HD
BRANCH  15  17
ATOM     17  S   UNL d   1       5.163  -0.541  -2.784  0.00  0.00     0.052 S 
ATOM     18  O   UNL d   1       4.770  -0.984  -4.108  0.00  0.00    -0.245 OA
ATOM     19  C   UNL d   1       6.368   0.742  -3.001  0.00  0.00     0.142 C 
BRANCH  17  20
ATOM     20  C   UNL d   1       6.086  -1.890  -2.054  0.00  0.00     0.038 A 
ATOM     21  C   UNL d   1       6.048  -3.154  -2.654  0.00  0.00     0.023 A 
ATOM     22  C   UNL d   1       6.774  -4.207  -2.091  0.00  0.00     0.025 A 
ATOM     23  C   UNL d   1       7.529  -3.991  -0.938  0.00  0.00     0.034 A 
ATOM     24  C   UNL d   1       7.556  -2.733  -0.334  0.00  0.00     0.025 A 
ATOM     25 CL   UNL d   1       8.431  -5.286  -0.253  0.00  0.00    -0.084 Cl
ATOM     26  C   UNL d   1       6.827  -1.677  -0.888  0.00  0.00     0.023 A 
ENDBRANCH  17  20
ENDBRANCH  15  17
ENDBRANCH   7  15
TORSDOF 3
