REMARK  0 active torsions:
REMARK  status: ('A' for Active; 'I' for Inactive)
ROOT
ATOM      1  C   UNL d   1       0.207  -0.788  -0.002  0.00  0.00     0.079 A 
ATOM      2  C   UNL d   1       0.173   0.593  -0.002  0.00  0.00     0.186 A 
ATOM      3  N   UNL d   1       2.338  -0.012  -0.004  0.00  0.00    -0.263 N 
ATOM      4  HN  UNL d   1       3.357   0.035  -0.005  1.00  0.00     0.194 HD
ATOM      5  C   UNL d   1      -1.057  -1.465  -0.001  0.00  0.00     0.118 A 
ATOM      6  N   UNL d   1      -0.924   1.395  -0.000  0.00  0.00    -0.330 N 
ATOM      7  HN  UNL d   1      -0.872   2.414  -0.000  1.00  0.00     0.168 HD
ATOM      8  O   UNL d   1       1.455   1.054  -0.003  0.00  0.00    -0.218 OA
ATOM      9  N   UNL d   1      -2.154  -0.632   0.001  0.00  0.00    -0.343 N 
ATOM     10  C   UNL d   1       1.583  -1.119  -0.003  0.00  0.00     0.046 A 
ATOM     11  C   UNL d   1      -2.041   0.743   0.001  0.00  0.00     0.183 A 
ATOM     12  S   UNL d   1      -1.190  -3.115  -0.001  0.00  0.00    -0.059 SA
ATOM     13  C   UNL d   1       2.242  -2.446  -0.004  0.00  0.00     0.071 C 
ATOM     14  H   UNL d   1      -3.069  -1.064   0.002  0.00  0.00     0.167 HD
ENDROOT
TORSDOF 0
