REMARK  6 active torsions:
REMARK  status: ('A' for Active; 'I' for Inactive)
REMARK       I    between atoms: C_6  and  N_1 
REMARK    1  A    between atoms: C_8  and  C_2 
REMARK    2  A    between atoms: C_9  and  C_6 
REMARK    3  A    between atoms: C_17  and  C_7 
REMARK    4  A    between atoms: O_16  and  C_8 
REMARK    5  A    between atoms: C_18  and  O_16 
REMARK    6  A    between atoms: C_19  and  C_17 
ROOT
ATOM      1  N   UNL d   1      -0.364   1.005   0.083  0.00  0.00    -0.228 N 
ATOM      2  C   UNL d   1      -0.487  -1.222   0.045  0.00  0.00     0.081 A 
ATOM      3  N   UNL d   1       0.924   0.575   0.066  0.00  0.00    -0.295 N 
ATOM      4  HN  UNL d   1       1.767   1.149   0.073  1.00  0.00     0.187 HD
ATOM      5  C   UNL d   1      -1.239  -0.063   0.083  0.00  0.00     0.139 A 
ATOM      6  C   UNL d   1      -0.687   2.388   0.096  0.00  0.00     0.300 C 
ATOM      7  C   UNL d   1       0.854  -0.760   0.040  0.00  0.00     0.044 A 
ATOM      8  O   UNL d   1      -1.891   2.643   0.123  0.00  0.00    -0.263 OA
ENDROOT
BRANCH   6   9
ATOM      9  C   UNL d   1       0.336   3.426   0.082  0.00  0.00     0.144 A 
ATOM     10  O   UNL d   1      -0.087   4.730   0.182  0.00  0.00    -0.317 OA
ATOM     11  C   UNL d   1       1.011   5.524   0.161  0.00  0.00     0.143 A 
ATOM     12  C   UNL d   1       2.149   4.769   0.042  0.00  0.00     0.027 A 
ATOM     13  C   UNL d   1       1.718   3.424  -0.014  0.00  0.00     0.045 A 
ENDBRANCH   6   9
BRANCH   7  14
ATOM     14  C   UNL d   1       2.127  -1.547  -0.009  0.00  0.00     0.059 C 
BRANCH  14  15
ATOM     15  C   UNL d   1       2.800  -1.697   1.358  0.00  0.00     0.002 C 
ATOM     16  C   UNL d   1       2.009  -2.560   2.331  0.00  0.00     0.005 C 
ENDBRANCH  14  15
ENDBRANCH   7  14
BRANCH   2  17
ATOM     17  C   UNL d   1      -0.977  -2.585  -0.023  0.00  0.00     0.296 C 
ATOM     18  O   UNL d   1      -0.240  -3.561  -0.084  0.00  0.00    -0.259 OA
BRANCH  17  19
ATOM     19  O   UNL d   1      -2.338  -2.643  -0.098  0.00  0.00    -0.318 OA
BRANCH  19  20
ATOM     20  C   UNL d   1      -2.868  -3.893  -0.563  0.00  0.00     0.174 C 
ATOM     21  C   UNL d   1      -2.920  -3.846  -2.079  0.00  0.00     0.034 C 
ENDBRANCH  19  20
ENDBRANCH  17  19
ENDBRANCH   2  17
TORSDOF 6
