REMARK  8 active torsions:
REMARK  status: ('A' for Active; 'I' for Inactive)
REMARK    1  A    between atoms: C_3  and  C_1 
REMARK    2  A    between atoms: O_16  and  C_1 
REMARK    3  A    between atoms: C_2  and  O_15 
REMARK    4  A    between atoms: C_4  and  C_2 
REMARK    5  A    between atoms: O_15  and  C_20 
REMARK    6  A    between atoms: C_21  and  O_16 
REMARK    7  A    between atoms: S_19  and  C_22 
REMARK    8  A    between atoms: C_23  and  S_19 
ROOT
ATOM      1  S   UNL d   1      -5.583   1.144  -0.720  0.00  0.00    -0.091 SA
ENDROOT
BRANCH   1   2
ATOM      2  C   UNL d   1      -3.819   1.151  -0.430  0.00  0.00     0.005 A 
ATOM      3  C   UNL d   1      -3.069  -0.020  -0.584  0.00  0.00     0.021 A 
ATOM      4  C   UNL d   1      -1.693  -0.022  -0.321  0.00  0.00     0.039 A 
ATOM      5  C   UNL d   1      -1.066   1.151   0.099  0.00  0.00     0.079 A 
ATOM      6  C   UNL d   1      -1.787   2.342   0.178  0.00  0.00     0.039 A 
ATOM      7  C   UNL d   1      -3.163   2.338  -0.082  0.00  0.00     0.021 A 
BRANCH   5   8
ATOM      8  O   UNL d   1       0.315   1.061   0.383  0.00  0.00    -0.278 OA
BRANCH   8   9
ATOM      9  C   UNL d   1       0.840   1.764   1.471  0.00  0.00     0.277 C 
ATOM     10  O   UNL d   1       0.203   2.500   2.222  0.00  0.00    -0.264 OA
BRANCH   9  11
ATOM     11  C   UNL d   1       2.323   1.469   1.682  0.00  0.00     0.157 A 
ATOM     12  C   UNL d   1       3.175   1.680   0.450  0.00  0.00    -0.006 A 
ATOM     13  C   UNL d   1       4.157   0.744   0.114  0.00  0.00     0.083 A 
ATOM     14  C   UNL d   1       3.069   2.851  -0.320  0.00  0.00     0.011 A 
ATOM     15  C   UNL d   1       5.007   0.962  -0.974  0.00  0.00     0.038 A 
ATOM     16  O   UNL d   1       4.375  -0.418   0.809  0.00  0.00    -0.310 OA
ATOM     17  C   UNL d   1       4.885   2.120  -1.738  0.00  0.00     0.003 A 
ATOM     18  C   UNL d   1       3.914   3.063  -1.412  0.00  0.00     0.001 A 
ATOM     19  C   UNL d   1       3.578  -0.707   1.888  0.00  0.00     0.083 A 
ATOM     20  C   UNL d   1       2.557   0.129   2.346  0.00  0.00    -0.006 A 
ATOM     21  C   UNL d   1       3.858  -1.913   2.539  0.00  0.00     0.038 A 
ATOM     22  C   UNL d   1       1.827  -0.262   3.483  0.00  0.00     0.011 A 
ATOM     23  C   UNL d   1       2.104  -1.470   4.127  0.00  0.00     0.001 A 
ATOM     24  C   UNL d   1       3.122  -2.295   3.657  0.00  0.00     0.003 A 
ENDBRANCH   9  11
ENDBRANCH   8   9
ENDBRANCH   5   8
ENDBRANCH   1   2
BRANCH   1  25
ATOM     25  C   UNL d   1      -6.222   0.663   0.881  0.00  0.00     0.005 A 
ATOM     26  C   UNL d   1      -6.005   1.450   2.017  0.00  0.00     0.021 A 
ATOM     27  C   UNL d   1      -6.514   1.061   3.261  0.00  0.00     0.039 A 
ATOM     28  C   UNL d   1      -7.260  -0.112   3.375  0.00  0.00     0.079 A 
ATOM     29  C   UNL d   1      -7.507  -0.896   2.250  0.00  0.00     0.039 A 
ATOM     30  C   UNL d   1      -6.994  -0.501   1.004  0.00  0.00     0.021 A 
BRANCH  28  31
ATOM     31  O   UNL d   1      -7.644  -0.460   4.695  0.00  0.00    -0.278 OA
BRANCH  31  32
ATOM     32  C   UNL d   1      -8.791  -1.196   4.997  0.00  0.00     0.277 C 
ATOM     33  O   UNL d   1      -9.603  -1.616   4.176  0.00  0.00    -0.264 OA
BRANCH  32  34
ATOM     34  C   UNL d   1      -8.923  -1.442   6.500  0.00  0.00     0.157 C 
ATOM     35  C   UNL d   1      -8.857  -0.180   7.343  0.00  0.00    -0.006 A 
ATOM     36  C   UNL d   1      -8.125  -0.174   8.530  0.00  0.00     0.083 A 
ATOM     37  C   UNL d   1      -9.604   0.962   7.007  0.00  0.00     0.011 A 
ATOM     38  C   UNL d   1      -8.107   0.957   9.356  0.00  0.00     0.038 A 
ATOM     39  O   UNL d   1      -7.409  -1.247   8.996  0.00  0.00    -0.310 OA
ATOM     40  C   UNL d   1      -8.838   2.089   9.005  0.00  0.00     0.003 A 
ATOM     41  C   UNL d   1      -9.587   2.091   7.834  0.00  0.00     0.001 A 
ATOM     42  C   UNL d   1      -7.362  -2.390   8.240  0.00  0.00     0.083 A 
ATOM     43  C   UNL d   1      -8.007  -2.538   7.009  0.00  0.00    -0.006 A 
ATOM     44  C   UNL d   1      -6.619  -3.438   8.792  0.00  0.00     0.038 A 
ATOM     45  C   UNL d   1      -7.879  -3.762   6.331  0.00  0.00     0.011 A 
ATOM     46  C   UNL d   1      -7.125  -4.805   6.877  0.00  0.00     0.001 A 
ATOM     47  C   UNL d   1      -6.504  -4.648   8.113  0.00  0.00     0.003 A 
ENDBRANCH  32  34
ENDBRANCH  31  32
ENDBRANCH  28  31
ENDBRANCH   1  25
TORSDOF 8
