REMARK  3 active torsions:
REMARK  status: ('A' for Active; 'I' for Inactive)
REMARK    1  A    between atoms: C_7  and  N_1 
REMARK    2  A    between atoms: N_8  and  N_2 
REMARK       I    between atoms: C_6  and  N_8 
REMARK    3  A    between atoms: C_10  and  C_6 
ROOT
ATOM      1  N   UNL d   1      -0.830  -1.174   0.082  0.00  0.00    -0.308 N 
ATOM      2  N   UNL d   1       0.581   1.105   0.346  0.00  0.00    -0.248 N 
ATOM      3  C   UNL d   1      -1.530   0.003  -0.234  0.00  0.00     0.244 C 
ATOM      4  C   UNL d   1       1.272  -0.083   0.523  0.00  0.00     0.257 C 
ATOM      5  C   UNL d   1      -0.610   1.210  -0.499  0.00  0.00     0.255 C 
ATOM      6  C   UNL d   1       0.608  -1.229  -0.207  0.00  0.00     0.236 C 
ATOM      7  O   UNL d   1       2.320  -0.196   1.152  0.00  0.00    -0.270 OA
ATOM      8  O   UNL d   1      -2.751   0.095  -0.329  0.00  0.00    -0.271 OA
ENDROOT
BRANCH   2   9
ATOM      9  N   UNL d   1       1.126   2.292   0.858  0.00  0.00    -0.261 N 
ATOM     10  C   UNL d   1       1.490   3.333   0.021  0.00  0.00     0.271 C 
ATOM     11  O   UNL d   1       1.234   3.379  -1.181  0.00  0.00    -0.266 OA
ATOM     12  H   UNL d   1       1.609   2.186   1.751  0.00  0.00     0.190 HD
BRANCH  10  13
ATOM     13  C   UNL d   1       2.090   4.513   0.704  0.00  0.00     0.051 A 
ATOM     14  C   UNL d   1       3.071   4.444   1.704  0.00  0.00     0.026 A 
ATOM     15 BR   UNL d   1       3.980   2.846   2.173  0.00  0.00    -0.050 Br
ATOM     16  C   UNL d   1       3.457   5.608   2.384  0.00  0.00     0.020 A 
ATOM     17  C   UNL d   1       2.890   6.838   2.054  0.00  0.00     0.001 A 
ATOM     18  C   UNL d   1       1.956   6.921   1.026  0.00  0.00     0.001 A 
ATOM     19  C   UNL d   1       1.563   5.765   0.350  0.00  0.00     0.018 A 
ENDBRANCH  10  13
ENDBRANCH   2   9
BRANCH   1  20
ATOM     20  C   UNL d   1      -1.462  -2.350   0.558  0.00  0.00     0.041 A 
ATOM     21  C   UNL d   1      -2.638  -2.843  -0.017  0.00  0.00     0.053 A 
ATOM     22  C   UNL d   1      -3.188  -4.040   0.448  0.00  0.00     0.037 A 
ATOM     23 CL   UNL d   1      -4.579  -4.698  -0.327  0.00  0.00    -0.084 Cl
ATOM     24  C   UNL d   1      -2.613  -4.728   1.514  0.00  0.00     0.048 A 
ATOM     25  C   UNL d   1      -1.470  -4.214   2.112  0.00  0.00     0.037 A 
ATOM     26  C   UNL d   1      -0.884  -3.045   1.631  0.00  0.00     0.053 A 
ATOM     27 CL   UNL d   1      -0.768  -5.023   3.459  0.00  0.00    -0.084 Cl
ENDBRANCH   1  20
TORSDOF 3
