REMARK  1 active torsions:
REMARK  status: ('A' for Active; 'I' for Inactive)
REMARK    1  A    between atoms: C_2  and  C_1 
ROOT
ATOM      1  C   UNL d   1       0.364   1.363  -0.078  0.00  0.00     0.032 C 
ATOM      2  C   UNL d   1      -0.519  -1.464   0.146  0.00  0.00     0.069 C 
ATOM      3  C   UNL d   1      -1.420  -0.482   0.138  0.00  0.00     0.016 C 
ATOM      4  C   UNL d   1       0.920  -1.165   0.125  0.00  0.00     0.151 C 
ATOM      5  C   UNL d   1      -1.120   0.982   0.097  0.00  0.00     0.061 C 
ATOM      6  C   UNL d   1       1.403   0.263   0.175  0.00  0.00     0.092 C 
ATOM      7  O   UNL d   1       1.716  -2.104   0.134  0.00  0.00    -0.293 OA
ATOM      8 CL   UNL d   1      -3.106  -0.884   0.159  0.00  0.00    -0.089 Cl
ENDROOT
BRANCH   1   9
ATOM      9  C   UNL d   1       0.657   2.139  -1.367  0.00  0.00    -0.031 A 
ATOM     10  C   UNL d   1       0.443   1.649  -2.667  0.00  0.00     0.042 A 
ATOM     11  C   UNL d   1       0.760   2.425  -3.787  0.00  0.00     0.048 A 
ATOM     12 CL   UNL d   1      -0.198   0.079  -2.980  0.00  0.00    -0.084 Cl
ATOM     13  C   UNL d   1       1.307   3.692  -3.626  0.00  0.00     0.035 A 
ATOM     14  C   UNL d   1       1.536   4.200  -2.353  0.00  0.00     0.024 A 
ATOM     15 CL   UNL d   1       1.709   4.636  -5.008  0.00  0.00    -0.084 Cl
ATOM     16  C   UNL d   1       1.215   3.431  -1.233  0.00  0.00     0.011 A 
ENDBRANCH   1   9
TORSDOF 1
