REMARK  5 active torsions:
REMARK  status: ('A' for Active; 'I' for Inactive)
REMARK    1  A    between atoms: C_3  and  N_1 
REMARK    2  A    between atoms: C_2  and  C_4 
REMARK    3  A    between atoms: O_14  and  C_15 
REMARK    4  A    between atoms: C_17  and  O_14 
REMARK    5  A    between atoms: C_16  and  C_17 
ROOT
ATOM      1  C   UNL d   1      -1.530   5.774  -1.568  0.00  0.00     0.214 C 
ENDROOT
BRANCH   1   2
ATOM      2  C   UNL d   1      -2.459   6.965  -1.501  0.00  0.00    -0.034 A 
ATOM      3  C   UNL d   1      -1.985   8.230  -1.132  0.00  0.00     0.010 A 
ATOM      4  C   UNL d   1      -2.852   9.326  -1.083  0.00  0.00     0.017 A 
ATOM      5  C   UNL d   1      -4.210   9.179  -1.408  0.00  0.00     0.047 A 
ATOM      6  C   UNL d   1      -4.680   7.915  -1.788  0.00  0.00     0.017 A 
ATOM      7  C   UNL d   1      -3.813   6.821  -1.836  0.00  0.00     0.010 A 
BRANCH   5   8
ATOM      8  C   UNL d   1      -5.136  10.369  -1.341  0.00  0.00     0.417 C 
ATOM      9  F   UNL d   1      -6.422  10.081  -1.687  0.00  0.00    -0.166 F 
ATOM     10  F   UNL d   1      -5.199  10.911  -0.093  0.00  0.00    -0.166 F 
ATOM     11  F   UNL d   1      -4.746  11.380  -2.167  0.00  0.00    -0.166 F 
ENDBRANCH   5   8
ENDBRANCH   1   2
BRANCH   1  12
ATOM     12  O   UNL d   1      -2.020   4.762  -0.686  0.00  0.00    -0.347 OA
BRANCH  12  13
ATOM     13  C   UNL d   1      -1.260   3.629  -0.592  0.00  0.00     0.069 A 
ATOM     14  C   UNL d   1      -1.339   2.959   0.633  0.00  0.00     0.039 A 
ATOM     15  C   UNL d   1      -0.625   1.777   0.848  0.00  0.00     0.039 A 
ATOM     16  C   UNL d   1       0.162   1.255  -0.185  0.00  0.00     0.103 A 
ATOM     17  C   UNL d   1       0.231   1.908  -1.423  0.00  0.00     0.039 A 
ATOM     18  C   UNL d   1      -0.484   3.095  -1.623  0.00  0.00     0.039 A 
BRANCH  16  19
ATOM     19  N   UNL d   1       0.914   0.012   0.024  0.00  0.00    -0.116 N 
ATOM     20  O   UNL d   1       1.587  -0.421  -0.922  0.00  0.00    -0.532 OA
ATOM     21  O   UNL d   1       0.834  -0.530   1.135  0.00  0.00    -0.532 OA
ENDBRANCH  16  19
ENDBRANCH  12  13
ENDBRANCH   1  12
TORSDOF 5
