REMARK  2 active torsions:
REMARK  status: ('A' for Active; 'I' for Inactive)
REMARK       I    between atoms: N_5  and  C_1 
REMARK       I    between atoms: N_6  and  C_1 
REMARK    1  A    between atoms: C_11  and  N_5 
REMARK    2  A    between atoms: C_12  and  N_6 
ROOT
ATOM      1  C   UNL d   1       1.108   0.081  -0.032  0.00  0.00     0.325 C 
ATOM      2  N   UNL d   1       0.500   0.989   0.819  0.00  0.00    -0.309 N 
ATOM      3  N   UNL d   1       0.213  -0.832  -0.562  0.00  0.00    -0.309 N 
ATOM      4  O   UNL d   1       2.311   0.070  -0.267  0.00  0.00    -0.247 OA
ATOM      5  H   UNL d   1      -0.428   0.768   1.143  0.00  0.00     0.170 HD
ATOM      6  H   UNL d   1      -0.768  -0.655  -0.413  0.00  0.00     0.170 HD
ENDROOT
BRANCH   2   7
ATOM      7  C   UNL d   1       1.192   2.013   1.517  0.00  0.00     0.038 A 
ATOM      8  C   UNL d   1       2.468   2.455   1.155  0.00  0.00     0.054 A 
ATOM      9  C   UNL d   1       3.146   3.406   1.919  0.00  0.00     0.042 A 
ATOM     10 CL   UNL d   1       4.736   3.863   1.412  0.00  0.00    -0.084 Cl
ATOM     11  C   UNL d   1       2.553   3.957   3.059  0.00  0.00    -0.040 A 
ATOM     12  C   UNL d   1       1.254   3.550   3.397  0.00  0.00     0.011 A 
ATOM     13  C   UNL d   1       3.277   4.963   3.907  0.00  0.00     0.050 C 
ATOM     14  C   UNL d   1       0.576   2.593   2.628  0.00  0.00     0.030 A 
ENDBRANCH   2   7
BRANCH   3  15
ATOM     15  C   UNL d   1       0.550  -1.927  -1.397  0.00  0.00     0.037 A 
ATOM     16  C   UNL d   1       1.864  -2.246  -1.759  0.00  0.00     0.048 A 
ATOM     17  C   UNL d   1       2.074  -3.316  -2.610  0.00  0.00     0.050 A 
ATOM     18  C   UNL d   1       3.339  -3.816  -3.134  0.00  0.00     0.294 A 
ATOM     19  C   UNL d   1       1.046  -4.083  -3.105  0.00  0.00    -0.018 A 
ATOM     20  O   UNL d   1       3.027  -4.873  -3.943  0.00  0.00    -0.313 OA
ATOM     21  O   UNL d   1       4.450  -3.389  -2.901  0.00  0.00    -0.259 OA
ATOM     22  C   UNL d   1       1.605  -5.109  -4.006  0.00  0.00     0.218 A 
ATOM     23  C   UNL d   1      -0.261  -3.813  -2.741  0.00  0.00     0.012 A 
ATOM     24  C   UNL d   1      -0.504  -2.728  -1.884  0.00  0.00     0.030 A 
ENDBRANCH   3  15
TORSDOF 2
