REMARK  5 active torsions:
REMARK  status: ('A' for Active; 'I' for Inactive)
REMARK    1  A    between atoms: C_2  and  S_1 
REMARK    2  A    between atoms: N_4  and  S_1 
REMARK    3  A    between atoms: C_7  and  C_3 
REMARK    4  A    between atoms: C_6  and  N_4 
REMARK    5  A    between atoms: C_14  and  C_7 
ROOT
ATOM      1  C   UNL d   1       0.344   3.898   0.751  0.00  0.00     0.111 C 
ATOM      2  C   UNL d   1       0.792   2.631   0.809  0.00  0.00     0.124 C 
ATOM      3  C   UNL d   1       0.749   4.899   1.673  0.00  0.00     0.105 C 
ATOM      4  N   UNL d   1       1.003   5.761   2.407  0.00  0.00    -0.191 NA
ENDROOT
BRANCH   1   5
ATOM      5  C   UNL d   1      -0.586   4.210  -0.371  0.00  0.00     0.204 C 
ATOM      6  O   UNL d   1      -0.648   3.477  -1.359  0.00  0.00    -0.286 OA
BRANCH   5   7
ATOM      7  C   UNL d   1      -1.466   5.415  -0.335  0.00  0.00     0.016 A 
ATOM      8  C   UNL d   1      -1.769   6.040  -1.556  0.00  0.00     0.017 A 
ATOM      9  C   UNL d   1      -2.636   7.137  -1.598  0.00  0.00     0.025 A 
ATOM     10  C   UNL d   1      -3.208   7.612  -0.420  0.00  0.00     0.034 A 
ATOM     11  C   UNL d   1      -2.923   6.995   0.797  0.00  0.00     0.025 A 
ATOM     12 CL   UNL d   1      -4.289   8.948  -0.471  0.00  0.00    -0.084 Cl
ATOM     13  C   UNL d   1      -2.064   5.890   0.840  0.00  0.00     0.017 A 
ENDBRANCH   5   7
ENDBRANCH   1   5
BRANCH   2  14
ATOM     14  N   UNL d   1       1.689   2.224   1.852  0.00  0.00    -0.322 N 
ATOM     15  HN  UNL d   1       2.005   2.954   2.492  1.00  0.00     0.175 HD
BRANCH  14  16
ATOM     16  S   UNL d   1       2.228   0.804   2.109  0.00  0.00     0.052 S 
ATOM     17  O   UNL d   1       3.113   0.423   3.191  0.00  0.00    -0.245 OA
ATOM     18  C   UNL d   1       0.930  -0.396   2.054  0.00  0.00     0.142 C 
BRANCH  16  19
ATOM     19  C   UNL d   1       3.201   0.534   0.695  0.00  0.00     0.045 A 
ATOM     20  C   UNL d   1       4.583   0.898   0.636  0.00  0.00     0.029 A 
ATOM     21  C   UNL d   1       5.166   0.533  -0.558  0.00  0.00     0.051 A 
ATOM     22  S   UNL d   1       4.049  -0.217  -1.614  0.00  0.00    -0.112 SA
ATOM     23  C   UNL d   1       2.780  -0.072  -0.470  0.00  0.00     0.071 A 
ENDBRANCH  16  19
ENDBRANCH  14  16
ENDBRANCH   2  14
TORSDOF 5
