REMARK  8 active torsions:
REMARK  status: ('A' for Active; 'I' for Inactive)
REMARK       I    between atoms: N_3  and  C_1 
REMARK    1  A    between atoms: C_6  and  C_1 
REMARK       I    between atoms: C_2  and  N_5 
REMARK    2  A    between atoms: C_4  and  C_2 
REMARK    3  A    between atoms: N_5  and  N_3 
REMARK    4  A    between atoms: C_9  and  C_4 
REMARK    5  A    between atoms: O_16  and  C_9 
REMARK    6  A    between atoms: O_17  and  C_9 
REMARK    7  A    between atoms: C_18  and  O_16 
REMARK    8  A    between atoms: C_19  and  O_17 
ROOT
ATOM      1  C   UNL d   1       0.548   2.692  -2.142  0.00  0.00     0.240 C 
ATOM      2  N   UNL d   1       1.281   2.004  -1.206  0.00  0.00    -0.267 N 
ATOM      3  O   UNL d   1       1.051   3.080  -3.199  0.00  0.00    -0.272 OA
ATOM      4  H   UNL d   1       0.915   1.719  -0.294  0.00  0.00     0.190 HD
ENDROOT
BRANCH   2   5
ATOM      5  N   UNL d   1       2.649   1.838  -1.447  0.00  0.00    -0.263 N 
ATOM      6  C   UNL d   1       3.311   0.788  -0.847  0.00  0.00     0.270 C 
ATOM      7  O   UNL d   1       2.779   0.011  -0.058  0.00  0.00    -0.266 OA
ATOM      8  H   UNL d   1       3.007   2.304  -2.281  0.00  0.00     0.190 HD
BRANCH   6   9
ATOM      9  C   UNL d   1       4.747   0.624  -1.224  0.00  0.00     0.033 A 
ATOM     10  C   UNL d   1       5.547   1.729  -1.552  0.00  0.00     0.019 A 
ATOM     11  C   UNL d   1       6.898   1.543  -1.861  0.00  0.00     0.025 A 
ATOM     12  C   UNL d   1       7.447   0.261  -1.839  0.00  0.00     0.034 A 
ATOM     13  C   UNL d   1       6.658  -0.839  -1.508  0.00  0.00     0.025 A 
ATOM     14 CL   UNL d   1       9.112   0.040  -2.211  0.00  0.00    -0.084 Cl
ATOM     15  C   UNL d   1       5.308  -0.657  -1.194  0.00  0.00     0.019 A 
ENDBRANCH   6   9
ENDBRANCH   2   5
BRANCH   1  16
ATOM     16  C   UNL d   1      -0.870   3.050  -1.770  0.00  0.00     0.165 C 
BRANCH  16  17
ATOM     17  C   UNL d   1      -1.628   1.932  -1.058  0.00  0.00     0.268 C 
BRANCH  17  18
ATOM     18  O   UNL d   1      -1.154   1.935   0.301  0.00  0.00    -0.361 OA
BRANCH  18  19
ATOM     19  C   UNL d   1      -1.895   1.069   1.158  0.00  0.00     0.166 C 
ATOM     20  C   UNL d   1      -1.201   1.015   2.509  0.00  0.00     0.033 C 
ENDBRANCH  18  19
ENDBRANCH  17  18
BRANCH  17  21
ATOM     21  O   UNL d   1      -3.039   2.176  -1.113  0.00  0.00    -0.361 OA
BRANCH  21  22
ATOM     22  C   UNL d   1      -3.612   1.860  -2.382  0.00  0.00     0.166 C 
ATOM     23  C   UNL d   1      -5.123   1.965  -2.295  0.00  0.00     0.033 C 
ENDBRANCH  21  22
ENDBRANCH  17  21
ENDBRANCH  16  17
ENDBRANCH   1  16
TORSDOF 8
