REMARK  4 active torsions:
REMARK  status: ('A' for Active; 'I' for Inactive)
REMARK    1  A    between atoms: C_11  and  C_4 
REMARK    2  A    between atoms: C_9  and  O_10 
REMARK    3  A    between atoms: C_12  and  C_9 
REMARK    4  A    between atoms: O_10  and  C_11 
ROOT
ATOM      1  C   UNL d   1       3.774   0.340   0.088  0.00  0.00     0.225 C 
ENDROOT
BRANCH   1   2
ATOM      2  O   UNL d   1       4.280   1.614  -0.338  0.00  0.00    -0.312 OA
BRANCH   2   3
ATOM      3  C   UNL d   1       4.936   2.327   0.607  0.00  0.00     0.293 C 
ATOM      4  O   UNL d   1       4.973   2.081   1.802  0.00  0.00    -0.259 OA
BRANCH   3   5
ATOM      5  C   UNL d   1       5.721   3.433  -0.013  0.00  0.00     0.039 A 
ATOM      6  C   UNL d   1       6.520   4.225   0.827  0.00  0.00     0.019 A 
ATOM      7  C   UNL d   1       7.345   5.217   0.291  0.00  0.00     0.025 A 
ATOM      8  C   UNL d   1       7.373   5.423  -1.087  0.00  0.00     0.034 A 
ATOM      9  C   UNL d   1       6.571   4.654  -1.931  0.00  0.00     0.025 A 
ATOM     10 CL   UNL d   1       8.414   6.618  -1.752  0.00  0.00    -0.084 Cl
ATOM     11  C   UNL d   1       5.742   3.661  -1.395  0.00  0.00     0.019 A 
ENDBRANCH   3   5
ENDBRANCH   2   3
ENDBRANCH   1   2
BRANCH   1  12
ATOM     12  C   UNL d   1       2.274   0.374   0.037  0.00  0.00     0.015 A 
ATOM     13  S   UNL d   1       1.495   0.105  -1.483  0.00  0.00    -0.084 SA
ATOM     14  C   UNL d   1       0.002   0.172  -0.749  0.00  0.00     0.057 A 
ATOM     15  C   UNL d   1       0.038   0.401   0.578  0.00  0.00     0.001 A 
ATOM     16  S   UNL d   1      -1.529  -0.008  -1.386  0.00  0.00    -0.093 SA
ATOM     17  C   UNL d   1       1.360   0.547   1.091  0.00  0.00    -0.034 A 
ATOM     18  C   UNL d   1      -1.254   0.437   1.178  0.00  0.00    -0.043 A 
ATOM     19  C   UNL d   1       1.819   0.816   2.486  0.00  0.00     0.050 C 
ATOM     20  C   UNL d   1      -1.679   0.646   2.590  0.00  0.00     0.049 C 
ATOM     21  C   UNL d   1      -2.207   0.226   0.179  0.00  0.00     0.058 A 
ENDBRANCH   1  12
TORSDOF 4
