REMARK  8 active torsions:
REMARK  status: ('A' for Active; 'I' for Inactive)
REMARK    1  A    between atoms: N_2  and  S_1 
REMARK    2  A    between atoms: C_6  and  S_1 
REMARK    3  A    between atoms: N_4  and  N_2 
REMARK    4  A    between atoms: C_3  and  S_9 
REMARK       I    between atoms: C_5  and  N_4 
REMARK    5  A    between atoms: C_16  and  C_5 
REMARK    6  A    between atoms: S_9  and  C_18 
REMARK    7  A    between atoms: O_17  and  C_16 
REMARK    8  A    between atoms: C_19  and  O_17 
ROOT
ATOM      1  N   UNL d   1       0.883  -0.228   2.728  0.00  0.00    -0.259 N 
ATOM      2  C   UNL d   1       0.333   0.130   3.941  0.00  0.00     0.260 C 
ATOM      3  O   UNL d   1      -0.530   1.004   4.047  0.00  0.00    -0.269 OA
ATOM      4  H   UNL d   1       1.621  -0.929   2.644  0.00  0.00     0.190 HD
ENDROOT
BRANCH   2   5
ATOM      5  C   UNL d   1       0.845  -0.686   5.130  0.00  0.00     0.280 C 
BRANCH   5   6
ATOM      6  O   UNL d   1       2.094  -0.185   5.588  0.00  0.00    -0.342 OA
BRANCH   6   7
ATOM      7  C   UNL d   1       2.678  -0.864   6.626  0.00  0.00     0.069 A 
ATOM      8  C   UNL d   1       4.053  -0.658   6.774  0.00  0.00     0.038 A 
ATOM      9  C   UNL d   1       4.768  -1.303   7.789  0.00  0.00     0.021 A 
ATOM     10  C   UNL d   1       4.118  -2.159   8.677  0.00  0.00     0.009 A 
ATOM     11  C   UNL d   1       2.736  -2.331   8.560  0.00  0.00     0.021 A 
ATOM     12  C   UNL d   1       2.020  -1.692   7.537  0.00  0.00     0.038 A 
BRANCH  10  13
ATOM     13  S   UNL d   1       5.048  -2.917   9.995  0.00  0.00    -0.016 SA
BRANCH  13  14
ATOM     14  C   UNL d   1       4.835  -4.669   9.640  0.00  0.00     0.448 C 
ATOM     15  F   UNL d   1       4.026  -4.921   8.585  0.00  0.00    -0.160 F 
ATOM     16  F   UNL d   1       6.028  -5.256   9.377  0.00  0.00    -0.160 F 
ATOM     17  F   UNL d   1       4.304  -5.312  10.710  0.00  0.00    -0.160 F 
ENDBRANCH  13  14
ENDBRANCH  10  13
ENDBRANCH   6   7
ENDBRANCH   5   6
ENDBRANCH   2   5
BRANCH   1  18
ATOM     18  N   UNL d   1       0.408   0.398   1.502  0.00  0.00    -0.220 N 
ATOM     19  H   UNL d   1      -0.329   1.112   1.547  0.00  0.00     0.200 HD
BRANCH  18  20
ATOM     20  S   UNL d   1       1.063  -0.122   0.041  0.00  0.00     0.276 S 
ATOM     21  O   UNL d   1       0.632  -1.493  -0.149  0.00  0.00    -0.199 OA
ATOM     22  O   UNL d   1       2.474   0.203   0.065  0.00  0.00    -0.199 OA
BRANCH  20  23
ATOM     23  C   UNL d   1       0.281   0.880  -1.200  0.00  0.00     0.081 A 
ATOM     24  C   UNL d   1       0.882   2.080  -1.592  0.00  0.00     0.026 A 
ATOM     25  C   UNL d   1       0.394   2.768  -2.707  0.00  0.00     0.008 A 
ATOM     26  C   UNL d   1      -0.688   2.259  -3.443  0.00  0.00    -0.062 A 
ATOM     27  C   UNL d   1      -1.295   1.068  -3.026  0.00  0.00     0.008 A 
ATOM     28  C   UNL d   1      -1.143   2.963  -4.689  0.00  0.00     0.048 C 
ATOM     29  C   UNL d   1      -0.812   0.377  -1.910  0.00  0.00     0.026 A 
ENDBRANCH  20  23
ENDBRANCH  18  20
ENDBRANCH   1  18
TORSDOF 8
