REMARK  3 active torsions:
REMARK  status: ('A' for Active; 'I' for Inactive)
REMARK    1  A    between atoms: C_5  and  C_1 
REMARK    2  A    between atoms: S_15  and  C_4 
REMARK    3  A    between atoms: C_17  and  S_15 
ROOT
ATOM      1  C   UNL d   1       3.662  -4.646  -0.041  0.00  0.00     0.096 A 
ATOM      2  C   UNL d   1       2.008  -2.407   0.036  0.00  0.00     0.015 A 
ATOM      3  C   UNL d   1       2.669  -4.514  -1.004  0.00  0.00     0.079 A 
ATOM      4  N   UNL d   1       3.835  -3.723   0.938  0.00  0.00    -0.352 N 
ATOM      5  HN  UNL d   1       4.570  -3.843   1.634  1.00  0.00     0.166 HD
ATOM      6  C   UNL d   1       1.853  -3.373  -0.970  0.00  0.00     0.041 A 
ATOM      7  C   UNL d   1       3.015  -2.633   0.982  0.00  0.00     0.018 A 
ATOM      8  C   UNL d   1       2.419  -5.513  -1.998  0.00  0.00     0.102 C 
ATOM      9  N   UNL d   1       2.160  -6.303  -2.806  0.00  0.00    -0.191 NA
ATOM     10  C   UNL d   1       3.246  -1.726   2.158  0.00  0.00     0.069 C 
ENDROOT
BRANCH   1  11
ATOM     11  S   UNL d   1       4.732  -6.069   0.080  0.00  0.00    -0.071 SA
BRANCH  11  12
ATOM     12  C   UNL d   1       6.123  -5.577  -0.922  0.00  0.00     0.007 A 
ATOM     13  C   UNL d   1       6.862  -4.421  -0.649  0.00  0.00     0.019 A 
ATOM     14  C   UNL d   1       7.962  -4.080  -1.441  0.00  0.00     0.001 A 
ATOM     15  C   UNL d   1       8.339  -4.898  -2.505  0.00  0.00     0.000 A 
ATOM     16  C   UNL d   1       7.623  -6.064  -2.770  0.00  0.00     0.001 A 
ATOM     17  C   UNL d   1       6.523  -6.404  -1.979  0.00  0.00     0.019 A 
ENDBRANCH  11  12
ENDBRANCH   1  11
BRANCH   2  18
ATOM     18  C   UNL d   1       1.132  -1.238   0.076  0.00  0.00     0.051 A 
ATOM     19  N   UNL d   1       1.592  -0.000   0.495  0.00  0.00    -0.353 N 
ATOM     20  C   UNL d   1       0.623   0.889   0.455  0.00  0.00     0.047 A 
ATOM     21  HN  UNL d   1       2.548   0.194   0.794  1.00  0.00     0.166 HD
ATOM     22  C   UNL d   1       0.768   2.314   0.859  0.00  0.00     0.076 C 
ATOM     23  S   UNL d   1      -0.891   0.303  -0.104  0.00  0.00    -0.087 SA
ATOM     24  C   UNL d   1      -0.202  -1.257  -0.289  0.00  0.00     0.081 A 
ENDBRANCH   2  18
TORSDOF 3
