REMARK  7 active torsions:
REMARK  status: ('A' for Active; 'I' for Inactive)
REMARK    1  A    between atoms: C_10  and  N_1 
REMARK    2  A    between atoms: C_21  and  C_2 
REMARK    3  A    between atoms: N_8  and  C_5 
REMARK       I    between atoms: C_7  and  N_8 
REMARK       I    between atoms: N_11  and  C_7 
REMARK    4  A    between atoms: C_9  and  O_12 
REMARK    5  A    between atoms: C_19  and  N_11 
REMARK    6  A    between atoms: O_12  and  C_20 
REMARK    7  A    between atoms: C_30  and  C_21 
ROOT
ATOM      1  C   UNL d   1      -0.440   3.052   1.149  0.00  0.00     0.325 C 
ATOM      2  N   UNL d   1      -0.765   2.384  -0.024  0.00  0.00    -0.305 N 
ATOM      3  N   UNL d   1      -1.128   4.242   1.281  0.00  0.00    -0.309 N 
ATOM      4  O   UNL d   1       0.344   2.606   1.984  0.00  0.00    -0.247 OA
ATOM      5  H   UNL d   1      -1.708   2.510  -0.361  0.00  0.00     0.171 HD
ATOM      6  H   UNL d   1      -1.872   4.421   0.625  0.00  0.00     0.170 HD
ENDROOT
BRANCH   2   7
ATOM      7  C   UNL d   1      -0.145   1.192  -0.384  0.00  0.00     0.078 C 
ATOM      8  C   UNL d   1       1.177   0.819  -0.215  0.00  0.00     0.062 C 
ATOM      9  N   UNL d   1       1.229  -0.529  -0.559  0.00  0.00    -0.259 N 
ATOM     10  N   UNL d   1       0.135  -0.879  -1.294  0.00  0.00    -0.302 N 
ATOM     11  C   UNL d   1      -0.710   0.137  -1.122  0.00  0.00     0.139 C 
ATOM     12  HN  UNL d   1      -0.004  -1.723  -1.849  1.00  0.00     0.186 HD
BRANCH   8  13
ATOM     13  C   UNL d   1       2.380   1.669   0.093  0.00  0.00     0.061 C 
BRANCH  13  14
ATOM     14  C   UNL d   1       3.397   1.718  -1.054  0.00  0.00     0.002 C 
ATOM     15  C   UNL d   1       2.817   2.295  -2.341  0.00  0.00     0.005 C 
ENDBRANCH  13  14
ENDBRANCH   8  13
BRANCH   9  16
ATOM     16  C   UNL d   1       2.246  -1.493  -0.305  0.00  0.00     0.056 A 
ATOM     17  C   UNL d   1       3.087  -1.390   0.812  0.00  0.00     0.033 A 
ATOM     18  C   UNL d   1       4.123  -2.310   0.998  0.00  0.00     0.026 A 
ATOM     19  C   UNL d   1       4.312  -3.339   0.078  0.00  0.00     0.034 A 
ATOM     20  C   UNL d   1       3.445  -3.485  -1.004  0.00  0.00     0.026 A 
ATOM     21 CL   UNL d   1       5.623  -4.435   0.277  0.00  0.00    -0.084 Cl
ATOM     22  C   UNL d   1       2.400  -2.574  -1.185  0.00  0.00     0.033 A 
ENDBRANCH   9  16
ENDBRANCH   2   7
BRANCH   3  23
ATOM     23  C   UNL d   1      -1.021   5.127   2.381  0.00  0.00     0.036 A 
ATOM     24  C   UNL d   1       0.036   5.095   3.294  0.00  0.00     0.032 A 
ATOM     25  C   UNL d   1       0.054   5.932   4.419  0.00  0.00     0.039 A 
ATOM     26  C   UNL d   1      -0.973   6.846   4.624  0.00  0.00     0.078 A 
ATOM     27  C   UNL d   1      -2.017   6.901   3.694  0.00  0.00     0.039 A 
ATOM     28  C   UNL d   1      -2.038   6.064   2.574  0.00  0.00     0.032 A 
BRANCH  26  29
ATOM     29  O   UNL d   1      -1.089   7.738   5.647  0.00  0.00    -0.255 OA
BRANCH  29  30
ATOM     30  C   UNL d   1      -0.026   7.888   6.574  0.00  0.00     0.530 C 
ATOM     31  F   UNL d   1       1.189   7.851   5.988  0.00  0.00    -0.144 F 
ATOM     32  F   UNL d   1      -0.154   9.097   7.166  0.00  0.00    -0.144 F 
ATOM     33  F   UNL d   1      -0.096   6.941   7.531  0.00  0.00    -0.144 F 
ENDBRANCH  29  30
ENDBRANCH  26  29
ENDBRANCH   3  23
TORSDOF 7
