REMARK  5 active torsions:
REMARK  status: ('A' for Active; 'I' for Inactive)
REMARK       I    between atoms: N_2  and  C_1 
REMARK    1  A    between atoms: O_4  and  C_1 
REMARK       I    between atoms: C_3  and  N_5 
REMARK    2  A    between atoms: C_6  and  C_3 
REMARK    3  A    between atoms: C_11  and  O_4 
REMARK    4  A    between atoms: N_5  and  C_14 
REMARK    5  A    between atoms: C_14  and  C_21 
ROOT
ATOM      1  C   UNL d   1       0.992   0.223  -0.114  0.00  0.00     0.363 C 
ATOM      2  N   UNL d   1       0.390   1.108   0.767  0.00  0.00    -0.328 N 
ATOM      3  O   UNL d   1       1.869   0.567  -0.894  0.00  0.00    -0.238 OA
ATOM      4  C   UNL d   1       0.701   2.526   0.687  0.00  0.00     0.128 C 
ATOM      5  C   UNL d   1      -0.641   0.753   1.735  0.00  0.00     0.128 C 
ATOM      6  C   UNL d   1      -1.940   1.489   1.408  0.00  0.00     0.026 C 
ATOM      7  C   UNL d   1      -0.554   3.317   0.316  0.00  0.00     0.026 C 
ATOM      8  C   UNL d   1      -1.752   3.013   1.240  0.00  0.00     0.006 C 
ENDROOT
BRANCH   8   9
ATOM      9  C   UNL d   1      -1.610   3.759   2.578  0.00  0.00     0.127 C 
BRANCH   9  10
ATOM     10  N   UNL d   1      -2.812   3.671   3.383  0.00  0.00    -0.356 N 
ATOM     11  C   UNL d   1      -2.819   3.095   4.635  0.00  0.00     0.251 C 
ATOM     12  O   UNL d   1      -1.841   2.542   5.123  0.00  0.00    -0.268 OA
ATOM     13  H   UNL d   1      -3.676   4.019   2.984  0.00  0.00     0.162 HD
BRANCH  11  14
ATOM     14  C   UNL d   1      -4.104   3.131   5.388  0.00  0.00     0.032 A 
ATOM     15  C   UNL d   1      -4.344   2.120   6.335  0.00  0.00     0.020 A 
ATOM     16  C   UNL d   1      -5.524   2.123   7.080  0.00  0.00     0.043 A 
ATOM     17  C   UNL d   1      -6.456   3.136   6.886  0.00  0.00     0.116 A 
ATOM     18  C   UNL d   1      -6.228   4.151   5.962  0.00  0.00     0.043 A 
ATOM     19  F   UNL d   1      -7.584   3.143   7.607  0.00  0.00    -0.206 F 
ATOM     20  C   UNL d   1      -5.047   4.153   5.211  0.00  0.00     0.020 A 
ENDBRANCH  11  14
ENDBRANCH   9  10
ENDBRANCH   8   9
BRANCH   1  21
ATOM     21  O   UNL d   1       0.508  -1.045  -0.025  0.00  0.00    -0.294 OA
BRANCH  21  22
ATOM     22  C   UNL d   1       1.073  -2.104  -0.850  0.00  0.00     0.061 C 
ATOM     23  C   UNL d   1       2.529  -2.383  -0.452  0.00  0.00     0.046 C 
ATOM     24  C   UNL d   1       0.242  -3.362  -0.544  0.00  0.00     0.046 C 
ATOM     25  C   UNL d   1       0.937  -1.809  -2.351  0.00  0.00     0.046 C 
ENDBRANCH  21  22
ENDBRANCH   1  21
TORSDOF 5
