REMARK  4 active torsions:
REMARK  status: ('A' for Active; 'I' for Inactive)
REMARK    1  A    between atoms: C_3  and  C_1 
REMARK    2  A    between atoms: C_2  and  C_4 
REMARK       I    between atoms: C_4  and  N_5 
REMARK    3  A    between atoms: N_5  and  N_6 
REMARK    4  A    between atoms: N_6  and  C_7 
ROOT
ATOM      1  C   UNL d   1      -2.443  -1.585   0.322  0.00  0.00     0.271 C 
ATOM      2  N   UNL d   1      -1.284  -0.829   0.424  0.00  0.00    -0.282 N 
ATOM      3  O   UNL d   1      -3.529  -1.145   0.690  0.00  0.00    -0.266 OA
ATOM      4  H   UNL d   1      -0.360  -1.257   0.408  0.00  0.00     0.184 HD
ENDROOT
BRANCH   2   5
ATOM      5  N   UNL d   1      -1.370   0.393   1.124  0.00  0.00    -0.202 NA
ATOM      6  H   UNL d   1      -2.364   0.661   1.206  0.00  0.00     0.153 HD
BRANCH   5   7
ATOM      7  C   UNL d   1      -0.628   1.443   0.524  0.00  0.00     0.042 A 
ATOM      8  C   UNL d   1      -0.143   2.509   1.306  0.00  0.00     0.070 A 
ATOM      9  C   UNL d   1       0.579   3.552   0.681  0.00  0.00     0.018 A 
ATOM     10  C   UNL d   1       0.784   3.566  -0.696  0.00  0.00     0.001 A 
ATOM     11  C   UNL d   1       0.257   2.547  -1.476  0.00  0.00     0.002 A 
ATOM     12  C   UNL d   1      -0.451   1.505  -0.873  0.00  0.00     0.026 A 
BRANCH   8  13
ATOM     13  C   UNL d   1      -0.320   2.603   2.803  0.00  0.00     0.419 C 
ATOM     14  F   UNL d   1      -1.048   1.619   3.394  0.00  0.00    -0.166 F 
ATOM     15  F   UNL d   1      -0.937   3.769   3.162  0.00  0.00    -0.166 F 
ATOM     16  F   UNL d   1       0.878   2.619   3.459  0.00  0.00    -0.166 F 
ENDBRANCH   8  13
ENDBRANCH   5   7
ENDBRANCH   2   5
BRANCH   1  17
ATOM     17  C   UNL d   1      -2.300  -2.948  -0.269  0.00  0.00     0.093 A 
ATOM     18  C   UNL d   1      -3.353  -3.593  -0.936  0.00  0.00     0.052 A 
ATOM     19 CL   UNL d   1      -4.907  -2.882  -1.206  0.00  0.00    -0.083 Cl
ATOM     20  C   UNL d   1      -3.167  -4.875  -1.482  0.00  0.00     0.025 A 
ATOM     21  C   UNL d   1      -1.940  -5.524  -1.375  0.00  0.00     0.005 A 
ATOM     22  C   UNL d   1      -0.890  -4.895  -0.717  0.00  0.00     0.043 A 
ATOM     23  C   UNL d   1      -1.077  -3.625  -0.172  0.00  0.00     0.133 A 
ATOM     24  F   UNL d   1      -0.027  -3.063   0.450  0.00  0.00    -0.205 F 
ENDBRANCH   1  17
TORSDOF 4
