REMARK  1 active torsions:
REMARK  status: ('A' for Active; 'I' for Inactive)
REMARK    1  A    between atoms: O_12  and  C_10 
ROOT
ATOM      1  C   UNL d   1       0.032   0.497  -0.002  0.00  0.00     0.051 A 
ATOM      2  C   UNL d   1      -1.405   0.818   0.001  0.00  0.00     0.186 A 
ATOM      3  C   UNL d   1       0.421  -0.842  -0.003  0.00  0.00     0.089 A 
ATOM      4  C   UNL d   1      -2.330  -0.326  -0.017  0.00  0.00     0.080 A 
ATOM      5  C   UNL d   1      -1.817  -1.560  -0.020  0.00  0.00     0.146 A 
ATOM      6  O   UNL d   1      -0.480  -1.879  -0.006  0.00  0.00    -0.322 OA
ATOM      7  C   UNL d   1       0.985   1.522  -0.007  0.00  0.00     0.055 A 
ATOM      8  O   UNL d   1      -1.822   1.969   0.014  0.00  0.00    -0.287 OA
ATOM      9  C   UNL d   1       1.774  -1.167  -0.002  0.00  0.00     0.041 A 
ATOM     10  C   UNL d   1       2.342   1.200  -0.013  0.00  0.00     0.069 A 
ATOM     11  C   UNL d   1       2.729  -0.146  -0.007  0.00  0.00     0.039 A 
ENDROOT
BRANCH  10  12
ATOM     12  O   UNL d   1       3.375   2.096  -0.025  0.00  0.00    -0.356 OA
ATOM     13  C   UNL d   1       3.023   3.475  -0.035  0.00  0.00     0.210 C 
ENDBRANCH  10  12
TORSDOF 1
