REMARK  3 active torsions:
REMARK  status: ('A' for Active; 'I' for Inactive)
REMARK    1  A    between atoms: N_2  and  C_1 
REMARK    2  A    between atoms: N_4  and  C_3 
REMARK    3  A    between atoms: C_10  and  C_6 
ROOT
ATOM      1  C   UNL d   1       1.431  -0.246   0.108  0.00  0.00     0.130 A 
ATOM      2  C   UNL d   1       0.611  -1.371  -0.034  0.00  0.00     0.071 A 
ATOM      3  C   UNL d   1       0.888   1.052   0.211  0.00  0.00     0.046 A 
ATOM      4  C   UNL d   1      -0.502   1.262   0.184  0.00  0.00    -0.048 A 
ATOM      5  C   UNL d   1      -0.772  -1.155  -0.108  0.00  0.00     0.033 A 
ATOM      6  C   UNL d   1      -1.313   0.133   0.003  0.00  0.00     0.010 A 
ENDROOT
BRANCH   2   7
ATOM      7  N   UNL d   1       1.083  -2.716  -0.060  0.00  0.00    -0.331 N 
ATOM      8  C   UNL d   1       2.214  -3.226   0.546  0.00  0.00     0.097 A 
ATOM      9  C   UNL d   1       2.298  -4.578   0.292  0.00  0.00     0.019 A 
ATOM     10  C   UNL d   1       1.161  -4.933  -0.461  0.00  0.00     0.019 A 
ATOM     11  C   UNL d   1       0.425  -3.784  -0.646  0.00  0.00     0.097 A 
ENDBRANCH   2   7
BRANCH   1  12
ATOM     12  N   UNL d   1       2.878  -0.316   0.032  0.00  0.00    -0.113 N 
ATOM     13  O   UNL d   1       3.372  -0.732  -1.024  0.00  0.00    -0.532 OA
ATOM     14  O   UNL d   1       3.510   0.085   1.018  0.00  0.00    -0.532 OA
ENDBRANCH   1  12
BRANCH   4  15
ATOM     15  C   UNL d   1      -1.084   2.675   0.361  0.00  0.00    -0.024 C 
ATOM     16  C   UNL d   1      -0.572   3.604  -0.759  0.00  0.00     0.019 C 
ATOM     17  C   UNL d   1      -2.629   2.709   0.324  0.00  0.00     0.019 C 
ATOM     18  C   UNL d   1      -0.650   3.247   1.728  0.00  0.00     0.019 C 
ENDBRANCH   4  15
TORSDOF 3
