REMARK  4 active torsions:
REMARK  status: ('A' for Active; 'I' for Inactive)
REMARK       I    between atoms: C_2  and  N_1 
REMARK       I    between atoms: C_3  and  N_1 
REMARK       I    between atoms: N_5  and  C_2 
REMARK    1  A    between atoms: C_7  and  C_3 
REMARK    2  A    between atoms: C_4  and  C_6 
REMARK    3  A    between atoms: O_16  and  C_4 
REMARK    4  A    between atoms: C_11  and  N_5 
ROOT
ATOM      1  N   UNL d   1      -1.046   1.216   0.567  0.00  0.00    -0.275 N 
ATOM      2  C   UNL d   1       0.318   1.185   0.460  0.00  0.00     0.327 C 
ATOM      3  C   UNL d   1      -1.807   1.752   1.587  0.00  0.00     0.259 C 
ATOM      4  N   UNL d   1       1.011   1.974   1.348  0.00  0.00    -0.309 N 
ATOM      5  O   UNL d   1       0.787   0.450  -0.402  0.00  0.00    -0.247 OA
ATOM      6  O   UNL d   1      -1.319   2.385   2.520  0.00  0.00    -0.267 OA
ATOM      7  H   UNL d   1      -1.468   0.655  -0.152  0.00  0.00     0.173 HD
ATOM      8  H   UNL d   1       0.460   2.343   2.121  0.00  0.00     0.170 HD
ENDROOT
BRANCH   4   9
ATOM      9  C   UNL d   1       2.409   2.105   1.417  0.00  0.00     0.037 A 
ATOM     10  C   UNL d   1       3.237   1.704   0.371  0.00  0.00     0.047 A 
ATOM     11  C   UNL d   1       4.626   1.678   0.524  0.00  0.00     0.041 A 
ATOM     12  C   UNL d   1       5.196   2.145   1.712  0.00  0.00     0.018 A 
ATOM     13  C   UNL d   1       4.374   2.634   2.732  0.00  0.00     0.003 A 
ATOM     14  C   UNL d   1       2.983   2.614   2.584  0.00  0.00     0.029 A 
BRANCH  11  15
ATOM     15  C   UNL d   1       5.494   1.087  -0.529  0.00  0.00     0.293 C 
ATOM     16  O   UNL d   1       6.712   1.057  -0.472  0.00  0.00    -0.259 OA
BRANCH  15  17
ATOM     17  O   UNL d   1       4.725   0.537  -1.502  0.00  0.00    -0.323 OA
ATOM     18  C   UNL d   1       5.427  -0.231  -2.475  0.00  0.00     0.213 C 
ENDBRANCH  15  17
ENDBRANCH  11  15
ENDBRANCH   4   9
BRANCH   3  19
ATOM     19  C   UNL d   1      -3.287   1.568   1.501  0.00  0.00     0.032 A 
ATOM     20  C   UNL d   1      -3.914   0.683   0.613  0.00  0.00     0.018 A 
ATOM     21  C   UNL d   1      -5.313   0.601   0.575  0.00  0.00     0.025 A 
ATOM     22  C   UNL d   1      -6.080   1.393   1.428  0.00  0.00     0.034 A 
ATOM     23  C   UNL d   1      -5.466   2.255   2.330  0.00  0.00     0.025 A 
ATOM     24 CL   UNL d   1      -7.796   1.302   1.364  0.00  0.00    -0.084 Cl
ATOM     25  C   UNL d   1      -4.074   2.341   2.367  0.00  0.00     0.018 A 
ENDBRANCH   3  19
TORSDOF 4
