REMARK  2 active torsions:
REMARK  status: ('A' for Active; 'I' for Inactive)
REMARK    1  A    between atoms: C_2  and  C_1 
REMARK       I    between atoms: N_8  and  C_2 
REMARK    2  A    between atoms: S_7  and  C_3 
ROOT
ATOM      1  C   UNL d   1       0.819   1.234   0.039  0.00  0.00     0.065 A 
ATOM      2  C   UNL d   1      -0.581   1.194  -0.011  0.00  0.00     0.085 A 
ATOM      3  N   UNL d   1      -1.260   0.011  -0.057  0.00  0.00    -0.360 N 
ATOM      4  HN  UNL d   1      -2.278  -0.001  -0.107  1.00  0.00     0.166 HD
ATOM      5  C   UNL d   1       1.512   0.010   0.064  0.00  0.00     0.021 A 
ATOM      6  C   UNL d   1      -0.560  -1.138  -0.034  0.00  0.00     0.089 A 
ATOM      7  C   UNL d   1       0.817  -1.192   0.022  0.00  0.00     0.018 A 
ENDROOT
BRANCH   1   8
ATOM      8  C   UNL d   1       1.605   2.493   0.116  0.00  0.00     0.252 C 
ATOM      9  O   UNL d   1       1.226   3.492   0.712  0.00  0.00    -0.268 OA
ATOM     10  N   UNL d   1       2.837   2.496  -0.488  0.00  0.00    -0.366 N 
ATOM     11  H   UNL d   1       3.171   1.765  -1.097  0.00  0.00     0.159 HD
ATOM     12  H   UNL d   1       3.350   3.368  -0.463  0.00  0.00     0.159 HD
ENDBRANCH   1   8
BRANCH   2  13
ATOM     13  S   UNL d   1      -1.619   2.651  -0.095  0.00  0.00    -0.116 SA
ATOM     14  C   UNL d   1      -3.272   1.908  -0.022  0.00  0.00     0.097 C 
ENDBRANCH   2  13
TORSDOF 2
