REMARK  4 active torsions:
REMARK  status: ('A' for Active; 'I' for Inactive)
REMARK    1  A    between atoms: C_2  and  S_1 
REMARK    2  A    between atoms: N_6  and  S_1 
REMARK    3  A    between atoms: C_4  and  N_6 
REMARK    4  A    between atoms: C_18  and  C_7 
ROOT
ATOM      1  S   UNL d   1       0.930  -0.002  -0.005  0.00  0.00     0.249 S 
ATOM      2  O   UNL d   1       0.082  -0.716  -0.935  0.00  0.00    -0.205 OA
ATOM      3  O   UNL d   1       2.348   0.138  -0.263  0.00  0.00    -0.205 OA
ENDROOT
BRANCH   1   4
ATOM      4  C   UNL d   1       0.751  -0.800   1.548  0.00  0.00     0.105 A 
ATOM      5  C   UNL d   1      -0.496  -0.987   2.168  0.00  0.00     0.108 A 
ATOM      6  C   UNL d   1      -0.615  -1.717   3.428  0.00  0.00     0.086 A 
ATOM      7  N   UNL d   1      -1.723  -0.585   1.808  0.00  0.00    -0.238 N 
ATOM      8  N   UNL d   1      -1.905  -1.750   3.775  0.00  0.00    -0.239 N 
ATOM      9  C   UNL d   1       0.497  -2.265   4.096  0.00  0.00     0.034 A 
ATOM     10  O   UNL d   1      -2.582  -1.063   2.783  0.00  0.00    -0.156 OA
ATOM     11  HN  UNL d   1      -2.309  -2.190   4.602  1.00  0.00     0.197 HD
ATOM     12  C   UNL d   1       1.733  -2.052   3.457  0.00  0.00     0.004 A 
ATOM     13  C   UNL d   1       1.857  -1.353   2.227  0.00  0.00     0.027 A 
ATOM     14  HN  UNL d   1      -1.973  -0.038   0.984  1.00  0.00     0.197 HD
ENDBRANCH   1   4
BRANCH   1  15
ATOM     15  N   UNL d   1       0.260   1.535   0.203  0.00  0.00    -0.159 NA
ATOM     16  H   UNL d   1      -0.739   1.430   0.389  0.00  0.00     0.148 HD
BRANCH  15  17
ATOM     17  C   UNL d   1       0.882   2.285   1.228  0.00  0.00     0.153 A 
ATOM     18  S   UNL d   1       2.363   3.127   1.094  0.00  0.00    -0.043 SA
ATOM     19  C   UNL d   1       2.073   3.710   2.681  0.00  0.00     0.073 A 
ATOM     20  N   UNL d   1       0.961   3.265   3.227  0.00  0.00    -0.296 N 
ATOM     21  N   UNL d   1       0.242   2.470   2.359  0.00  0.00    -0.283 N 
ATOM     22  HN  UNL d   1       0.666   3.483   4.179  1.00  0.00     0.187 HD
ATOM     23  HN  UNL d   1      -0.674   2.074   2.570  1.00  0.00     0.188 HD
BRANCH  19  24
ATOM     24  C   UNL d   1       3.024   4.663   3.407  0.00  0.00     0.044 A 
ATOM     25  C   UNL d   1       3.232   4.456   4.895  0.00  0.00     0.012 A 
ATOM     26  C   UNL d   1       2.447   5.631   4.425  0.00  0.00     0.012 A 
ENDBRANCH  19  24
ENDBRANCH  15  17
ENDBRANCH   1  15
TORSDOF 4
