REMARK  6 active torsions:
REMARK  status: ('A' for Active; 'I' for Inactive)
REMARK    1  A    between atoms: N_2  and  S_1 
REMARK    2  A    between atoms: C_9  and  S_1 
REMARK    3  A    between atoms: O_6  and  C_4 
REMARK    4  A    between atoms: C_8  and  O_6 
REMARK    5  A    between atoms: C_17  and  C_8 
REMARK    6  A    between atoms: C_19  and  C_20 
ROOT
ATOM      1  N   UNL d   1       0.328  -1.564   0.042  0.00  0.00    -0.271 N 
ATOM      2  C   UNL d   1       0.868  -2.647  -0.785  0.00  0.00     0.059 A 
ATOM      3  C   UNL d   1      -0.089  -4.313   0.863  0.00  0.00     0.108 C 
ATOM      4  C   UNL d   1       0.620  -3.994  -0.401  0.00  0.00     0.027 A 
ATOM      5  C   UNL d   1      -1.177  -3.610   1.250  0.00  0.00     0.059 C 
ATOM      6  C   UNL d   1      -1.157  -1.401  -0.025  0.00  0.00     0.147 C 
ATOM      7  C   UNL d   1      -1.636  -3.671   2.597  0.00  0.00     0.098 C 
ATOM      8  C   UNL d   1       1.484  -2.391  -2.018  0.00  0.00     0.055 A 
ATOM      9  N   UNL d   1      -1.968  -3.655   3.709  0.00  0.00    -0.192 NA
ATOM     10  C   UNL d   1       1.067  -5.039  -1.226  0.00  0.00     0.018 A 
ATOM     11  C   UNL d   1      -1.900  -2.702   0.282  0.00  0.00     0.074 C 
ATOM     12  C   UNL d   1       1.922  -3.446  -2.819  0.00  0.00     0.036 A 
ATOM     13  C   UNL d   1       1.721  -4.765  -2.428  0.00  0.00     0.025 A 
ATOM     14 CL   UNL d   1       2.704  -3.112  -4.315  0.00  0.00    -0.084 Cl
ENDROOT
BRANCH   3  15
ATOM     15  O   UNL d   1       0.525  -5.291   1.672  0.00  0.00    -0.273 OA
BRANCH  15  16
ATOM     16  C   UNL d   1      -0.176  -6.473   1.709  0.00  0.00     0.298 C 
ATOM     17  O   UNL d   1      -1.148  -6.756   1.019  0.00  0.00    -0.259 OA
BRANCH  16  18
ATOM     18  C   UNL d   1       0.377  -7.387   2.745  0.00  0.00     0.040 A 
ATOM     19  C   UNL d   1      -0.317  -8.565   3.044  0.00  0.00     0.018 A 
ATOM     20  C   UNL d   1       0.105  -9.390   4.096  0.00  0.00     0.009 A 
ATOM     21  C   UNL d   1       1.222  -9.056   4.885  0.00  0.00    -0.051 A 
ATOM     22  C   UNL d   1       1.954  -7.918   4.511  0.00  0.00     0.009 A 
ATOM     23  C   UNL d   1       1.538  -7.089   3.459  0.00  0.00     0.018 A 
BRANCH  21  24
ATOM     24  C   UNL d   1       1.556  -9.873   6.149  0.00  0.00    -0.024 C 
ATOM     25  C   UNL d   1       2.744  -9.302   6.958  0.00  0.00     0.019 C 
ATOM     26  C   UNL d   1       0.329  -9.864   7.090  0.00  0.00     0.019 C 
ATOM     27  C   UNL d   1       1.903 -11.332   5.791  0.00  0.00     0.019 C 
ENDBRANCH  21  24
ENDBRANCH  16  18
ENDBRANCH  15  16
ENDBRANCH   3  15
BRANCH   1  28
ATOM     28  S   UNL d   1       1.215  -0.092   0.061  0.00  0.00     0.265 S 
ATOM     29  O   UNL d   1       0.866   0.639  -1.140  0.00  0.00    -0.200 OA
ATOM     30  O   UNL d   1       2.595  -0.377   0.398  0.00  0.00    -0.200 OA
BRANCH  28  31
ATOM     31  C   UNL d   1       0.510   0.793   1.438  0.00  0.00     0.080 A 
ATOM     32  C   UNL d   1       0.552   0.225   2.715  0.00  0.00     0.027 A 
ATOM     33  C   UNL d   1      -0.086   0.874   3.774  0.00  0.00     0.025 A 
ATOM     34  C   UNL d   1      -0.749   2.083   3.552  0.00  0.00     0.034 A 
ATOM     35  C   UNL d   1      -0.771   2.659   2.281  0.00  0.00     0.025 A 
ATOM     36 CL   UNL d   1      -1.560   2.867   4.851  0.00  0.00    -0.084 Cl
ATOM     37  C   UNL d   1      -0.137   2.014   1.218  0.00  0.00     0.027 A 
ENDBRANCH  28  31
ENDBRANCH   1  28
TORSDOF 6
