REMARK  4 active torsions:
REMARK  status: ('A' for Active; 'I' for Inactive)
REMARK    1  A    between atoms: C_7  and  C_1 
REMARK    2  A    between atoms: C_8  and  C_3 
REMARK       I    between atoms: N_10  and  C_7 
REMARK       I    between atoms: C_9  and  N_12 
REMARK       I    between atoms: N_13  and  C_9 
REMARK    3  A    between atoms: N_12  and  N_10 
REMARK    4  A    between atoms: C_19  and  N_13 
ROOT
ATOM      1  C   UNL d   1      -0.228  -2.509   0.278  0.00  0.00     0.279 C 
ATOM      2  N   UNL d   1       0.880  -3.203   0.725  0.00  0.00    -0.261 N 
ATOM      3  O   UNL d   1      -1.269  -3.112   0.003  0.00  0.00    -0.265 OA
ATOM      4  H   UNL d   1       1.747  -2.748   1.009  0.00  0.00     0.190 HD
ENDROOT
BRANCH   1   5
ATOM      5  C   UNL d   1      -0.086  -1.067   0.170  0.00  0.00     0.098 A 
ATOM      6  S   UNL d   1       1.421  -0.267   0.365  0.00  0.00    -0.064 SA
ATOM      7  C   UNL d   1       0.667   1.250   0.079  0.00  0.00     0.092 A 
ATOM      8  N   UNL d   1      -0.633   1.190  -0.118  0.00  0.00    -0.352 N 
ATOM      9  C   UNL d   1      -1.070  -0.128  -0.099  0.00  0.00     0.029 A 
ATOM     10  HN  UNL d   1      -1.236   1.999  -0.265  1.00  0.00     0.166 HD
ATOM     11  C   UNL d   1      -2.513  -0.390  -0.353  0.00  0.00     0.070 C 
BRANCH   7  12
ATOM     12  C   UNL d   1       1.369   2.512   0.085  0.00  0.00     0.038 A 
ATOM     13  S   UNL d   1       3.029   2.668  -0.329  0.00  0.00    -0.099 SA
ATOM     14  C   UNL d   1       3.003   4.363  -0.108  0.00  0.00     0.050 A 
ATOM     15  C   UNL d   1       1.763   4.814   0.279  0.00  0.00     0.008 A 
ATOM     16  C   UNL d   1       0.820   3.749   0.378  0.00  0.00     0.022 A 
ENDBRANCH   7  12
ENDBRANCH   1   5
BRANCH   2  17
ATOM     17  N   UNL d   1       0.774  -4.580   1.000  0.00  0.00    -0.248 N 
ATOM     18  C   UNL d   1       1.941  -5.233   1.370  0.00  0.00     0.339 C 
ATOM     19  N   UNL d   1       1.735  -6.584   1.554  0.00  0.00    -0.308 N 
ATOM     20  O   UNL d   1       2.986  -4.611   1.531  0.00  0.00    -0.245 OA
ATOM     21  H   UNL d   1       0.777  -6.896   1.499  0.00  0.00     0.170 HD
ATOM     22  H   UNL d   1       0.065  -5.068   0.460  0.00  0.00     0.192 HD
BRANCH  19  23
ATOM     23  C   UNL d   1       2.696  -7.561   1.892  0.00  0.00     0.036 A 
ATOM     24  C   UNL d   1       4.058  -7.291   2.044  0.00  0.00     0.029 A 
ATOM     25  C   UNL d   1       4.957  -8.319   2.347  0.00  0.00     0.002 A 
ATOM     26  C   UNL d   1       4.504  -9.626   2.502  0.00  0.00     0.000 A 
ATOM     27  C   UNL d   1       3.147  -9.905   2.367  0.00  0.00     0.002 A 
ATOM     28  C   UNL d   1       2.247  -8.877   2.066  0.00  0.00     0.029 A 
ENDBRANCH  19  23
ENDBRANCH   2  17
TORSDOF 4
