REMARK  7 active torsions:
REMARK  status: ('A' for Active; 'I' for Inactive)
REMARK    1  A    between atoms: C_14  and  N_2 
REMARK       I    between atoms: C_3  and  N_8 
REMARK       I    between atoms: N_5  and  C_3 
REMARK    2  A    between atoms: C_9  and  N_5 
REMARK    3  A    between atoms: N_8  and  C_16 
REMARK    4  A    between atoms: O_10  and  C_11 
REMARK    5  A    between atoms: C_13  and  O_10 
REMARK    6  A    between atoms: C_21  and  C_13 
REMARK    7  A    between atoms: C_16  and  C_14 
ROOT
ATOM      1  C   UNL d   1      -4.033  -3.850  -2.216  0.00  0.00     0.320 C 
ATOM      2  N   UNL d   1      -4.526  -2.972  -1.273  0.00  0.00    -0.309 N 
ATOM      3  O   UNL d   1      -3.372  -3.569  -3.203  0.00  0.00    -0.247 OA
ATOM      4  N   UNL d   1      -4.403  -5.145  -1.924  0.00  0.00    -0.341 N 
ATOM      5  H   UNL d   1      -5.213  -3.360  -0.646  0.00  0.00     0.170 HD
ATOM      6  H   UNL d   1      -4.513  -5.385  -0.949  0.00  0.00     0.164 HD
ENDROOT
BRANCH   2   7
ATOM      7  C   UNL d   1      -4.285  -1.586  -1.180  0.00  0.00     0.036 A 
ATOM      8  C   UNL d   1      -3.391  -0.895  -1.996  0.00  0.00     0.032 A 
ATOM      9  C   UNL d   1      -3.170   0.475  -1.807  0.00  0.00     0.039 A 
ATOM     10  C   UNL d   1      -3.844   1.177  -0.808  0.00  0.00     0.069 A 
ATOM     11  C   UNL d   1      -4.743   0.494   0.009  0.00  0.00     0.039 A 
ATOM     12  C   UNL d   1      -4.964  -0.877  -0.181  0.00  0.00     0.032 A 
BRANCH  10  13
ATOM     13  O   UNL d   1      -3.529   2.505  -0.726  0.00  0.00    -0.347 OA
BRANCH  13  14
ATOM     14  C   UNL d   1      -4.389   3.321   0.069  0.00  0.00     0.214 C 
BRANCH  14  15
ATOM     15  C   UNL d   1      -4.120   4.778  -0.229  0.00  0.00    -0.034 A 
ATOM     16  C   UNL d   1      -4.078   5.234  -1.555  0.00  0.00     0.009 A 
ATOM     17  C   UNL d   1      -3.900   6.590  -1.836  0.00  0.00     0.001 A 
ATOM     18  C   UNL d   1      -3.768   7.505  -0.793  0.00  0.00     0.000 A 
ATOM     19  C   UNL d   1      -3.805   7.064   0.528  0.00  0.00     0.001 A 
ATOM     20  C   UNL d   1      -3.983   5.708   0.811  0.00  0.00     0.009 A 
ENDBRANCH  14  15
ENDBRANCH  13  14
ENDBRANCH  10  13
ENDBRANCH   2   7
BRANCH   4  21
ATOM     21  C   UNL d   1      -4.005  -6.245  -2.795  0.00  0.00     0.144 C 
BRANCH  21  22
ATOM     22  C   UNL d   1      -2.504  -6.575  -2.735  0.00  0.00     0.147 C 
BRANCH  22  23
ATOM     23  N   UNL d   1      -2.031  -6.887  -1.395  0.00  0.00    -0.331 N 
ATOM     24  C   UNL d   1      -2.503  -7.959  -0.637  0.00  0.00     0.318 C 
ATOM     25  N   UNL d   1      -1.646  -8.111   0.445  0.00  0.00    -0.341 N 
ATOM     26  O   UNL d   1      -3.486  -8.645  -0.849  0.00  0.00    -0.247 OA
ATOM     27  C   UNL d   1      -0.689  -7.039   0.482  0.00  0.00     0.144 C 
ATOM     28  H   UNL d   1      -1.895  -8.727   1.206  0.00  0.00     0.164 HD
ATOM     29  C   UNL d   1      -0.698  -6.536  -0.954  0.00  0.00     0.147 C 
ENDBRANCH  22  23
ENDBRANCH  21  22
ENDBRANCH   4  21
TORSDOF 7
