REMARK  3 active torsions:
REMARK  status: ('A' for Active; 'I' for Inactive)
REMARK    1  A    between atoms: C_6  and  C_1 
REMARK    2  A    between atoms: C_2  and  C_7 
REMARK       I    between atoms: N_3  and  C_2 
REMARK    3  A    between atoms: C_5  and  N_3 
ROOT
ATOM      1  C   UNL d   1      -0.565   0.322   4.761  0.00  0.00     0.256 C 
ATOM      2  N   UNL d   1      -0.315   1.028   5.925  0.00  0.00    -0.322 N 
ATOM      3  O   UNL d   1      -0.854   0.817   3.673  0.00  0.00    -0.267 OA
ATOM      4  H   UNL d   1       0.198   0.562   6.660  0.00  0.00     0.169 HD
ENDROOT
BRANCH   1   5
ATOM      5  C   UNL d   1      -0.404  -1.157   4.817  0.00  0.00     0.033 A 
ATOM      6  C   UNL d   1      -0.157  -1.831   3.609  0.00  0.00     0.033 A 
ATOM      7  C   UNL d   1      -0.073  -3.231   3.564  0.00  0.00     0.048 A 
ATOM      8  C   UNL d   1      -0.218  -3.951   4.759  0.00  0.00     0.016 A 
ATOM      9  C   UNL d   1      -0.457  -3.288   5.965  0.00  0.00     0.002 A 
ATOM     10  C   UNL d   1      -0.557  -1.894   5.995  0.00  0.00     0.017 A 
BRANCH   7  11
ATOM     11  C   UNL d   1       0.147  -3.952   2.258  0.00  0.00     0.417 C 
ATOM     12  F   UNL d   1       0.197  -3.127   1.175  0.00  0.00    -0.166 F 
ATOM     13  F   UNL d   1      -0.839  -4.855   1.992  0.00  0.00    -0.166 F 
ATOM     14  F   UNL d   1       1.311  -4.656   2.244  0.00  0.00    -0.166 F 
ENDBRANCH   7  11
ENDBRANCH   1   5
BRANCH   2  15
ATOM     15  C   UNL d   1      -0.402   2.438   6.032  0.00  0.00     0.047 A 
ATOM     16  C   UNL d   1       0.394   3.114   6.989  0.00  0.00     0.019 A 
ATOM     17  C   UNL d   1       0.387   4.511   7.005  0.00  0.00     0.044 A 
ATOM     18  C   UNL d   1       1.321   2.703   7.996  0.00  0.00     0.033 A 
ATOM     19  N   UNL d   1       1.299   4.918   7.952  0.00  0.00    -0.365 N 
ATOM     20  C   UNL d   1      -0.416   5.280   6.152  0.00  0.00     0.030 A 
ATOM     21  C   UNL d   1       1.865   3.833   8.562  0.00  0.00     0.089 A 
ATOM     22  H   UNL d   1       1.527   5.884   8.146  0.00  0.00     0.165 HD
ATOM     23  C   UNL d   1      -1.244   4.596   5.262  0.00  0.00     0.005 A 
ATOM     24  C   UNL d   1      -1.236   3.204   5.201  0.00  0.00     0.030 A 
ENDBRANCH   2  15
TORSDOF 3
