REMARK  4 active torsions:
REMARK  status: ('A' for Active; 'I' for Inactive)
REMARK    1  A    between atoms: C_7  and  C_1 
REMARK    2  A    between atoms: N_4  and  C_2 
REMARK       I    between atoms: C_6  and  N_4 
REMARK    3  A    between atoms: C_9  and  C_6 
REMARK    4  A    between atoms: O_14  and  C_7 
ROOT
ATOM      1  C   UNL d   1      -0.852   1.334   0.228  0.00  0.00     0.107 A 
ATOM      2  C   UNL d   1       0.539   1.264   0.252  0.00  0.00     0.064 A 
ATOM      3  S   UNL d   1      -1.558  -0.223   0.214  0.00  0.00    -0.093 SA
ATOM      4  C   UNL d   1       1.009  -0.090   0.402  0.00  0.00    -0.027 A 
ATOM      5  C   UNL d   1      -0.042  -0.986   0.337  0.00  0.00     0.059 A 
ATOM      6  C   UNL d   1       2.421  -0.526   0.644  0.00  0.00     0.051 C 
ENDROOT
BRANCH   2   7
ATOM      7  N   UNL d   1       1.305   2.432   0.186  0.00  0.00    -0.323 N 
ATOM      8  C   UNL d   1       2.475   2.550  -0.547  0.00  0.00     0.255 C 
ATOM      9  O   UNL d   1       2.982   1.629  -1.193  0.00  0.00    -0.270 OA
ATOM     10  H   UNL d   1       0.796   3.305   0.340  0.00  0.00     0.169 HD
BRANCH   8  11
ATOM     11  C   UNL d   1       3.106   3.948  -0.572  0.00  0.00     0.270 C 
ATOM     12 CL   UNL d   1       2.120   5.179   0.252  0.00  0.00    -0.098 Cl
ATOM     13 CL   UNL d   1       4.713   3.862   0.179  0.00  0.00    -0.098 Cl
ENDBRANCH   8  11
ENDBRANCH   2   7
BRANCH   1  14
ATOM     14  C   UNL d   1      -1.649   2.547   0.152  0.00  0.00     0.302 C 
ATOM     15  O   UNL d   1      -1.169   3.677   0.148  0.00  0.00    -0.259 OA
BRANCH  14  16
ATOM     16  O   UNL d   1      -2.989   2.289   0.083  0.00  0.00    -0.322 OA
ATOM     17  C   UNL d   1      -3.801   3.459   0.002  0.00  0.00     0.213 C 
ENDBRANCH  14  16
ENDBRANCH   1  14
TORSDOF 4
