REMARK  3 active torsions:
REMARK  status: ('A' for Active; 'I' for Inactive)
REMARK    1  A    between atoms: C_4  and  C_1 
REMARK    2  A    between atoms: C_10  and  C_4 
REMARK    3  A    between atoms: O_16  and  N_11 
ROOT
ATOM      1  C   UNL d   1       2.077  -0.380  -2.023  0.00  0.00     0.065 C 
ATOM      2  C   UNL d   1       2.439  -1.656  -2.571  0.00  0.00     0.101 C 
ATOM      3  N   UNL d   1       2.716  -2.701  -2.993  0.00  0.00    -0.191 NA
ENDROOT
BRANCH   1   4
ATOM      4  C   UNL d   1       1.050  -0.242  -1.141  0.00  0.00    -0.013 C 
ATOM      5  C   UNL d   1       0.244  -1.392  -0.710  0.00  0.00     0.039 C 
ATOM      6  C   UNL d   1      -0.946  -1.221  -0.115  0.00  0.00     0.063 C 
ATOM      7 CL   UNL d   1      -1.912  -2.580   0.324  0.00  0.00    -0.082 Cl
ATOM      8  C   UNL d   1      -1.477   0.155   0.171  0.00  0.00     0.075 C 
ATOM      9  C   UNL d   1      -0.458   1.251   0.077  0.00  0.00     0.034 C 
ATOM     10  N   UNL d   1      -2.728   0.332   0.481  0.00  0.00    -0.268 N 
ATOM     11  C   UNL d   1       0.717   1.051  -0.539  0.00  0.00     0.015 C 
ATOM     12  HN  UNL d   1      -3.402  -0.428   0.574  1.00  0.00     0.194 HD
BRANCH  10  13
ATOM     13  O   UNL d   1      -3.047   1.682   0.673  0.00  0.00    -0.289 OA
ATOM     14  H   UNL d   1      -4.013   1.647   0.810  0.00  0.00     0.244 HD
ENDBRANCH  10  13
ENDBRANCH   1   4
BRANCH   1  15
ATOM     15  C   UNL d   1       2.838   0.776  -2.550  0.00  0.00    -0.015 A 
ATOM     16  C   UNL d   1       4.062   1.149  -1.984  0.00  0.00     0.013 A 
ATOM     17  C   UNL d   1       4.794   2.210  -2.526  0.00  0.00     0.007 A 
ATOM     18  C   UNL d   1       4.318   2.910  -3.641  0.00  0.00    -0.062 A 
ATOM     19  C   UNL d   1       3.092   2.541  -4.201  0.00  0.00     0.007 A 
ATOM     20  C   UNL d   1       5.142   4.010  -4.245  0.00  0.00     0.048 C 
ATOM     21  C   UNL d   1       2.353   1.483  -3.661  0.00  0.00     0.013 A 
ENDBRANCH   1  15
TORSDOF 3
