REMARK  4 active torsions:
REMARK  status: ('A' for Active; 'I' for Inactive)
REMARK       I    between atoms: C_2  and  N_7 
REMARK    1  A    between atoms: O_12  and  C_2 
REMARK       I    between atoms: C_3  and  N_6 
REMARK    2  A    between atoms: O_11  and  C_3 
REMARK    3  A    between atoms: N_7  and  C_4 
REMARK    4  A    between atoms: N_6  and  C_5 
ROOT
ATOM      1  C   UNL d   1       1.060  -0.013  -0.204  0.00  0.00     0.169 A 
ATOM      2  C   UNL d   1       0.374  -1.230  -0.075  0.00  0.00     0.077 A 
ATOM      3  C   UNL d   1       0.407   1.217  -0.070  0.00  0.00     0.077 A 
ATOM      4  F   UNL d   1       2.320  -0.034  -0.670  0.00  0.00    -0.201 F 
ATOM      5  C   UNL d   1      -0.985   1.223   0.053  0.00  0.00     0.033 A 
ATOM      6  C   UNL d   1      -1.015  -1.209   0.044  0.00  0.00     0.033 A 
ATOM      7  C   UNL d   1      -1.692   0.015   0.102  0.00  0.00     0.005 A 
ENDROOT
BRANCH   2   8
ATOM      8  N   UNL d   1       1.045  -2.471  -0.109  0.00  0.00    -0.300 N 
ATOM      9  C   UNL d   1       2.355  -2.651   0.258  0.00  0.00     0.364 C 
ATOM     10  O   UNL d   1       3.070  -1.865   0.859  0.00  0.00    -0.238 OA
ATOM     11  H   UNL d   1       0.527  -3.320  -0.287  0.00  0.00     0.171 HD
BRANCH   9  12
ATOM     12  O   UNL d   1       2.759  -3.900  -0.107  0.00  0.00    -0.309 OA
ATOM     13  C   UNL d   1       4.158  -4.099   0.112  0.00  0.00     0.215 C 
ENDBRANCH   9  12
ENDBRANCH   2   8
BRANCH   3  14
ATOM     14  N   UNL d   1       1.091   2.451  -0.083  0.00  0.00    -0.300 N 
ATOM     15  C   UNL d   1       2.412   2.625   0.248  0.00  0.00     0.364 C 
ATOM     16  O   UNL d   1       3.180   1.800   0.715  0.00  0.00    -0.238 OA
ATOM     17  H   UNL d   1       0.572   3.309  -0.190  0.00  0.00     0.171 HD
BRANCH  15  18
ATOM     18  O   UNL d   1       2.756   3.925   0.035  0.00  0.00    -0.309 OA
ATOM     19  C   UNL d   1       4.139   4.178   0.303  0.00  0.00     0.215 C 
ENDBRANCH  15  18
ENDBRANCH   3  14
TORSDOF 4
