REMARK  2 active torsions:
REMARK  status: ('A' for Active; 'I' for Inactive)
REMARK    1  A    between atoms: C_8  and  N_1 
REMARK    2  A    between atoms: C_2  and  C_11 
ROOT
ATOM      1  C   UNL d   1       0.037  -2.328  -0.217  0.00  0.00     0.046 A 
ATOM      2  C   UNL d   1      -0.499  -4.272  -1.596  0.00  0.00    -0.004 A 
ATOM      3  C   UNL d   1      -0.626  -2.901  -1.313  0.00  0.00     0.044 A 
ATOM      4  C   UNL d   1       0.783  -3.148   0.637  0.00  0.00     0.030 A 
ATOM      5  C   UNL d   1       0.254  -5.071  -0.726  0.00  0.00     0.014 A 
ATOM      6  C   UNL d   1       0.872  -4.517   0.397  0.00  0.00     0.003 A 
ENDROOT
BRANCH   1   7
ATOM      7  N   UNL d   1       0.007  -0.911  -0.018  0.00  0.00    -0.252 N 
ATOM      8  C   UNL d   1      -1.246  -0.301   0.136  0.00  0.00     0.231 C 
ATOM      9  O   UNL d   1      -2.329  -0.893   0.125  0.00  0.00    -0.273 OA
ATOM     10  C   UNL d   1      -1.217   1.173   0.454  0.00  0.00     0.104 C 
ATOM     11  C   UNL d   1      -0.135   1.853  -0.348  0.00  0.00     0.019 C 
ATOM     12  C   UNL d   1       1.199   1.272   0.061  0.00  0.00     0.104 C 
ATOM     13  C   UNL d   1       1.241  -0.239  -0.018  0.00  0.00     0.231 C 
ATOM     14  O   UNL d   1       2.344  -0.789  -0.062  0.00  0.00    -0.273 OA
ENDBRANCH   1   7
BRANCH   2  15
ATOM     15  C   UNL d   1      -1.055  -4.813  -2.841  0.00  0.00     0.077 A 
ATOM     16  C   UNL d   1      -1.631  -6.079  -3.131  0.00  0.00     0.057 A 
ATOM     17  C   UNL d   1      -1.914  -6.082  -4.473  0.00  0.00     0.131 A 
ATOM     18 BR   UNL d   1      -1.984  -7.495  -1.956  0.00  0.00    -0.047 Br
ATOM     19  N   UNL d   1      -1.539  -4.854  -4.919  0.00  0.00    -0.306 N 
ATOM     20  N   UNL d   1      -1.030  -4.062  -3.962  0.00  0.00    -0.297 N 
ATOM     21  C   UNL d   1      -1.638  -4.373  -6.276  0.00  0.00     0.177 C 
ATOM     22  HN  UNL d   1      -0.698  -3.103  -4.060  1.00  0.00     0.187 HD
ENDBRANCH   2  15
TORSDOF 2
