REMARK  3 active torsions:
REMARK  status: ('A' for Active; 'I' for Inactive)
REMARK    1  A    between atoms: N_5  and  C_1 
REMARK    2  A    between atoms: C_8  and  N_5 
REMARK    3  A    between atoms: O_15  and  C_12 
ROOT
ATOM      1  C   UNL d   1      -1.126  -1.416  -0.424  0.00  0.00     0.090 A 
ATOM      2  C   UNL d   1      -1.576  -0.150  -0.389  0.00  0.00     0.110 A 
ATOM      3  C   UNL d   1       0.352  -1.659  -0.348  0.00  0.00     0.206 A 
ATOM      4  C   UNL d   1      -0.677   1.032  -0.282  0.00  0.00     0.206 A 
ATOM      5  C   UNL d   1       1.268  -0.513  -0.247  0.00  0.00     0.030 A 
ATOM      6  C   UNL d   1       0.772   0.783  -0.195  0.00  0.00     0.030 A 
ATOM      7  O   UNL d   1       0.785  -2.809  -0.372  0.00  0.00    -0.285 OA
ATOM      8  O   UNL d   1      -1.094   2.184  -0.262  0.00  0.00    -0.286 OA
ATOM      9 CL   UNL d   1      -3.272   0.213  -0.415  0.00  0.00    -0.078 Cl
ATOM     10  C   UNL d   1       2.650  -0.737  -0.187  0.00  0.00     0.016 A 
ATOM     11  C   UNL d   1       1.654   1.862  -0.054  0.00  0.00     0.016 A 
ATOM     12  C   UNL d   1       3.529   0.340  -0.053  0.00  0.00     0.001 A 
ATOM     13  C   UNL d   1       3.031   1.640   0.021  0.00  0.00     0.001 A 
ENDROOT
BRANCH   1  14
ATOM     14  N   UNL d   1      -1.903  -2.587  -0.479  0.00  0.00    -0.253 NA
ATOM     15  H   UNL d   1      -1.300  -3.377  -0.205  0.00  0.00     0.134 HD
BRANCH  14  16
ATOM     16  C   UNL d   1      -2.505  -3.036  -1.702  0.00  0.00     0.046 A 
ATOM     17  C   UNL d   1      -3.633  -3.882  -1.683  0.00  0.00     0.089 A 
ATOM     18  C   UNL d   1      -4.087  -4.479  -2.868  0.00  0.00     0.038 A 
ATOM     19  C   UNL d   1      -3.429  -4.257  -4.075  0.00  0.00     0.003 A 
ATOM     20  C   UNL d   1      -2.299  -3.448  -4.104  0.00  0.00     0.002 A 
ATOM     21  C   UNL d   1      -1.839  -2.849  -2.929  0.00  0.00     0.026 A 
BRANCH  17  22
ATOM     22  O   UNL d   1      -4.326  -4.275  -0.566  0.00  0.00    -0.354 OA
ATOM     23  C   UNL d   1      -4.628  -3.237   0.360  0.00  0.00     0.210 C 
ENDBRANCH  17  22
ENDBRANCH  14  16
ENDBRANCH   1  14
TORSDOF 3
