REMARK  4 active torsions:
REMARK  status: ('A' for Active; 'I' for Inactive)
REMARK       I    between atoms: N_2  and  C_1 
REMARK    1  A    between atoms: C_3  and  C_1 
REMARK       I    between atoms: C_4  and  N_2 
REMARK       I    between atoms: N_6  and  C_4 
REMARK    2  A    between atoms: C_5  and  N_6 
REMARK    3  A    between atoms: O_19  and  C_8 
REMARK    4  A    between atoms: O_18  and  C_9 
ROOT
ATOM      1  C   UNL d   1       0.872  -0.015   0.028  0.00  0.00     0.265 C 
ATOM      2  N   UNL d   1       2.217  -0.062  -0.305  0.00  0.00    -0.275 N 
ATOM      3  C   UNL d   1       3.293   0.569   0.263  0.00  0.00     0.327 C 
ATOM      4  N   UNL d   1       3.018   1.631   1.084  0.00  0.00    -0.309 N 
ATOM      5  O   UNL d   1       0.378   0.799   0.793  0.00  0.00    -0.267 OA
ATOM      6  O   UNL d   1       4.406   0.111   0.010  0.00  0.00    -0.247 OA
ATOM      7  H   UNL d   1       2.527  -0.853  -0.855  0.00  0.00     0.173 HD
ATOM      8  H   UNL d   1       2.034   1.752   1.318  0.00  0.00     0.170 HD
ENDROOT
BRANCH   1   9
ATOM      9  C   UNL d   1       0.078  -1.078  -0.653  0.00  0.00     0.099 A 
ATOM     10  C   UNL d   1       0.502  -2.419  -0.581  0.00  0.00     0.086 A 
ATOM     11  C   UNL d   1      -0.089  -3.389  -1.391  0.00  0.00     0.038 A 
ATOM     12  C   UNL d   1      -1.123  -3.038  -2.252  0.00  0.00     0.005 A 
ATOM     13  C   UNL d   1      -1.579  -1.718  -2.297  0.00  0.00     0.038 A 
ATOM     14  C   UNL d   1      -0.998  -0.729  -1.490  0.00  0.00     0.086 A 
BRANCH  10  15
ATOM     15  O   UNL d   1       1.586  -2.838   0.150  0.00  0.00    -0.355 OA
ATOM     16  C   UNL d   1       1.375  -2.741   1.561  0.00  0.00     0.210 C 
ENDBRANCH  10  15
BRANCH  14  17
ATOM     17  O   UNL d   1      -1.370   0.589  -1.532  0.00  0.00    -0.355 OA
ATOM     18  C   UNL d   1      -2.647   0.879  -2.093  0.00  0.00     0.210 C 
ENDBRANCH  14  17
ENDBRANCH   1   9
BRANCH   4  19
ATOM     19  C   UNL d   1       3.973   2.451   1.726  0.00  0.00     0.039 A 
ATOM     20  C   UNL d   1       5.333   2.441   1.395  0.00  0.00     0.053 A 
ATOM     21  C   UNL d   1       6.240   3.247   2.085  0.00  0.00     0.037 A 
ATOM     22 CL   UNL d   1       7.909   3.205   1.666  0.00  0.00    -0.084 Cl
ATOM     23  C   UNL d   1       5.808   4.080   3.109  0.00  0.00     0.048 A 
ATOM     24  C   UNL d   1       4.452   4.113   3.424  0.00  0.00     0.037 A 
ATOM     25  C   UNL d   1       3.533   3.314   2.734  0.00  0.00     0.053 A 
ATOM     26 CL   UNL d   1       3.906   5.146   4.687  0.00  0.00    -0.084 Cl
ENDBRANCH   4  19
TORSDOF 4
