REMARK  8 active torsions:
REMARK  status: ('A' for Active; 'I' for Inactive)
REMARK    1  A    between atoms: C_4  and  C_1 
REMARK       I    between atoms: N_9  and  C_1 
REMARK       I    between atoms: C_2  and  N_3 
REMARK    2  A    between atoms: N_3  and  C_5 
REMARK    3  A    between atoms: C_20  and  N_9 
REMARK    4  A    between atoms: C_12  and  O_17 
REMARK    5  A    between atoms: O_18  and  C_13 
REMARK    6  A    between atoms: C_16  and  C_20 
REMARK    7  A    between atoms: C_23  and  C_16 
REMARK    8  A    between atoms: O_17  and  C_23 
ROOT
ATOM      1  C   UNL d   1       4.818  -0.249  -0.809  0.00  0.00     0.046 C 
ENDROOT
BRANCH   1   2
ATOM      2  C   UNL d   1       3.323  -0.278  -1.143  0.00  0.00     0.125 C 
BRANCH   2   3
ATOM      3  N   UNL d   1       2.894  -1.519  -1.770  0.00  0.00    -0.357 N 
ATOM      4  C   UNL d   1       2.475  -2.603  -1.028  0.00  0.00     0.251 C 
ATOM      5  O   UNL d   1       2.450  -2.611   0.194  0.00  0.00    -0.268 OA
ATOM      6  H   UNL d   1       3.061  -1.639  -2.760  0.00  0.00     0.162 HD
BRANCH   4   7
ATOM      7  C   UNL d   1       2.048  -3.811  -1.791  0.00  0.00     0.032 A 
ATOM      8  C   UNL d   1       1.486  -3.726  -3.071  0.00  0.00     0.020 A 
ATOM      9  C   UNL d   1       1.039  -4.884  -3.724  0.00  0.00     0.038 A 
ATOM     10  C   UNL d   1       1.149  -6.128  -3.101  0.00  0.00     0.068 A 
ATOM     11  C   UNL d   1       1.734  -6.215  -1.837  0.00  0.00     0.038 A 
ATOM     12  C   UNL d   1       2.170  -5.062  -1.176  0.00  0.00     0.020 A 
BRANCH  10  13
ATOM     13  O   UNL d   1       0.752  -7.317  -3.649  0.00  0.00    -0.356 OA
ATOM     14  C   UNL d   1      -0.382  -7.245  -4.507  0.00  0.00     0.210 C 
ENDBRANCH  10  13
ENDBRANCH   4   7
ENDBRANCH   2   3
ENDBRANCH   1   2
BRANCH   1  15
ATOM     15  C   UNL d   1       5.633  -0.425  -2.080  0.00  0.00     0.177 C 
BRANCH  15  16
ATOM     16  O   UNL d   1       7.043  -0.311  -1.857  0.00  0.00    -0.351 OA
BRANCH  16  17
ATOM     17  C   UNL d   1       7.798  -0.562  -2.984  0.00  0.00     0.070 A 
ATOM     18  C   UNL d   1       7.260  -0.838  -4.246  0.00  0.00     0.066 A 
ATOM     19  C   UNL d   1       8.061  -1.129  -5.347  0.00  0.00     0.037 A 
ATOM     20  C   UNL d   1       9.448  -1.098  -5.184  0.00  0.00     0.029 A 
ATOM     21  C   UNL d   1      10.005  -0.803  -3.933  0.00  0.00     0.005 A 
ATOM     22  C   UNL d   1       9.181  -0.544  -2.832  0.00  0.00     0.037 A 
BRANCH  19  23
ATOM     23  N   UNL d   1       7.521  -1.470  -6.610  0.00  0.00    -0.327 N 
ATOM     24  C   UNL d   1       6.173  -1.603  -6.930  0.00  0.00     0.218 C 
ATOM     25  O   UNL d   1       5.211  -1.417  -6.191  0.00  0.00    -0.274 OA
ATOM     26  C   UNL d   1       5.937  -2.024  -8.357  0.00  0.00     0.117 C 
ATOM     27  H   UNL d   1       8.197  -1.671  -7.337  0.00  0.00     0.169 HD
ENDBRANCH  19  23
ENDBRANCH  16  17
ENDBRANCH  15  16
ENDBRANCH   1  15
TORSDOF 8
