REMARK  1 active torsions:
REMARK  status: ('A' for Active; 'I' for Inactive)
REMARK    1  A    between atoms: C_11  and  C_7 
ROOT
ATOM      1  C   UNL d   1       2.867  -1.053   0.557  0.00  0.00     0.101 A 
ATOM      2  N   UNL d   1       2.231  -3.355   0.888  0.00  0.00    -0.275 N 
ATOM      3  N   UNL d   1       4.298  -2.647   1.651  0.00  0.00    -0.275 N 
ATOM      4  C   UNL d   1       1.868  -2.140   0.383  0.00  0.00     0.265 A 
ATOM      5  C   UNL d   1       4.131  -1.342   1.279  0.00  0.00     0.265 A 
ATOM      6  C   UNL d   1       3.398  -3.655   1.517  0.00  0.00     0.329 A 
ATOM      7  C   UNL d   1       2.551   0.145   0.030  0.00  0.00     0.034 C 
ATOM      8  O   UNL d   1       4.986  -0.511   1.561  0.00  0.00    -0.267 OA
ATOM      9  O   UNL d   1       0.784  -1.986  -0.173  0.00  0.00    -0.267 OA
ATOM     10  O   UNL d   1       3.622  -4.781   1.952  0.00  0.00    -0.246 OA
ATOM     11  H   UNL d   1       1.565  -4.107   0.787  0.00  0.00     0.173 HD
ATOM     12  H   UNL d   1       5.150  -2.863   2.149  0.00  0.00     0.173 HD
ENDROOT
BRANCH   7  13
ATOM     13  C   UNL d   1       3.371   1.358   0.038  0.00  0.00    -0.035 A 
ATOM     14  C   UNL d   1       4.263   1.611  -1.008  0.00  0.00     0.012 A 
ATOM     15  C   UNL d   1       4.987   2.805  -1.040  0.00  0.00     0.007 A 
ATOM     16  C   UNL d   1       4.822   3.762  -0.031  0.00  0.00    -0.062 A 
ATOM     17  C   UNL d   1       3.949   3.491   1.028  0.00  0.00     0.007 A 
ATOM     18  C   UNL d   1       5.561   5.065  -0.102  0.00  0.00     0.048 C 
ATOM     19  C   UNL d   1       3.229   2.294   1.066  0.00  0.00     0.012 A 
ENDBRANCH   7  13
TORSDOF 1
