REMARK  3 active torsions:
REMARK  status: ('A' for Active; 'I' for Inactive)
REMARK    1  A    between atoms: N_2  and  S_1 
REMARK    2  A    between atoms: C_4  and  S_1 
REMARK       I    between atoms: C_5  and  N_2 
REMARK       I    between atoms: N_7  and  C_5 
REMARK    3  A    between atoms: C_14  and  N_7 
ROOT
ATOM      1  N   UNL d   1       1.015  -0.699  -1.317  0.00  0.00    -0.265 N 
ATOM      2  HN  UNL d   1       1.319  -0.298  -0.429  1.00  0.00     0.180 HD
ATOM      3  C   UNL d   1       0.862   0.121  -2.423  0.00  0.00     0.332 C 
ATOM      4  N   UNL d   1       1.343   1.407  -2.418  0.00  0.00    -0.308 N 
ATOM      5  O   UNL d   1       0.209  -0.215  -3.409  0.00  0.00    -0.246 OA
ATOM      6  H   UNL d   1       1.051   1.895  -3.252  0.00  0.00     0.170 HD
ENDROOT
BRANCH   1   7
ATOM      7  S   UNL d   1       0.734  -2.199  -1.410  0.00  0.00     0.057 S 
ATOM      8  O   UNL d   1       1.298  -3.143  -2.352  0.00  0.00    -0.245 OA
ATOM      9  C   UNL d   1      -1.005  -2.504  -1.244  0.00  0.00     0.142 C 
BRANCH   7  10
ATOM     10  C   UNL d   1       1.351  -2.730   0.133  0.00  0.00     0.045 A 
ATOM     11  C   UNL d   1       1.348  -1.951   1.333  0.00  0.00     0.029 A 
ATOM     12  C   UNL d   1       1.868  -2.647   2.402  0.00  0.00     0.051 A 
ATOM     13  S   UNL d   1       2.344  -4.233   1.968  0.00  0.00    -0.112 SA
ATOM     14  C   UNL d   1       1.867  -3.992   0.343  0.00  0.00     0.071 A 
ENDBRANCH   7  10
ENDBRANCH   1   7
BRANCH   4  15
ATOM     15  C   UNL d   1       2.005   2.156  -1.429  0.00  0.00     0.036 A 
ATOM     16  C   UNL d   1       2.577   1.618  -0.276  0.00  0.00     0.029 A 
ATOM     17  C   UNL d   1       3.150   2.449   0.692  0.00  0.00     0.002 A 
ATOM     18  C   UNL d   1       3.168   3.829   0.509  0.00  0.00     0.000 A 
ATOM     19  C   UNL d   1       2.638   4.376  -0.656  0.00  0.00     0.002 A 
ATOM     20  C   UNL d   1       2.069   3.542  -1.624  0.00  0.00     0.029 A 
ENDBRANCH   4  15
TORSDOF 3
