REMARK  0 active torsions:
REMARK  status: ('A' for Active; 'I' for Inactive)
ROOT
ATOM      1  N   UNL d   1       3.267   0.001  -0.017  0.00  0.00    -0.289 N 
ATOM      2  C   UNL d   1       2.508  -1.128  -0.020  0.00  0.00     0.259 A 
ATOM      3  C   UNL d   1       2.511   1.133   0.001  0.00  0.00     0.259 A 
ATOM      4  C   UNL d   1       1.114  -0.688  -0.004  0.00  0.00     0.049 A 
ATOM      5  C   UNL d   1       1.115   0.696   0.002  0.00  0.00     0.049 A 
ATOM      6  C   UNL d   1      -0.056  -1.421   0.002  0.00  0.00     0.043 A 
ATOM      7  C   UNL d   1      -0.053   1.431   0.006  0.00  0.00     0.043 A 
ATOM      8  C   UNL d   1      -1.257   0.716   0.007  0.00  0.00     0.056 A 
ATOM      9  C   UNL d   1      -1.259  -0.702   0.009  0.00  0.00     0.056 A 
ATOM     10  O   UNL d   1       2.877  -2.284  -0.035  0.00  0.00    -0.267 OA
ATOM     11  O   UNL d   1       2.883   2.287   0.016  0.00  0.00    -0.267 OA
ATOM     12 CL   UNL d   1      -2.723   1.632   0.000  0.00  0.00    -0.083 Cl
ATOM     13 CL   UNL d   1      -2.727  -1.616   0.018  0.00  0.00    -0.083 Cl
ATOM     14  H   UNL d   1       4.275   0.000  -0.024  0.00  0.00     0.172 HD
ENDROOT
TORSDOF 0
