REMARK  6 active torsions:
REMARK  status: ('A' for Active; 'I' for Inactive)
REMARK    1  A    between atoms: C_7  and  C_1 
REMARK    2  A    between atoms: O_16  and  C_7 
REMARK    3  A    between atoms: C_12  and  C_18 
REMARK    4  A    between atoms: O_17  and  C_13 
REMARK    5  A    between atoms: C_19  and  O_16 
REMARK    6  A    between atoms: C_18  and  O_17 
ROOT
ATOM      1  C   UNL d   1      -1.863  -1.568  -0.046  0.00  0.00     0.154 A 
ATOM      2  C   UNL d   1      -2.347  -0.319  -0.060  0.00  0.00     0.099 A 
ATOM      3  C   UNL d   1       0.394  -0.867  -0.023  0.00  0.00     0.093 A 
ATOM      4  O   UNL d   1      -0.517  -1.887  -0.028  0.00  0.00    -0.303 OA
ATOM      5  C   UNL d   1      -1.402   0.811  -0.046  0.00  0.00     0.187 A 
ATOM      6  C   UNL d   1       0.030   0.474  -0.024  0.00  0.00     0.048 A 
ATOM      7  C   UNL d   1       1.736  -1.238  -0.035  0.00  0.00     0.075 A 
ATOM      8  C   UNL d   1       1.014   1.465  -0.015  0.00  0.00     0.021 A 
ATOM      9  O   UNL d   1      -1.801   1.968  -0.050  0.00  0.00    -0.287 OA
ATOM     10  C   UNL d   1       2.726  -0.257  -0.087  0.00  0.00     0.071 A 
ATOM     11  C   UNL d   1       2.362   1.093  -0.045  0.00  0.00     0.038 A 
ENDROOT
BRANCH   1  12
ATOM     12  C   UNL d   1      -2.831  -2.698   0.022  0.00  0.00     0.317 C 
ATOM     13  O   UNL d   1      -4.043  -2.576   0.094  0.00  0.00    -0.257 OA
BRANCH  12  14
ATOM     14  O   UNL d   1      -2.131  -3.861   0.083  0.00  0.00    -0.316 OA
BRANCH  14  15
ATOM     15  C   UNL d   1      -2.863  -5.013   0.518  0.00  0.00     0.175 C 
ATOM     16  C   UNL d   1      -2.786  -5.085   2.031  0.00  0.00     0.034 C 
ENDBRANCH  14  15
ENDBRANCH  12  14
ENDBRANCH   1  12
BRANCH  10  17
ATOM     17  O   UNL d   1       4.068  -0.511  -0.188  0.00  0.00    -0.347 OA
BRANCH  17  18
ATOM     18  C   UNL d   1       4.406  -1.798  -0.714  0.00  0.00     0.202 C 
BRANCH  18  19
ATOM     19  C   UNL d   1       5.804  -1.732  -1.248  0.00  0.00    -0.011 C 
ATOM     20  C   UNL d   1       6.125  -1.957  -2.530  0.00  0.00     0.009 C 
ENDBRANCH  18  19
ENDBRANCH  17  18
ENDBRANCH  10  17
TORSDOF 6
