REMARK  5 active torsions:
REMARK  status: ('A' for Active; 'I' for Inactive)
REMARK    1  A    between atoms: C_4  and  C_1 
REMARK    2  A    between atoms: N_7  and  C_2 
REMARK       I    between atoms: C_3  and  N_6 
REMARK    3  A    between atoms: C_9  and  C_3 
REMARK    4  A    between atoms: O_15  and  C_4 
REMARK    5  A    between atoms: N_6  and  N_7 
ROOT
ATOM      1  C   UNL d   1       0.111   1.385  -0.013  0.00  0.00     0.108 A 
ATOM      2  C   UNL d   1       1.385   0.831  -0.048  0.00  0.00     0.071 A 
ATOM      3  S   UNL d   1      -1.097   0.146   0.021  0.00  0.00    -0.094 SA
ATOM      4  C   UNL d   1       1.341  -0.602  -0.035  0.00  0.00     0.039 A 
ATOM      5  C   UNL d   1       0.060  -1.098  -0.001  0.00  0.00     0.053 A 
ENDROOT
BRANCH   2   6
ATOM      6  N   UNL d   1       2.556   1.530  -0.077  0.00  0.00    -0.297 N 
ATOM      7  H   UNL d   1       2.535   2.552  -0.209  0.00  0.00     0.187 HD
BRANCH   6   8
ATOM      8  N   UNL d   1       3.752   0.953  -0.545  0.00  0.00    -0.267 N 
ATOM      9  C   UNL d   1       4.673   1.763  -1.192  0.00  0.00     0.269 C 
ATOM     10  O   UNL d   1       4.477   2.971  -1.354  0.00  0.00    -0.269 OA
ATOM     11  H   UNL d   1       4.012   0.044  -0.172  0.00  0.00     0.190 HD
BRANCH   9  12
ATOM     12  C   UNL d   1       5.960   1.080  -1.653  0.00  0.00     0.271 C 
ATOM     13 CL   UNL d   1       7.077   0.960  -0.280  0.00  0.00    -0.098 Cl
ATOM     14 CL   UNL d   1       5.627  -0.539  -2.316  0.00  0.00    -0.098 Cl
ENDBRANCH   9  12
ENDBRANCH   6   8
ENDBRANCH   2   6
BRANCH   1  15
ATOM     15  C   UNL d   1      -0.379   2.757  -0.008  0.00  0.00     0.302 C 
ATOM     16  O   UNL d   1      -1.560   3.094  -0.010  0.00  0.00    -0.259 OA
BRANCH  15  17
ATOM     17  O   UNL d   1       0.652   3.653  -0.012  0.00  0.00    -0.322 OA
ATOM     18  C   UNL d   1       0.206   5.014  -0.015  0.00  0.00     0.213 C 
ENDBRANCH  15  17
ENDBRANCH   1  15
TORSDOF 5
