REMARK  3 active torsions:
REMARK  status: ('A' for Active; 'I' for Inactive)
REMARK       I    between atoms: N_2  and  C_5 
REMARK       I    between atoms: C_3  and  N_2 
REMARK       I    between atoms: N_8  and  C_3 
REMARK    1  A    between atoms: C_4  and  N_8 
REMARK    2  A    between atoms: C_5  and  C_12 
REMARK    3  A    between atoms: N_7  and  C_6 
ROOT
ATOM      1  C   UNL d   1       1.979   0.832  -1.680  0.00  0.00     0.092 A 
ATOM      2  C   UNL d   1       0.861   1.344  -0.979  0.00  0.00     0.052 A 
ATOM      3  C   UNL d   1       3.056   1.702  -2.072  0.00  0.00     0.103 C 
ATOM      4  N   UNL d   1       3.918   2.399  -2.408  0.00  0.00    -0.191 NA
ATOM      5  C   UNL d   1       2.087  -0.550  -1.918  0.00  0.00     0.057 A 
ATOM      6 CL   UNL d   1       3.455  -1.246  -2.721  0.00  0.00    -0.083 Cl
ATOM      7  C   UNL d   1      -0.142   0.429  -0.593  0.00  0.00     0.031 A 
ATOM      8  C   UNL d   1      -0.022  -0.941  -0.821  0.00  0.00     0.004 A 
ATOM      9  C   UNL d   1       1.099  -1.432  -1.473  0.00  0.00     0.025 A 
ENDROOT
BRANCH   2  10
ATOM     10  N   UNL d   1       0.793   2.663  -0.544  0.00  0.00    -0.380 N 
ATOM     11  C   UNL d   1       0.299   2.917   0.803  0.00  0.00     0.124 C 
ATOM     12  C   UNL d   1       1.228   3.949   1.418  0.00  0.00     0.034 C 
ATOM     13  C   UNL d   1       1.162   5.264   0.633  0.00  0.00     0.081 C 
ATOM     14  C   UNL d   1       1.427   5.016  -0.872  0.00  0.00     0.034 C 
ATOM     15  C   UNL d   1       0.695   3.799  -1.466  0.00  0.00     0.124 C 
BRANCH  13  16
ATOM     16  C   UNL d   1      -0.170   5.966   0.885  0.00  0.00     0.229 C 
ATOM     17  N   UNL d   1      -0.522   6.307   2.174  0.00  0.00    -0.279 N 
ATOM     18  C   UNL d   1       0.270   6.461   3.287  0.00  0.00     0.327 C 
ATOM     19  H   UNL d   1      -1.435   6.730   2.198  0.00  0.00     0.173 HD
ATOM     20  N   UNL d   1      -0.338   6.869   4.449  0.00  0.00    -0.305 N 
ATOM     21  O   UNL d   1       1.485   6.285   3.314  0.00  0.00    -0.247 OA
ATOM     22  H   UNL d   1       0.387   7.262   5.046  0.00  0.00     0.171 HD
ATOM     23  O   UNL d   1      -0.954   6.247  -0.024  0.00  0.00    -0.273 OA
BRANCH  20  24
ATOM     24  C   UNL d   1      -1.601   7.499   4.534  0.00  0.00     0.080 A 
ATOM     25  C   UNL d   1      -2.809   6.807   4.344  0.00  0.00     0.062 A 
ATOM     26 CL   UNL d   1      -2.856   5.094   4.116  0.00  0.00    -0.082 Cl
ATOM     27  C   UNL d   1      -4.026   7.493   4.376  0.00  0.00     0.026 A 
ATOM     28  C   UNL d   1      -4.050   8.869   4.603  0.00  0.00     0.003 A 
ATOM     29  C   UNL d   1      -2.860   9.556   4.840  0.00  0.00     0.026 A 
ATOM     30  C   UNL d   1      -1.645   8.871   4.830  0.00  0.00     0.062 A 
ATOM     31 CL   UNL d   1      -0.196   9.771   5.118  0.00  0.00    -0.082 Cl
ENDBRANCH  20  24
ENDBRANCH  13  16
ENDBRANCH   2  10
TORSDOF 3
