REMARK  4 active torsions:
REMARK  status: ('A' for Active; 'I' for Inactive)
REMARK    1  A    between atoms: N_2  and  S_1 
REMARK    2  A    between atoms: C_8  and  S_1 
REMARK    3  A    between atoms: C_3  and  N_2 
REMARK       I    between atoms: C_11  and  N_12 
REMARK    4  A    between atoms: N_12  and  C_19 
ROOT
ATOM      1  S   UNL d   1       0.974   0.018   0.108  0.00  0.00     0.248 S 
ATOM      2  O   UNL d   1       0.397  -1.112   0.801  0.00  0.00    -0.205 OA
ATOM      3  O   UNL d   1       2.413   0.130  -0.044  0.00  0.00    -0.205 OA
ENDROOT
BRANCH   1   4
ATOM      4  N   UNL d   1       0.451   1.467   0.772  0.00  0.00    -0.151 NA
ATOM      5  H   UNL d   1       0.803   2.253   0.238  0.00  0.00     0.149 HD
BRANCH   4   6
ATOM      6  C   UNL d   1      -0.936   1.571   0.881  0.00  0.00     0.171 A 
ATOM      7  N   UNL d   1      -1.526   1.026   1.942  0.00  0.00    -0.336 N 
ATOM      8  C   UNL d   1      -2.864   1.162   2.006  0.00  0.00     0.009 A 
ATOM      9  HN  UNL d   1      -0.996   0.534   2.663  1.00  0.00     0.168 HD
ATOM     10  C   UNL d   1      -3.562   0.607   3.211  0.00  0.00     0.068 C 
ATOM     11  C   UNL d   1      -3.587   1.803   1.018  0.00  0.00     0.049 A 
ATOM     12  C   UNL d   1      -2.869   2.318  -0.047  0.00  0.00     0.009 A 
ATOM     13  N   UNL d   1      -1.526   2.224  -0.125  0.00  0.00    -0.336 N 
ATOM     14  C   UNL d   1      -3.588   3.027  -1.155  0.00  0.00     0.068 C 
ATOM     15  HN  UNL d   1      -0.996   2.623  -0.899  1.00  0.00     0.168 HD
ENDBRANCH   4   6
ENDBRANCH   1   4
BRANCH   1  16
ATOM     16  C   UNL d   1       0.299   0.046  -1.542  0.00  0.00     0.075 A 
ATOM     17  C   UNL d   1       1.036   0.616  -2.585  0.00  0.00     0.027 A 
ATOM     18  C   UNL d   1       0.501   0.642  -3.883  0.00  0.00     0.031 A 
ATOM     19  C   UNL d   1      -0.764   0.096  -4.143  0.00  0.00     0.034 A 
ATOM     20  C   UNL d   1      -1.466  -0.492  -3.082  0.00  0.00     0.031 A 
ATOM     21  C   UNL d   1      -0.942  -0.528  -1.793  0.00  0.00     0.027 A 
BRANCH  19  22
ATOM     22  N   UNL d   1      -1.293   0.157  -5.459  0.00  0.00    -0.328 N 
ATOM     23  C   UNL d   1      -2.539  -0.309  -5.857  0.00  0.00     0.218 C 
ATOM     24  O   UNL d   1      -3.390  -0.849  -5.144  0.00  0.00    -0.274 OA
ATOM     25  C   UNL d   1      -2.851  -0.107  -7.312  0.00  0.00     0.117 C 
ATOM     26  H   UNL d   1      -0.705   0.592  -6.157  0.00  0.00     0.169 HD
ENDBRANCH  19  22
ENDBRANCH   1  16
TORSDOF 4
