REMARK  4 active torsions:
REMARK  status: ('A' for Active; 'I' for Inactive)
REMARK       I    between atoms: C_3  and  N_9 
REMARK       I    between atoms: N_7  and  C_3 
REMARK    1  A    between atoms: C_12  and  C_4 
REMARK    2  A    between atoms: C_10  and  N_7 
REMARK    3  A    between atoms: N_9  and  C_11 
REMARK    4  A    between atoms: C_11  and  C_12 
ROOT
ATOM      1  C   UNL d   1      -0.264  -5.758   0.517  0.00  0.00     0.320 C 
ATOM      2  N   UNL d   1      -0.681  -7.004   0.933  0.00  0.00    -0.309 N 
ATOM      3  O   UNL d   1       0.892  -5.389   0.352  0.00  0.00    -0.247 OA
ATOM      4  N   UNL d   1      -1.339  -4.907   0.316  0.00  0.00    -0.343 N 
ATOM      5  H   UNL d   1      -1.663  -7.085   1.151  0.00  0.00     0.170 HD
ATOM      6  H   UNL d   1      -2.150  -5.354  -0.089  0.00  0.00     0.164 HD
ENDROOT
BRANCH   4   7
ATOM      7  C   UNL d   1      -1.056  -3.564  -0.174  0.00  0.00     0.129 C 
BRANCH   7   8
ATOM      8  C   UNL d   1      -2.284  -2.651  -0.252  0.00  0.00     0.060 C 
BRANCH   8   9
ATOM      9  C   UNL d   1      -3.259  -3.092  -1.299  0.00  0.00    -0.029 A 
ATOM     10  C   UNL d   1      -3.217  -2.771  -2.643  0.00  0.00     0.096 A 
ATOM     11  N   UNL d   1      -4.228  -3.441  -3.277  0.00  0.00    -0.365 N 
ATOM     12  C   UNL d   1      -4.936  -4.197  -2.372  0.00  0.00     0.042 A 
ATOM     13  H   UNL d   1      -4.423  -3.400  -4.268  0.00  0.00     0.165 HD
ATOM     14  C   UNL d   1      -4.389  -3.950  -1.113  0.00  0.00    -0.002 A 
ATOM     15  C   UNL d   1      -6.010  -5.071  -2.573  0.00  0.00     0.030 A 
ATOM     16  C   UNL d   1      -4.978  -4.566   0.010  0.00  0.00     0.014 A 
ATOM     17  C   UNL d   1      -6.064  -5.429  -0.170  0.00  0.00     0.001 A 
ATOM     18  C   UNL d   1      -6.560  -5.689  -1.446  0.00  0.00     0.002 A 
ENDBRANCH   8   9
ENDBRANCH   7   8
ENDBRANCH   4   7
BRANCH   2  19
ATOM     19  C   UNL d   1       0.132  -8.129   1.206  0.00  0.00     0.036 A 
ATOM     20  C   UNL d   1       1.513  -8.156   1.007  0.00  0.00     0.029 A 
ATOM     21  C   UNL d   1       2.255  -9.309   1.289  0.00  0.00     0.002 A 
ATOM     22  C   UNL d   1       1.621 -10.448   1.771  0.00  0.00     0.000 A 
ATOM     23  C   UNL d   1       0.244 -10.435   1.975  0.00  0.00     0.002 A 
ATOM     24  C   UNL d   1      -0.499  -9.284   1.696  0.00  0.00     0.029 A 
ENDBRANCH   2  19
TORSDOF 4
