REMARK  2 active torsions:
REMARK  status: ('A' for Active; 'I' for Inactive)
REMARK    1  A    between atoms: C_2  and  C_1 
REMARK       I    between atoms: N_3  and  C_1 
REMARK    2  A    between atoms: C_6  and  N_5 
ROOT
ATOM      1  C   UNL d   1       0.710  -0.104   0.017  0.00  0.00     0.260 C 
ATOM      2  N   UNL d   1       0.256   0.003  -1.298  0.00  0.00    -0.345 N 
ATOM      3  N   UNL d   1      -0.543   0.138  -4.047  0.00  0.00    -0.377 N 
ATOM      4  O   UNL d   1       1.515  -0.955   0.387  0.00  0.00    -0.267 OA
ATOM      5  C   UNL d   1       0.625  -1.067  -2.241  0.00  0.00     0.146 C 
ATOM      6  C   UNL d   1      -0.886   0.830  -1.719  0.00  0.00     0.146 C 
ATOM      7  C   UNL d   1       0.697  -0.581  -3.703  0.00  0.00     0.143 C 
ATOM      8  C   UNL d   1      -0.817   1.286  -3.184  0.00  0.00     0.143 C 
ENDROOT
BRANCH   1   9
ATOM      9  C   UNL d   1       0.251   0.870   1.021  0.00  0.00     0.109 A 
ATOM     10  C   UNL d   1      -1.083   0.958   1.402  0.00  0.00     0.135 A 
ATOM     11  F   UNL d   1      -2.007   0.143   0.876  0.00  0.00    -0.205 F 
ATOM     12  C   UNL d   1      -1.504   1.927   2.315  0.00  0.00     0.043 A 
ATOM     13  C   UNL d   1      -0.570   2.787   2.892  0.00  0.00     0.006 A 
ATOM     14  C   UNL d   1       0.779   2.666   2.558  0.00  0.00     0.043 A 
ATOM     15  C   UNL d   1       1.183   1.712   1.624  0.00  0.00     0.135 A 
ATOM     16  F   UNL d   1       2.484   1.647   1.300  0.00  0.00    -0.205 F 
ENDBRANCH   1   9
BRANCH   3  17
ATOM     17  C   UNL d   1      -1.098   0.044  -5.321  0.00  0.00     0.043 A 
ATOM     18  C   UNL d   1      -1.597   1.137  -6.096  0.00  0.00     0.018 A 
ATOM     19  C   UNL d   1      -2.278   0.887  -7.295  0.00  0.00     0.044 A 
ATOM     20  C   UNL d   1      -1.569   2.565  -5.966  0.00  0.00     0.033 A 
ATOM     21  N   UNL d   1      -2.697   2.096  -7.804  0.00  0.00    -0.365 N 
ATOM     22  C   UNL d   1      -2.473  -0.396  -7.812  0.00  0.00     0.030 A 
ATOM     23  C   UNL d   1      -2.268   3.121  -7.011  0.00  0.00     0.089 A 
ATOM     24  H   UNL d   1      -3.237   2.201  -8.652  0.00  0.00     0.165 HD
ATOM     25  C   UNL d   1      -1.952  -1.460  -7.088  0.00  0.00     0.005 A 
ATOM     26  C   UNL d   1      -1.291  -1.243  -5.880  0.00  0.00     0.030 A 
ENDBRANCH   3  17
TORSDOF 2
