REMARK  6 active torsions:
REMARK  status: ('A' for Active; 'I' for Inactive)
REMARK    1  A    between atoms: C_2  and  N_1 
REMARK       I    between atoms: C_3  and  N_1 
REMARK    2  A    between atoms: N_7  and  C_2 
REMARK    3  A    between atoms: C_4  and  C_3 
REMARK    4  A    between atoms: C_5  and  C_8 
REMARK    5  A    between atoms: O_17  and  C_5 
REMARK    6  A    between atoms: C_14  and  N_7 
ROOT
ATOM      1  N   UNL d   1       1.164   1.878   1.577  0.00  0.00    -0.333 N 
ATOM      2  H   UNL d   1       0.752   1.322   0.828  0.00  0.00     0.168 HD
ENDROOT
BRANCH   1   3
ATOM      3  C   UNL d   1       0.258   2.416   2.457  0.00  0.00     0.179 C 
ATOM      4  S   UNL d   1       0.419   3.806   3.376  0.00  0.00    -0.040 SA
BRANCH   3   5
ATOM      5  N   UNL d   1      -0.935   1.735   2.580  0.00  0.00    -0.299 N 
ATOM      6  C   UNL d   1      -1.311   0.505   2.051  0.00  0.00     0.264 C 
ATOM      7  O   UNL d   1      -0.705  -0.009   1.113  0.00  0.00    -0.267 OA
ATOM      8  H   UNL d   1      -1.543   2.116   3.294  0.00  0.00     0.171 HD
BRANCH   6   9
ATOM      9  C   UNL d   1      -2.495  -0.095   2.659  0.00  0.00     0.072 A 
ATOM     10  S   UNL d   1      -3.407   0.711   3.871  0.00  0.00    -0.097 SA
ATOM     11  C   UNL d   1      -4.510  -0.585   4.009  0.00  0.00     0.050 A 
ATOM     12  C   UNL d   1      -4.195  -1.621   3.159  0.00  0.00     0.009 A 
ATOM     13  C   UNL d   1      -3.034  -1.338   2.381  0.00  0.00     0.025 A 
ENDBRANCH   6   9
ENDBRANCH   3   5
ENDBRANCH   1   3
BRANCH   1  14
ATOM     14  C   UNL d   1       2.570   2.002   1.547  0.00  0.00     0.035 A 
ATOM     15  C   UNL d   1       3.228   1.780   0.331  0.00  0.00     0.047 A 
ATOM     16  C   UNL d   1       4.630   1.829   0.264  0.00  0.00     0.041 A 
ATOM     17  C   UNL d   1       5.370   2.064   1.430  0.00  0.00     0.018 A 
ATOM     18  C   UNL d   1       4.720   2.257   2.645  0.00  0.00     0.003 A 
ATOM     19  C   UNL d   1       3.326   2.230   2.701  0.00  0.00     0.029 A 
BRANCH  16  20
ATOM     20  C   UNL d   1       5.386   1.630  -1.002  0.00  0.00     0.293 C 
ATOM     21  O   UNL d   1       6.606   1.625  -1.062  0.00  0.00    -0.259 OA
BRANCH  20  22
ATOM     22  O   UNL d   1       4.543   1.462  -2.051  0.00  0.00    -0.323 OA
ATOM     23  C   UNL d   1       5.213   1.257  -3.296  0.00  0.00     0.213 C 
ENDBRANCH  20  22
ENDBRANCH  16  20
ENDBRANCH   1  14
TORSDOF 6
