REMARK  2 active torsions:
REMARK  status: ('A' for Active; 'I' for Inactive)
REMARK    1  A    between atoms: N_2  and  S_1 
REMARK    2  A    between atoms: C_5  and  S_1 
ROOT
ATOM      1  S   UNL d   1       1.037  -0.021   0.060  0.00  0.00     0.268 S 
ATOM      2  O   UNL d   1       0.590  -0.906   1.119  0.00  0.00    -0.200 OA
ATOM      3  O   UNL d   1       0.559   1.344  -0.068  0.00  0.00    -0.200 OA
ENDROOT
BRANCH   1   4
ATOM      4  N   UNL d   1       0.610  -0.770  -1.405  0.00  0.00    -0.258 N 
ATOM      5  C   UNL d   1       0.051  -2.016  -1.517  0.00  0.00     0.108 A 
ATOM      6  C   UNL d   1      -0.150  -2.252  -2.862  0.00  0.00     0.020 A 
ATOM      7  C   UNL d   1       0.332  -1.120  -3.572  0.00  0.00     0.020 A 
ATOM      8  C   UNL d   1       0.807  -0.217  -2.643  0.00  0.00     0.108 A 
ENDBRANCH   1   4
BRANCH   1   9
ATOM      9  C   UNL d   1       2.809  -0.010   0.065  0.00  0.00     0.080 A 
ATOM     10  C   UNL d   1       3.489   1.212   0.112  0.00  0.00     0.025 A 
ATOM     11  C   UNL d   1       4.882   1.221   0.167  0.00  0.00     0.002 A 
ATOM     12  C   UNL d   1       5.588   0.018   0.180  0.00  0.00     0.000 A 
ATOM     13  C   UNL d   1       4.905  -1.199   0.137  0.00  0.00     0.002 A 
ATOM     14  C   UNL d   1       3.510  -1.219   0.081  0.00  0.00     0.025 A 
ENDBRANCH   1   9
TORSDOF 2
