REMARK  1 active torsions:
REMARK  status: ('A' for Active; 'I' for Inactive)
REMARK    1  A    between atoms: C_6  and  C_4 
ROOT
ATOM      1  N   UNL d   1       1.168   1.126   0.180  0.00  0.00    -0.301 N 
ATOM      2  HN  UNL d   1       1.644   2.003   0.389  1.00  0.00     0.186 HD
ATOM      3  N   UNL d   1      -0.181   1.085   0.022  0.00  0.00    -0.270 N 
ATOM      4  C   UNL d   1       1.837   0.019   0.058  0.00  0.00     0.036 C 
ATOM      5  C   UNL d   1      -0.962  -0.040  -0.042  0.00  0.00     0.236 C 
ATOM      6  O   UNL d   1      -2.178   0.024  -0.210  0.00  0.00    -0.272 OA
ATOM      7  C   UNL d   1       1.178  -1.301  -0.271  0.00  0.00     0.069 C 
ATOM      8  C   UNL d   1      -0.254  -1.339   0.211  0.00  0.00     0.110 C 
ATOM      9  H   UNL d   1      -0.656   1.980  -0.048  0.00  0.00     0.190 HD
ENDROOT
BRANCH   4  10
ATOM     10  C   UNL d   1       3.325   0.056   0.175  0.00  0.00    -0.012 A 
ATOM     11  C   UNL d   1       3.926   1.040   0.972  0.00  0.00     0.015 A 
ATOM     12  C   UNL d   1       5.318   1.107   1.075  0.00  0.00     0.020 A 
ATOM     13  C   UNL d   1       6.108   0.198   0.374  0.00  0.00     0.011 A 
ATOM     14  C   UNL d   1       5.521  -0.778  -0.429  0.00  0.00     0.020 A 
ATOM     15 BR   UNL d   1       7.992   0.296   0.501  0.00  0.00    -0.051 Br
ATOM     16  C   UNL d   1       4.128  -0.851  -0.528  0.00  0.00     0.015 A 
ENDBRANCH   4  10
TORSDOF 1
