REMARK  2 active torsions:
REMARK  status: ('A' for Active; 'I' for Inactive)
REMARK    1  A    between atoms: C_3  and  C_1 
REMARK    2  A    between atoms: O_14  and  C_2 
ROOT
ATOM      1  C   UNL d   1      -0.180   1.686  -0.010  0.00  0.00     0.031 A 
ATOM      2  C   UNL d   1      -1.139   0.656  -0.039  0.00  0.00     0.117 A 
ATOM      3  C   UNL d   1      -0.741  -0.686   0.013  0.00  0.00     0.153 A 
ATOM      4  C   UNL d   1       0.601  -1.034   0.065  0.00  0.00     0.087 A 
ATOM      5  C   UNL d   1       1.175   1.320   0.042  0.00  0.00     0.059 A 
ATOM      6  C   UNL d   1       1.548  -0.024   0.072  0.00  0.00     0.120 A 
ATOM      7  F   UNL d   1      -1.659  -1.663  -0.009  0.00  0.00    -0.203 F 
ATOM      8  F   UNL d   1       2.848  -0.340   0.116  0.00  0.00    -0.206 F 
ENDROOT
BRANCH   1   9
ATOM      9  C   UNL d   1      -0.544   3.105  -0.006  0.00  0.00     0.062 A 
ATOM     10  N   UNL d   1       0.145   4.071  -0.700  0.00  0.00    -0.300 N 
ATOM     11  N   UNL d   1      -0.359   5.308  -0.565  0.00  0.00    -0.311 N 
ATOM     12  H   UNL d   1       0.960   3.952  -1.293  0.00  0.00     0.187 HD
ATOM     13  C   UNL d   1      -1.389   5.141   0.266  0.00  0.00     0.109 A 
ATOM     14  HN  UNL d   1      -0.032   6.172  -0.997  1.00  0.00     0.186 HD
ATOM     15  C   UNL d   1      -1.548   3.798   0.647  0.00  0.00     0.050 A 
ENDBRANCH   1   9
BRANCH   2  16
ATOM     16  O   UNL d   1      -2.483   0.900  -0.146  0.00  0.00    -0.357 OA
ATOM     17  H   UNL d   1      -2.609   1.801  -0.489  0.00  0.00     0.218 HD
ENDBRANCH   2  16
TORSDOF 2
