REMARK  8 active torsions:
REMARK  status: ('A' for Active; 'I' for Inactive)
REMARK    1  A    between atoms: C_5  and  C_1 
REMARK    2  A    between atoms: S_23  and  C_2 
REMARK    3  A    between atoms: C_12  and  C_6 
REMARK    4  A    between atoms: C_9  and  C_18 
REMARK    5  A    between atoms: S_22  and  C_11 
REMARK    6  A    between atoms: C_20  and  C_32 
REMARK       I    between atoms: N_21  and  C_20 
REMARK    7  A    between atoms: C_27  and  N_21 
REMARK    8  A    between atoms: C_32  and  S_22 
ROOT
ATOM      1  C   UNL d   1       3.058   4.575   0.597  0.00  0.00     0.144 A 
ATOM      2  C   UNL d   1       1.344   2.502   0.130  0.00  0.00     0.007 A 
ATOM      3  N   UNL d   1       2.102   4.355   1.502  0.00  0.00    -0.346 N 
ATOM      4  HN  UNL d   1       2.002   4.935   2.335  1.00  0.00     0.167 HD
ATOM      5  N   UNL d   1       3.203   3.902  -0.551  0.00  0.00    -0.346 N 
ATOM      6  HN  UNL d   1       3.936   4.128  -1.223  1.00  0.00     0.167 HD
ATOM      7  C   UNL d   1       2.317   2.903  -0.765  0.00  0.00     0.104 A 
ATOM      8  C   UNL d   1       1.274   3.318   1.247  0.00  0.00     0.104 A 
ENDROOT
BRANCH   1   9
ATOM      9  S   UNL d   1       4.462   5.523   1.107  0.00  0.00    -0.085 SA
BRANCH   9  10
ATOM     10  C   UNL d   1       4.878   4.554   2.574  0.00  0.00     0.185 C 
BRANCH  10  11
ATOM     11  C   UNL d   1       5.332   3.111   2.362  0.00  0.00     0.231 C 
ATOM     12  N   UNL d   1       5.394   2.642   1.044  0.00  0.00    -0.327 N 
ATOM     13  H   UNL d   1       5.290   3.322   0.318  0.00  0.00     0.169 HD
ATOM     14  O   UNL d   1       5.642   2.440   3.363  0.00  0.00    -0.272 OA
BRANCH  12  15
ATOM     15  C   UNL d   1       5.773   1.342   0.669  0.00  0.00     0.035 C 
ATOM     16  C   UNL d   1       5.801   0.277   1.563  0.00  0.00     0.045 C 
ATOM     17  C   UNL d   1       6.379  -0.955   1.216  0.00  0.00     0.050 C 
ATOM     18  C   UNL d   1       6.851  -1.132  -0.095  0.00  0.00     0.016 C 
ATOM     19  C   UNL d   1       6.719  -0.106  -1.030  0.00  0.00     0.003 C 
ATOM     20  C   UNL d   1       6.167   1.123  -0.660  0.00  0.00     0.029 C 
BRANCH  17  21
ATOM     21  C   UNL d   1       6.549  -2.037   2.253  0.00  0.00     0.417 C 
ATOM     22  F   UNL d   1       6.047  -1.709   3.477  0.00  0.00    -0.166 F 
ATOM     23  F   UNL d   1       5.939  -3.203   1.903  0.00  0.00    -0.166 F 
ATOM     24  F   UNL d   1       7.858  -2.348   2.461  0.00  0.00    -0.166 F 
ENDBRANCH  17  21
ENDBRANCH  12  15
ENDBRANCH  10  11
ENDBRANCH   9  10
ENDBRANCH   1   9
BRANCH   2  25
ATOM     25  C   UNL d   1       0.560   1.258  -0.026  0.00  0.00     0.008 A 
ATOM     26  C   UNL d   1       1.066  -0.007  -0.583  0.00  0.00    -0.029 A 
ATOM     27  C   UNL d   1       0.140  -1.039  -0.449  0.00  0.00     0.046 A 
ATOM     28  C   UNL d   1       2.444  -0.181  -1.170  0.00  0.00     0.050 C 
ATOM     29  S   UNL d   1      -1.319  -0.475   0.242  0.00  0.00    -0.079 SA
ATOM     30  C   UNL d   1      -0.764   1.132   0.400  0.00  0.00     0.053 A 
BRANCH  27  31
ATOM     31  C   UNL d   1       0.312  -2.434  -0.818  0.00  0.00     0.092 A 
ATOM     32  N   UNL d   1       1.078  -2.807  -1.827  0.00  0.00    -0.353 N 
ATOM     33  C   UNL d   1       1.172  -4.188  -1.895  0.00  0.00     0.012 A 
ATOM     34  HN  UNL d   1       1.539  -2.164  -2.471  1.00  0.00     0.166 HD
ATOM     35  C   UNL d   1       2.030  -4.803  -2.940  0.00  0.00     0.068 C 
ATOM     36  C   UNL d   1       0.434  -4.859  -0.942  0.00  0.00     0.076 A 
ATOM     37  S   UNL d   1      -0.391  -3.742   0.059  0.00  0.00    -0.081 SA
ENDBRANCH  27  31
BRANCH  30  38
ATOM     38  S   UNL d   1      -1.799   2.442   1.015  0.00  0.00    -0.126 SA
ATOM     39  C   UNL d   1      -3.350   1.692   1.517  0.00  0.00     0.096 C 
ENDBRANCH  30  38
ENDBRANCH   2  25
TORSDOF 8
