REMARK  6 active torsions:
REMARK  status: ('A' for Active; 'I' for Inactive)
REMARK    1  A    between atoms: S_10  and  C_3 
REMARK    2  A    between atoms: O_15  and  C_4 
REMARK       I    between atoms: N_7  and  C_8 
REMARK    3  A    between atoms: C_8  and  C_12 
REMARK    4  A    between atoms: C_12  and  S_10 
REMARK    5  A    between atoms: C_19  and  C_11 
REMARK    6  A    between atoms: O_18  and  C_19 
ROOT
ATOM      1  N   UNL d   1       1.567  -0.526  -0.995  0.00  0.00    -0.318 N 
ATOM      2  HN  UNL d   1       2.388  -0.872  -1.492  1.00  0.00     0.170 HD
ATOM      3  C   UNL d   1       1.040  -1.163   0.062  0.00  0.00     0.146 A 
ATOM      4  C   UNL d   1       0.934   0.597  -1.346  0.00  0.00     0.143 A 
ATOM      5  N   UNL d   1      -0.028  -0.740   0.763  0.00  0.00    -0.338 N 
ATOM      6  HN  UNL d   1      -0.373  -1.259   1.570  1.00  0.00     0.168 HD
ATOM      7  C   UNL d   1      -0.168   1.121  -0.729  0.00  0.00     0.083 A 
ATOM      8  C   UNL d   1      -0.629   0.405   0.353  0.00  0.00     0.039 A 
ENDROOT
BRANCH   3   9
ATOM      9  S   UNL d   1       1.734  -2.731   0.525  0.00  0.00    -0.085 SA
BRANCH   9  10
ATOM     10  C   UNL d   1       3.439  -2.503  -0.068  0.00  0.00     0.185 C 
BRANCH  10  11
ATOM     11  C   UNL d   1       4.249  -3.757   0.225  0.00  0.00     0.229 C 
ATOM     12  N   UNL d   1       4.340  -4.746  -0.741  0.00  0.00    -0.347 N 
ATOM     13  C   UNL d   1       5.123  -5.957  -0.467  0.00  0.00     0.152 C 
ATOM     14  C   UNL d   1       3.668  -4.776  -2.046  0.00  0.00     0.152 C 
ATOM     15  C   UNL d   1       4.256  -7.204  -0.663  0.00  0.00     0.187 C 
ATOM     16  O   UNL d   1       3.696  -7.230  -1.988  0.00  0.00    -0.388 OA
ATOM     17  C   UNL d   1       2.871  -6.077  -2.211  0.00  0.00     0.187 C 
ATOM     18  O   UNL d   1       4.815  -3.871   1.318  0.00  0.00    -0.273 OA
ENDBRANCH  10  11
ENDBRANCH   9  10
ENDBRANCH   3   9
BRANCH   4  19
ATOM     19  O   UNL d   1       1.472   1.227  -2.421  0.00  0.00    -0.346 OA
ATOM     20  H   UNL d   1       2.208   0.628  -2.639  0.00  0.00     0.219 HD
ENDBRANCH   4  19
BRANCH   8  21
ATOM     21  C   UNL d   1      -1.839   0.890   1.118  0.00  0.00     0.224 C 
BRANCH  21  22
ATOM     22  O   UNL d   1      -2.967   0.951   0.241  0.00  0.00    -0.390 OA
ATOM     23  C   UNL d   1      -4.139   1.378   0.922  0.00  0.00     0.201 C 
ENDBRANCH  21  22
ENDBRANCH   8  21
TORSDOF 6
