REMARK  7 active torsions:
REMARK  status: ('A' for Active; 'I' for Inactive)
REMARK    1  A    between atoms: C_4  and  C_1 
REMARK    2  A    between atoms: C_2  and  C_3 
REMARK       I    between atoms: C_3  and  N_12 
REMARK       I    between atoms: N_13  and  C_4 
REMARK    3  A    between atoms: C_7  and  C_9 
REMARK    4  A    between atoms: C_10  and  C_8 
REMARK       I    between atoms: C_9  and  N_15 
REMARK       I    between atoms: N_14  and  C_10 
REMARK    5  A    between atoms: C_23  and  C_11 
REMARK    6  A    between atoms: N_12  and  N_14 
REMARK    7  A    between atoms: N_15  and  N_13 
ROOT
ATOM      1  C   UNL d   1      -2.538  -6.578  -0.035  0.00  0.00     0.035 A 
ATOM      2  C   UNL d   1      -4.766  -6.918  -0.878  0.00  0.00     0.035 A 
ATOM      3  C   UNL d   1      -3.813  -8.536   0.702  0.00  0.00    -0.049 A 
ATOM      4  C   UNL d   1      -3.579  -6.183  -0.879  0.00  0.00     0.034 A 
ATOM      5  C   UNL d   1      -2.652  -7.745   0.738  0.00  0.00     0.025 A 
ATOM      6  C   UNL d   1      -4.893  -8.059  -0.069  0.00  0.00     0.025 A 
ENDROOT
BRANCH   1   7
ATOM      7  C   UNL d   1      -1.255  -5.832  -0.049  0.00  0.00     0.270 C 
ATOM      8  N   UNL d   1      -0.625  -5.685   1.172  0.00  0.00    -0.263 N 
ATOM      9  H   UNL d   1      -1.071  -5.853   2.072  0.00  0.00     0.190 HD
ATOM     10  O   UNL d   1      -0.801  -5.410  -1.109  0.00  0.00    -0.266 OA
BRANCH   8  11
ATOM     11  N   UNL d   1       0.648  -5.106   1.196  0.00  0.00    -0.263 N 
ATOM     12  C   UNL d   1       1.175  -4.681   2.395  0.00  0.00     0.271 C 
ATOM     13  O   UNL d   1       0.524  -4.742   3.438  0.00  0.00    -0.266 OA
ATOM     14  H   UNL d   1       1.151  -5.087   0.310  0.00  0.00     0.190 HD
BRANCH  12  15
ATOM     15  C   UNL d   1       2.570  -4.125   2.409  0.00  0.00     0.055 A 
ATOM     16  C   UNL d   1       3.502  -4.186   1.358  0.00  0.00     0.051 A 
ATOM     17  C   UNL d   1       4.777  -3.616   1.504  0.00  0.00     0.048 A 
ATOM     18 CL   UNL d   1       3.215  -4.966  -0.159  0.00  0.00    -0.083 Cl
ATOM     19  C   UNL d   1       5.139  -2.993   2.693  0.00  0.00     0.035 A 
ATOM     20  C   UNL d   1       4.241  -2.934   3.752  0.00  0.00     0.025 A 
ATOM     21 CL   UNL d   1       6.703  -2.298   2.856  0.00  0.00    -0.084 Cl
ATOM     22  C   UNL d   1       2.967  -3.497   3.608  0.00  0.00     0.020 A 
ENDBRANCH  12  15
ENDBRANCH   8  11
ENDBRANCH   1   7
BRANCH   2  23
ATOM     23  C   UNL d   1      -5.923  -6.516  -1.716  0.00  0.00     0.270 C 
ATOM     24  N   UNL d   1      -5.642  -6.188  -3.028  0.00  0.00    -0.263 N 
ATOM     25  H   UNL d   1      -4.750  -6.382  -3.481  0.00  0.00     0.190 HD
ATOM     26  O   UNL d   1      -7.057  -6.511  -1.243  0.00  0.00    -0.266 OA
BRANCH  24  27
ATOM     27  N   UNL d   1      -6.715  -5.854  -3.865  0.00  0.00    -0.263 N 
ATOM     28  C   UNL d   1      -6.525  -5.837  -5.231  0.00  0.00     0.271 C 
ATOM     29  O   UNL d   1      -5.495  -6.248  -5.763  0.00  0.00    -0.266 OA
ATOM     30  H   UNL d   1      -7.558  -5.520  -3.402  0.00  0.00     0.190 HD
BRANCH  28  31
ATOM     31  C   UNL d   1      -7.648  -5.330  -6.072  0.00  0.00     0.055 A 
ATOM     32  C   UNL d   1      -8.504  -4.277  -5.711  0.00  0.00     0.051 A 
ATOM     33  C   UNL d   1      -9.513  -3.855  -6.585  0.00  0.00     0.048 A 
ATOM     34 CL   UNL d   1      -8.356  -3.392  -4.232  0.00  0.00    -0.083 Cl
ATOM     35  C   UNL d   1      -9.669  -4.470  -7.825  0.00  0.00     0.035 A 
ATOM     36  C   UNL d   1      -8.820  -5.505  -8.206  0.00  0.00     0.025 A 
ATOM     37 CL   UNL d   1     -10.905  -3.937  -8.895  0.00  0.00    -0.084 Cl
ATOM     38  C   UNL d   1      -7.812  -5.930  -7.337  0.00  0.00     0.020 A 
ENDBRANCH  28  31
ENDBRANCH  24  27
ENDBRANCH   2  23
BRANCH   3  39
ATOM     39  C   UNL d   1      -3.887  -9.912   1.390  0.00  0.00    -0.024 C 
ATOM     40  C   UNL d   1      -2.534 -10.380   1.977  0.00  0.00     0.019 C 
ATOM     41  C   UNL d   1      -4.912  -9.887   2.539  0.00  0.00     0.019 C 
ATOM     42  C   UNL d   1      -4.309 -10.978   0.352  0.00  0.00     0.019 C 
ENDBRANCH   3  39
TORSDOF 7
