REMARK  5 active torsions:
REMARK  status: ('A' for Active; 'I' for Inactive)
REMARK    1  A    between atoms: C_2  and  S_1 
REMARK    2  A    between atoms: N_7  and  S_1 
REMARK    3  A    between atoms: C_8  and  C_3 
REMARK       I    between atoms: N_12  and  C_8 
REMARK    4  A    between atoms: C_21  and  N_12 
REMARK    5  A    between atoms: C_20  and  C_21 
ROOT
ATOM      1  C   UNL d   1       0.525  -0.101  -1.614  0.00  0.00     0.186 A 
ATOM      2  C   UNL d   1      -0.297   0.539  -3.651  0.00  0.00     0.064 A 
ATOM      3  C   UNL d   1       0.147   1.000  -2.377  0.00  0.00     0.070 A 
ATOM      4  O   UNL d   1       0.321  -1.227  -2.376  0.00  0.00    -0.301 OA
ATOM      5  C   UNL d   1      -0.165  -0.840  -3.586  0.00  0.00     0.066 A 
ATOM      6  C   UNL d   1      -0.444  -1.932  -4.546  0.00  0.00     0.078 C 
ENDROOT
BRANCH   2   7
ATOM      7  C   UNL d   1      -0.786   1.266  -4.821  0.00  0.00     0.254 C 
ATOM      8  N   UNL d   1      -0.878   2.634  -4.677  0.00  0.00    -0.353 N 
ATOM      9  H   UNL d   1      -0.624   3.076  -3.809  0.00  0.00     0.163 HD
ATOM     10  O   UNL d   1      -1.091   0.692  -5.859  0.00  0.00    -0.268 OA
BRANCH   8  11
ATOM     11  C   UNL d   1      -1.278   3.490  -5.775  0.00  0.00     0.161 C 
BRANCH  11  12
ATOM     12  C   UNL d   1      -2.515   4.293  -5.449  0.00  0.00    -0.038 A 
ATOM     13  C   UNL d   1      -2.492   5.698  -5.506  0.00  0.00     0.048 A 
ATOM     14  C   UNL d   1      -3.668   6.381  -5.259  0.00  0.00     0.105 A 
ATOM     15  O   UNL d   1      -3.822   7.733  -5.291  0.00  0.00    -0.323 OA
ATOM     16  C   UNL d   1      -4.838   5.728  -4.962  0.00  0.00     0.105 A 
ATOM     17  C   UNL d   1      -5.233   7.851  -5.004  0.00  0.00     0.352 A 
ATOM     18  O   UNL d   1      -5.878   6.583  -4.767  0.00  0.00    -0.323 OA
ATOM     19  C   UNL d   1      -4.902   4.353  -4.895  0.00  0.00     0.040 A 
ATOM     20  C   UNL d   1      -3.731   3.633  -5.147  0.00  0.00     0.012 A 
ENDBRANCH  11  12
ENDBRANCH   8  11
ENDBRANCH   2   7
BRANCH   1  21
ATOM     21  S   UNL d   1       1.178  -0.184   0.055  0.00  0.00     0.266 S 
ATOM     22  O   UNL d   1       0.129   0.372   0.884  0.00  0.00    -0.204 OA
ATOM     23  O   UNL d   1       2.474   0.454  -0.039  0.00  0.00    -0.204 OA
BRANCH  21  24
ATOM     24  N   UNL d   1       1.413  -1.816   0.501  0.00  0.00    -0.205 NA
ATOM     25  C   UNL d   1       0.182  -2.625   0.673  0.00  0.00     0.107 C 
ATOM     26  C   UNL d   1      -0.088  -2.581   2.166  0.00  0.00     0.017 C 
ATOM     27  C   UNL d   1       1.299  -2.634   2.775  0.00  0.00     0.017 C 
ATOM     28  C   UNL d   1       2.224  -2.003   1.738  0.00  0.00     0.107 C 
ENDBRANCH  21  24
ENDBRANCH   1  21
TORSDOF 5
