REMARK  4 active torsions:
REMARK  status: ('A' for Active; 'I' for Inactive)
REMARK    1  A    between atoms: N_6  and  C_2 
REMARK    2  A    between atoms: C_14  and  C_3 
REMARK    3  A    between atoms: C_13  and  C_17 
REMARK    4  A    between atoms: O_21  and  C_18 
ROOT
ATOM      1  C   UNL d   1      -0.074   0.971   0.256  0.00  0.00     0.048 A 
ATOM      2  C   UNL d   1       1.186   1.502  -0.139  0.00  0.00     0.097 A 
ATOM      3  C   UNL d   1      -1.323   1.562   0.721  0.00  0.00    -0.003 A 
ATOM      4  C   UNL d   1      -0.182  -0.411   0.204  0.00  0.00     0.089 A 
ATOM      5  C   UNL d   1      -2.249   0.592   1.059  0.00  0.00     0.065 A 
ATOM      6  S   UNL d   1      -1.677  -0.990   0.775  0.00  0.00    -0.082 SA
ATOM      7  N   UNL d   1       2.126   0.645  -0.604  0.00  0.00    -0.342 N 
ATOM      8  HN  UNL d   1       3.024   0.996  -0.937  1.00  0.00     0.167 HD
ATOM      9  N   UNL d   1       0.751  -1.281  -0.218  0.00  0.00    -0.346 N 
ATOM     10  HN  UNL d   1       0.623  -2.293  -0.229  1.00  0.00     0.167 HD
ATOM     11  C   UNL d   1       1.864  -0.670  -0.622  0.00  0.00     0.182 A 
ENDROOT
BRANCH   2  12
ATOM     12  N   UNL d   1       1.489   2.873  -0.039  0.00  0.00    -0.269 NA
ATOM     13  C   UNL d   1       2.512   3.341  -0.978  0.00  0.00     0.098 C 
ATOM     14  C   UNL d   1       2.528   4.871  -0.957  0.00  0.00     0.024 C 
ATOM     15  C   UNL d   1       2.757   5.459   0.448  0.00  0.00     0.024 C 
ATOM     16  C   UNL d   1       1.881   4.754   1.506  0.00  0.00     0.024 C 
ATOM     17  C   UNL d   1       1.762   3.235   1.354  0.00  0.00     0.098 C 
BRANCH  15  18
ATOM     18  C   UNL d   1       4.234   5.586   0.826  0.00  0.00    -0.021 A 
ATOM     19  C   UNL d   1       5.014   6.667   0.352  0.00  0.00     0.074 A 
ATOM     20  C   UNL d   1       6.357   6.776   0.729  0.00  0.00     0.037 A 
ATOM     21  C   UNL d   1       6.931   5.864   1.612  0.00  0.00     0.003 A 
ATOM     22  C   UNL d   1       6.172   4.815   2.105  0.00  0.00     0.001 A 
ATOM     23  C   UNL d   1       4.846   4.674   1.700  0.00  0.00     0.010 A 
BRANCH  19  24
ATOM     24  O   UNL d   1       4.399   7.574  -0.474  0.00  0.00    -0.355 OA
ATOM     25  C   UNL d   1       4.967   8.882  -0.483  0.00  0.00     0.210 C 
ENDBRANCH  19  24
ENDBRANCH  15  18
ENDBRANCH   2  12
BRANCH   3  26
ATOM     26  C   UNL d   1      -1.638   2.985   0.877  0.00  0.00    -0.024 A 
ATOM     27  C   UNL d   1      -1.323   3.893  -0.143  0.00  0.00     0.012 A 
ATOM     28  C   UNL d   1      -1.436   5.269   0.068  0.00  0.00     0.001 A 
ATOM     29  C   UNL d   1      -1.906   5.750   1.287  0.00  0.00     0.000 A 
ATOM     30  C   UNL d   1      -2.293   4.854   2.283  0.00  0.00     0.001 A 
ATOM     31  C   UNL d   1      -2.162   3.477   2.080  0.00  0.00     0.012 A 
ENDBRANCH   3  26
TORSDOF 4
