REMARK  4 active torsions:
REMARK  status: ('A' for Active; 'I' for Inactive)
REMARK    1  A    between atoms: O_8  and  C_1 
REMARK    2  A    between atoms: C_9  and  N_3 
REMARK    3  A    between atoms: C_14  and  O_8 
REMARK    4  A    between atoms: O_24  and  C_16 
ROOT
ATOM      1  C   UNL d   1      -0.730   1.264  -0.128  0.00  0.00     0.168 C 
ATOM      2  C   UNL d   1      -1.420  -0.026  -0.484  0.00  0.00     0.302 C 
ATOM      3  N   UNL d   1      -0.747  -1.200  -0.109  0.00  0.00    -0.219 N 
ATOM      4  N   UNL d   1       0.597  -1.210   0.226  0.00  0.00    -0.300 N 
ATOM      5  HN  UNL d   1       1.086  -2.084   0.422  1.00  0.00     0.186 HD
ATOM      6  C   UNL d   1       0.575   1.235   0.141  0.00  0.00     0.090 C 
ATOM      7  C   UNL d   1       1.207  -0.075   0.279  0.00  0.00     0.134 C 
ATOM      8  O   UNL d   1      -2.519   0.029  -1.032  0.00  0.00    -0.263 OA
ATOM      9 CL   UNL d   1       1.540   2.619   0.446  0.00  0.00    -0.080 Cl
ENDROOT
BRANCH   1  10
ATOM     10  O   UNL d   1      -1.410   2.483  -0.172  0.00  0.00    -0.303 OA
BRANCH  10  11
ATOM     11  C   UNL d   1      -2.694   2.576   0.316  0.00  0.00     0.076 A 
ATOM     12  C   UNL d   1      -3.201   1.815   1.372  0.00  0.00     0.040 A 
ATOM     13  C   UNL d   1      -4.542   1.952   1.758  0.00  0.00     0.039 A 
ATOM     14  C   UNL d   1      -5.367   2.876   1.117  0.00  0.00     0.068 A 
ATOM     15  C   UNL d   1      -4.833   3.684   0.111  0.00  0.00     0.039 A 
ATOM     16  C   UNL d   1      -3.503   3.537  -0.289  0.00  0.00     0.040 A 
BRANCH  14  17
ATOM     17  O   UNL d   1      -6.691   3.095   1.384  0.00  0.00    -0.356 OA
ATOM     18  C   UNL d   1      -7.337   2.152   2.230  0.00  0.00     0.210 C 
ENDBRANCH  14  17
ENDBRANCH  10  11
ENDBRANCH   1  10
BRANCH   3  19
ATOM     19  C   UNL d   1      -1.353  -2.507  -0.088  0.00  0.00     0.060 A 
ATOM     20  C   UNL d   1      -2.591  -2.788  -0.686  0.00  0.00     0.033 A 
ATOM     21  C   UNL d   1      -3.175  -4.060  -0.596  0.00  0.00     0.026 A 
ATOM     22  C   UNL d   1      -2.532  -5.073   0.105  0.00  0.00     0.034 A 
ATOM     23  C   UNL d   1      -1.302  -4.830   0.702  0.00  0.00     0.026 A 
ATOM     24 CL   UNL d   1      -3.262  -6.623   0.238  0.00  0.00    -0.084 Cl
ATOM     25  C   UNL d   1      -0.716  -3.562   0.597  0.00  0.00     0.033 A 
ENDBRANCH   3  19
TORSDOF 4
