REMARK  4 active torsions:
REMARK  status: ('A' for Active; 'I' for Inactive)
REMARK    1  A    between atoms: C_7  and  C_1 
REMARK    2  A    between atoms: C_8  and  C_5 
REMARK    3  A    between atoms: O_11  and  C_7 
REMARK    4  A    between atoms: C_13  and  O_11 
ROOT
ATOM      1  C   UNL d   1      -0.198  -1.216  -0.056  0.00  0.00     0.132 A 
ATOM      2  C   UNL d   1      -1.324  -0.354  -0.061  0.00  0.00     0.081 A 
ATOM      3  N   UNL d   1       0.937  -0.499  -0.145  0.00  0.00    -0.255 N 
ATOM      4  HN  UNL d   1       1.889  -0.862  -0.187  1.00  0.00     0.195 HD
ATOM      5  C   UNL d   1      -0.800   0.917  -0.102  0.00  0.00     0.146 A 
ATOM      6  O   UNL d   1       0.555   0.826  -0.169  0.00  0.00    -0.234 OA
ENDROOT
BRANCH   1   7
ATOM      7  C   UNL d   1      -0.198  -2.668   0.099  0.00  0.00     0.311 C 
ATOM      8  O   UNL d   1      -1.228  -3.319   0.243  0.00  0.00    -0.258 OA
BRANCH   7   9
ATOM      9  O   UNL d   1       1.061  -3.193   0.155  0.00  0.00    -0.317 OA
BRANCH   9  10
ATOM     10  C   UNL d   1       1.166  -4.517   0.691  0.00  0.00     0.175 C 
ATOM     11  C   UNL d   1       1.270  -4.416   2.203  0.00  0.00     0.034 C 
ENDBRANCH   9  10
ENDBRANCH   7   9
ENDBRANCH   1   7
BRANCH   5  12
ATOM     12  C   UNL d   1      -1.430   2.213  -0.065  0.00  0.00     0.181 C 
ATOM     13  O   UNL d   1      -2.654   2.348  -0.038  0.00  0.00    -0.291 OA
ATOM     14  C   UNL d   1      -0.548   3.439  -0.044  0.00  0.00     0.099 C 
ENDBRANCH   5  12
TORSDOF 4
