REMARK  6 active torsions:
REMARK  status: ('A' for Active; 'I' for Inactive)
REMARK    1  A    between atoms: S_15  and  C_6 
REMARK    2  A    between atoms: C_10  and  C_7 
REMARK    3  A    between atoms: O_20  and  C_10 
REMARK    4  A    between atoms: C_19  and  S_15 
REMARK    5  A    between atoms: C_21  and  C_19 
REMARK    6  A    between atoms: C_22  and  O_20 
ROOT
ATOM      1  S   UNL d   1      -0.816  -2.097   0.282  0.00  0.00     0.267 S 
ATOM      2  C   UNL d   1      -1.577  -0.552   0.144  0.00  0.00     0.116 A 
ATOM      3  C   UNL d   1      -0.780   0.635  -0.022  0.00  0.00     0.032 A 
ATOM      4  N   UNL d   1       0.741  -1.905  -0.354  0.00  0.00    -0.275 N 
ATOM      5  C   UNL d   1       0.737   0.549  -0.023  0.00  0.00     0.045 A 
ATOM      6  C   UNL d   1      -2.928  -0.314   0.259  0.00  0.00     0.066 A 
ATOM      7  C   UNL d   1      -1.580   1.764  -0.127  0.00  0.00     0.094 A 
ATOM      8  C   UNL d   1       1.393  -0.666  -0.184  0.00  0.00     0.063 A 
ATOM      9  S   UNL d   1      -3.249   1.342   0.009  0.00  0.00    -0.075 SA
ATOM     10  O   UNL d   1      -0.718  -2.328   1.703  0.00  0.00    -0.200 OA
ATOM     11  O   UNL d   1      -1.569  -2.952  -0.611  0.00  0.00    -0.200 OA
ATOM     12  S   UNL d   1       1.838   1.829   0.209  0.00  0.00    -0.099 SA
ATOM     13  C   UNL d   1       2.812  -0.503  -0.176  0.00  0.00     0.039 A 
ATOM     14  C   UNL d   1       3.189   0.803   0.042  0.00  0.00     0.053 A 
ATOM     15  C   UNL d   1       1.376  -3.080  -0.958  0.00  0.00     0.170 C 
ENDROOT
BRANCH   6  16
ATOM     16  S   UNL d   1      -4.183  -1.474   0.695  0.00  0.00    -0.116 SA
BRANCH  16  17
ATOM     17  C   UNL d   1      -5.617  -0.948  -0.280  0.00  0.00     0.118 C 
BRANCH  17  18
ATOM     18  C   UNL d   1      -6.784  -1.890  -0.104  0.00  0.00    -0.049 A 
ATOM     19  C   UNL d   1      -7.711  -1.688   0.931  0.00  0.00     0.008 A 
ATOM     20  C   UNL d   1      -8.804  -2.543   1.082  0.00  0.00     0.001 A 
ATOM     21  C   UNL d   1      -8.977  -3.615   0.209  0.00  0.00     0.000 A 
ATOM     22  C   UNL d   1      -8.050  -3.842  -0.806  0.00  0.00     0.001 A 
ATOM     23  C   UNL d   1      -6.955  -2.988  -0.960  0.00  0.00     0.008 A 
ENDBRANCH  17  18
ENDBRANCH  16  17
ENDBRANCH   6  16
BRANCH   7  24
ATOM     24  C   UNL d   1      -1.245   3.163  -0.346  0.00  0.00     0.301 C 
ATOM     25  O   UNL d   1      -0.294   3.593  -0.983  0.00  0.00    -0.259 OA
BRANCH  24  26
ATOM     26  O   UNL d   1      -2.128   3.952   0.337  0.00  0.00    -0.317 OA
BRANCH  26  27
ATOM     27  C   UNL d   1      -1.690   5.281   0.641  0.00  0.00     0.174 C 
ATOM     28  C   UNL d   1      -1.019   5.232   2.002  0.00  0.00     0.034 C 
ENDBRANCH  26  27
ENDBRANCH  24  26
ENDBRANCH   7  24
TORSDOF 6
