REMARK  7 active torsions:
REMARK  status: ('A' for Active; 'I' for Inactive)
REMARK    1  A    between atoms: C_8  and  C_1 
REMARK    2  A    between atoms: C_9  and  N_2 
REMARK    3  A    between atoms: C_19  and  C_3 
REMARK    4  A    between atoms: C_7  and  C_14 
REMARK    5  A    between atoms: O_16  and  C_8 
REMARK    6  A    between atoms: N_10  and  O_16 
REMARK    7  A    between atoms: C_29  and  C_19 
ROOT
ATOM      1  C   UNL d   1      -0.337   1.225   0.040  0.00  0.00     0.082 A 
ATOM      2  N   UNL d   1       0.934  -0.608   0.014  0.00  0.00    -0.260 N 
ATOM      3  C   UNL d   1       0.988   0.787   0.070  0.00  0.00     0.052 A 
ATOM      4  N   UNL d   1      -0.340  -1.045  -0.163  0.00  0.00    -0.304 N 
ATOM      5  HN  UNL d   1      -0.651  -2.004  -0.315  1.00  0.00     0.186 HD
ATOM      6  C   UNL d   1      -1.092   0.046  -0.096  0.00  0.00     0.127 A 
ENDROOT
BRANCH   1   7
ATOM      7  C   UNL d   1      -0.842   2.594   0.032  0.00  0.00     0.318 C 
ATOM      8  O   UNL d   1      -0.134   3.587   0.154  0.00  0.00    -0.257 OA
BRANCH   7   9
ATOM      9  O   UNL d   1      -2.204   2.633  -0.161  0.00  0.00    -0.195 OA
BRANCH   9  10
ATOM     10  N   UNL d   1      -2.473   3.561  -1.181  0.00  0.00    -0.268 N 
ATOM     11  C   UNL d   1      -3.744   3.769  -1.279  0.00  0.00     0.130 C 
ATOM     12  HN  UNL d   1      -1.764   4.007  -1.763  1.00  0.00     0.194 HD
BRANCH  11  13
ATOM     13  C   UNL d   1      -4.281   4.604  -2.364  0.00  0.00     0.042 A 
ATOM     14  C   UNL d   1      -3.626   4.622  -3.600  0.00  0.00     0.129 A 
ATOM     15  F   UNL d   1      -2.544   3.862  -3.827  0.00  0.00    -0.205 F 
ATOM     16  C   UNL d   1      -4.103   5.393  -4.655  0.00  0.00     0.043 A 
ATOM     17  C   UNL d   1      -5.253   6.159  -4.486  0.00  0.00     0.005 A 
ATOM     18  C   UNL d   1      -5.925   6.137  -3.261  0.00  0.00     0.025 A 
ATOM     19  C   UNL d   1      -5.445   5.358  -2.200  0.00  0.00     0.048 A 
ATOM     20 CL   UNL d   1      -6.327   5.398  -0.716  0.00  0.00    -0.083 Cl
ENDBRANCH  11  13
ENDBRANCH   9  10
ENDBRANCH   7   9
ENDBRANCH   1   7
BRANCH   3  21
ATOM     21  C   UNL d   1       2.243   1.619   0.043  0.00  0.00     0.060 C 
BRANCH  21  22
ATOM     22  C   UNL d   1       3.111   1.455  -1.210  0.00  0.00     0.002 C 
ATOM     23  C   UNL d   1       2.410   1.838  -2.505  0.00  0.00     0.005 C 
ENDBRANCH  21  22
ENDBRANCH   3  21
BRANCH   2  24
ATOM     24  C   UNL d   1       1.984  -1.569   0.042  0.00  0.00     0.056 A 
ATOM     25  C   UNL d   1       3.173  -1.343   0.743  0.00  0.00     0.033 A 
ATOM     26  C   UNL d   1       4.234  -2.246   0.636  0.00  0.00     0.026 A 
ATOM     27  C   UNL d   1       4.098  -3.388  -0.149  0.00  0.00     0.034 A 
ATOM     28  C   UNL d   1       2.892  -3.664  -0.788  0.00  0.00     0.026 A 
ATOM     29 CL   UNL d   1       5.432  -4.458  -0.333  0.00  0.00    -0.084 Cl
ATOM     30  C   UNL d   1       1.828  -2.765  -0.680  0.00  0.00     0.033 A 
ENDBRANCH   2  24
TORSDOF 7
