REMARK  4 active torsions:
REMARK  status: ('A' for Active; 'I' for Inactive)
REMARK    1  A    between atoms: N_2  and  S_1 
REMARK    2  A    between atoms: C_3  and  S_1 
REMARK    3  A    between atoms: C_16  and  C_8 
REMARK    4  A    between atoms: S_21  and  C_13 
ROOT
ATOM      1  C   UNL d   1       0.684  -1.532  -0.896  0.00  0.00     0.122 C 
ATOM      2  S   UNL d   1       0.421  -1.457  -2.580  0.00  0.00    -0.074 SA
ATOM      3  C   UNL d   1      -0.245  -3.041  -2.622  0.00  0.00     0.033 C 
ATOM      4  C   UNL d   1       0.588  -2.835  -0.446  0.00  0.00     0.034 C 
ATOM      5  C   UNL d   1       0.070  -3.712  -1.452  0.00  0.00     0.023 C 
ENDROOT
BRANCH   1   6
ATOM      6  S   UNL d   1       1.054   0.010  -0.105  0.00  0.00     0.289 S 
ATOM      7  O   UNL d   1       0.883  -0.219   1.322  0.00  0.00    -0.198 OA
ATOM      8  O   UNL d   1       2.307   0.466  -0.676  0.00  0.00    -0.198 OA
BRANCH   6   9
ATOM      9  N   UNL d   1      -0.139   1.207  -0.526  0.00  0.00    -0.181 N 
ATOM     10  N   UNL d   1      -1.272   0.943  -1.245  0.00  0.00    -0.289 N 
ATOM     11  C   UNL d   1      -1.883   2.125  -1.355  0.00  0.00     0.025 A 
ATOM     12  HN  UNL d   1      -1.581   0.044  -1.615  1.00  0.00     0.188 HD
ATOM     13  C   UNL d   1      -3.134   2.264  -2.141  0.00  0.00     0.070 C 
ATOM     14  C   UNL d   1      -1.195   3.135  -0.656  0.00  0.00     0.053 A 
ATOM     15  C   UNL d   1      -0.065   2.535  -0.134  0.00  0.00     0.044 A 
ATOM     16  C   UNL d   1       1.021   3.138   0.676  0.00  0.00     0.071 C 
ENDBRANCH   6   9
ENDBRANCH   1   6
BRANCH   3  17
ATOM     17  C   UNL d   1      -1.024  -3.492  -3.788  0.00  0.00     0.052 A 
ATOM     18  N   UNL d   1      -1.092  -4.830  -3.960  0.00  0.00    -0.336 N 
ATOM     19  C   UNL d   1      -1.873  -5.261  -4.966  0.00  0.00     0.144 A 
ATOM     20  HN  UNL d   1      -0.579  -5.477  -3.361  1.00  0.00     0.168 HD
ATOM     21  N   UNL d   1      -2.585  -4.466  -5.783  0.00  0.00    -0.347 N 
ATOM     22  C   UNL d   1      -2.499  -3.147  -5.567  0.00  0.00     0.092 A 
ATOM     23  HN  UNL d   1      -3.163  -4.849  -6.531  1.00  0.00     0.167 HD
ATOM     24  C   UNL d   1      -1.727  -2.601  -4.578  0.00  0.00     0.048 A 
BRANCH  19  25
ATOM     25  S   UNL d   1      -2.059  -7.002  -5.272  0.00  0.00    -0.098 SA
ATOM     26  C   UNL d   1      -0.921  -7.686  -4.051  0.00  0.00     0.099 C 
ENDBRANCH  19  25
ENDBRANCH   3  17
TORSDOF 4
