REMARK  1 active torsions:
REMARK  status: ('A' for Active; 'I' for Inactive)
REMARK    1  A    between atoms: N_7  and  C_1 
ROOT
ATOM      1  C   UNL d   1       2.143  -0.704   0.007  0.00  0.00     0.185 A 
ATOM      2  C   UNL d   1      -0.162   0.563  -0.004  0.00  0.00     0.179 A 
ATOM      3  C   UNL d   1      -0.213  -0.810   0.007  0.00  0.00     0.049 A 
ATOM      4  C   UNL d   1       1.040  -1.489   0.012  0.00  0.00    -0.006 A 
ATOM      5  C   UNL d   1       2.116   0.776   0.023  0.00  0.00     0.323 A 
ATOM      6  O   UNL d   1       0.883   1.375  -0.006  0.00  0.00    -0.254 OA
ATOM      7  N   UNL d   1      -1.448   1.001  -0.009  0.00  0.00    -0.279 N 
ATOM      8  N   UNL d   1      -2.340  -0.004  -0.005  0.00  0.00    -0.302 N 
ATOM      9  HN  UNL d   1      -3.357   0.066  -0.009  1.00  0.00     0.186 HD
ATOM     10  C   UNL d   1      -1.595  -1.123   0.004  0.00  0.00     0.037 A 
ATOM     11  O   UNL d   1       3.134   1.458   0.077  0.00  0.00    -0.257 OA
ATOM     12  C   UNL d   1       1.047  -2.988  -0.004  0.00  0.00     0.052 C 
ATOM     13  C   UNL d   1      -2.289  -2.435   0.004  0.00  0.00     0.070 C 
ATOM     14  H   UNL d   1      -1.787   1.958  -0.016  0.00  0.00     0.189 HD
ENDROOT
BRANCH   1  15
ATOM     15  N   UNL d   1       3.434  -1.318  -0.010  0.00  0.00    -0.109 N 
ATOM     16  O   UNL d   1       3.757  -1.986   0.978  0.00  0.00    -0.532 OA
ATOM     17  O   UNL d   1       4.112  -1.175  -1.038  0.00  0.00    -0.532 OA
ENDBRANCH   1  15
TORSDOF 1
