REMARK  7 active torsions:
REMARK  status: ('A' for Active; 'I' for Inactive)
REMARK    1  A    between atoms: N_10  and  C_3 
REMARK    2  A    between atoms: C_8  and  C_7 
REMARK    3  A    between atoms: C_15  and  C_7 
REMARK    4  A    between atoms: C_11  and  C_9 
REMARK    5  A    between atoms: C_13  and  C_9 
REMARK    6  A    between atoms: C_12  and  C_11 
REMARK    7  A    between atoms: C_17  and  C_12 
ROOT
ATOM      1  N   UNL d   1      -0.291   1.772   0.260  0.00  0.00    -0.303 N 
ATOM      2  HN  UNL d   1      -0.774   2.665   0.166  1.00  0.00     0.171 HD
ATOM      3  C   UNL d   1       0.991   1.673   0.317  0.00  0.00     0.150 A 
ATOM      4  C   UNL d   1      -0.011  -0.622   0.441  0.00  0.00     0.087 A 
ATOM      5  S   UNL d   1       1.591   0.037   0.389  0.00  0.00    -0.048 SA
ATOM      6  C   UNL d   1      -0.960   0.554   0.338  0.00  0.00     0.265 A 
ATOM      7  C   UNL d   1      -0.292  -1.949   0.528  0.00  0.00    -0.003 C 
ATOM      8  O   UNL d   1      -2.173   0.441   0.314  0.00  0.00    -0.267 OA
ENDROOT
BRANCH   7   9
ATOM      9  C   UNL d   1      -1.661  -2.503   0.418  0.00  0.00     0.022 C 
ATOM     10  C   UNL d   1      -2.122  -3.623   1.037  0.00  0.00    -0.040 C 
BRANCH  10  11
ATOM     11  C   UNL d   1      -1.485  -4.282   2.255  0.00  0.00     0.123 C 
BRANCH  11  12
ATOM     12  C   UNL d   1      -1.959  -3.688   3.582  0.00  0.00     0.163 C 
ATOM     13  O   UNL d   1      -2.918  -2.928   3.691  0.00  0.00    -0.292 OA
BRANCH  12  14
ATOM     14  C   UNL d   1      -1.293  -4.168   4.826  0.00  0.00     0.010 A 
ATOM     15  C   UNL d   1       0.084  -4.410   4.899  0.00  0.00     0.015 A 
ATOM     16  C   UNL d   1       0.641  -4.921   6.075  0.00  0.00     0.001 A 
ATOM     17  C   UNL d   1      -0.173  -5.191   7.176  0.00  0.00     0.000 A 
ATOM     18  C   UNL d   1      -1.538  -4.923   7.117  0.00  0.00     0.001 A 
ATOM     19  C   UNL d   1      -2.097  -4.402   5.948  0.00  0.00     0.015 A 
ENDBRANCH  12  14
ENDBRANCH  11  12
ENDBRANCH  10  11
BRANCH  10  20
ATOM     20  C   UNL d   1      -3.222  -4.410   0.399  0.00  0.00    -0.029 A 
ATOM     21  C   UNL d   1      -3.155  -4.703  -0.979  0.00  0.00     0.013 A 
ATOM     22  C   UNL d   1      -4.048  -5.595  -1.583  0.00  0.00     0.024 A 
ATOM     23  C   UNL d   1      -5.029  -6.210  -0.815  0.00  0.00     0.034 A 
ATOM     24  C   UNL d   1      -5.126  -5.931   0.546  0.00  0.00     0.024 A 
ATOM     25 CL   UNL d   1      -6.105  -7.336  -1.546  0.00  0.00    -0.084 Cl
ATOM     26  C   UNL d   1      -4.228  -5.037   1.149  0.00  0.00     0.013 A 
ENDBRANCH  10  20
ENDBRANCH   7   9
BRANCH   7  27
ATOM     27  C   UNL d   1       0.846  -2.943   0.472  0.00  0.00    -0.024 A 
ATOM     28  C   UNL d   1       1.918  -2.936   1.379  0.00  0.00     0.012 A 
ATOM     29  C   UNL d   1       2.931  -3.894   1.297  0.00  0.00     0.001 A 
ATOM     30  C   UNL d   1       2.850  -4.917   0.354  0.00  0.00     0.000 A 
ATOM     31  C   UNL d   1       1.774  -4.967  -0.526  0.00  0.00     0.001 A 
ATOM     32  C   UNL d   1       0.799  -3.973  -0.485  0.00  0.00     0.012 A 
ENDBRANCH   7  27
BRANCH   3  33
ATOM     33  N   UNL d   1       1.931   2.677   0.310  0.00  0.00    -0.361 N 
ATOM     34  C   UNL d   1       3.320   2.523   0.743  0.00  0.00     0.125 C 
ATOM     35  C   UNL d   1       3.853   3.944   0.836  0.00  0.00     0.021 C 
ATOM     36  C   UNL d   1       3.081   4.651  -0.263  0.00  0.00     0.021 C 
ATOM     37  C   UNL d   1       1.681   4.035  -0.151  0.00  0.00     0.125 C 
ENDBRANCH   3  33
TORSDOF 7
