REMARK  3 active torsions:
REMARK  status: ('A' for Active; 'I' for Inactive)
REMARK    1  A    between atoms: N_17  and  N_7 
REMARK    2  A    between atoms: C_9  and  C_14 
REMARK    3  A    between atoms: C_23  and  N_17 
ROOT
ATOM      1  S   UNL d   1       0.817  -1.621  -0.090  0.00  0.00     0.286 S 
ATOM      2  C   UNL d   1       2.135  -0.530  -0.515  0.00  0.00     0.216 C 
ATOM      3  N   UNL d   1       1.161  -1.943   1.552  0.00  0.00    -0.273 N 
ATOM      4  C   UNL d   1       2.269   0.636   0.420  0.00  0.00     0.232 C 
ATOM      5  C   UNL d   1       2.083   0.319   1.819  0.00  0.00     0.085 A 
ATOM      6  C   UNL d   1       1.614  -0.870   2.347  0.00  0.00     0.066 A 
ATOM      7  N   UNL d   1       2.960  -0.833  -1.476  0.00  0.00    -0.285 N 
ATOM      8  HN  UNL d   1       2.792  -1.639  -2.078  1.00  0.00     0.188 HD
ATOM      9  S   UNL d   1       2.487   1.452   3.028  0.00  0.00    -0.096 SA
ATOM     10  O   UNL d   1      -0.396  -0.834  -0.148  0.00  0.00    -0.198 OA
ATOM     11  O   UNL d   1       0.979  -2.841  -0.850  0.00  0.00    -0.198 OA
ATOM     12  C   UNL d   1       1.661  -0.861   3.772  0.00  0.00     0.039 A 
ATOM     13  C   UNL d   1       2.106   0.344   4.272  0.00  0.00     0.053 A 
ATOM     14  O   UNL d   1       2.595   1.724  -0.050  0.00  0.00    -0.284 OA
ATOM     15  C   UNL d   1       0.988  -3.311   2.052  0.00  0.00     0.170 C 
ENDROOT
BRANCH   7  16
ATOM     16  N   UNL d   1       4.049  -0.042  -1.653  0.00  0.00    -0.300 N 
ATOM     17  H   UNL d   1       4.010   0.963  -1.445  0.00  0.00     0.187 HD
BRANCH  16  18
ATOM     18  C   UNL d   1       4.961  -0.396  -2.667  0.00  0.00     0.049 A 
ATOM     19  C   UNL d   1       4.761  -1.512  -3.493  0.00  0.00     0.047 A 
ATOM     20  C   UNL d   1       5.711  -1.898  -4.452  0.00  0.00     0.050 A 
ATOM     21  C   UNL d   1       6.905  -1.171  -4.548  0.00  0.00     0.016 A 
ATOM     22  C   UNL d   1       7.138  -0.084  -3.707  0.00  0.00     0.003 A 
ATOM     23  C   UNL d   1       6.172   0.299  -2.773  0.00  0.00     0.031 A 
BRANCH  20  24
ATOM     24  C   UNL d   1       5.456  -3.069  -5.365  0.00  0.00     0.417 C 
ATOM     25  F   UNL d   1       4.258  -3.683  -5.160  0.00  0.00    -0.166 F 
ATOM     26  F   UNL d   1       5.467  -2.712  -6.681  0.00  0.00    -0.166 F 
ATOM     27  F   UNL d   1       6.400  -4.044  -5.239  0.00  0.00    -0.166 F 
ENDBRANCH  20  24
ENDBRANCH  16  18
ENDBRANCH   7  16
TORSDOF 3
