REMARK  6 active torsions:
REMARK  status: ('A' for Active; 'I' for Inactive)
REMARK    1  A    between atoms: C_5  and  C_1 
REMARK    2  A    between atoms: C_2  and  C_7 
REMARK    3  A    between atoms: N_3  and  C_5 
REMARK    4  A    between atoms: N_6  and  N_3 
REMARK    5  A    between atoms: C_13  and  N_3 
REMARK       I    between atoms: C_4  and  N_6 
REMARK    6  A    between atoms: C_8  and  C_4 
ROOT
ATOM      1  N   UNL d   1      -1.689   2.910  -0.050  0.00  0.00    -0.190 NA
ENDROOT
BRANCH   1   2
ATOM      2  C   UNL d   1      -0.355   2.295  -0.275  0.00  0.00     0.163 C 
BRANCH   2   3
ATOM      3  C   UNL d   1      -0.207   1.252  -1.369  0.00  0.00     0.017 A 
ATOM      4  C   UNL d   1       0.276  -0.010  -0.987  0.00  0.00     0.125 A 
ATOM      5  F   UNL d   1       0.300  -0.347   0.312  0.00  0.00    -0.205 F 
ATOM      6  C   UNL d   1       0.820  -0.916  -1.900  0.00  0.00     0.043 A 
ATOM      7  C   UNL d   1       0.891  -0.584  -3.246  0.00  0.00     0.005 A 
ATOM      8  C   UNL d   1       0.343   0.623  -3.671  0.00  0.00     0.024 A 
ATOM      9  C   UNL d   1      -0.223   1.523  -2.748  0.00  0.00     0.044 A 
ATOM     10 CL   UNL d   1      -0.872   2.966  -3.428  0.00  0.00    -0.084 Cl
ENDBRANCH   2   3
ENDBRANCH   1   2
BRANCH   1  11
ATOM     11  N   UNL d   1      -2.491   2.236   0.967  0.00  0.00    -0.280 N 
ATOM     12  C   UNL d   1      -3.868   2.130   0.773  0.00  0.00     0.266 C 
ATOM     13  O   UNL d   1      -4.443   2.431  -0.277  0.00  0.00    -0.266 OA
ATOM     14  H   UNL d   1      -2.060   2.154   1.881  0.00  0.00     0.184 HD
BRANCH  12  15
ATOM     15  C   UNL d   1      -4.727   1.692   1.927  0.00  0.00     0.034 A 
ATOM     16  C   UNL d   1      -6.029   2.229   2.006  0.00  0.00     0.033 A 
ATOM     17  C   UNL d   1      -6.958   1.796   2.972  0.00  0.00     0.048 A 
ATOM     18  C   UNL d   1      -6.576   0.782   3.859  0.00  0.00     0.016 A 
ATOM     19  C   UNL d   1      -5.281   0.257   3.808  0.00  0.00     0.002 A 
ATOM     20  C   UNL d   1      -4.351   0.715   2.856  0.00  0.00     0.017 A 
BRANCH  17  21
ATOM     21  C   UNL d   1      -8.354   2.372   3.034  0.00  0.00     0.417 C 
ATOM     22  F   UNL d   1      -8.515   3.499   2.285  0.00  0.00    -0.166 F 
ATOM     23  F   UNL d   1      -9.306   1.498   2.606  0.00  0.00    -0.166 F 
ATOM     24  F   UNL d   1      -8.716   2.720   4.301  0.00  0.00    -0.166 F 
ENDBRANCH  17  21
ENDBRANCH  12  15
ENDBRANCH   1  11
BRANCH   1  25
ATOM     25  C   UNL d   1      -1.652   4.343   0.079  0.00  0.00     0.030 A 
ATOM     26  C   UNL d   1      -0.848   5.138  -0.769  0.00  0.00     0.025 A 
ATOM     27  C   UNL d   1      -0.811   6.537  -0.700  0.00  0.00     0.002 A 
ATOM     28  C   UNL d   1      -1.590   7.202   0.230  0.00  0.00     0.000 A 
ATOM     29  C   UNL d   1      -2.415   6.461   1.070  0.00  0.00     0.002 A 
ATOM     30  C   UNL d   1      -2.444   5.059   0.995  0.00  0.00     0.025 A 
ENDBRANCH   1  25
TORSDOF 6
