REMARK  4 active torsions:
REMARK  status: ('A' for Active; 'I' for Inactive)
REMARK    1  A    between atoms: C_6  and  C_1 
REMARK    2  A    between atoms: C_4  and  C_5 
REMARK       I    between atoms: N_10  and  C_6 
REMARK    3  A    between atoms: N_11  and  N_10 
REMARK    4  A    between atoms: C_12  and  N_11 
ROOT
ATOM      1  C   UNL d   1      -0.069   2.460   0.283  0.00  0.00     0.274 C 
ATOM      2  N   UNL d   1      -1.137   3.305   0.553  0.00  0.00    -0.265 N 
ATOM      3  O   UNL d   1      -0.233   1.332  -0.184  0.00  0.00    -0.266 OA
ATOM      4  H   UNL d   1      -1.028   4.292   0.742  0.00  0.00     0.190 HD
ENDROOT
BRANCH   2   5
ATOM      5  N   UNL d   1      -2.396   2.904   0.095  0.00  0.00    -0.297 N 
ATOM      6  H   UNL d   1      -2.535   2.959  -0.916  0.00  0.00     0.187 HD
BRANCH   5   7
ATOM      7  C   UNL d   1      -3.502   3.086   0.945  0.00  0.00     0.063 A 
ATOM      8  C   UNL d   1      -4.817   3.097   0.434  0.00  0.00     0.075 A 
ATOM      9  C   UNL d   1      -5.913   3.200   1.319  0.00  0.00     0.018 A 
ATOM     10  C   UNL d   1      -5.721   3.273   2.695  0.00  0.00     0.001 A 
ATOM     11  C   UNL d   1      -4.431   3.241   3.207  0.00  0.00     0.002 A 
ATOM     12  C   UNL d   1      -3.338   3.144   2.342  0.00  0.00     0.032 A 
BRANCH   8  13
ATOM     13  C   UNL d   1      -5.130   3.006  -1.039  0.00  0.00     0.419 C 
ATOM     14  F   UNL d   1      -4.033   2.943  -1.850  0.00  0.00    -0.166 F 
ATOM     15  F   UNL d   1      -5.886   1.918  -1.352  0.00  0.00    -0.166 F 
ATOM     16  F   UNL d   1      -5.838   4.086  -1.480  0.00  0.00    -0.166 F 
ENDBRANCH   8  13
ENDBRANCH   5   7
ENDBRANCH   2   5
BRANCH   1  17
ATOM     17  C   UNL d   1       1.265   2.977   0.547  0.00  0.00     0.089 A 
ATOM     18  C   UNL d   1       2.419   2.257   0.281  0.00  0.00     0.090 A 
ATOM     19  O   UNL d   1       3.510   2.988   0.614  0.00  0.00    -0.242 OA
ATOM     20  C   UNL d   1       2.684   0.911  -0.270  0.00  0.00     0.080 C 
ATOM     21  N   UNL d   1       3.111   4.204   1.115  0.00  0.00    -0.265 N 
ATOM     22  C   UNL d   1       1.772   4.199   1.084  0.00  0.00     0.047 A 
ATOM     23  HN  UNL d   1       3.714   4.958   1.444  1.00  0.00     0.194 HD
ATOM     24  C   UNL d   1       1.068   5.402   1.589  0.00  0.00     0.071 C 
ENDBRANCH   1  17
TORSDOF 4
