REMARK  2 active torsions:
REMARK  status: ('A' for Active; 'I' for Inactive)
REMARK    1  A    between atoms: C_5  and  C_2 
REMARK    2  A    between atoms: S_17  and  C_4 
ROOT
ATOM      1  C   UNL d   1       0.051  -0.821  -0.028  0.00  0.00     0.041 A 
ATOM      2  C   UNL d   1       1.786   0.771  -0.137  0.00  0.00     0.043 A 
ATOM      3  C   UNL d   1       0.413   0.589  -0.020  0.00  0.00    -0.022 A 
ATOM      4  C   UNL d   1       1.163  -1.639  -0.065  0.00  0.00     0.056 A 
ATOM      5  S   UNL d   1       2.603  -0.729  -0.135  0.00  0.00    -0.079 SA
ATOM      6  C   UNL d   1      -1.349  -1.250  -0.036  0.00  0.00     0.162 C 
ATOM      7  C   UNL d   1      -0.649   1.670  -0.006  0.00  0.00     0.050 C 
ATOM      8  C   UNL d   1      -2.066   1.156   0.363  0.00  0.00    -0.037 C 
ATOM      9  C   UNL d   1      -2.368  -0.174  -0.354  0.00  0.00     0.093 C 
ATOM     10  O   UNL d   1      -1.716  -2.409   0.152  0.00  0.00    -0.292 OA
ATOM     11  C   UNL d   1      -3.110   2.196  -0.088  0.00  0.00     0.015 C 
ATOM     12  C   UNL d   1      -2.193   0.986   1.891  0.00  0.00     0.015 C 
ENDROOT
BRANCH   2  13
ATOM     13  C   UNL d   1       2.501   2.105  -0.234  0.00  0.00     0.084 A 
ATOM     14  C   UNL d   1       3.800   2.407  -0.726  0.00  0.00     0.057 A 
ATOM     15  C   UNL d   1       3.972   3.758  -0.555  0.00  0.00     0.128 A 
ATOM     16 BR   UNL d   1       5.059   1.293  -1.553  0.00  0.00    -0.047 Br
ATOM     17  N   UNL d   1       2.819   4.200   0.010  0.00  0.00    -0.310 N 
ATOM     18  N   UNL d   1       1.897   3.238   0.173  0.00  0.00    -0.298 N 
ATOM     19  H   UNL d   1       2.583   5.145   0.294  0.00  0.00     0.186 HD
ATOM     20  HN  UNL d   1       0.946   3.342   0.528  1.00  0.00     0.187 HD
ENDBRANCH   2  13
BRANCH   4  21
ATOM     21  S   UNL d   1       1.258  -3.396  -0.157  0.00  0.00    -0.126 SA
ATOM     22  C   UNL d   1       0.833  -3.859   1.536  0.00  0.00     0.096 C 
ENDBRANCH   4  21
TORSDOF 2
