REMARK  1 active torsions:
REMARK  status: ('A' for Active; 'I' for Inactive)
REMARK    1  A    between atoms: C_11  and  C_4 
ROOT
ATOM      1  S   UNL d   1       0.885   1.466  -0.382  0.00  0.00     0.158 S 
ATOM      2  S   UNL d   1       0.884  -1.458  -0.386  0.00  0.00     0.158 S 
ATOM      3  C   UNL d   1       1.716   0.003   0.110  0.00  0.00     0.279 C 
ATOM      4  C   UNL d   1      -1.451   0.005  -0.223  0.00  0.00     0.046 C 
ATOM      5  C   UNL d   1      -0.758  -1.268   0.258  0.00  0.00     0.151 C 
ATOM      6  C   UNL d   1      -0.756   1.275   0.262  0.00  0.00     0.151 C 
ATOM      7  O   UNL d   1       1.490   2.558   0.356  0.00  0.00    -0.227 OA
ATOM      8  O   UNL d   1       0.802   1.526  -1.827  0.00  0.00    -0.227 OA
ATOM      9  O   UNL d   1       0.802  -1.513  -1.830  0.00  0.00    -0.227 OA
ATOM     10  O   UNL d   1       1.489  -2.553   0.349  0.00  0.00    -0.227 OA
ENDROOT
BRANCH   4  11
ATOM     11  C   UNL d   1      -2.897   0.001   0.261  0.00  0.00    -0.052 A 
ATOM     12  C   UNL d   1      -3.945  -0.041  -0.670  0.00  0.00     0.009 A 
ATOM     13  C   UNL d   1      -5.276  -0.055  -0.242  0.00  0.00     0.024 A 
ATOM     14  C   UNL d   1      -5.568  -0.027   1.120  0.00  0.00     0.034 A 
ATOM     15  C   UNL d   1      -4.542   0.017   2.057  0.00  0.00     0.024 A 
ATOM     16 CL   UNL d   1      -7.205  -0.049   1.648  0.00  0.00    -0.084 Cl
ATOM     17  C   UNL d   1      -3.212   0.030   1.631  0.00  0.00     0.009 A 
ENDBRANCH   4  11
TORSDOF 1
