REMARK  4 active torsions:
REMARK  status: ('A' for Active; 'I' for Inactive)
REMARK    1  A    between atoms: S_2  and  N_1 
REMARK    2  A    between atoms: C_13  and  S_2 
REMARK    3  A    between atoms: S_9  and  C_4 
REMARK    4  A    between atoms: C_7  and  S_9 
ROOT
ATOM      1  N   UNL d   1      -0.093  -1.171   0.067  0.00  0.00    -0.180 N 
ATOM      2  C   UNL d   1       1.240  -0.785   0.127  0.00  0.00     0.061 C 
ATOM      3  C   UNL d   1       1.210   0.597   0.079  0.00  0.00     0.057 C 
ATOM      4  N   UNL d   1      -0.948  -0.110   0.176  0.00  0.00    -0.287 N 
ATOM      5  HN  UNL d   1      -1.962  -0.132   0.282  1.00  0.00     0.188 HD
ATOM      6  C   UNL d   1      -0.154   0.964   0.112  0.00  0.00     0.042 C 
ATOM      7  C   UNL d   1       2.409  -1.702   0.161  0.00  0.00     0.072 C 
ATOM      8  C   UNL d   1      -0.755   2.320   0.064  0.00  0.00     0.071 C 
ENDROOT
BRANCH   1   9
ATOM      9  S   UNL d   1      -0.646  -2.821  -0.079  0.00  0.00     0.282 S 
ATOM     10  O   UNL d   1      -2.033  -2.760  -0.497  0.00  0.00    -0.198 OA
ATOM     11  O   UNL d   1       0.358  -3.501  -0.882  0.00  0.00    -0.198 OA
BRANCH   9  12
ATOM     12  C   UNL d   1      -0.612  -3.485   1.560  0.00  0.00     0.081 A 
ATOM     13  C   UNL d   1      -0.973  -2.703   2.659  0.00  0.00     0.026 A 
ATOM     14  C   UNL d   1      -0.932  -3.260   3.940  0.00  0.00     0.008 A 
ATOM     15  C   UNL d   1      -0.544  -4.595   4.128  0.00  0.00    -0.062 A 
ATOM     16  C   UNL d   1      -0.216  -5.377   3.014  0.00  0.00     0.008 A 
ATOM     17  C   UNL d   1      -0.488  -5.169   5.514  0.00  0.00     0.048 C 
ATOM     18  C   UNL d   1      -0.251  -4.826   1.732  0.00  0.00     0.026 A 
ENDBRANCH   9  12
ENDBRANCH   1   9
BRANCH   3  19
ATOM     19  S   UNL d   1       2.577   1.670  -0.110  0.00  0.00    -0.050 SA
BRANCH  19  20
ATOM     20  C   UNL d   1       2.796   2.188   1.532  0.00  0.00     0.151 A 
ATOM     21  N   UNL d   1       3.727   3.132   1.890  0.00  0.00    -0.341 N 
ATOM     22  C   UNL d   1       3.634   3.301   3.251  0.00  0.00     0.109 A 
ATOM     23  C   UNL d   1       4.669   3.853   1.068  0.00  0.00     0.158 C 
ATOM     24  C   UNL d   1       2.650   2.431   3.653  0.00  0.00     0.107 A 
ATOM     25  N   UNL d   1       2.136   1.749   2.582  0.00  0.00    -0.345 N 
ATOM     26  HN  UNL d   1       1.396   1.047   2.595  1.00  0.00     0.167 HD
ENDBRANCH  19  20
ENDBRANCH   3  19
TORSDOF 4
