REMARK  5 active torsions:
REMARK  status: ('A' for Active; 'I' for Inactive)
REMARK    1  A    between atoms: C_2  and  S_1 
REMARK    2  A    between atoms: N_3  and  S_1 
REMARK    3  A    between atoms: N_10  and  C_5 
REMARK    4  A    between atoms: O_14  and  C_9 
REMARK    5  A    between atoms: O_15  and  C_12 
ROOT
ATOM      1  C   UNL d   1       0.451  -0.361  -1.390  0.00  0.00     0.115 A 
ATOM      2  C   UNL d   1       0.434  -1.632  -1.998  0.00  0.00     0.065 A 
ATOM      3  C   UNL d   1      -0.016   0.756  -2.084  0.00  0.00     0.091 A 
ATOM      4  C   UNL d   1      -0.515   0.586  -3.380  0.00  0.00     0.041 A 
ATOM      5  C   UNL d   1      -0.065  -1.795  -3.288  0.00  0.00     0.069 A 
ATOM      6  C   UNL d   1      -0.532  -0.677  -3.979  0.00  0.00     0.039 A 
ENDROOT
BRANCH   1   7
ATOM      7  S   UNL d   1       1.049  -0.294   0.284  0.00  0.00     0.266 S 
ATOM      8  O   UNL d   1       0.853  -1.614   0.855  0.00  0.00    -0.200 OA
ATOM      9  O   UNL d   1       0.484   0.857   0.959  0.00  0.00    -0.200 OA
BRANCH   7  10
ATOM     10  N   UNL d   1       2.644  -0.060   0.063  0.00  0.00    -0.277 N 
ATOM     11  C   UNL d   1       3.376  -0.097   1.120  0.00  0.00     0.188 C 
ATOM     12  HN  UNL d   1       3.042   0.106  -0.862  1.00  0.00     0.179 HD
BRANCH  11  13
ATOM     13  N   UNL d   1       4.747   0.027   1.162  0.00  0.00    -0.385 N 
ATOM     14  C   UNL d   1       5.476   0.051   2.420  0.00  0.00     0.149 C 
ATOM     15  C   UNL d   1       5.534   0.291  -0.033  0.00  0.00     0.149 C 
ENDBRANCH  11  13
ENDBRANCH   7  10
ENDBRANCH   1   7
BRANCH   3  16
ATOM     16  O   UNL d   1      -0.144   2.015  -1.574  0.00  0.00    -0.354 OA
ATOM     17  C   UNL d   1       1.095   2.686  -1.349  0.00  0.00     0.210 C 
ENDBRANCH   3  16
BRANCH   5  18
ATOM     18  O   UNL d   1      -0.155  -2.978  -3.968  0.00  0.00    -0.356 OA
ATOM     19  C   UNL d   1       0.203  -4.158  -3.255  0.00  0.00     0.210 C 
ENDBRANCH   5  18
TORSDOF 5
