REMARK  8 active torsions:
REMARK  status: ('A' for Active; 'I' for Inactive)
REMARK    1  A    between atoms: C_5  and  C_1 
REMARK    2  A    between atoms: C_2  and  S_10 
REMARK    3  A    between atoms: C_3  and  C_7 
REMARK       I    between atoms: N_6  and  C_3 
REMARK       I    between atoms: C_4  and  N_9 
REMARK    4  A    between atoms: C_19  and  C_4 
REMARK    5  A    between atoms: N_9  and  N_6 
REMARK    6  A    between atoms: S_10  and  C_21 
REMARK    7  A    between atoms: O_20  and  C_19 
REMARK    8  A    between atoms: C_22  and  O_20 
ROOT
ATOM      1  C   UNL d   1      -2.795   6.786  -2.377  0.00  0.00     0.260 C 
ATOM      2  N   UNL d   1      -2.357   5.563  -1.907  0.00  0.00    -0.265 N 
ATOM      3  O   UNL d   1      -3.799   6.898  -3.082  0.00  0.00    -0.269 OA
ATOM      4  H   UNL d   1      -1.548   5.435  -1.300  0.00  0.00     0.190 HD
ENDROOT
BRANCH   2   5
ATOM      5  N   UNL d   1      -3.049   4.406  -2.294  0.00  0.00    -0.263 N 
ATOM      6  C   UNL d   1      -2.480   3.175  -2.022  0.00  0.00     0.270 C 
ATOM      7  O   UNL d   1      -1.409   3.078  -1.425  0.00  0.00    -0.266 OA
ATOM      8  H   UNL d   1      -3.887   4.562  -2.847  0.00  0.00     0.190 HD
BRANCH   6   9
ATOM      9  C   UNL d   1      -3.207   1.946  -2.478  0.00  0.00     0.034 A 
ATOM     10  C   UNL d   1      -2.615   0.695  -2.221  0.00  0.00     0.033 A 
ATOM     11  C   UNL d   1      -3.243  -0.503  -2.607  0.00  0.00     0.048 A 
ATOM     12  C   UNL d   1      -4.482  -0.437  -3.260  0.00  0.00     0.016 A 
ATOM     13  C   UNL d   1      -5.077   0.797  -3.520  0.00  0.00     0.002 A 
ATOM     14  C   UNL d   1      -4.447   1.983  -3.130  0.00  0.00     0.017 A 
BRANCH  11  15
ATOM     15  C   UNL d   1      -2.620  -1.851  -2.325  0.00  0.00     0.417 C 
ATOM     16  F   UNL d   1      -1.407  -1.778  -1.711  0.00  0.00    -0.166 F 
ATOM     17  F   UNL d   1      -2.421  -2.577  -3.460  0.00  0.00    -0.166 F 
ATOM     18  F   UNL d   1      -3.401  -2.623  -1.522  0.00  0.00    -0.166 F 
ENDBRANCH  11  15
ENDBRANCH   6   9
ENDBRANCH   2   5
BRANCH   1  19
ATOM     19  C   UNL d   1      -1.904   7.967  -1.996  0.00  0.00     0.280 C 
BRANCH  19  20
ATOM     20  O   UNL d   1      -2.145   8.348  -0.647  0.00  0.00    -0.342 OA
BRANCH  20  21
ATOM     21  C   UNL d   1      -1.510   9.487  -0.228  0.00  0.00     0.069 A 
ATOM     22  C   UNL d   1      -2.159  10.201   0.781  0.00  0.00     0.038 A 
ATOM     23  C   UNL d   1      -1.581  11.354   1.324  0.00  0.00     0.021 A 
ATOM     24  C   UNL d   1      -0.340  11.808   0.869  0.00  0.00     0.009 A 
ATOM     25  C   UNL d   1       0.319  11.080  -0.127  0.00  0.00     0.021 A 
ATOM     26  C   UNL d   1      -0.266   9.930  -0.679  0.00  0.00     0.038 A 
BRANCH  24  27
ATOM     27  S   UNL d   1       0.403  13.212   1.675  0.00  0.00    -0.016 SA
BRANCH  27  28
ATOM     28  C   UNL d   1       0.714  14.330   0.300  0.00  0.00     0.448 C 
ATOM     29  F   UNL d   1       0.309  13.853  -0.899  0.00  0.00    -0.160 F 
ATOM     30  F   UNL d   1       0.081  15.513   0.493  0.00  0.00    -0.160 F 
ATOM     31  F   UNL d   1       2.038  14.601   0.195  0.00  0.00    -0.160 F 
ENDBRANCH  27  28
ENDBRANCH  24  27
ENDBRANCH  20  21
ENDBRANCH  19  20
ENDBRANCH   1  19
TORSDOF 8
