REMARK  5 active torsions:
REMARK  status: ('A' for Active; 'I' for Inactive)
REMARK    1  A    between atoms: N_2  and  C_1 
REMARK    2  A    between atoms: N_3  and  C_1 
REMARK    3  A    between atoms: C_14  and  N_3 
REMARK    4  A    between atoms: C_5  and  C_8 
REMARK    5  A    between atoms: O_15  and  C_11 
ROOT
ATOM      1  N   UNL d   1      -0.167  -1.030  -0.235  0.00  0.00    -0.358 N 
ATOM      2  C   UNL d   1       0.444  -2.293  -0.659  0.00  0.00     0.126 C 
ATOM      3  C   UNL d   1      -1.063  -0.470  -1.240  0.00  0.00     0.126 C 
ATOM      4  C   UNL d   1      -1.661  -2.869  -2.011  0.00  0.00     0.024 C 
ATOM      5  C   UNL d   1      -2.166  -1.458  -1.628  0.00  0.00     0.029 C 
ATOM      6  C   UNL d   1      -0.599  -3.350  -1.001  0.00  0.00     0.029 C 
ENDROOT
BRANCH   1   7
ATOM      7  C   UNL d   1       0.686  -0.154   0.426  0.00  0.00     0.174 C 
ATOM      8  S   UNL d   1       1.836   0.812  -0.325  0.00  0.00    -0.041 SA
BRANCH   7   9
ATOM      9  N   UNL d   1       0.663  -0.172   1.795  0.00  0.00    -0.332 N 
ATOM     10  H   UNL d   1       1.484   0.258   2.209  0.00  0.00     0.168 HD
BRANCH   9  11
ATOM     11  C   UNL d   1      -0.399  -0.432   2.689  0.00  0.00     0.049 A 
ATOM     12  C   UNL d   1      -0.144  -0.408   4.059  0.00  0.00     0.117 A 
ATOM     13  N   UNL d   1      -1.088  -0.525   5.027  0.00  0.00    -0.373 N 
ATOM     14  C   UNL d   1      -2.362  -0.665   4.607  0.00  0.00     0.088 A 
ATOM     15  HN  UNL d   1      -0.848  -0.508   6.018  1.00  0.00     0.164 HD
ATOM     16  C   UNL d   1      -2.727  -0.711   3.275  0.00  0.00     0.019 A 
ATOM     17  C   UNL d   1      -1.726  -0.598   2.307  0.00  0.00     0.032 A 
ENDBRANCH   9  11
ENDBRANCH   7   9
ENDBRANCH   1   7
BRANCH   4  18
ATOM     18  C   UNL d   1      -1.253  -3.062  -3.478  0.00  0.00    -0.021 A 
ATOM     19  C   UNL d   1      -1.371  -4.330  -4.100  0.00  0.00     0.074 A 
ATOM     20  C   UNL d   1      -0.992  -4.497  -5.441  0.00  0.00     0.037 A 
ATOM     21  C   UNL d   1      -0.555  -3.415  -6.201  0.00  0.00     0.003 A 
ATOM     22  C   UNL d   1      -0.475  -2.160  -5.617  0.00  0.00     0.001 A 
ATOM     23  C   UNL d   1      -0.811  -1.991  -4.272  0.00  0.00     0.010 A 
BRANCH  19  24
ATOM     24  O   UNL d   1      -1.866  -5.362  -3.342  0.00  0.00    -0.355 OA
ATOM     25  C   UNL d   1      -2.482  -6.425  -4.072  0.00  0.00     0.210 C 
ENDBRANCH  19  24
ENDBRANCH   4  18
TORSDOF 5
