REMARK  14 active torsions:
REMARK  status: ('A' for Active; 'I' for Inactive)
REMARK    1  A    between atoms: N_2  and  C_1 
REMARK    2  A    between atoms: C_4  and  C_1 
REMARK    3  A    between atoms: C_5  and  C_1 
REMARK    4  A    between atoms: N_7  and  C_1 
REMARK       I    between atoms: C_6  and  N_2 
REMARK    5  A    between atoms: C_3  and  C_9 
REMARK    6  A    between atoms: C_8  and  C_3 
REMARK    7  A    between atoms: C_11  and  C_3 
REMARK    8  A    between atoms: O_29  and  C_3 
REMARK    9  A    between atoms: C_10  and  C_6 
REMARK   10  A    between atoms: C_12  and  N_7 
REMARK   11  A    between atoms: O_30  and  C_11 
REMARK   12  A    between atoms: O_31  and  C_14 
REMARK   13  A    between atoms: O_33  and  C_16 
REMARK   14  A    between atoms: C_35  and  O_33 
ROOT
ATOM      1  C   UNL d   1       0.984  -0.380   0.340  0.00  0.00     0.290 C 
ENDROOT
BRANCH   1   2
ATOM      2  N   UNL d   1       0.454   0.585  -0.674  0.00  0.00    -0.320 N 
ATOM      3  C   UNL d   1      -0.853   1.056  -0.588  0.00  0.00     0.256 C 
ATOM      4  O   UNL d   1      -1.568   0.674   0.328  0.00  0.00    -0.268 OA
ATOM      5  H   UNL d   1       1.156   1.070  -1.204  0.00  0.00     0.165 HD
BRANCH   3   6
ATOM      6  C   UNL d   1      -1.330   2.061  -1.600  0.00  0.00     0.065 A 
ATOM      7  C   UNL d   1      -2.713   2.289  -1.774  0.00  0.00     0.084 A 
ATOM      8  C   UNL d   1      -3.158   3.281  -2.660  0.00  0.00     0.038 A 
ATOM      9  C   UNL d   1      -2.242   4.051  -3.375  0.00  0.00     0.003 A 
ATOM     10  C   UNL d   1      -0.878   3.821  -3.221  0.00  0.00     0.001 A 
ATOM     11  C   UNL d   1      -0.420   2.839  -2.340  0.00  0.00     0.020 A 
BRANCH   7  12
ATOM     12  O   UNL d   1      -3.604   1.429  -1.185  0.00  0.00    -0.350 OA
BRANCH  12  13
ATOM     13  C   UNL d   1      -4.808   1.983  -0.650  0.00  0.00     0.171 C 
ATOM     14  C   UNL d   1      -5.995   1.536  -1.486  0.00  0.00     0.034 C 
ENDBRANCH  12  13
ENDBRANCH   7  12
ENDBRANCH   3   6
ENDBRANCH   1   2
BRANCH   1  15
ATOM     15  C   UNL d   1       0.252  -1.765   0.286  0.00  0.00     0.435 C 
ATOM     16  F   UNL d   1      -1.091  -1.718   0.195  0.00  0.00    -0.167 F 
ATOM     17  F   UNL d   1       0.670  -2.442  -0.827  0.00  0.00    -0.167 F 
ATOM     18  F   UNL d   1       0.531  -2.564   1.343  0.00  0.00    -0.167 F 
ENDBRANCH   1  15
BRANCH   1  19
ATOM     19  C   UNL d   1       0.825   0.138   1.817  0.00  0.00     0.435 C 
ATOM     20  F   UNL d   1       0.514   1.464   1.859  0.00  0.00    -0.167 F 
ATOM     21  F   UNL d   1      -0.117  -0.514   2.533  0.00  0.00    -0.167 F 
ATOM     22  F   UNL d   1       1.978   0.034   2.526  0.00  0.00    -0.167 F 
ENDBRANCH   1  19
BRANCH   1  23
ATOM     23  N   UNL d   1       2.431  -0.430  -0.194  0.00  0.00    -0.249 NA
ATOM     24  H   UNL d   1       2.404  -0.876  -1.114  0.00  0.00     0.131 HD
BRANCH  23  25
ATOM     25  C   UNL d   1       3.477  -1.057   0.510  0.00  0.00     0.044 C 
ATOM     26  C   UNL d   1       4.783  -0.509   0.544  0.00  0.00     0.090 C 
ATOM     27  C   UNL d   1       5.849  -1.193   1.172  0.00  0.00     0.049 C 
ATOM     28  C   UNL d   1       5.681  -2.442   1.786  0.00  0.00    -0.002 C 
ATOM     29  C   UNL d   1       4.419  -3.027   1.656  0.00  0.00     0.013 C 
ATOM     30  C   UNL d   1       3.366  -2.361   1.011  0.00  0.00     0.027 C 
BRANCH  26  31
ATOM     31  O   UNL d   1       5.179   0.647  -0.077  0.00  0.00    -0.354 OA
ATOM     32  C   UNL d   1       4.311   1.761   0.060  0.00  0.00     0.210 C 
ENDBRANCH  26  31
BRANCH  28  33
ATOM     33  C   UNL d   1       6.813  -3.151   2.540  0.00  0.00     0.271 C 
BRANCH  33  34
ATOM     34  C   UNL d   1       6.364  -3.701   3.913  0.00  0.00     0.432 C 
ATOM     35  F   UNL d   1       5.598  -2.820   4.599  0.00  0.00    -0.167 F 
ATOM     36  F   UNL d   1       5.665  -4.855   3.825  0.00  0.00    -0.167 F 
ATOM     37  F   UNL d   1       7.446  -3.955   4.699  0.00  0.00    -0.167 F 
ENDBRANCH  33  34
BRANCH  33  38
ATOM     38  C   UNL d   1       7.327  -4.404   1.813  0.00  0.00     0.307 C 
ATOM     39  O   UNL d   1       6.726  -5.044   0.961  0.00  0.00    -0.261 OA
BRANCH  38  40
ATOM     40  O   UNL d   1       8.563  -4.754   2.298  0.00  0.00    -0.324 OA
ATOM     41  C   UNL d   1       9.075  -5.983   1.775  0.00  0.00     0.213 C 
ENDBRANCH  38  40
ENDBRANCH  33  38
BRANCH  33  42
ATOM     42  O   UNL d   1       7.917  -2.220   2.704  0.00  0.00    -0.368 OA
ATOM     43  H   UNL d   1       8.591  -2.688   3.239  0.00  0.00     0.212 HD
ENDBRANCH  33  42
ENDBRANCH  28  33
ENDBRANCH  23  25
ENDBRANCH   1  23
TORSDOF 14
