REMARK  7 active torsions:
REMARK  status: ('A' for Active; 'I' for Inactive)
REMARK    1  A    between atoms: C_2  and  S_1 
REMARK    2  A    between atoms: C_5  and  S_1 
REMARK    3  A    between atoms: N_11  and  C_8 
REMARK    4  A    between atoms: C_18  and  N_11 
REMARK    5  A    between atoms: C_16  and  C_18 
REMARK    6  A    between atoms: C_19  and  C_16 
REMARK    7  A    between atoms: O_17  and  C_19 
ROOT
ATOM      1  C   UNL d   1       0.295   0.617   1.687  0.00  0.00     0.159 C 
ATOM      2  C   UNL d   1      -0.552   1.812   1.746  0.00  0.00     0.113 C 
ATOM      3  N   UNL d   1      -1.217   2.763   1.812  0.00  0.00    -0.191 NA
ATOM      4  C   UNL d   1       0.651  -0.068   2.801  0.00  0.00     0.118 C 
ENDROOT
BRANCH   1   5
ATOM      5  S   UNL d   1       0.892  -0.008   0.159  0.00  0.00     0.218 S 
ATOM      6  O   UNL d   1      -0.141  -0.807  -0.474  0.00  0.00    -0.216 OA
ATOM      7  O   UNL d   1       2.231  -0.571   0.319  0.00  0.00    -0.216 OA
BRANCH   5   8
ATOM      8  C   UNL d   1       1.098   1.448  -0.853  0.00  0.00     0.065 A 
ATOM      9  C   UNL d   1       2.339   2.094  -0.900  0.00  0.00     0.025 A 
ATOM     10  C   UNL d   1       2.498   3.215  -1.720  0.00  0.00     0.025 A 
ATOM     11  C   UNL d   1       1.428   3.671  -2.490  0.00  0.00     0.034 A 
ATOM     12  C   UNL d   1       0.201   3.007  -2.464  0.00  0.00     0.025 A 
ATOM     13 CL   UNL d   1       1.625   5.059  -3.488  0.00  0.00    -0.084 Cl
ATOM     14  C   UNL d   1       0.035   1.885  -1.651  0.00  0.00     0.025 A 
ENDBRANCH   5   8
ENDBRANCH   1   5
BRANCH   4  15
ATOM     15  N   UNL d   1       0.278   0.258   4.087  0.00  0.00    -0.397 N 
ATOM     16  H   UNL d   1       0.912   0.845   4.626  0.00  0.00     0.158 HD
BRANCH  15  17
ATOM     17  C   UNL d   1      -0.942  -0.185   4.747  0.00  0.00     0.121 C 
BRANCH  17  18
ATOM     18  C   UNL d   1      -0.682  -1.461   5.542  0.00  0.00     0.046 C 
BRANCH  18  19
ATOM     19  C   UNL d   1      -1.934  -1.933   6.271  0.00  0.00     0.168 C 
BRANCH  19  20
ATOM     20  O   UNL d   1      -2.959  -2.194   5.315  0.00  0.00    -0.396 OA
ATOM     21  C   UNL d   1      -4.162  -2.632   5.934  0.00  0.00     0.201 C 
ENDBRANCH  19  20
ENDBRANCH  18  19
ENDBRANCH  17  18
ENDBRANCH  15  17
ENDBRANCH   4  15
TORSDOF 7
