REMARK  3 active torsions:
REMARK  status: ('A' for Active; 'I' for Inactive)
REMARK    1  A    between atoms: C_11  and  C_1 
REMARK    2  A    between atoms: N_10  and  C_5 
REMARK    3  A    between atoms: C_15  and  C_7 
REMARK       I    between atoms: C_12  and  N_10 
ROOT
ATOM      1  C   UNL d   1      -3.332   3.506   0.346  0.00  0.00     0.685 A 
ATOM      2  N   UNL d   1      -2.741   2.324   0.163  0.00  0.00    -0.189 N 
ATOM      3  HN  UNL d   1      -3.285   1.463   0.106  1.00  0.00     0.184 HD
ATOM      4  C   UNL d   1      -1.399   2.312   0.057  0.00  0.00     0.086 A 
ATOM      5  N   UNL d   1      -2.673   4.670   0.452  0.00  0.00    -0.202 N 
ATOM      6  HN  UNL d   1      -3.161   5.547   0.631  1.00  0.00     0.183 HD
ATOM      7  C   UNL d   1      -0.638   3.458   0.101  0.00  0.00     0.050 A 
ATOM      8  C   UNL d   1      -1.335   4.621   0.309  0.00  0.00     0.108 A 
ENDROOT
BRANCH   4   9
ATOM      9  C   UNL d   1      -0.827   0.983  -0.049  0.00  0.00     0.128 A 
ATOM     10  C   UNL d   1      -1.353  -0.286  -0.078  0.00  0.00     0.074 A 
ATOM     11  C   UNL d   1      -0.230  -1.153  -0.103  0.00  0.00     0.068 A 
ATOM     12  N   UNL d   1       0.906  -0.435  -0.135  0.00  0.00    -0.260 N 
ATOM     13  O   UNL d   1       0.529   0.892  -0.094  0.00  0.00    -0.235 OA
ATOM     14  HN  UNL d   1       1.858  -0.798  -0.180  1.00  0.00     0.195 HD
BRANCH  11  15
ATOM     15  C   UNL d   1      -0.216  -2.616  -0.088  0.00  0.00    -0.007 A 
ATOM     16  C   UNL d   1       0.879  -3.324  -0.606  0.00  0.00     0.014 A 
ATOM     17  C   UNL d   1       0.893  -4.721  -0.598  0.00  0.00     0.001 A 
ATOM     18  C   UNL d   1      -0.184  -5.426  -0.067  0.00  0.00     0.000 A 
ATOM     19  C   UNL d   1      -1.275  -4.737   0.459  0.00  0.00     0.001 A 
ATOM     20  C   UNL d   1      -1.292  -3.340   0.448  0.00  0.00     0.014 A 
ENDBRANCH  11  15
ENDBRANCH   4   9
BRANCH   1  21
ATOM     21  N   UNL d   1      -4.707   3.614   0.478  0.00  0.00    -0.160 N 
ATOM     22  C   UNL d   1      -5.611   2.620   0.214  0.00  0.00     0.231 C 
ATOM     23  O   UNL d   1      -5.369   1.504  -0.239  0.00  0.00    -0.273 OA
ATOM     24  C   UNL d   1      -7.035   3.020   0.507  0.00  0.00     0.118 C 
ATOM     25  H   UNL d   1      -5.010   4.547   0.708  0.00  0.00     0.187 HD
ENDBRANCH   1  21
TORSDOF 3
