REMARK  4 active torsions:
REMARK  status: ('A' for Active; 'I' for Inactive)
REMARK    1  A    between atoms: C_7  and  C_1 
REMARK    2  A    between atoms: C_6  and  C_2 
REMARK    3  A    between atoms: C_9  and  C_3 
REMARK    4  A    between atoms: C_8  and  C_4 
ROOT
ATOM      1  C   UNL d   1       1.462  -0.727  -0.018  0.00  0.00     0.001 A 
ATOM      2  C   UNL d   1       1.455   0.731  -0.019  0.00  0.00     0.001 A 
ATOM      3  C   UNL d   1       0.199   1.199   0.060  0.00  0.00     0.037 A 
ATOM      4  C   UNL d   1       0.212  -1.207   0.092  0.00  0.00     0.037 A 
ATOM      5  C   UNL d   1      -0.655  -0.009   0.137  0.00  0.00     0.195 A 
ATOM      6  O   UNL d   1      -1.871  -0.014   0.222  0.00  0.00    -0.287 OA
ENDROOT
BRANCH   1   7
ATOM      7  C   UNL d   1       2.657  -1.569  -0.139  0.00  0.00    -0.024 A 
ATOM      8  C   UNL d   1       3.111  -1.959  -1.405  0.00  0.00     0.012 A 
ATOM      9  C   UNL d   1       4.281  -2.708  -1.534  0.00  0.00     0.001 A 
ATOM     10  C   UNL d   1       5.004  -3.072  -0.399  0.00  0.00     0.000 A 
ATOM     11  C   UNL d   1       4.556  -2.692   0.866  0.00  0.00     0.001 A 
ATOM     12  C   UNL d   1       3.385  -1.942   0.997  0.00  0.00     0.012 A 
ENDBRANCH   1   7
BRANCH   2  13
ATOM     13  C   UNL d   1       2.645   1.589  -0.070  0.00  0.00    -0.024 A 
ATOM     14  C   UNL d   1       3.257   2.006   1.118  0.00  0.00     0.012 A 
ATOM     15  C   UNL d   1       4.416   2.784   1.077  0.00  0.00     0.001 A 
ATOM     16  C   UNL d   1       4.968   3.147  -0.151  0.00  0.00     0.000 A 
ATOM     17  C   UNL d   1       4.361   2.737  -1.337  0.00  0.00     0.001 A 
ATOM     18  C   UNL d   1       3.203   1.958  -1.298  0.00  0.00     0.012 A 
ENDBRANCH   2  13
BRANCH   4  19
ATOM     19  C   UNL d   1      -0.274  -2.579   0.146  0.00  0.00    -0.021 A 
ATOM     20  C   UNL d   1      -0.393  -3.236   1.377  0.00  0.00     0.012 A 
ATOM     21  C   UNL d   1      -0.901  -4.535   1.435  0.00  0.00     0.001 A 
ATOM     22  C   UNL d   1      -1.288  -5.186   0.264  0.00  0.00     0.000 A 
ATOM     23  C   UNL d   1      -1.163  -4.541  -0.965  0.00  0.00     0.001 A 
ATOM     24  C   UNL d   1      -0.656  -3.242  -1.025  0.00  0.00     0.012 A 
ENDBRANCH   4  19
BRANCH   3  25
ATOM     25  C   UNL d   1      -0.304   2.566   0.090  0.00  0.00    -0.021 A 
ATOM     26  C   UNL d   1      -0.536   3.260  -1.103  0.00  0.00     0.012 A 
ATOM     27  C   UNL d   1      -1.067   4.552  -1.072  0.00  0.00     0.001 A 
ATOM     28  C   UNL d   1      -1.361   5.157   0.149  0.00  0.00     0.000 A 
ATOM     29  C   UNL d   1      -1.118   4.477   1.340  0.00  0.00     0.001 A 
ATOM     30  C   UNL d   1      -0.590   3.184   1.312  0.00  0.00     0.012 A 
ENDBRANCH   3  25
TORSDOF 4
