REMARK  6 active torsions:
REMARK  status: ('A' for Active; 'I' for Inactive)
REMARK    1  A    between atoms: S_16  and  C_3 
REMARK    2  A    between atoms: C_9  and  C_4 
REMARK    3  A    between atoms: O_13  and  N_7 
REMARK    4  A    between atoms: O_21  and  C_9 
REMARK    5  A    between atoms: C_10  and  O_13 
REMARK    6  A    between atoms: C_15  and  C_10 
ROOT
ATOM      1  C   UNL d   1       0.141  -0.850   0.014  0.00  0.00     0.020 A 
ATOM      2  C   UNL d   1       0.441   0.571   0.019  0.00  0.00    -0.020 A 
ATOM      3  C   UNL d   1       1.282  -1.609  -0.163  0.00  0.00     0.054 A 
ATOM      4  C   UNL d   1       1.809   0.822  -0.035  0.00  0.00     0.088 A 
ATOM      5  S   UNL d   1       2.691  -0.646  -0.113  0.00  0.00    -0.076 SA
ATOM      6  C   UNL d   1      -1.241  -1.319   0.138  0.00  0.00     0.046 C 
ATOM      7  N   UNL d   1      -1.451  -2.491   0.651  0.00  0.00    -0.261 N 
ATOM      8  HN  UNL d   1      -0.700  -3.133   0.902  1.00  0.00     0.194 HD
ATOM      9  C   UNL d   1      -0.657   1.613   0.033  0.00  0.00     0.050 C 
ATOM     10  C   UNL d   1      -2.057   1.050   0.414  0.00  0.00    -0.038 C 
ATOM     11  C   UNL d   1      -2.308  -0.319  -0.265  0.00  0.00     0.069 C 
ATOM     12  C   UNL d   1      -3.144   2.031  -0.066  0.00  0.00     0.015 C 
ATOM     13  C   UNL d   1      -2.178   0.916   1.946  0.00  0.00     0.015 C 
ENDROOT
BRANCH   7  14
ATOM     14  O   UNL d   1      -2.817  -2.795   0.829  0.00  0.00    -0.195 OA
BRANCH  14  15
ATOM     15  C   UNL d   1      -2.923  -3.977   1.518  0.00  0.00     0.315 C 
ATOM     16  O   UNL d   1      -2.006  -4.695   1.892  0.00  0.00    -0.257 OA
BRANCH  15  17
ATOM     17  C   UNL d   1      -4.346  -4.309   1.822  0.00  0.00     0.041 A 
ATOM     18  C   UNL d   1      -4.590  -5.469   2.578  0.00  0.00     0.019 A 
ATOM     19  C   UNL d   1      -5.892  -5.838   2.929  0.00  0.00     0.025 A 
ATOM     20  C   UNL d   1      -6.964  -5.048   2.522  0.00  0.00     0.034 A 
ATOM     21  C   UNL d   1      -6.741  -3.898   1.764  0.00  0.00     0.025 A 
ATOM     22 CL   UNL d   1      -8.566  -5.492   2.962  0.00  0.00    -0.084 Cl
ATOM     23  C   UNL d   1      -5.434  -3.525   1.412  0.00  0.00     0.019 A 
ENDBRANCH  15  17
ENDBRANCH  14  15
ENDBRANCH   7  14
BRANCH   3  24
ATOM     24  S   UNL d   1       1.412  -3.325  -0.537  0.00  0.00    -0.126 SA
ATOM     25  C   UNL d   1       1.830  -3.997   1.084  0.00  0.00     0.096 C 
ENDBRANCH   3  24
BRANCH   4  26
ATOM     26  C   UNL d   1       2.497   2.112  -0.062  0.00  0.00     0.300 C 
ATOM     27  O   UNL d   1       1.941   3.205  -0.082  0.00  0.00    -0.259 OA
BRANCH  26  28
ATOM     28  O   UNL d   1       3.854   1.955  -0.071  0.00  0.00    -0.322 OA
ATOM     29  C   UNL d   1       4.606   3.166  -0.141  0.00  0.00     0.213 C 
ENDBRANCH  26  28
ENDBRANCH   4  26
TORSDOF 6
