REMARK  3 active torsions:
REMARK  status: ('A' for Active; 'I' for Inactive)
REMARK    1  A    between atoms: C_4  and  CA_3 
REMARK    2  A    between atoms: OXT_12  and  C_4 
REMARK    3  A    between atoms: O_14  and  C_11 
ROOT
ATOM      1  N   UNL d   1      -2.917  -0.238   0.344  0.00  0.00     0.102 N 
ATOM      2  C   UNL d   1      -0.193   0.658  -0.000  0.00  0.00    -0.045 A 
ATOM      3  CA  UNL d   1      -2.707   1.132  -0.180  0.00  0.00     0.321 C 
ATOM      4  C   UNL d   1      -1.295   1.679   0.083  0.00  0.00     0.086 C 
ATOM      5  C   UNL d   1      -0.489  -0.711  -0.036  0.00  0.00    -0.024 A 
ATOM      6  C   UNL d   1      -1.913  -1.195  -0.138  0.00  0.00     0.310 C 
ATOM      7  C   UNL d   1       1.143   1.083   0.030  0.00  0.00     0.044 A 
ATOM      8  C   UNL d   1       0.567  -1.638  -0.053  0.00  0.00     0.012 A 
ATOM      9  C   UNL d   1       2.172   0.151   0.016  0.00  0.00     0.066 A 
ATOM     10  C   UNL d   1       1.897  -1.210  -0.022  0.00  0.00     0.037 A 
ATOM     11  H   UNL d   1      -3.824  -0.568   0.003  0.00  0.00     0.317 HD
ENDROOT
BRANCH   3  12
ATOM     12  C   UNL d   1      -3.137   1.266  -1.651  0.00  0.00     0.174 C 
ATOM     13  O   UNL d   1      -3.567   0.346  -2.338  0.00  0.00    -0.648 OA
BRANCH  12  14
ATOM     14  OXT UNL d   1      -3.119   2.539  -2.119  0.00  0.00    -0.775 OA
ATOM     15  HXT UNL d   1      -2.852   3.216  -1.471  0.00  0.00     0.167 HD
ENDBRANCH  12  14
ENDBRANCH   3  12
BRANCH   9  16
ATOM     16  O   UNL d   1       3.452   0.621   0.044  0.00  0.00    -0.361 OA
ATOM     17  H   UNL d   1       4.059  -0.138   0.028  0.00  0.00     0.217 HD
ENDBRANCH   9  16
TORSDOF 3
