REMARK  9 active torsions:
REMARK  status: ('A' for Active; 'I' for Inactive)
REMARK    1  A    between atoms: C_2  and  C_1 
REMARK    2  A    between atoms: C_3  and  C_1 
REMARK    3  A    between atoms: C_8  and  C_1 
REMARK    4  A    between atoms: C_5  and  C_2 
REMARK    5  A    between atoms: N_6  and  C_2 
REMARK    6  A    between atoms: C_4  and  C_3 
REMARK    7  A    between atoms: C_7  and  N_6 
REMARK    8  A    between atoms: O_20  and  C_8 
REMARK    9  A    between atoms: C_21  and  O_20 
ROOT
ATOM      1  C   UNL d   1       0.465  -1.243  -0.526  0.00  0.00     0.139 C 
ENDROOT
BRANCH   1   2
ATOM      2  C   UNL d   1       1.054   0.011   0.136  0.00  0.00     0.191 C 
BRANCH   2   3
ATOM      3  C   UNL d   1       0.532   0.292   1.532  0.00  0.00     0.248 C 
ATOM      4  O   UNL d   1      -0.472  -0.280   1.976  0.00  0.00    -0.287 OA
BRANCH   3   5
ATOM      5  C   UNL d   1       1.173   1.450   2.291  0.00  0.00     0.452 C 
ATOM      6  F   UNL d   1       2.075   2.149   1.551  0.00  0.00    -0.163 F 
ATOM      7  F   UNL d   1       0.235   2.365   2.672  0.00  0.00    -0.163 F 
ATOM      8  F   UNL d   1       1.803   1.053   3.426  0.00  0.00    -0.163 F 
ENDBRANCH   3   5
ENDBRANCH   2   3
BRANCH   2   9
ATOM      9  C   UNL d   1       2.554  -0.008   0.031  0.00  0.00     0.273 C 
ATOM     10  O   UNL d   1       3.315  -0.191   0.968  0.00  0.00    -0.264 OA
BRANCH   9  11
ATOM     11  O   UNL d   1       2.921   0.304  -1.244  0.00  0.00    -0.321 OA
BRANCH  11  12
ATOM     12  C   UNL d   1       4.273   0.726  -1.474  0.00  0.00     0.174 C 
ATOM     13  C   UNL d   1       5.062  -0.359  -2.178  0.00  0.00     0.034 C 
ENDBRANCH  11  12
ENDBRANCH   9  11
ENDBRANCH   2   9
ENDBRANCH   1   2
BRANCH   1  14
ATOM     14  C   UNL d   1       0.665  -2.554   0.224  0.00  0.00    -0.027 A 
ATOM     15  C   UNL d   1      -0.187  -3.117   1.163  0.00  0.00     0.058 A 
ATOM     16  S   UNL d   1       0.349  -4.627   1.758  0.00  0.00    -0.113 SA
ATOM     17  C   UNL d   1       1.737  -4.576   0.769  0.00  0.00     0.050 A 
ATOM     18  C   UNL d   1       1.789  -3.429   0.010  0.00  0.00     0.017 A 
ENDBRANCH   1  14
BRANCH   1  19
ATOM     19  N   UNL d   1      -0.970  -1.072  -0.800  0.00  0.00    -0.357 N 
ATOM     20  H   UNL d   1      -1.569  -1.140   0.014  0.00  0.00     0.162 HD
BRANCH  19  21
ATOM     21  C   UNL d   1      -1.527  -0.454  -1.881  0.00  0.00     0.165 C 
ATOM     22  S   UNL d   1      -0.756   0.129  -3.228  0.00  0.00    -0.041 SA
ATOM     23  N   UNL d   1      -2.873  -0.318  -1.765  0.00  0.00    -0.376 N 
ATOM     24  H   UNL d   1      -3.404  -0.881  -1.117  0.00  0.00     0.158 HD
ATOM     25  H   UNL d   1      -3.376   0.037  -2.570  0.00  0.00     0.158 HD
ENDBRANCH  19  21
ENDBRANCH   1  19
TORSDOF 9
