REMARK  4 active torsions:
REMARK  status: ('A' for Active; 'I' for Inactive)
REMARK    1  A    between atoms: C_5  and  C_1 
REMARK    2  A    between atoms: S_15  and  C_4 
REMARK    3  A    between atoms: C_9  and  C_18 
REMARK    4  A    between atoms: C_19  and  S_15 
ROOT
ATOM      1  C   UNL d   1       3.720  -4.603  -0.070  0.00  0.00     0.096 A 
ATOM      2  C   UNL d   1       2.021  -2.398   0.016  0.00  0.00     0.015 A 
ATOM      3  C   UNL d   1       2.708  -4.500  -1.015  0.00  0.00     0.079 A 
ATOM      4  N   UNL d   1       3.884  -3.672   0.903  0.00  0.00    -0.352 N 
ATOM      5  HN  UNL d   1       4.632  -3.771   1.590  1.00  0.00     0.166 HD
ATOM      6  C   UNL d   1       1.872  -3.375  -0.981  0.00  0.00     0.041 A 
ATOM      7  C   UNL d   1       3.038  -2.602   0.955  0.00  0.00     0.018 A 
ATOM      8  C   UNL d   1       2.450  -5.518  -1.991  0.00  0.00     0.102 C 
ATOM      9  N   UNL d   1       2.182  -6.324  -2.781  0.00  0.00    -0.191 NA
ATOM     10  C   UNL d   1       3.245  -1.701   2.140  0.00  0.00     0.069 C 
ENDROOT
BRANCH   1  11
ATOM     11  S   UNL d   1       4.834  -5.993   0.049  0.00  0.00    -0.071 SA
BRANCH  11  12
ATOM     12  C   UNL d   1       6.213  -5.473  -0.959  0.00  0.00     0.007 A 
ATOM     13  C   UNL d   1       6.896  -4.270  -0.736  0.00  0.00     0.035 A 
ATOM     14  C   UNL d   1       7.965  -3.885  -1.568  0.00  0.00     0.049 A 
ATOM     15  C   UNL d   1       8.372  -4.749  -2.598  0.00  0.00     0.016 A 
ATOM     16  C   UNL d   1       7.720  -5.963  -2.799  0.00  0.00     0.002 A 
ATOM     17  C   UNL d   1       6.644  -6.321  -1.985  0.00  0.00     0.019 A 
BRANCH  14  18
ATOM     18  C   UNL d   1       8.655  -2.554  -1.402  0.00  0.00     0.417 C 
ATOM     19  F   UNL d   1       8.171  -1.806  -0.373  0.00  0.00    -0.166 F 
ATOM     20  F   UNL d   1       9.993  -2.678  -1.178  0.00  0.00    -0.166 F 
ATOM     21  F   UNL d   1       8.536  -1.775  -2.514  0.00  0.00    -0.166 F 
ENDBRANCH  14  18
ENDBRANCH  11  12
ENDBRANCH   1  11
BRANCH   2  22
ATOM     22  C   UNL d   1       1.134  -1.236   0.049  0.00  0.00     0.051 A 
ATOM     23  N   UNL d   1       1.588   0.007   0.457  0.00  0.00    -0.353 N 
ATOM     24  C   UNL d   1       0.617   0.892   0.402  0.00  0.00     0.047 A 
ATOM     25  HN  UNL d   1       2.541   0.208   0.757  1.00  0.00     0.166 HD
ATOM     26  C   UNL d   1       0.758   2.324   0.785  0.00  0.00     0.076 C 
ATOM     27  S   UNL d   1      -0.894   0.294  -0.153  0.00  0.00    -0.087 SA
ATOM     28  C   UNL d   1      -0.198  -1.265  -0.319  0.00  0.00     0.081 A 
ENDBRANCH   2  22
TORSDOF 4
