REMARK  6 active torsions:
REMARK  status: ('A' for Active; 'I' for Inactive)
REMARK    1  A    between atoms: S_6  and  C_1 
REMARK    2  A    between atoms: C_10  and  C_3 
REMARK    3  A    between atoms: N_7  and  S_6 
REMARK       I    between atoms: C_9  and  N_7 
REMARK    4  A    between atoms: C_13  and  C_9 
REMARK    5  A    between atoms: O_17  and  C_10 
REMARK    6  A    between atoms: C_22  and  O_17 
ROOT
ATOM      1  C   UNL d   1      -0.979   4.494  -0.920  0.00  0.00     0.061 A 
ATOM      2  S   UNL d   1       0.176   5.619  -0.337  0.00  0.00    -0.075 SA
ATOM      3  C   UNL d   1       0.217   6.494  -1.806  0.00  0.00     0.088 A 
ATOM      4  C   UNL d   1      -1.292   4.747  -2.248  0.00  0.00    -0.004 A 
ATOM      5  C   UNL d   1      -0.625   5.926  -2.751  0.00  0.00    -0.022 A 
ATOM      6  C   UNL d   1      -2.116   3.988  -3.137  0.00  0.00     0.010 A 
ATOM      7  C   UNL d   1      -2.341   4.352  -4.408  0.00  0.00    -0.025 A 
ATOM      8  C   UNL d   1      -0.813   6.422  -4.160  0.00  0.00     0.045 A 
ATOM      9  C   UNL d   1      -1.751   5.576  -5.038  0.00  0.00     0.032 A 
ENDROOT
BRANCH   1  10
ATOM     10  S   UNL d   1      -1.507   3.245   0.218  0.00  0.00    -0.086 SA
ATOM     11  C   UNL d   1      -0.435   1.917  -0.422  0.00  0.00     0.108 C 
BRANCH  10  12
ATOM     12  N   UNL d   1      -2.795   2.891  -0.468  0.00  0.00    -0.302 N 
ATOM     13  C   UNL d   1      -3.358   1.687  -0.289  0.00  0.00     0.261 C 
ATOM     14  O   UNL d   1      -2.983   0.705   0.351  0.00  0.00    -0.267 OA
ATOM     15  HN  UNL d   1      -3.247   3.573  -1.077  1.00  0.00     0.176 HD
BRANCH  13  16
ATOM     16  C   UNL d   1      -4.609   1.529  -1.085  0.00  0.00     0.032 A 
ATOM     17  C   UNL d   1      -5.585   2.533  -1.120  0.00  0.00     0.017 A 
ATOM     18  C   UNL d   1      -6.731   2.366  -1.900  0.00  0.00     0.001 A 
ATOM     19  C   UNL d   1      -6.898   1.202  -2.653  0.00  0.00     0.000 A 
ATOM     20  C   UNL d   1      -5.926   0.200  -2.621  0.00  0.00     0.001 A 
ATOM     21  C   UNL d   1      -4.786   0.359  -1.831  0.00  0.00     0.017 A 
ENDBRANCH  13  16
ENDBRANCH  10  12
ENDBRANCH   1  10
BRANCH   3  22
ATOM     22  C   UNL d   1       1.100   7.634  -1.992  0.00  0.00     0.300 C 
ATOM     23  O   UNL d   1       1.249   8.252  -3.044  0.00  0.00    -0.259 OA
BRANCH  22  24
ATOM     24  O   UNL d   1       1.826   7.898  -0.864  0.00  0.00    -0.317 OA
BRANCH  24  25
ATOM     25  C   UNL d   1       3.016   8.669  -1.056  0.00  0.00     0.174 C 
ATOM     26  C   UNL d   1       4.148   7.711  -1.382  0.00  0.00     0.034 C 
ENDBRANCH  24  25
ENDBRANCH  22  24
ENDBRANCH   3  22
TORSDOF 6
