REMARK  4 active torsions:
REMARK  status: ('A' for Active; 'I' for Inactive)
REMARK    1  A    between atoms: C_12  and  C_3 
REMARK    2  A    between atoms: C_11  and  C_4 
REMARK    3  A    between atoms: C_15  and  C_10 
REMARK       I    between atoms: N_13  and  C_11 
REMARK       I    between atoms: C_16  and  N_13 
REMARK       I    between atoms: N_17  and  C_16 
REMARK    4  A    between atoms: C_26  and  N_17 
ROOT
ATOM      1  C   UNL d   1       2.095  -0.209   0.018  0.00  0.00     0.145 A 
ATOM      2  N   UNL d   1       1.109   0.754   0.300  0.00  0.00    -0.234 N 
ATOM      3  C   UNL d   1       1.440   2.103   0.350  0.00  0.00     0.144 A 
ATOM      4  C   UNL d   1       1.474  -1.445   0.096  0.00  0.00     0.095 A 
ATOM      5  N   UNL d   1       3.396   0.130  -0.255  0.00  0.00    -0.336 N 
ATOM      6  HN  UNL d   1       4.099  -0.581  -0.455  1.00  0.00     0.167 HD
ATOM      7  C   UNL d   1       2.706   2.484   0.087  0.00  0.00     0.071 A 
ATOM      8  N   UNL d   1      -0.092   0.169   0.495  0.00  0.00    -0.302 N 
ATOM      9  HN  UNL d   1      -0.978   0.628   0.706  1.00  0.00     0.186 HD
ATOM     10  C   UNL d   1       3.697   1.407  -0.249  0.00  0.00     0.120 A 
ATOM     11  C   UNL d   1       0.127  -1.137   0.353  0.00  0.00     0.128 A 
ENDROOT
BRANCH   4  12
ATOM     12  C   UNL d   1       2.051  -2.772  -0.039  0.00  0.00     0.264 C 
ATOM     13  N   UNL d   1       3.414  -2.799  -0.247  0.00  0.00    -0.275 N 
ATOM     14  C   UNL d   1       4.284  -3.868  -0.213  0.00  0.00     0.327 C 
ATOM     15  H   UNL d   1       3.897  -1.908  -0.305  0.00  0.00     0.173 HD
ATOM     16  N   UNL d   1       3.707  -5.104  -0.069  0.00  0.00    -0.309 N 
ATOM     17  O   UNL d   1       5.482  -3.624  -0.287  0.00  0.00    -0.247 OA
ATOM     18  H   UNL d   1       2.692  -5.107   0.014  0.00  0.00     0.170 HD
ATOM     19  O   UNL d   1       1.361  -3.786   0.033  0.00  0.00    -0.267 OA
BRANCH  16  20
ATOM     20  C   UNL d   1       4.354  -6.357   0.004  0.00  0.00     0.036 A 
ATOM     21  C   UNL d   1       5.734  -6.531  -0.135  0.00  0.00     0.031 A 
ATOM     22  C   UNL d   1       6.307  -7.805  -0.054  0.00  0.00     0.026 A 
ATOM     23  C   UNL d   1       5.500  -8.915   0.169  0.00  0.00     0.034 A 
ATOM     24  C   UNL d   1       4.125  -8.762   0.311  0.00  0.00     0.026 A 
ATOM     25 CL   UNL d   1       6.206 -10.482   0.270  0.00  0.00    -0.084 Cl
ATOM     26  C   UNL d   1       3.554  -7.486   0.225  0.00  0.00     0.031 A 
ENDBRANCH  16  20
ENDBRANCH   4  12
BRANCH   3  27
ATOM     27  C   UNL d   1       0.380   3.078   0.715  0.00  0.00     0.434 C 
ATOM     28  F   UNL d   1      -0.871   2.754   0.320  0.00  0.00    -0.165 F 
ATOM     29  F   UNL d   1       0.349   3.284   2.057  0.00  0.00    -0.165 F 
ATOM     30  F   UNL d   1       0.640   4.296   0.159  0.00  0.00    -0.165 F 
ENDBRANCH   3  27
BRANCH  10  31
ATOM     31  C   UNL d   1       5.128   1.873  -0.564  0.00  0.00     0.432 C 
ATOM     32  F   UNL d   1       5.187   3.206  -0.836  0.00  0.00    -0.165 F 
ATOM     33  F   UNL d   1       5.968   1.657   0.480  0.00  0.00    -0.165 F 
ATOM     34  F   UNL d   1       5.655   1.237  -1.641  0.00  0.00    -0.165 F 
ENDBRANCH  10  31
TORSDOF 4
