REMARK  5 active torsions:
REMARK  status: ('A' for Active; 'I' for Inactive)
REMARK    1  A    between atoms: C_6  and  N_1 
REMARK    2  A    between atoms: N_16  and  C_2 
REMARK    3  A    between atoms: C_14  and  C_3 
REMARK    4  A    between atoms: C_8  and  C_10 
REMARK    5  A    between atoms: C_9  and  C_11 
ROOT
ATOM      1  N   UNL d   1       0.972  -0.601  -0.051  0.00  0.00    -0.240 N 
ATOM      2  C   UNL d   1       0.989   0.800   0.033  0.00  0.00     0.133 C 
ATOM      3  C   UNL d   1      -0.340   1.198   0.040  0.00  0.00     0.036 C 
ATOM      4  N   UNL d   1      -0.278  -1.066  -0.316  0.00  0.00    -0.302 N 
ATOM      5  HN  UNL d   1      -0.554  -2.018  -0.557  1.00  0.00     0.186 HD
ATOM      6  C   UNL d   1      -1.060   0.005  -0.186  0.00  0.00     0.123 C 
ENDROOT
BRANCH   1   7
ATOM      7  C   UNL d   1       2.047  -1.527   0.095  0.00  0.00     0.060 A 
ATOM      8  C   UNL d   1       3.192  -1.194   0.829  0.00  0.00     0.047 A 
ATOM      9  C   UNL d   1       4.239  -2.116   0.985  0.00  0.00     0.051 A 
ATOM     10  C   UNL d   1       4.123  -3.383   0.389  0.00  0.00     0.032 A 
ATOM     11  C   UNL d   1       2.969  -3.745  -0.328  0.00  0.00     0.051 A 
ATOM     12  C   UNL d   1       1.932  -2.809  -0.461  0.00  0.00     0.047 A 
BRANCH   9  13
ATOM     13  C   UNL d   1       5.458  -1.769   1.807  0.00  0.00     0.417 C 
ATOM     14  F   UNL d   1       5.426  -0.510   2.321  0.00  0.00    -0.166 F 
ATOM     15  F   UNL d   1       5.622  -2.604   2.870  0.00  0.00    -0.166 F 
ATOM     16  F   UNL d   1       6.610  -1.846   1.085  0.00  0.00    -0.166 F 
ENDBRANCH   9  13
BRANCH  11  17
ATOM     17  C   UNL d   1       2.852  -5.128  -0.926  0.00  0.00     0.417 C 
ATOM     18  F   UNL d   1       1.678  -5.347  -1.581  0.00  0.00    -0.166 F 
ATOM     19  F   UNL d   1       3.837  -5.386  -1.829  0.00  0.00    -0.166 F 
ATOM     20  F   UNL d   1       2.943  -6.106   0.017  0.00  0.00    -0.166 F 
ENDBRANCH  11  17
ENDBRANCH   1   7
BRANCH   2  21
ATOM     21  N   UNL d   1       2.130   1.551   0.031  0.00  0.00    -0.383 N 
ATOM     22  H   UNL d   1       2.976   1.167  -0.388  0.00  0.00     0.157 HD
ATOM     23  H   UNL d   1       2.047   2.541  -0.196  0.00  0.00     0.157 HD
ENDBRANCH   2  21
BRANCH   3  24
ATOM     24  C   UNL d   1      -0.826   2.568   0.129  0.00  0.00    -0.021 A 
ATOM     25  C   UNL d   1      -1.964   2.960  -0.592  0.00  0.00     0.014 A 
ATOM     26  C   UNL d   1      -2.425   4.279  -0.536  0.00  0.00     0.024 A 
ATOM     27  C   UNL d   1      -1.748   5.218   0.236  0.00  0.00     0.034 A 
ATOM     28  C   UNL d   1      -0.624   4.846   0.969  0.00  0.00     0.024 A 
ATOM     29 CL   UNL d   1      -2.300   6.846   0.288  0.00  0.00    -0.084 Cl
ATOM     30  C   UNL d   1      -0.177   3.522   0.928  0.00  0.00     0.014 A 
ENDBRANCH   3  24
TORSDOF 5
