REMARK  5 active torsions:
REMARK  status: ('A' for Active; 'I' for Inactive)
REMARK    1  A    between atoms: N_2  and  S_1 
REMARK    2  A    between atoms: C_9  and  S_1 
REMARK       I    between atoms: C_4  and  N_2 
REMARK    3  A    between atoms: C_5  and  C_4 
REMARK    4  A    between atoms: C_6  and  O_8 
REMARK    5  A    between atoms: O_8  and  C_7 
ROOT
ATOM      1  N   UNL d   1       0.236  -0.949  -0.489  0.00  0.00    -0.279 N 
ATOM      2  HN  UNL d   1      -0.311  -1.489   0.181  1.00  0.00     0.179 HD
ATOM      3  C   UNL d   1       0.608  -1.537  -1.706  0.00  0.00     0.265 C 
ATOM      4  O   UNL d   1       1.711  -1.362  -2.206  0.00  0.00    -0.267 OA
ENDROOT
BRANCH   3   5
ATOM      5  C   UNL d   1      -0.303  -2.500  -2.396  0.00  0.00     0.066 A 
ATOM      6  C   UNL d   1       0.150  -3.602  -3.139  0.00  0.00     0.094 A 
ATOM      7  C   UNL d   1      -0.769  -4.293  -3.944  0.00  0.00     0.038 A 
ATOM      8  C   UNL d   1      -2.119  -3.935  -3.978  0.00  0.00     0.003 A 
ATOM      9  C   UNL d   1      -2.577  -2.888  -3.186  0.00  0.00     0.001 A 
ATOM     10  C   UNL d   1      -1.676  -2.176  -2.394  0.00  0.00     0.020 A 
BRANCH   6  11
ATOM     11  O   UNL d   1       1.434  -4.046  -3.284  0.00  0.00    -0.254 OA
BRANCH  11  12
ATOM     12  C   UNL d   1       2.248  -4.229  -2.129  0.00  0.00     0.530 C 
ATOM     13  F   UNL d   1       1.658  -3.843  -0.980  0.00  0.00    -0.144 F 
ATOM     14  F   UNL d   1       2.551  -5.542  -2.012  0.00  0.00    -0.144 F 
ATOM     15  F   UNL d   1       3.405  -3.553  -2.288  0.00  0.00    -0.144 F 
ENDBRANCH  11  12
ENDBRANCH   6  11
ENDBRANCH   3   5
BRANCH   1  16
ATOM     16  S   UNL d   1       0.639   0.497  -0.148  0.00  0.00     0.055 S 
ATOM     17  O   UNL d   1       0.139   1.661  -0.854  0.00  0.00    -0.245 OA
ATOM     18  C   UNL d   1       2.408   0.662  -0.057  0.00  0.00     0.142 C 
BRANCH  16  19
ATOM     19  C   UNL d   1       0.180   0.708   1.567  0.00  0.00     0.038 A 
ATOM     20  C   UNL d   1       0.649  -0.213   2.512  0.00  0.00     0.023 A 
ATOM     21  C   UNL d   1       0.374  -0.007   3.864  0.00  0.00     0.025 A 
ATOM     22  C   UNL d   1      -0.371   1.105   4.258  0.00  0.00     0.034 A 
ATOM     23  C   UNL d   1      -0.856   2.009   3.310  0.00  0.00     0.025 A 
ATOM     24 CL   UNL d   1      -0.682   1.372   5.928  0.00  0.00    -0.084 Cl
ATOM     25  C   UNL d   1      -0.582   1.812   1.955  0.00  0.00     0.023 A 
ENDBRANCH  16  19
ENDBRANCH   1  16
TORSDOF 5
