REMARK  9 active torsions:
REMARK  status: ('A' for Active; 'I' for Inactive)
REMARK    1  A    between atoms: N_2  and  C_1 
REMARK       I    between atoms: C_3  and  N_2 
REMARK       I    between atoms: N_13  and  C_3 
REMARK    2  A    between atoms: C_6  and  C_7 
REMARK    3  A    between atoms: C_8  and  C_17 
REMARK    4  A    between atoms: C_9  and  C_18 
REMARK    5  A    between atoms: O_16  and  C_12 
REMARK    6  A    between atoms: C_30  and  N_13 
REMARK    7  A    between atoms: C_17  and  O_16 
REMARK    8  A    between atoms: C_18  and  O_28 
REMARK    9  A    between atoms: O_28  and  C_27 
ROOT
ATOM      1  C   UNL d   1      -0.938  -0.397   0.334  0.00  0.00     0.686 C 
ATOM      2  N   UNL d   1       0.145  -0.984  -0.209  0.00  0.00    -0.191 N 
ATOM      3  HN  UNL d   1       0.050  -1.690  -0.939  1.00  0.00     0.184 HD
ATOM      4  C   UNL d   1       1.358  -0.609   0.243  0.00  0.00     0.063 C 
ATOM      5  N   UNL d   1      -0.906   0.466   1.357  0.00  0.00    -0.202 N 
ATOM      6  HN  UNL d   1      -1.753   0.764   1.840  1.00  0.00     0.183 HD
ATOM      7  C   UNL d   1       1.461   0.453   1.134  0.00  0.00     0.048 C 
ATOM      8  C   UNL d   1       0.303   0.910   1.709  0.00  0.00     0.108 C 
ENDROOT
BRANCH   4   9
ATOM      9  C   UNL d   1       2.555  -1.440  -0.107  0.00  0.00     0.027 A 
ATOM     10  C   UNL d   1       2.742  -2.321  -1.193  0.00  0.00     0.081 A 
ATOM     11  C   UNL d   1       3.911  -3.127  -1.255  0.00  0.00     0.040 A 
ATOM     12  C   UNL d   1       4.930  -3.057  -0.299  0.00  0.00     0.039 A 
ATOM     13  C   UNL d   1       4.790  -2.181   0.747  0.00  0.00     0.070 A 
ATOM     14  C   UNL d   1       3.617  -1.427   0.847  0.00  0.00     0.053 A 
BRANCH  10  15
ATOM     15  O   UNL d   1       1.920  -2.629  -2.240  0.00  0.00    -0.342 OA
BRANCH  15  16
ATOM     16  C   UNL d   1       1.079  -1.636  -2.822  0.00  0.00     0.293 C 
BRANCH  16  17
ATOM     17  C   UNL d   1       0.955  -1.805  -4.336  0.00  0.00     0.408 C 
ATOM     18  F   UNL d   1       1.537  -2.934  -4.796  0.00  0.00    -0.169 F 
ATOM     19  F   UNL d   1      -0.347  -1.845  -4.707  0.00  0.00    -0.169 F 
ATOM     20  F   UNL d   1       1.522  -0.762  -4.989  0.00  0.00    -0.169 F 
ENDBRANCH  16  17
ENDBRANCH  15  16
ENDBRANCH  10  15
BRANCH  13  21
ATOM     21  O   UNL d   1       5.672  -1.990   1.770  0.00  0.00    -0.342 OA
BRANCH  21  22
ATOM     22  C   UNL d   1       7.059  -2.139   1.446  0.00  0.00     0.293 C 
BRANCH  22  23
ATOM     23  C   UNL d   1       7.924  -1.196   2.279  0.00  0.00     0.408 C 
ATOM     24  F   UNL d   1       7.194  -0.444   3.145  0.00  0.00    -0.169 F 
ATOM     25  F   UNL d   1       8.831  -1.885   3.010  0.00  0.00    -0.169 F 
ATOM     26  F   UNL d   1       8.607  -0.343   1.485  0.00  0.00    -0.169 F 
ENDBRANCH  22  23
ENDBRANCH  21  22
ENDBRANCH  13  21
ENDBRANCH   4   9
BRANCH   1  27
ATOM     27  N   UNL d   1      -2.150  -0.623  -0.295  0.00  0.00    -0.141 N 
ATOM     28  C   UNL d   1      -3.400  -0.231   0.092  0.00  0.00     0.339 C 
ATOM     29  N   UNL d   1      -3.568   0.004   1.433  0.00  0.00    -0.308 N 
ATOM     30  O   UNL d   1      -4.283  -0.204  -0.763  0.00  0.00    -0.246 OA
ATOM     31  H   UNL d   1      -2.712  -0.011   1.977  0.00  0.00     0.170 HD
ATOM     32  H   UNL d   1      -2.084  -0.981  -1.233  0.00  0.00     0.189 HD
BRANCH  29  33
ATOM     33  C   UNL d   1      -4.754   0.297   2.134  0.00  0.00     0.036 A 
ATOM     34  C   UNL d   1      -5.997   0.473   1.526  0.00  0.00     0.029 A 
ATOM     35  C   UNL d   1      -7.122   0.798   2.291  0.00  0.00     0.002 A 
ATOM     36  C   UNL d   1      -7.017   0.936   3.673  0.00  0.00     0.000 A 
ATOM     37  C   UNL d   1      -5.788   0.736   4.294  0.00  0.00     0.002 A 
ATOM     38  C   UNL d   1      -4.662   0.419   3.528  0.00  0.00     0.029 A 
ENDBRANCH  29  33
ENDBRANCH   1  27
TORSDOF 9
