REMARK  4 active torsions:
REMARK  status: ('A' for Active; 'I' for Inactive)
REMARK    1  A    between atoms: C_8  and  C_1 
REMARK    2  A    between atoms: C_7  and  C_2 
REMARK    3  A    between atoms: C_9  and  N_3 
REMARK    4  A    between atoms: C_10  and  C_6 
ROOT
ATOM      1  C   UNL d   1       0.817  -1.204   0.092  0.00  0.00     0.016 C 
ATOM      2  C   UNL d   1       0.589   1.318   0.099  0.00  0.00     0.016 C 
ATOM      3  N   UNL d   1      -1.342  -0.127  -0.133  0.00  0.00    -0.331 N 
ATOM      4  C   UNL d   1      -0.739   1.122  -0.007  0.00  0.00     0.108 C 
ATOM      5  C   UNL d   1      -0.526  -1.248   0.002  0.00  0.00     0.108 C 
ATOM      6  C   UNL d   1       1.560   0.136  -0.018  0.00  0.00     0.094 C 
ENDROOT
BRANCH   3   7
ATOM      7  C   UNL d   1      -2.722  -0.252  -0.508  0.00  0.00     0.038 A 
ATOM      8  C   UNL d   1      -3.693   0.667  -0.070  0.00  0.00     0.030 A 
ATOM      9  C   UNL d   1      -5.023   0.574  -0.491  0.00  0.00     0.002 A 
ATOM     10  C   UNL d   1      -5.415  -0.449  -1.348  0.00  0.00     0.000 A 
ATOM     11  C   UNL d   1      -4.480  -1.382  -1.783  0.00  0.00     0.002 A 
ATOM     12  C   UNL d   1      -3.149  -1.282  -1.369  0.00  0.00     0.030 A 
ENDBRANCH   3   7
BRANCH   1  13
ATOM     13  C   UNL d   1       1.568  -2.490   0.193  0.00  0.00     0.154 C 
ATOM     14  O   UNL d   1       2.708  -2.585  -0.258  0.00  0.00    -0.293 OA
ATOM     15  C   UNL d   1       0.882  -3.700   0.790  0.00  0.00     0.096 C 
ENDBRANCH   1  13
BRANCH   2  16
ATOM     16  C   UNL d   1       1.095   2.719   0.197  0.00  0.00     0.154 C 
ATOM     17  O   UNL d   1       2.212   3.011  -0.223  0.00  0.00    -0.293 OA
ATOM     18  C   UNL d   1       0.188   3.790   0.771  0.00  0.00     0.096 C 
ENDBRANCH   2  16
BRANCH   6  19
ATOM     19  C   UNL d   1       2.763   0.226   0.916  0.00  0.00    -0.045 A 
ATOM     20  C   UNL d   1       2.635   0.292   2.310  0.00  0.00     0.008 A 
ATOM     21  C   UNL d   1       3.778   0.331   3.120  0.00  0.00     0.001 A 
ATOM     22  C   UNL d   1       5.049   0.301   2.554  0.00  0.00     0.000 A 
ATOM     23  C   UNL d   1       5.192   0.240   1.171  0.00  0.00     0.001 A 
ATOM     24  C   UNL d   1       4.058   0.207   0.361  0.00  0.00     0.008 A 
ENDBRANCH   6  19
TORSDOF 4
