REMARK  2 active torsions:
REMARK  status: ('A' for Active; 'I' for Inactive)
REMARK    1  A    between atoms: N_2  and  S_1 
REMARK    2  A    between atoms: C_5  and  S_1 
REMARK       I    between atoms: C_3  and  N_2 
REMARK       I    between atoms: N_4  and  C_3 
ROOT
ATOM      1  N   UNL d   1       0.970   0.358  -1.704  0.00  0.00    -0.113 N 
ATOM      2  C   UNL d   1       0.944   1.655  -2.182  0.00  0.00     0.683 C 
ATOM      3  N   UNL d   1       1.592   2.564  -1.398  0.00  0.00    -0.213 N 
ATOM      4  N   UNL d   1       0.299   1.969  -3.244  0.00  0.00    -0.234 N 
ATOM      5  HN  UNL d   1       0.277   2.898  -3.665  1.00  0.00     0.174 HD
ATOM      6  O   UNL d   1       2.390   4.429   0.598  0.00  0.00    -0.388 OA
ATOM      7  C   UNL d   1       2.749   2.289  -0.541  0.00  0.00     0.167 C 
ATOM      8  C   UNL d   1       1.413   4.009  -1.624  0.00  0.00     0.167 C 
ATOM      9  C   UNL d   1       2.547   3.015   0.797  0.00  0.00     0.188 C 
ATOM     10  C   UNL d   1       1.268   4.703  -0.261  0.00  0.00     0.188 C 
ATOM     11  H   UNL d   1       1.158   0.206  -0.722  0.00  0.00     0.197 HD
ATOM     12  H   UNL d   1      -0.195   1.140  -3.609  0.00  0.00     0.174 HD
ENDROOT
BRANCH   1  13
ATOM     13  S   UNL d   1       0.531  -1.039  -2.477  0.00  0.00     0.276 S 
ATOM     14  O   UNL d   1      -0.511  -0.745  -3.433  0.00  0.00    -0.200 OA
ATOM     15  O   UNL d   1       0.356  -2.041  -1.445  0.00  0.00    -0.200 OA
BRANCH  13  16
ATOM     16  C   UNL d   1       2.014  -1.439  -3.371  0.00  0.00     0.080 A 
ATOM     17  C   UNL d   1       3.012  -2.190  -2.741  0.00  0.00     0.027 A 
ATOM     18  C   UNL d   1       4.129  -2.601  -3.470  0.00  0.00     0.025 A 
ATOM     19  C   UNL d   1       4.237  -2.265  -4.821  0.00  0.00     0.034 A 
ATOM     20  C   UNL d   1       3.250  -1.501  -5.444  0.00  0.00     0.025 A 
ATOM     21 CL   UNL d   1       5.587  -2.823  -5.730  0.00  0.00    -0.084 Cl
ATOM     22  C   UNL d   1       2.131  -1.083  -4.719  0.00  0.00     0.027 A 
ENDBRANCH  13  16
ENDBRANCH   1  13
TORSDOF 2
