REMARK  5 active torsions:
REMARK  status: ('A' for Active; 'I' for Inactive)
REMARK    1  A    between atoms: C_8  and  N_1 
REMARK    2  A    between atoms: S_7  and  C_2 
REMARK    3  A    between atoms: C_10  and  S_7 
REMARK    4  A    between atoms: C_9  and  C_10 
REMARK    5  A    between atoms: C_12  and  C_9 
ROOT
ATOM      1  N   UNL d   1       0.644   0.421  -0.295  0.00  0.00    -0.219 N 
ATOM      2  C   UNL d   1       1.105  -0.818   0.118  0.00  0.00     0.177 C 
ATOM      3  N   UNL d   1       0.178  -1.406   0.843  0.00  0.00    -0.264 N 
ATOM      4  HN  UNL d   1       0.214  -2.342   1.247  1.00  0.00     0.186 HD
ATOM      5  N   UNL d   1      -0.847  -0.503   0.942  0.00  0.00    -0.006 NA
ATOM      6  N   UNL d   1      -0.552   0.629   0.318  0.00  0.00     0.001 NA
ENDROOT
BRANCH   2   7
ATOM      7  S   UNL d   1       2.749  -1.361  -0.009  0.00  0.00    -0.084 SA
BRANCH   7   8
ATOM      8  C   UNL d   1       2.534  -3.156  -0.013  0.00  0.00     0.166 C 
BRANCH   8   9
ATOM      9  C   UNL d   1       1.882  -3.672  -1.286  0.00  0.00     0.169 C 
ATOM     10  O   UNL d   1       1.449  -2.939  -2.173  0.00  0.00    -0.291 OA
BRANCH   9  11
ATOM     11  C   UNL d   1       1.780  -5.157  -1.459  0.00  0.00     0.010 A 
ATOM     12  C   UNL d   1       2.342  -6.060  -0.545  0.00  0.00     0.015 A 
ATOM     13  C   UNL d   1       2.242  -7.436  -0.762  0.00  0.00     0.001 A 
ATOM     14  C   UNL d   1       1.575  -7.922  -1.886  0.00  0.00     0.000 A 
ATOM     15  C   UNL d   1       1.009  -7.033  -2.796  0.00  0.00     0.001 A 
ATOM     16  C   UNL d   1       1.111  -5.656  -2.586  0.00  0.00     0.015 A 
ENDBRANCH   9  11
ENDBRANCH   8   9
ENDBRANCH   7   8
ENDBRANCH   2   7
BRANCH   1  17
ATOM     17  C   UNL d   1       1.213   1.400  -1.148  0.00  0.00     0.056 A 
ATOM     18  C   UNL d   1       2.098   1.041  -2.173  0.00  0.00     0.031 A 
ATOM     19  C   UNL d   1       2.688   2.028  -2.966  0.00  0.00     0.002 A 
ATOM     20  C   UNL d   1       2.395   3.372  -2.743  0.00  0.00     0.000 A 
ATOM     21  C   UNL d   1       1.486   3.732  -1.749  0.00  0.00     0.002 A 
ATOM     22  C   UNL d   1       0.879   2.750  -0.963  0.00  0.00     0.031 A 
ENDBRANCH   1  17
TORSDOF 5
