REMARK  1 active torsions:
REMARK  status: ('A' for Active; 'I' for Inactive)
REMARK    1  A    between atoms: N_13  and  C_10 
ROOT
ATOM      1  C   UNL d   1      -3.007  -0.340   0.482  0.00  0.00     0.148 C 
ATOM      2  N   UNL d   1      -2.115  -1.089  -0.226  0.00  0.00    -0.325 N 
ATOM      3  S   UNL d   1      -2.428   1.282   0.789  0.00  0.00    -0.052 SA
ATOM      4  C   UNL d   1      -0.848  -0.564  -0.259  0.00  0.00     0.055 A 
ATOM      5  C   UNL d   1      -0.793   0.758   0.242  0.00  0.00     0.035 A 
ATOM      6  N   UNL d   1      -4.095  -0.902   0.918  0.00  0.00    -0.369 N 
ATOM      7  HN  UNL d   1      -4.898  -0.480   1.385  1.00  0.00     0.161 HD
ATOM      8  C   UNL d   1       0.319  -1.194  -0.660  0.00  0.00     0.054 A 
ATOM      9  C   UNL d   1       0.392   1.458   0.333  0.00  0.00     0.023 A 
ATOM     10  C   UNL d   1       1.546  -0.536  -0.481  0.00  0.00     0.008 A 
ATOM     11  C   UNL d   1      -2.626  -2.410  -0.397  0.00  0.00     0.151 C 
ATOM     12  C   UNL d   1      -3.852  -2.347   0.549  0.00  0.00     0.142 C 
ATOM     13  C   UNL d   1       1.567   0.802  -0.050  0.00  0.00     0.025 A 
ENDROOT
BRANCH  10  14
ATOM     14  N   UNL d   1       2.732  -1.147  -0.918  0.00  0.00    -0.303 NA
ATOM     15  H   UNL d   1       2.703  -2.162  -0.893  0.00  0.00     0.124 HD
ATOM     16  H   UNL d   1       3.562  -0.783  -0.461  0.00  0.00     0.124 HD
ENDBRANCH  10  14
TORSDOF 1
