REMARK  4 active torsions:
REMARK  status: ('A' for Active; 'I' for Inactive)
REMARK    1  A    between atoms: C_2  and  C_1 
REMARK    2  A    between atoms: O_9  and  C_1 
REMARK       I    between atoms: C_3  and  N_4 
REMARK    3  A    between atoms: C_12  and  C_3 
REMARK    4  A    between atoms: N_4  and  C_6 
ROOT
ATOM      1  C   UNL d   1       0.284  -0.470  -1.088  0.00  0.00     0.041 A 
ATOM      2  C   UNL d   1       0.765  -1.745  -1.417  0.00  0.00     0.047 A 
ATOM      3  C   UNL d   1       0.193  -2.483  -2.455  0.00  0.00     0.035 A 
ATOM      4  C   UNL d   1      -0.794   0.065  -1.801  0.00  0.00     0.018 A 
ATOM      5  C   UNL d   1      -1.391  -0.676  -2.820  0.00  0.00     0.003 A 
ATOM      6  C   UNL d   1      -0.903  -1.947  -3.141  0.00  0.00     0.029 A 
ENDROOT
BRANCH   3   7
ATOM      7  N   UNL d   1       0.668  -3.752  -2.854  0.00  0.00    -0.327 N 
ATOM      8  C   UNL d   1       1.855  -4.349  -2.452  0.00  0.00     0.221 C 
ATOM      9  O   UNL d   1       2.700  -3.857  -1.713  0.00  0.00    -0.273 OA
ATOM     10  H   UNL d   1       0.133  -4.229  -3.567  0.00  0.00     0.169 HD
BRANCH   8  11
ATOM     11  C   UNL d   1       2.030  -5.732  -3.052  0.00  0.00     0.098 C 
ATOM     12  C   UNL d   1       3.366  -6.347  -2.665  0.00  0.00     0.014 C 
ENDBRANCH   8  11
ENDBRANCH   3   7
BRANCH   1  13
ATOM     13  C   UNL d   1       0.907   0.344  -0.009  0.00  0.00     0.293 C 
ATOM     14  O   UNL d   1       0.613   1.506   0.214  0.00  0.00    -0.259 OA
BRANCH  13  15
ATOM     15  O   UNL d   1       1.830  -0.390   0.659  0.00  0.00    -0.323 OA
ATOM     16  C   UNL d   1       2.547   0.299   1.683  0.00  0.00     0.213 C 
ENDBRANCH  13  15
ENDBRANCH   1  13
TORSDOF 4
