REMARK  5 active torsions:
REMARK  status: ('A' for Active; 'I' for Inactive)
REMARK    1  A    between atoms: C_6  and  C_1 
REMARK    2  A    between atoms: C_5  and  C_2 
REMARK    3  A    between atoms: O_9  and  C_5 
REMARK    4  A    between atoms: C_11  and  O_9 
REMARK    5  A    between atoms: C_12  and  C_10 
ROOT
ATOM      1  C   UNL d   1      -1.529  -0.361   0.256  0.00  0.00     0.087 A 
ATOM      2  C   UNL d   1      -0.189  -0.820   0.468  0.00  0.00     0.100 A 
ATOM      3  N   UNL d   1      -1.513   0.822  -0.382  0.00  0.00    -0.259 N 
ATOM      4  HN  UNL d   1      -2.325   1.347  -0.707  1.00  0.00     0.195 HD
ATOM      5  O   UNL d   1      -0.200   1.188  -0.512  0.00  0.00    -0.241 OA
ATOM      6  C   UNL d   1       0.596   0.218  -0.004  0.00  0.00     0.091 A 
ATOM      7  C   UNL d   1       2.045   0.515  -0.024  0.00  0.00     0.080 C 
ENDROOT
BRANCH   2   8
ATOM      8  C   UNL d   1       0.309  -2.033   1.078  0.00  0.00     0.303 C 
ATOM      9  O   UNL d   1      -0.320  -2.702   1.888  0.00  0.00    -0.259 OA
BRANCH   8  10
ATOM     10  O   UNL d   1       1.601  -2.333   0.621  0.00  0.00    -0.274 OA
BRANCH  10  11
ATOM     11  C   UNL d   1       2.587  -3.105   1.284  0.00  0.00     0.093 A 
ATOM     12  C   UNL d   1       3.735  -3.465   0.561  0.00  0.00     0.043 A 
ATOM     13  C   UNL d   1       4.836  -4.017   1.241  0.00  0.00     0.018 A 
ATOM     14  C   UNL d   1       4.774  -4.222   2.618  0.00  0.00     0.001 A 
ATOM     15  C   UNL d   1       3.621  -3.881   3.324  0.00  0.00     0.003 A 
ATOM     16  C   UNL d   1       2.528  -3.317   2.663  0.00  0.00     0.038 A 
BRANCH  12  17
ATOM     17  C   UNL d   1       3.903  -3.221  -0.891  0.00  0.00     0.158 C 
ATOM     18  O   UNL d   1       4.969  -2.758  -1.302  0.00  0.00    -0.293 OA
ATOM     19  C   UNL d   1       2.803  -3.610  -1.843  0.00  0.00     0.097 C 
ENDBRANCH  12  17
ENDBRANCH  10  11
ENDBRANCH   8  10
ENDBRANCH   2   8
BRANCH   1  20
ATOM     20  C   UNL d   1      -2.827  -0.969   0.566  0.00  0.00     0.037 A 
ATOM     21  C   UNL d   1      -3.785  -0.259   1.324  0.00  0.00     0.048 A 
ATOM     22 CL   UNL d   1      -3.437   1.247   2.112  0.00  0.00    -0.083 Cl
ATOM     23  C   UNL d   1      -5.087  -0.753   1.494  0.00  0.00     0.025 A 
ATOM     24  C   UNL d   1      -5.450  -1.976   0.940  0.00  0.00     0.003 A 
ATOM     25  C   UNL d   1      -4.510  -2.707   0.220  0.00  0.00     0.025 A 
ATOM     26  C   UNL d   1      -3.213  -2.207   0.022  0.00  0.00     0.048 A 
ATOM     27 CL   UNL d   1      -2.164  -3.163  -0.975  0.00  0.00    -0.083 Cl
ENDBRANCH   1  20
TORSDOF 5
