REMARK  2 active torsions:
REMARK  status: ('A' for Active; 'I' for Inactive)
REMARK    1  A    between atoms: C_5  and  C_1 
REMARK    2  A    between atoms: O_10  and  C_8 
ROOT
ATOM      1  C   UNL d   1      -1.974  -0.818   0.267  0.00  0.00     0.088 A 
ATOM      2  N   UNL d   1      -1.588   0.416   0.021  0.00  0.00    -0.349 N 
ATOM      3  HN  UNL d   1      -2.168   1.121  -0.436  1.00  0.00     0.166 HD
ATOM      4  S   UNL d   1      -0.764  -1.781   1.056  0.00  0.00    -0.069 SA
ATOM      5  C   UNL d   1      -0.294   0.636   0.461  0.00  0.00     0.050 A 
ATOM      6  C   UNL d   1       0.298  -0.435   1.125  0.00  0.00     0.033 A 
ATOM      7  C   UNL d   1       0.440   1.830   0.308  0.00  0.00     0.031 A 
ATOM      8  C   UNL d   1       1.572  -0.333   1.710  0.00  0.00     0.021 A 
ATOM      9  C   UNL d   1       1.720   1.935   0.864  0.00  0.00     0.002 A 
ATOM     10  C   UNL d   1       2.268   0.872   1.574  0.00  0.00     0.002 A 
ENDROOT
BRANCH   1  11
ATOM     11  C   UNL d   1      -3.316  -1.385  -0.017  0.00  0.00     0.031 A 
ATOM     12  C   UNL d   1      -4.097  -1.151  -1.167  0.00  0.00     0.081 A 
ATOM     13  C   UNL d   1      -5.373  -1.755  -1.266  0.00  0.00     0.038 A 
ATOM     14  C   UNL d   1      -5.889  -2.583  -0.273  0.00  0.00     0.003 A 
ATOM     15  C   UNL d   1      -5.136  -2.823   0.858  0.00  0.00     0.001 A 
ATOM     16  C   UNL d   1      -3.879  -2.225   0.986  0.00  0.00     0.017 A 
BRANCH  12  17
ATOM     17  O   UNL d   1      -3.866  -0.443  -2.313  0.00  0.00    -0.355 OA
ATOM     18  C   UNL d   1      -2.709   0.342  -2.504  0.00  0.00     0.210 C 
ENDBRANCH  12  17
ENDBRANCH   1  11
TORSDOF 2
