REMARK  3 active torsions:
REMARK  status: ('A' for Active; 'I' for Inactive)
REMARK    1  A    between atoms: N_4  and  C_2 
REMARK    2  A    between atoms: N_13  and  C_5 
REMARK    3  A    between atoms: C_16  and  N_13 
ROOT
ATOM      1  C   UNL d   1       0.055  -0.774   0.461  0.00  0.00     0.120 A 
ATOM      2  C   UNL d   1      -1.017  -1.530  -0.057  0.00  0.00     0.134 A 
ATOM      3  C   UNL d   1       0.011   0.693   0.439  0.00  0.00     0.114 A 
ATOM      4  C   UNL d   1      -1.089   1.426  -0.075  0.00  0.00     0.064 A 
ATOM      5  N   UNL d   1       1.217  -1.127   1.026  0.00  0.00    -0.237 N 
ATOM      6  HN  UNL d   1       1.551  -2.077   1.189  1.00  0.00     0.197 HD
ATOM      7  C   UNL d   1      -2.100  -0.809  -0.590  0.00  0.00     0.041 A 
ATOM      8  N   UNL d   1       1.143   1.158   0.987  0.00  0.00    -0.237 N 
ATOM      9  HN  UNL d   1       1.409   2.135   1.113  1.00  0.00     0.197 HD
ATOM     10  O   UNL d   1       1.875   0.043   1.344  0.00  0.00    -0.156 OA
ATOM     11  C   UNL d   1      -2.121   0.605  -0.602  0.00  0.00     0.034 A 
ENDROOT
BRANCH   4  12
ATOM     12  N   UNL d   1      -1.170   2.830  -0.109  0.00  0.00    -0.354 N 
ATOM     13  H   UNL d   1      -0.340   3.305   0.239  0.00  0.00     0.166 HD
BRANCH  12  14
ATOM     14  C   UNL d   1      -2.339   3.614  -0.017  0.00  0.00     0.033 A 
ATOM     15  C   UNL d   1      -3.463   3.184   0.706  0.00  0.00     0.036 A 
ATOM     16  C   UNL d   1      -4.662   3.906   0.691  0.00  0.00    -0.060 A 
ATOM     17  C   UNL d   1      -5.871   3.391   1.414  0.00  0.00     0.048 C 
ATOM     18  C   UNL d   1      -4.723   5.098  -0.035  0.00  0.00     0.007 A 
ATOM     19  C   UNL d   1      -3.597   5.566  -0.715  0.00  0.00     0.003 A 
ATOM     20  C   UNL d   1      -2.409   4.832  -0.698  0.00  0.00     0.029 A 
ENDBRANCH  12  14
ENDBRANCH   4  12
BRANCH   2  21
ATOM     21  N   UNL d   1      -1.010  -2.978  -0.053  0.00  0.00    -0.113 N 
ATOM     22  O   UNL d   1      -0.041  -3.574   0.423  0.00  0.00    -0.532 OA
ATOM     23  O   UNL d   1      -2.005  -3.542  -0.537  0.00  0.00    -0.532 OA
ENDBRANCH   2  21
TORSDOF 3
