REMARK  7 active torsions:
REMARK  status: ('A' for Active; 'I' for Inactive)
REMARK    1  A    between atoms: S_8  and  C_3 
REMARK    2  A    between atoms: C_11  and  C_5 
REMARK    3  A    between atoms: C_15  and  S_8 
REMARK    4  A    between atoms: C_9  and  C_15 
REMARK       I    between atoms: N_10  and  C_9 
REMARK    5  A    between atoms: C_16  and  N_10 
REMARK    6  A    between atoms: O_17  and  C_11 
REMARK    7  A    between atoms: O_18  and  C_11 
ROOT
ATOM      1  N   UNL d   1      -1.289  -1.007   0.401  0.00  0.00    -0.349 N 
ATOM      2  HN  UNL d   1      -1.726  -1.907   0.601  1.00  0.00     0.166 HD
ATOM      3  C   UNL d   1       0.054  -0.872   0.484  0.00  0.00     0.091 A 
ATOM      4  C   UNL d   1       0.683   0.340   0.210  0.00  0.00     0.078 A 
ATOM      5  C   UNL d   1      -2.057   0.062   0.049  0.00  0.00     0.065 A 
ATOM      6  C   UNL d   1       2.100   0.511   0.319  0.00  0.00     0.102 C 
ATOM      7  N   UNL d   1       3.240   0.690   0.406  0.00  0.00    -0.191 NA
ATOM      8  C   UNL d   1      -0.107   1.432  -0.170  0.00  0.00     0.027 A 
ATOM      9  C   UNL d   1      -1.491   1.295  -0.255  0.00  0.00     0.032 A 
ENDROOT
BRANCH   3  10
ATOM     10  S   UNL d   1       0.944  -2.320   1.068  0.00  0.00    -0.101 SA
BRANCH  10  11
ATOM     11  C   UNL d   1      -0.272  -3.618   0.669  0.00  0.00     0.184 C 
BRANCH  11  12
ATOM     12  C   UNL d   1       0.093  -5.019   1.147  0.00  0.00     0.231 C 
ATOM     13  N   UNL d   1       1.061  -5.105   2.133  0.00  0.00    -0.327 N 
ATOM     14  H   UNL d   1       1.443  -4.224   2.458  0.00  0.00     0.169 HD
ATOM     15  O   UNL d   1      -0.540  -5.975   0.697  0.00  0.00    -0.272 OA
BRANCH  13  16
ATOM     16  C   UNL d   1       1.508  -6.277   2.787  0.00  0.00     0.034 A 
ATOM     17  C   UNL d   1       1.165  -7.569   2.381  0.00  0.00     0.029 A 
ATOM     18  C   UNL d   1       1.601  -8.688   3.100  0.00  0.00     0.002 A 
ATOM     19  C   UNL d   1       2.390  -8.524   4.235  0.00  0.00     0.000 A 
ATOM     20  C   UNL d   1       2.760  -7.243   4.636  0.00  0.00     0.002 A 
ATOM     21  C   UNL d   1       2.331  -6.125   3.910  0.00  0.00     0.029 A 
ENDBRANCH  13  16
ENDBRANCH  11  12
ENDBRANCH  10  11
ENDBRANCH   3  10
BRANCH   5  22
ATOM     22  C   UNL d   1      -3.585  -0.096   0.030  0.00  0.00     0.309 C 
BRANCH  22  23
ATOM     23  O   UNL d   1      -3.982  -0.287  -1.333  0.00  0.00    -0.360 OA
ATOM     24  C   UNL d   1      -5.394  -0.288  -1.484  0.00  0.00     0.205 C 
ENDBRANCH  22  23
BRANCH  22  25
ATOM     25  O   UNL d   1      -4.037  -1.188   0.839  0.00  0.00    -0.360 OA
ATOM     26  C   UNL d   1      -3.853  -0.966   2.230  0.00  0.00     0.205 C 
ENDBRANCH  22  25
ENDBRANCH   5  22
TORSDOF 7
