REMARK  4 active torsions:
REMARK  status: ('A' for Active; 'I' for Inactive)
REMARK    1  A    between atoms: N_3  and  C_1 
REMARK    2  A    between atoms: C_4  and  C_2 
REMARK       I    between atoms: N_13  and  C_4 
REMARK       I    between atoms: C_5  and  N_10 
REMARK    3  A    between atoms: C_14  and  C_5 
REMARK    4  A    between atoms: N_10  and  N_13 
ROOT
ATOM      1  C   UNL d   1       1.305   0.780   0.006  0.00  0.00     0.062 A 
ATOM      2  C   UNL d   1       0.016   1.296  -0.098  0.00  0.00     0.101 A 
ATOM      3  S   UNL d   1      -1.175   0.055   0.004  0.00  0.00    -0.094 SA
ATOM      4  C   UNL d   1       1.275  -0.650   0.138  0.00  0.00     0.039 A 
ATOM      5  C   UNL d   1       0.002  -1.169   0.107  0.00  0.00     0.053 A 
ENDROOT
BRANCH   2   6
ATOM      6  C   UNL d   1      -0.444   2.649  -0.374  0.00  0.00     0.279 C 
ATOM      7  N   UNL d   1      -1.528   3.085   0.370  0.00  0.00    -0.263 N 
ATOM      8  H   UNL d   1      -1.906   2.530   1.141  0.00  0.00     0.190 HD
ATOM      9  O   UNL d   1       0.102   3.400  -1.183  0.00  0.00    -0.265 OA
BRANCH   7  10
ATOM     10  N   UNL d   1      -1.900   4.439   0.313  0.00  0.00    -0.265 N 
ATOM     11  C   UNL d   1      -2.656   4.974   1.337  0.00  0.00     0.269 C 
ATOM     12  O   UNL d   1      -3.012   4.279   2.297  0.00  0.00    -0.269 OA
ATOM     13  H   UNL d   1      -1.473   5.000  -0.427  0.00  0.00     0.190 HD
BRANCH  11  14
ATOM     14  C   UNL d   1      -2.983   6.462   1.253  0.00  0.00     0.271 C 
ATOM     15 CL   UNL d   1      -1.649   7.386   1.970  0.00  0.00    -0.098 Cl
ATOM     16 CL   UNL d   1      -3.263   6.973  -0.426  0.00  0.00    -0.098 Cl
ENDBRANCH  11  14
ENDBRANCH   7  10
ENDBRANCH   2   6
BRANCH   1  17
ATOM     17  N   UNL d   1       2.541   1.536   0.010  0.00  0.00    -0.319 N 
ATOM     18  C   UNL d   1       2.765   2.776   0.620  0.00  0.00     0.013 A 
ATOM     19  C   UNL d   1       4.067   3.165   0.368  0.00  0.00     0.027 A 
ATOM     20  C   UNL d   1       1.810   3.527   1.481  0.00  0.00     0.068 C 
ATOM     21  C   UNL d   1       4.699   2.127  -0.320  0.00  0.00     0.027 A 
ATOM     22  C   UNL d   1       3.770   1.124  -0.528  0.00  0.00     0.013 A 
ATOM     23  C   UNL d   1       4.043  -0.129  -1.291  0.00  0.00     0.068 C 
ENDBRANCH   1  17
TORSDOF 4
