REMARK  3 active torsions:
REMARK  status: ('A' for Active; 'I' for Inactive)
REMARK    1  A    between atoms: O_12  and  C_1 
REMARK    2  A    between atoms: C_8  and  C_5 
REMARK    3  A    between atoms: O_13  and  C_6 
ROOT
ATOM      1  N   UNL d   1      -1.836  -5.350   1.442  0.00  0.00    -0.192 NA
ATOM      2  C   UNL d   1      -1.300  -4.322   1.419  0.00  0.00     0.087 C 
ATOM      3  C   UNL d   1      -0.635  -3.069   1.390  0.00  0.00     0.094 C 
ATOM      4  C   UNL d   1      -0.543  -2.343   0.262  0.00  0.00     0.024 C 
ENDROOT
BRANCH   4   5
ATOM      5  C   UNL d   1       0.142  -1.042   0.208  0.00  0.00    -0.011 A 
ATOM      6  C   UNL d   1      -0.516   0.192   0.417  0.00  0.00     0.080 A 
ATOM      7  C   UNL d   1       0.183   1.420   0.284  0.00  0.00     0.124 A 
ATOM      8 CL   UNL d   1      -2.179   0.133   0.939  0.00  0.00    -0.080 Cl
ATOM      9  C   UNL d   1       1.568   1.381   0.016  0.00  0.00     0.103 A 
ATOM     10  C   UNL d   1       2.212   0.145  -0.145  0.00  0.00     0.040 A 
ATOM     11  C   UNL d   1       1.511  -1.054  -0.061  0.00  0.00     0.016 A 
BRANCH   7  12
ATOM     12  O   UNL d   1      -0.374   2.652   0.515  0.00  0.00    -0.351 OA
ATOM     13  C   UNL d   1      -1.640   2.933  -0.078  0.00  0.00     0.210 C 
ENDBRANCH   7  12
BRANCH   9  14
ATOM     14  O   UNL d   1       2.459   2.415  -0.111  0.00  0.00    -0.353 OA
ATOM     15  C   UNL d   1       2.005   3.756  -0.039  0.00  0.00     0.210 C 
ENDBRANCH   9  14
ENDBRANCH   4   5
TORSDOF 3
