REMARK  2 active torsions:
REMARK  status: ('A' for Active; 'I' for Inactive)
REMARK       I    between atoms: N_2  and  C_1 
REMARK    1  A    between atoms: C_3  and  C_1 
REMARK    2  A    between atoms: C_8  and  N_2 
ROOT
ATOM      1  C   UNL d   1       1.132  -0.029   0.032  0.00  0.00     0.256 C 
ATOM      2  N   UNL d   1       0.525   0.646  -1.013  0.00  0.00    -0.323 N 
ATOM      3  O   UNL d   1       2.330  -0.272   0.139  0.00  0.00    -0.267 OA
ATOM      4  H   UNL d   1      -0.426   0.962  -0.876  0.00  0.00     0.169 HD
ENDROOT
BRANCH   1   5
ATOM      5  C   UNL d   1       0.259  -0.442   1.158  0.00  0.00     0.034 A 
ATOM      6  C   UNL d   1       0.819  -0.449   2.444  0.00  0.00     0.042 A 
ATOM      7  C   UNL d   1       0.077  -0.903   3.535  0.00  0.00     0.056 A 
ATOM      8 CL   UNL d   1       0.836  -0.885   5.086  0.00  0.00    -0.083 Cl
ATOM      9  C   UNL d   1      -1.231  -1.360   3.342  0.00  0.00     0.055 A 
ATOM     10  C   UNL d   1      -1.790  -1.352   2.057  0.00  0.00     0.026 A 
ATOM     11 CL   UNL d   1      -2.200  -1.963   4.638  0.00  0.00    -0.083 Cl
ATOM     12  C   UNL d   1      -1.049  -0.894   0.963  0.00  0.00     0.019 A 
ENDBRANCH   1   5
BRANCH   2  13
ATOM     13  C   UNL d   1       1.200   1.143  -2.153  0.00  0.00     0.036 A 
ATOM     14  C   UNL d   1       2.483   0.726  -2.523  0.00  0.00     0.055 A 
ATOM     15  C   UNL d   1       3.146   1.313  -3.606  0.00  0.00     0.058 A 
ATOM     16 CL   UNL d   1       4.741   0.753  -3.970  0.00  0.00    -0.082 Cl
ATOM     17  C   UNL d   1       2.519   2.319  -4.342  0.00  0.00     0.055 A 
ATOM     18  C   UNL d   1       1.217   2.704  -4.013  0.00  0.00     0.028 A 
ATOM     19 CL   UNL d   1       3.295   3.127  -5.656  0.00  0.00    -0.083 Cl
ATOM     20  C   UNL d   1       0.555   2.110  -2.932  0.00  0.00     0.031 A 
ENDBRANCH   2  13
TORSDOF 2
