REMARK  3 active torsions:
REMARK  status: ('A' for Active; 'I' for Inactive)
REMARK    1  A    between atoms: C_3  and  N_1 
REMARK    2  A    between atoms: N_6  and  C_3 
REMARK    3  A    between atoms: C_9  and  N_6 
ROOT
ATOM      1  C   UNL d   1      -1.996  -2.090   0.135  0.00  0.00     0.181 C 
ATOM      2  S   UNL d   1      -3.563  -1.498   0.296  0.00  0.00    -0.040 SA
ENDROOT
BRANCH   1   3
ATOM      3  N   UNL d   1      -0.900  -1.232   0.128  0.00  0.00    -0.293 N 
ATOM      4  C   UNL d   1       0.451  -1.432   0.016  0.00  0.00     0.235 A 
ATOM      5  O   UNL d   1       1.087  -2.420  -0.277  0.00  0.00    -0.272 OA
ATOM      6  C   UNL d   1       0.739   0.066   0.309  0.00  0.00     0.051 A 
ATOM      7  C   UNL d   1      -0.802   0.190   0.470  0.00  0.00     0.153 A 
ATOM      8  C   UNL d   1       1.526   0.326   1.588  0.00  0.00     0.027 C 
ATOM      9  C   UNL d   1       1.304   0.831  -0.883  0.00  0.00     0.027 C 
ENDBRANCH   1   3
BRANCH   1  10
ATOM     10  N   UNL d   1      -1.649  -3.421  -0.035  0.00  0.00    -0.333 N 
ATOM     11  H   UNL d   1      -0.806  -3.587  -0.583  0.00  0.00     0.168 HD
BRANCH  10  12
ATOM     12  C   UNL d   1      -2.305  -4.571   0.455  0.00  0.00     0.035 A 
ATOM     13  C   UNL d   1      -3.076  -4.552   1.619  0.00  0.00     0.053 A 
ATOM     14  C   UNL d   1      -3.627  -5.734   2.115  0.00  0.00     0.036 A 
ATOM     15 CL   UNL d   1      -4.529  -5.705   3.580  0.00  0.00    -0.084 Cl
ATOM     16  C   UNL d   1      -3.425  -6.942   1.451  0.00  0.00     0.024 A 
ATOM     17  C   UNL d   1      -2.653  -6.969   0.291  0.00  0.00     0.004 A 
ATOM     18  C   UNL d   1      -2.078  -5.790  -0.194  0.00  0.00     0.029 A 
ENDBRANCH  10  12
ENDBRANCH   1  10
TORSDOF 3
