REMARK  3 active torsions:
REMARK  status: ('A' for Active; 'I' for Inactive)
REMARK    1  A    between atoms: N_3  and  C_1 
REMARK    2  A    between atoms: N_5  and  C_2 
REMARK    3  A    between atoms: N_8  and  C_4 
REMARK       I    between atoms: C_11  and  N_8 
ROOT
ATOM      1  C   UNL d   1       0.117  -1.841   0.076  0.00  0.00     0.163 A 
ATOM      2  C   UNL d   1       1.290  -1.076   0.091  0.00  0.00     0.144 A 
ATOM      3  C   UNL d   1      -1.158  -1.233   0.086  0.00  0.00     0.076 A 
ATOM      4  C   UNL d   1       1.242   0.327   0.079  0.00  0.00    -0.026 A 
ATOM      5  C   UNL d   1      -1.223   0.176   0.050  0.00  0.00    -0.032 A 
ATOM      6  C   UNL d   1      -0.025   0.927   0.067  0.00  0.00     0.018 A 
ATOM      7  C   UNL d   1       2.444   1.229   0.045  0.00  0.00     0.050 C 
ATOM      8  C   UNL d   1      -2.499   0.971  -0.065  0.00  0.00     0.050 C 
ENDROOT
BRANCH   3   9
ATOM      9  N   UNL d   1      -2.332  -2.039   0.079  0.00  0.00    -0.325 N 
ATOM     10  C   UNL d   1      -3.381  -1.864   0.967  0.00  0.00     0.218 C 
ATOM     11  O   UNL d   1      -3.420  -1.023   1.860  0.00  0.00    -0.274 OA
ATOM     12  C   UNL d   1      -4.521  -2.821   0.736  0.00  0.00     0.117 C 
ATOM     13  H   UNL d   1      -2.236  -2.987  -0.286  0.00  0.00     0.169 HD
ENDBRANCH   3   9
BRANCH   1  14
ATOM     14  N   UNL d   1       0.203  -3.287   0.149  0.00  0.00    -0.111 N 
ATOM     15  O   UNL d   1       0.858  -3.772   1.077  0.00  0.00    -0.532 OA
ATOM     16  O   UNL d   1      -0.448  -3.931  -0.687  0.00  0.00    -0.532 OA
ENDBRANCH   1  14
BRANCH   2  17
ATOM     17  N   UNL d   1       2.572  -1.749   0.063  0.00  0.00    -0.112 N 
ATOM     18  O   UNL d   1       2.842  -2.373  -0.972  0.00  0.00    -0.532 OA
ATOM     19  O   UNL d   1       3.297  -1.631   1.057  0.00  0.00    -0.532 OA
ENDBRANCH   2  17
TORSDOF 3
