REMARK  3 active torsions:
REMARK  status: ('A' for Active; 'I' for Inactive)
REMARK    1  A    between atoms: C_2  and  C_1 
REMARK       I    between atoms: N_6  and  C_2 
REMARK    2  A    between atoms: N_8  and  C_3 
REMARK    3  A    between atoms: C_9  and  N_6 
ROOT
ATOM      1  C   UNL d   1       0.934   0.000   0.089  0.00  0.00     0.127 C 
ATOM      2  C   UNL d   1       0.286  -1.067   0.604  0.00  0.00     0.113 C 
ATOM      3  C   UNL d   1       0.257   1.204  -0.237  0.00  0.00     0.106 C 
ATOM      4  N   UNL d   1      -0.246   2.212  -0.514  0.00  0.00    -0.191 NA
ENDROOT
BRANCH   1   5
ATOM      5  C   UNL d   1       2.429  -0.102  -0.041  0.00  0.00     0.268 C 
ATOM      6  N   UNL d   1       3.079   1.034  -0.505  0.00  0.00    -0.322 N 
ATOM      7  H   UNL d   1       2.535   1.871  -0.684  0.00  0.00     0.169 HD
ATOM      8  O   UNL d   1       2.994  -1.146   0.279  0.00  0.00    -0.266 OA
BRANCH   6   9
ATOM      9  C   UNL d   1       4.479   1.196  -0.662  0.00  0.00     0.035 A 
ATOM     10  C   UNL d   1       5.403   0.154  -0.554  0.00  0.00     0.029 A 
ATOM     11  C   UNL d   1       6.776   0.401  -0.657  0.00  0.00     0.002 A 
ATOM     12  C   UNL d   1       7.240   1.694  -0.876  0.00  0.00     0.000 A 
ATOM     13  C   UNL d   1       6.329   2.737  -1.018  0.00  0.00     0.002 A 
ATOM     14  C   UNL d   1       4.955   2.488  -0.922  0.00  0.00     0.029 A 
ENDBRANCH   6   9
ENDBRANCH   1   5
BRANCH   2  15
ATOM     15  N   UNL d   1      -1.063  -1.307   0.861  0.00  0.00    -0.397 N 
ATOM     16  C   UNL d   1      -2.146  -0.908  -0.041  0.00  0.00     0.148 C 
ATOM     17  C   UNL d   1      -1.466  -2.317   1.849  0.00  0.00     0.148 C 
ENDBRANCH   2  15
TORSDOF 3
