REMARK  4 active torsions:
REMARK  status: ('A' for Active; 'I' for Inactive)
REMARK    1  A    between atoms: S_6  and  C_1 
REMARK    2  A    between atoms: C_10  and  C_1 
REMARK    3  A    between atoms: C_9  and  C_3 
REMARK    4  A    between atoms: C_13  and  S_6 
ROOT
ATOM      1  C   UNL d   1       0.615   3.789  -0.490  0.00  0.00     0.124 C 
ATOM      2  N   UNL d   1      -1.887   4.178   0.033  0.00  0.00    -0.191 NA
ATOM      3  N   UNL d   1       2.080   5.814  -1.170  0.00  0.00    -0.191 NA
ATOM      4  C   UNL d   1      -0.762   4.012  -0.207  0.00  0.00     0.110 C 
ATOM      5  C   UNL d   1       1.417   4.917  -0.851  0.00  0.00     0.110 C 
ATOM      6  C   UNL d   1       1.180   2.566  -0.440  0.00  0.00     0.035 C 
ENDROOT
BRANCH   6   7
ATOM      7  C   UNL d   1       0.510   1.290  -0.188  0.00  0.00     0.022 C 
ATOM      8  C   UNL d   1       1.117   0.092  -0.042  0.00  0.00     0.015 C 
BRANCH   8   9
ATOM      9  S   UNL d   1       0.220  -1.347   0.331  0.00  0.00    -0.090 SA
BRANCH   9  10
ATOM     10  C   UNL d   1      -0.394  -1.978  -1.228  0.00  0.00     0.005 A 
ATOM     11  C   UNL d   1      -0.058  -1.513  -2.504  0.00  0.00     0.020 A 
ATOM     12  C   UNL d   1      -0.617  -2.102  -3.651  0.00  0.00     0.020 A 
ATOM     13  C   UNL d   1      -1.515  -3.159  -3.530  0.00  0.00     0.011 A 
ATOM     14  C   UNL d   1      -1.848  -3.648  -2.273  0.00  0.00     0.020 A 
ATOM     15 BR   UNL d   1      -2.292  -3.929  -5.071  0.00  0.00    -0.051 Br
ATOM     16  C   UNL d   1      -1.287  -3.061  -1.135  0.00  0.00     0.020 A 
ENDBRANCH   9  10
ENDBRANCH   8   9
BRANCH   8  17
ATOM     17  C   UNL d   1       2.580  -0.053   0.084  0.00  0.00    -0.019 A 
ATOM     18  C   UNL d   1       3.178   0.042   1.353  0.00  0.00     0.014 A 
ATOM     19  C   UNL d   1       4.567  -0.023   1.492  0.00  0.00     0.024 A 
ATOM     20  C   UNL d   1       5.365  -0.181   0.362  0.00  0.00     0.034 A 
ATOM     21  C   UNL d   1       4.785  -0.290  -0.902  0.00  0.00     0.024 A 
ATOM     22 CL   UNL d   1       7.076  -0.230   0.525  0.00  0.00    -0.084 Cl
ATOM     23  C   UNL d   1       3.395  -0.226  -1.041  0.00  0.00     0.014 A 
ENDBRANCH   8  17
ENDBRANCH   6   7
TORSDOF 4
