REMARK  5 active torsions:
REMARK  status: ('A' for Active; 'I' for Inactive)
REMARK    1  A    between atoms: C_3  and  C_7 
REMARK       I    between atoms: N_9  and  C_3 
REMARK    2  A    between atoms: N_4  and  N_9 
REMARK    3  A    between atoms: O_16  and  C_6 
REMARK    4  A    between atoms: O_17  and  C_8 
REMARK    5  A    between atoms: C_14  and  C_13 
ROOT
ATOM      1  N   UNL d   1       6.018  -2.657  -3.894  0.00  0.00    -0.197 NA
ATOM      2  C   UNL d   1       5.444  -3.665  -3.929  0.00  0.00     0.068 C 
ATOM      3  C   UNL d   1       4.657  -4.891  -3.952  0.00  0.00     0.228 C 
ENDROOT
BRANCH   3   4
ATOM      4  C   UNL d   1       3.192  -4.697  -3.627  0.00  0.00     0.249 C 
ATOM      5  N   UNL d   1       2.753  -3.410  -3.333  0.00  0.00    -0.270 N 
ATOM      6  H   UNL d   1       3.368  -2.601  -3.322  0.00  0.00     0.190 HD
ATOM      7  O   UNL d   1       2.451  -5.684  -3.639  0.00  0.00    -0.271 OA
BRANCH   5   8
ATOM      8  N   UNL d   1       1.430  -3.232  -3.067  0.00  0.00    -0.308 N 
ATOM      9  C   UNL d   1       1.024  -2.033  -2.801  0.00  0.00     0.118 C 
ATOM     10  HN  UNL d   1       0.780  -4.019  -3.076  1.00  0.00     0.186 HD
BRANCH   9  11
ATOM     11  C   UNL d   1      -0.408  -1.781  -2.514  0.00  0.00    -0.017 A 
ATOM     12  C   UNL d   1      -0.853  -0.482  -2.234  0.00  0.00     0.052 A 
ATOM     13  C   UNL d   1      -2.210  -0.244  -1.954  0.00  0.00     0.102 A 
ATOM     14  C   UNL d   1      -3.116  -1.322  -1.985  0.00  0.00     0.101 A 
ATOM     15  C   UNL d   1      -2.653  -2.616  -2.247  0.00  0.00     0.040 A 
ATOM     16  C   UNL d   1      -1.308  -2.848  -2.516  0.00  0.00     0.016 A 
BRANCH  13  17
ATOM     17  O   UNL d   1      -2.714   0.984  -1.616  0.00  0.00    -0.353 OA
ATOM     18  C   UNL d   1      -1.820   2.081  -1.502  0.00  0.00     0.210 C 
ENDBRANCH  13  17
BRANCH  14  19
ATOM     19  O   UNL d   1      -4.460  -1.278  -1.714  0.00  0.00    -0.353 OA
ATOM     20  C   UNL d   1      -5.159  -0.120  -2.156  0.00  0.00     0.210 C 
ENDBRANCH  14  19
ENDBRANCH   9  11
ENDBRANCH   5   8
ENDBRANCH   3   4
TORSDOF 5
