REMARK  6 active torsions:
REMARK  status: ('A' for Active; 'I' for Inactive)
REMARK    1  A    between atoms: O_4  and  S_1 
REMARK    2  A    between atoms: C_9  and  S_1 
REMARK    3  A    between atoms: C_6  and  C_2 
REMARK    4  A    between atoms: C_3  and  O_4 
REMARK    5  A    between atoms: C_5  and  C_13 
REMARK    6  A    between atoms: O_22  and  C_6 
ROOT
ATOM      1  S   UNL d   1       0.401   0.249  -0.156  0.00  0.00     0.303 S 
ATOM      2  O   UNL d   1      -0.858   0.548  -0.816  0.00  0.00    -0.193 OA
ATOM      3  O   UNL d   1       1.643   0.854  -0.606  0.00  0.00    -0.193 OA
ENDROOT
BRANCH   1   4
ATOM      4  O   UNL d   1       0.606  -1.373  -0.101  0.00  0.00    -0.228 OA
BRANCH   4   5
ATOM      5  C   UNL d   1       0.765  -2.124  -1.222  0.00  0.00     0.113 A 
ATOM      6  C   UNL d   1       0.938  -3.499  -1.163  0.00  0.00     0.114 A 
ATOM      7  S   UNL d   1       1.112  -4.162  -2.747  0.00  0.00    -0.093 SA
ATOM      8  C   UNL d   1       0.946  -2.641  -3.490  0.00  0.00     0.053 A 
ATOM      9  C   UNL d   1       0.767  -1.637  -2.568  0.00  0.00     0.047 A 
BRANCH   6  10
ATOM     10  C   UNL d   1       0.986  -4.430  -0.049  0.00  0.00     0.302 C 
ATOM     11  O   UNL d   1       1.091  -5.650  -0.134  0.00  0.00    -0.259 OA
BRANCH  10  12
ATOM     12  O   UNL d   1       0.898  -3.768   1.145  0.00  0.00    -0.322 OA
ATOM     13  C   UNL d   1       0.936  -4.612   2.300  0.00  0.00     0.213 C 
ENDBRANCH  10  12
ENDBRANCH   6  10
ENDBRANCH   4   5
ENDBRANCH   1   4
BRANCH   1  14
ATOM     14  C   UNL d   1       0.181   0.710   1.551  0.00  0.00     0.086 A 
ATOM     15  C   UNL d   1       1.064   1.607   2.156  0.00  0.00     0.026 A 
ATOM     16  C   UNL d   1       0.868   1.969   3.490  0.00  0.00     0.018 A 
ATOM     17  C   UNL d   1      -0.210   1.442   4.222  0.00  0.00     0.048 A 
ATOM     18  C   UNL d   1      -1.100   0.558   3.587  0.00  0.00     0.018 A 
ATOM     19  C   UNL d   1      -0.908   0.191   2.254  0.00  0.00     0.026 A 
BRANCH  17  20
ATOM     20  C   UNL d   1      -0.420   1.805   5.674  0.00  0.00     0.417 C 
ATOM     21  F   UNL d   1       0.533   2.641   6.171  0.00  0.00    -0.166 F 
ATOM     22  F   UNL d   1      -1.613   2.423   5.890  0.00  0.00    -0.166 F 
ATOM     23  F   UNL d   1      -0.414   0.709   6.483  0.00  0.00    -0.166 F 
ENDBRANCH  17  20
ENDBRANCH   1  14
TORSDOF 6
