REMARK  4 active torsions:
REMARK  status: ('A' for Active; 'I' for Inactive)
REMARK    1  A    between atoms: N_2  and  S_1 
REMARK    2  A    between atoms: C_3  and  S_1 
REMARK    3  A    between atoms: N_5  and  C_16 
REMARK    4  A    between atoms: C_16  and  C_13 
ROOT
ATOM      1  N   UNL d   1       0.612  -1.574  -0.712  0.00  0.00    -0.206 NA
ATOM      2  C   UNL d   1       0.948  -1.577  -2.170  0.00  0.00     0.113 C 
ATOM      3  C   UNL d   1       0.473  -2.876  -2.845  0.00  0.00     0.018 C 
ATOM      4  C   UNL d   1       1.242  -2.732  -0.009  0.00  0.00     0.107 C 
ATOM      5  C   UNL d   1       0.738  -4.039  -0.610  0.00  0.00     0.016 C 
ATOM      6  C   UNL d   1       1.035  -4.099  -2.104  0.00  0.00     0.009 C 
ENDROOT
BRANCH   1   7
ATOM      7  S   UNL d   1       0.975  -0.082   0.083  0.00  0.00     0.243 S 
ATOM      8  O   UNL d   1       2.312   0.306  -0.320  0.00  0.00    -0.206 OA
ATOM      9  O   UNL d   1       0.627  -0.219   1.480  0.00  0.00    -0.206 OA
BRANCH   7  10
ATOM     10  C   UNL d   1      -0.186   1.062  -0.630  0.00  0.00     0.075 A 
ATOM     11  C   UNL d   1      -1.544   0.923  -0.320  0.00  0.00     0.034 A 
ATOM     12  C   UNL d   1      -2.474   1.815  -0.865  0.00  0.00    -0.021 A 
ATOM     13  C   UNL d   1      -3.938   1.691  -0.568  0.00  0.00     0.051 C 
ATOM     14  C   UNL d   1      -2.022   2.830  -1.717  0.00  0.00     0.128 A 
ATOM     15  C   UNL d   1      -0.664   2.990  -2.017  0.00  0.00    -0.021 A 
ATOM     16  F   UNL d   1      -2.920   3.665  -2.263  0.00  0.00    -0.205 F 
ATOM     17  C   UNL d   1       0.262   2.103  -1.451  0.00  0.00     0.034 A 
ATOM     18  C   UNL d   1      -0.199   4.072  -2.943  0.00  0.00     0.051 C 
ENDBRANCH   7  10
ENDBRANCH   1   7
BRANCH   3  19
ATOM     19  C   UNL d   1      -1.060  -2.958  -2.976  0.00  0.00     0.133 C 
BRANCH  19  20
ATOM     20  N   UNL d   1      -1.625  -1.876  -3.766  0.00  0.00    -0.366 N 
ATOM     21  C   UNL d   1      -1.312  -1.592  -5.070  0.00  0.00     0.090 A 
ATOM     22  C   UNL d   1      -1.933  -0.408  -5.404  0.00  0.00     0.019 A 
ATOM     23  C   UNL d   1      -2.695  -0.001  -4.284  0.00  0.00     0.019 A 
ATOM     24  C   UNL d   1      -2.514  -0.946  -3.300  0.00  0.00     0.090 A 
ENDBRANCH  19  20
ENDBRANCH   3  19
TORSDOF 4
