REMARK  4 active torsions:
REMARK  status: ('A' for Active; 'I' for Inactive)
REMARK    1  A    between atoms: N_2  and  S_1 
REMARK    2  A    between atoms: C_4  and  S_1 
REMARK    3  A    between atoms: C_5  and  N_3 
REMARK    4  A    between atoms: O_18  and  C_12 
ROOT
ATOM      1  N   UNL d   1       0.541  -0.955   0.718  0.00  0.00    -0.304 N 
ATOM      2  N   UNL d   1       1.036  -3.752   0.179  0.00  0.00    -0.376 N 
ATOM      3  C   UNL d   1       1.631  -1.709   1.424  0.00  0.00     0.155 C 
ATOM      4  C   UNL d   1      -0.533  -1.874   0.229  0.00  0.00     0.155 C 
ATOM      5  C   UNL d   1       2.173  -2.900   0.578  0.00  0.00     0.143 C 
ATOM      6  C   UNL d   1       0.044  -3.010  -0.630  0.00  0.00     0.143 C 
ENDROOT
BRANCH   1   7
ATOM      7  S   UNL d   1       1.033   0.270  -0.343  0.00  0.00     0.260 S 
ATOM      8  O   UNL d   1      -0.061   0.566  -1.249  0.00  0.00    -0.200 OA
ATOM      9  O   UNL d   1       2.350  -0.056  -0.849  0.00  0.00    -0.200 OA
BRANCH   7  10
ATOM     10  C   UNL d   1       1.189   1.653   0.765  0.00  0.00     0.079 A 
ATOM     11  C   UNL d   1       2.404   1.900   1.406  0.00  0.00     0.026 A 
ATOM     12  C   UNL d   1       2.544   3.040   2.199  0.00  0.00     0.008 A 
ATOM     13  C   UNL d   1       1.482   3.944   2.346  0.00  0.00    -0.062 A 
ATOM     14  C   UNL d   1       0.268   3.682   1.703  0.00  0.00     0.008 A 
ATOM     15  C   UNL d   1       1.672   5.194   3.155  0.00  0.00     0.048 C 
ATOM     16  C   UNL d   1       0.118   2.541   0.912  0.00  0.00     0.026 A 
ENDBRANCH   7  10
ENDBRANCH   1   7
BRANCH   2  17
ATOM     17  C   UNL d   1       1.187  -5.124  -0.004  0.00  0.00     0.064 A 
ATOM     18  C   UNL d   1       1.652  -6.017   0.991  0.00  0.00     0.094 A 
ATOM     19  C   UNL d   1       1.625  -7.410   0.780  0.00  0.00     0.039 A 
ATOM     20  C   UNL d   1       1.159  -7.952  -0.413  0.00  0.00     0.003 A 
ATOM     21  C   UNL d   1       0.762  -7.101  -1.429  0.00  0.00     0.002 A 
ATOM     22  C   UNL d   1       0.785  -5.717  -1.224  0.00  0.00     0.032 A 
BRANCH  18  23
ATOM     23  O   UNL d   1       2.233  -5.684   2.189  0.00  0.00    -0.354 OA
ATOM     24  C   UNL d   1       1.486  -4.834   3.044  0.00  0.00     0.210 C 
ENDBRANCH  18  23
ENDBRANCH   2  17
TORSDOF 4
