REMARK  2 active torsions:
REMARK  status: ('A' for Active; 'I' for Inactive)
REMARK    1  A    between atoms: C_8  and  C_3 
REMARK    2  A    between atoms: C_10  and  C_11 
ROOT
ATOM      1  N   UNL d   1      -2.145   0.329   0.451  0.00  0.00    -0.308 N 
ATOM      2  HN  UNL d   1      -3.074   0.188   0.847  1.00  0.00     0.170 HD
ATOM      3  C   UNL d   1      -1.811   1.484  -0.039  0.00  0.00     0.118 A 
ATOM      4  C   UNL d   1      -1.232  -0.706   0.433  0.00  0.00     0.259 A 
ATOM      5  N   UNL d   1      -0.578   1.777  -0.579  0.00  0.00    -0.341 N 
ATOM      6  C   UNL d   1       0.145  -0.458  -0.069  0.00  0.00     0.059 A 
ATOM      7  C   UNL d   1       0.439   0.824  -0.537  0.00  0.00     0.049 A 
ATOM      8  O   UNL d   1      -1.510  -1.832   0.830  0.00  0.00    -0.267 OA
ATOM      9  C   UNL d   1       1.120  -1.461  -0.070  0.00  0.00     0.019 A 
ATOM     10  C   UNL d   1       1.715   1.096  -1.035  0.00  0.00     0.030 A 
ATOM     11  C   UNL d   1       2.399  -1.175  -0.549  0.00  0.00     0.001 A 
ATOM     12  C   UNL d   1       2.696   0.100  -1.030  0.00  0.00     0.002 A 
ATOM     13  H   UNL d   1      -0.307   2.740  -0.722  0.00  0.00     0.167 HD
ENDROOT
BRANCH   3  14
ATOM     14  C   UNL d   1      -2.833   2.576  -0.015  0.00  0.00     0.008 A 
ATOM     15  C   UNL d   1      -3.794   2.625   0.994  0.00  0.00     0.016 A 
ATOM     16  C   UNL d   1      -4.738   3.659   1.012  0.00  0.00     0.009 A 
ATOM     17  C   UNL d   1      -4.758   4.656   0.015  0.00  0.00    -0.051 A 
ATOM     18  C   UNL d   1      -3.780   4.580  -0.990  0.00  0.00     0.009 A 
ATOM     19  C   UNL d   1      -2.832   3.554  -1.011  0.00  0.00     0.016 A 
BRANCH  17  20
ATOM     20  C   UNL d   1      -5.840   5.751   0.024  0.00  0.00    -0.024 C 
ATOM     21  C   UNL d   1      -5.725   6.734  -1.164  0.00  0.00     0.019 C 
ATOM     22  C   UNL d   1      -7.235   5.095  -0.058  0.00  0.00     0.019 C 
ATOM     23  C   UNL d   1      -5.749   6.586   1.318  0.00  0.00     0.019 C 
ENDBRANCH  17  20
ENDBRANCH   3  14
TORSDOF 2
