REMARK  4 active torsions:
REMARK  status: ('A' for Active; 'I' for Inactive)
REMARK    1  A    between atoms: C_2  and  C_1 
REMARK    2  A    between atoms: C_9  and  C_2 
REMARK    3  A    between atoms: C_10  and  C_3 
REMARK    4  A    between atoms: C_12  and  C_13 
ROOT
ATOM      1  C   UNL d   1       2.354   1.448  -0.517  0.00  0.00     0.096 C 
ATOM      2  C   UNL d   1       2.065   1.695  -1.818  0.00  0.00     0.038 C 
ATOM      3  C   UNL d   1       2.493   2.519   0.457  0.00  0.00     0.103 C 
ATOM      4  N   UNL d   1       2.628   3.385   1.236  0.00  0.00    -0.191 NA
ENDROOT
BRANCH   1   5
ATOM      5  C   UNL d   1       2.470  -0.014  -0.096  0.00  0.00     0.202 C 
ATOM      6  O   UNL d   1       1.905  -0.930  -0.692  0.00  0.00    -0.286 OA
BRANCH   5   7
ATOM      7  C   UNL d   1       3.284  -0.324   1.117  0.00  0.00     0.015 A 
ATOM      8  C   UNL d   1       2.898  -1.351   1.983  0.00  0.00     0.016 A 
ATOM      9  C   UNL d   1       3.618  -1.581   3.168  0.00  0.00     0.009 A 
ATOM     10  C   UNL d   1       4.733  -0.792   3.516  0.00  0.00    -0.051 A 
ATOM     11  C   UNL d   1       5.129   0.193   2.599  0.00  0.00     0.009 A 
ATOM     12  C   UNL d   1       4.434   0.408   1.408  0.00  0.00     0.016 A 
BRANCH  10  13
ATOM     13  C   UNL d   1       5.473  -0.993   4.853  0.00  0.00    -0.024 C 
ATOM     14  C   UNL d   1       6.646  -0.002   5.051  0.00  0.00     0.019 C 
ATOM     15  C   UNL d   1       4.499  -0.781   6.031  0.00  0.00     0.019 C 
ATOM     16  C   UNL d   1       6.062  -2.415   4.938  0.00  0.00     0.019 C 
ENDBRANCH  10  13
ENDBRANCH   5   7
ENDBRANCH   1   5
BRANCH   2  17
ATOM     17  C   UNL d   1       1.986   3.063  -2.367  0.00  0.00    -0.032 A 
ATOM     18  C   UNL d   1       3.133   3.652  -2.923  0.00  0.00     0.051 A 
ATOM     19  C   UNL d   1       3.032   4.936  -3.424  0.00  0.00     0.105 A 
ATOM     20  O   UNL d   1       4.038   5.642  -4.010  0.00  0.00    -0.323 OA
ATOM     21  C   UNL d   1       1.856   5.644  -3.378  0.00  0.00     0.105 A 
ATOM     22  C   UNL d   1       3.343   6.854  -4.378  0.00  0.00     0.352 A 
ATOM     23  O   UNL d   1       1.970   6.879  -3.936  0.00  0.00    -0.323 OA
ATOM     24  C   UNL d   1       0.716   5.109  -2.818  0.00  0.00     0.040 A 
ATOM     25  C   UNL d   1       0.784   3.803  -2.308  0.00  0.00     0.014 A 
ENDBRANCH   2  17
TORSDOF 4
