REMARK  3 active torsions:
REMARK  status: ('A' for Active; 'I' for Inactive)
REMARK       I    between atoms: N_2  and  C_1 
REMARK    1  A    between atoms: C_8  and  C_1 
REMARK    2  A    between atoms: N_3  and  N_2 
REMARK    3  A    between atoms: C_4  and  N_3 
ROOT
ATOM      1  N   UNL d   1       0.854   1.937   1.410  0.00  0.00    -0.298 N 
ATOM      2  H   UNL d   1       1.612   2.370   0.880  0.00  0.00     0.187 HD
ENDROOT
BRANCH   1   3
ATOM      3  N   UNL d   1       0.192   0.944   0.702  0.00  0.00    -0.269 N 
ATOM      4  C   UNL d   1       0.939  -0.173   0.344  0.00  0.00     0.240 C 
ATOM      5  O   UNL d   1       2.152  -0.246   0.580  0.00  0.00    -0.271 OA
ATOM      6  H   UNL d   1      -0.775   1.097   0.441  0.00  0.00     0.190 HD
BRANCH   4   7
ATOM      7  C   UNL d   1       0.180  -1.310  -0.366  0.00  0.00     0.079 C 
ATOM      8  C   UNL d   1       0.707  -1.696  -1.778  0.00  0.00     0.014 C 
ATOM      9  C   UNL d   1      -0.738  -2.060  -2.152  0.00  0.00     0.002 C 
ATOM     10  C   UNL d   1      -1.197  -1.092  -1.043  0.00  0.00     0.014 C 
ENDBRANCH   4   7
ENDBRANCH   1   3
BRANCH   1  11
ATOM     11  C   UNL d   1       0.147   2.781   2.291  0.00  0.00     0.054 A 
ATOM     12  C   UNL d   1      -1.001   2.437   3.035  0.00  0.00    -0.032 A 
ATOM     13  C   UNL d   1      -1.554   3.388   3.925  0.00  0.00     0.033 A 
ATOM     14  C   UNL d   1      -1.708   1.110   2.987  0.00  0.00     0.050 C 
ATOM     15  C   UNL d   1      -0.955   4.626   4.131  0.00  0.00     0.034 A 
ATOM     16  C   UNL d   1       0.206   4.952   3.448  0.00  0.00     0.026 A 
ATOM     17 CL   UNL d   1      -1.634   5.737   5.254  0.00  0.00    -0.084 Cl
ATOM     18  C   UNL d   1       0.743   4.036   2.539  0.00  0.00     0.033 A 
ENDBRANCH   1  11
TORSDOF 3
