REMARK  9 active torsions:
REMARK  status: ('A' for Active; 'I' for Inactive)
REMARK    1  A    between atoms: N_7  and  S_1 
REMARK    2  A    between atoms: C_10  and  S_1 
REMARK    3  A    between atoms: C_17  and  C_2 
REMARK    4  A    between atoms: C_3  and  C_16 
REMARK    5  A    between atoms: N_14  and  N_7 
REMARK    6  A    between atoms: C_8  and  C_12 
REMARK    7  A    between atoms: C_9  and  C_13 
REMARK    8  A    between atoms: O_30  and  C_17 
REMARK    9  A    between atoms: C_32  and  O_30 
ROOT
ATOM      1  S   UNL d   1       2.080   1.542   1.453  0.00  0.00     0.276 S 
ATOM      2  O   UNL d   1       0.887   0.875   1.925  0.00  0.00    -0.199 OA
ATOM      3  O   UNL d   1       3.029   2.134   2.375  0.00  0.00    -0.199 OA
ENDROOT
BRANCH   1   4
ATOM      4  N   UNL d   1       1.653   2.765   0.362  0.00  0.00    -0.223 N 
ATOM      5  H   UNL d   1       2.064   3.675   0.580  0.00  0.00     0.200 HD
BRANCH   4   6
ATOM      6  N   UNL d   1       0.683   2.527  -0.662  0.00  0.00    -0.293 N 
ATOM      7  C   UNL d   1       0.314   3.524  -1.414  0.00  0.00     0.058 C 
ATOM      8  C   UNL d   1       0.831   4.934  -1.262  0.00  0.00     0.072 C 
ATOM      9  HN  UNL d   1       0.290   1.597  -0.800  1.00  0.00     0.187 HD
BRANCH   7  10
ATOM     10  C   UNL d   1      -0.649   3.249  -2.448  0.00  0.00     0.124 A 
ATOM     11  C   UNL d   1      -1.536   2.214  -2.628  0.00  0.00     0.079 A 
ATOM     12  C   UNL d   1      -2.141   2.464  -3.886  0.00  0.00     0.132 A 
ATOM     13  N   UNL d   1      -1.665   3.604  -4.416  0.00  0.00    -0.255 N 
ATOM     14  O   UNL d   1      -0.743   4.091  -3.512  0.00  0.00    -0.235 OA
ATOM     15  HN  UNL d   1      -1.932   4.024  -5.307  1.00  0.00     0.195 HD
BRANCH  12  16
ATOM     16  C   UNL d   1      -3.100   1.604  -4.574  0.00  0.00     0.311 C 
ATOM     17  O   UNL d   1      -3.552   0.583  -4.066  0.00  0.00    -0.258 OA
BRANCH  16  18
ATOM     18  O   UNL d   1      -3.357   2.008  -5.853  0.00  0.00    -0.317 OA
BRANCH  18  19
ATOM     19  C   UNL d   1      -3.985   1.033  -6.695  0.00  0.00     0.175 C 
ATOM     20  C   UNL d   1      -2.911   0.133  -7.281  0.00  0.00     0.034 C 
ENDBRANCH  18  19
ENDBRANCH  16  18
ENDBRANCH  12  16
ENDBRANCH   7  10
ENDBRANCH   4   6
ENDBRANCH   1   4
BRANCH   1  21
ATOM     21  C   UNL d   1       2.983   0.405   0.416  0.00  0.00     0.082 A 
ATOM     22  C   UNL d   1       4.367   0.558   0.264  0.00  0.00     0.041 A 
ATOM     23  C   UNL d   1       5.101  -0.382  -0.477  0.00  0.00     0.050 A 
ATOM     24  C   UNL d   1       4.422  -1.472  -1.052  0.00  0.00     0.032 A 
ATOM     25  C   UNL d   1       3.035  -1.642  -0.892  0.00  0.00     0.050 A 
ATOM     26  C   UNL d   1       2.318  -0.689  -0.149  0.00  0.00     0.041 A 
BRANCH  23  27
ATOM     27  C   UNL d   1       6.598  -0.252  -0.645  0.00  0.00     0.417 C 
ATOM     28  F   UNL d   1       7.122   0.840  -0.027  0.00  0.00    -0.166 F 
ATOM     29  F   UNL d   1       7.270  -1.327  -0.148  0.00  0.00    -0.166 F 
ATOM     30  F   UNL d   1       6.962  -0.153  -1.954  0.00  0.00    -0.166 F 
ENDBRANCH  23  27
BRANCH  25  31
ATOM     31  C   UNL d   1       2.350  -2.845  -1.496  0.00  0.00     0.417 C 
ATOM     32  F   UNL d   1       1.016  -2.907  -1.232  0.00  0.00    -0.166 F 
ATOM     33  F   UNL d   1       2.466  -2.878  -2.852  0.00  0.00    -0.166 F 
ATOM     34  F   UNL d   1       2.877  -4.017  -1.047  0.00  0.00    -0.166 F 
ENDBRANCH  25  31
ENDBRANCH   1  21
TORSDOF 9
