REMARK  4 active torsions:
REMARK  status: ('A' for Active; 'I' for Inactive)
REMARK    1  A    between atoms: C_10  and  N_3 
REMARK    2  A    between atoms: C_8  and  C_5 
REMARK    3  A    between atoms: C_20  and  C_10 
REMARK    4  A    between atoms: O_19  and  C_20 
ROOT
ATOM      1  N   UNL d   1       2.316  -0.728   0.013  0.00  0.00    -0.294 N 
ATOM      2  HN  UNL d   1       3.200  -1.236   0.018  1.00  0.00     0.187 HD
ATOM      3  N   UNL d   1       2.318   0.644   0.004  0.00  0.00    -0.254 N 
ATOM      4  C   UNL d   1       1.170   1.419  -0.100  0.00  0.00     0.273 C 
ATOM      5  C   UNL d   1       1.192  -1.383   0.015  0.00  0.00     0.070 C 
ATOM      6  C   UNL d   1      -0.113   0.699  -0.052  0.00  0.00     0.046 A 
ATOM      7  C   UNL d   1      -0.124  -0.689   0.072  0.00  0.00     0.009 A 
ATOM      8  O   UNL d   1       1.171   2.642  -0.200  0.00  0.00    -0.266 OA
ATOM      9  C   UNL d   1      -1.313   1.425  -0.092  0.00  0.00     0.018 A 
ATOM     10  C   UNL d   1      -1.357  -1.333   0.257  0.00  0.00     0.015 A 
ATOM     11  C   UNL d   1      -2.554  -0.613   0.198  0.00  0.00     0.001 A 
ATOM     12  C   UNL d   1      -2.535   0.765   0.008  0.00  0.00     0.001 A 
ENDROOT
BRANCH   5  13
ATOM     13  C   UNL d   1       1.299  -2.879  -0.064  0.00  0.00    -0.007 A 
ATOM     14  C   UNL d   1       2.362  -3.509   0.601  0.00  0.00     0.017 A 
ATOM     15  C   UNL d   1       2.503  -4.899   0.553  0.00  0.00     0.043 A 
ATOM     16  C   UNL d   1       1.580  -5.656  -0.157  0.00  0.00     0.116 A 
ATOM     17  C   UNL d   1       0.544  -5.048  -0.855  0.00  0.00     0.043 A 
ATOM     18  F   UNL d   1       1.698  -6.990  -0.182  0.00  0.00    -0.206 F 
ATOM     19  C   UNL d   1       0.422  -3.656  -0.835  0.00  0.00     0.017 A 
ENDBRANCH   5  13
BRANCH   3  20
ATOM     20  C   UNL d   1       3.626   1.288  -0.096  0.00  0.00     0.178 C 
BRANCH  20  21
ATOM     21  C   UNL d   1       3.972   2.161   1.111  0.00  0.00     0.186 C 
BRANCH  21  22
ATOM     22  O   UNL d   1       5.272   2.728   0.945  0.00  0.00    -0.399 OA
ATOM     23  H   UNL d   1       5.386   3.381   1.656  0.00  0.00     0.209 HD
ENDBRANCH  21  22
ENDBRANCH  20  21
ENDBRANCH   3  20
TORSDOF 4
