REMARK  5 active torsions:
REMARK  status: ('A' for Active; 'I' for Inactive)
REMARK    1  A    between atoms: C_5  and  C_1 
REMARK    2  A    between atoms: C_10  and  N_2 
REMARK    3  A    between atoms: S_9  and  C_5 
REMARK    4  A    between atoms: C_7  and  C_11 
REMARK    5  A    between atoms: C_13  and  S_9 
ROOT
ATOM      1  C   UNL d   1      -0.879  -2.932   1.102  0.00  0.00     0.242 C 
ATOM      2  O   UNL d   1       0.095  -3.621   1.365  0.00  0.00    -0.278 OA
ENDROOT
BRANCH   1   3
ATOM      3  C   UNL d   1      -0.822  -1.516   0.754  0.00  0.00     0.111 C 
ATOM      4  N   UNL d   1       0.310  -0.773   0.432  0.00  0.00    -0.279 N 
ATOM      5  N   UNL d   1       0.077   0.560   0.544  0.00  0.00    -0.302 N 
ATOM      6  C   UNL d   1      -1.244   0.679   0.521  0.00  0.00     0.024 C 
ATOM      7  HN  UNL d   1       0.767   1.306   0.629  1.00  0.00     0.186 HD
ATOM      8  C   UNL d   1      -1.853  -0.578   0.671  0.00  0.00     0.062 C 
ATOM      9  C   UNL d   1      -1.844   2.023   0.360  0.00  0.00     0.070 C 
BRANCH   4  10
ATOM     10  C   UNL d   1       1.611  -1.113  -0.185  0.00  0.00     0.043 C 
ATOM     11  C   UNL d   1       1.830  -2.587  -0.559  0.00  0.00     0.039 C 
ATOM     12  C   UNL d   1       1.724  -0.319  -1.519  0.00  0.00     0.039 C 
ATOM     13  C   UNL d   1       2.752  -0.669   0.753  0.00  0.00     0.039 C 
ENDBRANCH   4  10
ENDBRANCH   1   3
BRANCH   1  14
ATOM     14  S   UNL d   1      -2.516  -3.578   1.267  0.00  0.00    -0.046 SA
BRANCH  14  15
ATOM     15  C   UNL d   1      -2.446  -5.351   1.039  0.00  0.00     0.009 A 
ATOM     16  C   UNL d   1      -1.426  -6.196   1.502  0.00  0.00     0.035 A 
ATOM     17  C   UNL d   1      -1.512  -7.594   1.354  0.00  0.00     0.049 A 
ATOM     18  C   UNL d   1      -2.640  -8.152   0.733  0.00  0.00     0.016 A 
ATOM     19  C   UNL d   1      -3.668  -7.330   0.284  0.00  0.00     0.002 A 
ATOM     20  C   UNL d   1      -3.570  -5.945   0.444  0.00  0.00     0.019 A 
BRANCH  17  21
ATOM     21  C   UNL d   1      -0.415  -8.513   1.840  0.00  0.00     0.417 C 
ATOM     22  F   UNL d   1       0.431  -7.933   2.733  0.00  0.00    -0.166 F 
ATOM     23  F   UNL d   1      -0.901  -9.627   2.462  0.00  0.00    -0.166 F 
ATOM     24  F   UNL d   1       0.366  -8.974   0.823  0.00  0.00    -0.166 F 
ENDBRANCH  17  21
ENDBRANCH  14  15
ENDBRANCH   1  14
TORSDOF 5
