REMARK  5 active torsions:
REMARK  status: ('A' for Active; 'I' for Inactive)
REMARK    1  A    between atoms: C_6  and  N_1 
REMARK    2  A    between atoms: C_7  and  N_4 
REMARK    3  A    between atoms: C_8  and  C_13 
REMARK    4  A    between atoms: O_18  and  C_8 
REMARK    5  A    between atoms: C_24  and  O_18 
ROOT
ATOM      1  N   UNL d   1      -0.274  -1.323  -0.128  0.00  0.00    -0.253 N 
ATOM      2  C   UNL d   1       1.016  -0.789  -0.091  0.00  0.00     0.343 A 
ATOM      3  C   UNL d   1      -1.281  -0.419   0.086  0.00  0.00     0.311 A 
ATOM      4  N   UNL d   1       0.978   0.609   0.035  0.00  0.00    -0.228 N 
ATOM      5  S   UNL d   1      -0.607   1.190   0.230  0.00  0.00     0.060 SA
ATOM      6  O   UNL d   1       2.034  -1.471  -0.122  0.00  0.00    -0.245 OA
ATOM      7  O   UNL d   1      -2.479  -0.628   0.199  0.00  0.00    -0.258 OA
ENDROOT
BRANCH   4   8
ATOM      8  C   UNL d   1       2.105   1.475  -0.021  0.00  0.00     0.052 A 
ATOM      9  C   UNL d   1       3.277   1.087  -0.690  0.00  0.00     0.048 A 
ATOM     10  C   UNL d   1       4.365   1.969  -0.812  0.00  0.00     0.041 A 
ATOM     11  C   UNL d   1       4.297   3.238  -0.229  0.00  0.00     0.018 A 
ATOM     12  C   UNL d   1       3.153   3.628   0.457  0.00  0.00     0.003 A 
ATOM     13  C   UNL d   1       2.064   2.759   0.548  0.00  0.00     0.031 A 
BRANCH  10  14
ATOM     14  C   UNL d   1       5.545   1.649  -1.650  0.00  0.00     0.293 C 
ATOM     15  O   UNL d   1       6.463   2.434  -1.827  0.00  0.00    -0.259 OA
BRANCH  14  16
ATOM     16  O   UNL d   1       5.370   0.476  -2.292  0.00  0.00    -0.318 OA
BRANCH  16  17
ATOM     17  C   UNL d   1       6.101   0.332  -3.517  0.00  0.00     0.174 C 
ATOM     18  C   UNL d   1       5.251   0.929  -4.625  0.00  0.00     0.034 C 
ENDBRANCH  16  17
ENDBRANCH  14  16
ENDBRANCH  10  14
ENDBRANCH   4   8
BRANCH   1  19
ATOM     19  C   UNL d   1      -0.495  -2.767   0.001  0.00  0.00     0.107 C 
ATOM     20  C   UNL d   1       0.493  -3.663  -0.793  0.00  0.00     0.065 C 
ATOM     21  C   UNL d   1      -0.270  -4.947  -0.874  0.00  0.00    -0.050 A 
ATOM     22  C   UNL d   1       0.223  -6.212  -1.135  0.00  0.00     0.007 A 
ATOM     23  C   UNL d   1      -1.631  -4.730  -0.650  0.00  0.00    -0.050 A 
ATOM     24  C   UNL d   1      -0.678  -7.277  -1.150  0.00  0.00     0.001 A 
ATOM     25  C   UNL d   1      -2.047  -7.061  -0.922  0.00  0.00     0.001 A 
ATOM     26  C   UNL d   1      -2.535  -5.776  -0.679  0.00  0.00     0.007 A 
ATOM     27  C   UNL d   1      -1.901  -3.277  -0.414  0.00  0.00     0.065 C 
ENDBRANCH   1  19
TORSDOF 5
