REMARK  5 active torsions:
REMARK  status: ('A' for Active; 'I' for Inactive)
REMARK    1  A    between atoms: S_11  and  C_1 
REMARK    2  A    between atoms: O_5  and  C_2 
REMARK    3  A    between atoms: C_12  and  O_5 
REMARK    4  A    between atoms: C_6  and  C_13 
REMARK    5  A    between atoms: C_16  and  S_11 
ROOT
ATOM      1  C   UNL d   1      -0.563   1.240   0.680  0.00  0.00     0.112 C 
ATOM      2  C   UNL d   1      -1.310   0.220   0.104  0.00  0.00     0.132 C 
ATOM      3  N   UNL d   1       0.770   1.140   0.874  0.00  0.00    -0.338 N 
ATOM      4  HN  UNL d   1       1.313   1.911   1.263  1.00  0.00     0.168 HD
ATOM      5  N   UNL d   1       0.672  -1.123   0.171  0.00  0.00    -0.347 N 
ATOM      6  HN  UNL d   1       1.145  -2.017   0.040  1.00  0.00     0.167 HD
ATOM      7  C   UNL d   1      -0.660  -0.999  -0.011  0.00  0.00     0.043 C 
ATOM      8  C   UNL d   1       1.347  -0.023   0.530  0.00  0.00     0.078 C 
ATOM      9  C   UNL d   1      -1.376  -2.270  -0.370  0.00  0.00     0.071 C 
ATOM     10  C   UNL d   1       2.835  -0.026   0.374  0.00  0.00     0.089 C 
ENDROOT
BRANCH   1  11
ATOM     11  S   UNL d   1      -1.230   2.833   1.117  0.00  0.00    -0.070 SA
BRANCH  11  12
ATOM     12  C   UNL d   1      -1.339   2.884   2.894  0.00  0.00     0.007 A 
ATOM     13  C   UNL d   1      -1.744   4.112   3.443  0.00  0.00     0.035 A 
ATOM     14  C   UNL d   1      -1.856   4.303   4.830  0.00  0.00     0.049 A 
ATOM     15  C   UNL d   1      -1.577   3.227   5.679  0.00  0.00     0.016 A 
ATOM     16  C   UNL d   1      -1.188   1.996   5.148  0.00  0.00     0.002 A 
ATOM     17  C   UNL d   1      -1.069   1.825   3.763  0.00  0.00     0.019 A 
BRANCH  14  18
ATOM     18  C   UNL d   1      -2.280   5.638   5.391  0.00  0.00     0.417 C 
ATOM     19  F   UNL d   1      -2.282   6.640   4.468  0.00  0.00    -0.166 F 
ATOM     20  F   UNL d   1      -3.539   5.607   5.908  0.00  0.00    -0.166 F 
ATOM     21  F   UNL d   1      -1.471   6.066   6.400  0.00  0.00    -0.166 F 
ENDBRANCH  14  18
ENDBRANCH  11  12
ENDBRANCH   1  11
BRANCH   2  22
ATOM     22  O   UNL d   1      -2.593   0.319  -0.379  0.00  0.00    -0.304 OA
BRANCH  22  23
ATOM     23  C   UNL d   1      -2.903   1.415  -1.165  0.00  0.00     0.098 A 
ATOM     24  C   UNL d   1      -2.121   1.935  -2.213  0.00  0.00     0.069 A 
ATOM     25  C   UNL d   1      -2.460   3.162  -2.792  0.00  0.00     0.050 A 
ATOM     26 CL   UNL d   1      -0.735   1.126  -2.854  0.00  0.00    -0.081 Cl
ATOM     27  C   UNL d   1      -3.605   3.834  -2.370  0.00  0.00     0.035 A 
ATOM     28  C   UNL d   1      -4.441   3.272  -1.407  0.00  0.00     0.026 A 
ATOM     29 CL   UNL d   1      -3.988   5.372  -3.039  0.00  0.00    -0.084 Cl
ATOM     30  C   UNL d   1      -4.096   2.058  -0.813  0.00  0.00     0.041 A 
ENDBRANCH  22  23
ENDBRANCH   2  22
TORSDOF 5
