REMARK  6 active torsions:
REMARK  status: ('A' for Active; 'I' for Inactive)
REMARK    1  A    between atoms: S_15  and  C_2 
REMARK    2  A    between atoms: C_7  and  C_4 
REMARK       I    between atoms: N_10  and  C_7 
REMARK    3  A    between atoms: C_8  and  O_16 
REMARK       I    between atoms: C_9  and  N_13 
REMARK       I    between atoms: N_14  and  C_9 
REMARK    4  A    between atoms: N_13  and  N_10 
REMARK    5  A    between atoms: C_23  and  N_14 
REMARK    6  A    between atoms: O_16  and  C_24 
ROOT
ATOM      1  C   UNL d   1       1.224  -2.691   0.201  0.00  0.00     0.277 C 
ATOM      2  N   UNL d   1       2.496  -3.178   0.449  0.00  0.00    -0.261 N 
ATOM      3  O   UNL d   1       0.261  -3.462   0.201  0.00  0.00    -0.265 OA
ATOM      4  H   UNL d   1       3.305  -2.566   0.547  0.00  0.00     0.190 HD
ENDROOT
BRANCH   2   5
ATOM      5  N   UNL d   1       2.639  -4.495   0.926  0.00  0.00    -0.248 N 
ATOM      6  C   UNL d   1       3.931  -4.994   1.013  0.00  0.00     0.339 C 
ATOM      7  N   UNL d   1       3.939  -6.327   1.368  0.00  0.00    -0.308 N 
ATOM      8  O   UNL d   1       4.903  -4.275   0.819  0.00  0.00    -0.245 OA
ATOM      9  H   UNL d   1       3.059  -6.702   1.686  0.00  0.00     0.170 HD
ATOM     10  H   UNL d   1       1.863  -5.112   0.702  0.00  0.00     0.192 HD
BRANCH   7  11
ATOM     11  C   UNL d   1       5.060  -7.178   1.457  0.00  0.00     0.036 A 
ATOM     12  C   UNL d   1       6.350  -6.809   1.071  0.00  0.00     0.032 A 
ATOM     13  C   UNL d   1       7.421  -7.713   1.177  0.00  0.00     0.039 A 
ATOM     14  C   UNL d   1       7.216  -8.988   1.691  0.00  0.00     0.078 A 
ATOM     15  C   UNL d   1       5.921  -9.367   2.054  0.00  0.00     0.039 A 
ATOM     16  C   UNL d   1       4.851  -8.472   1.940  0.00  0.00     0.032 A 
BRANCH  14  17
ATOM     17  O   UNL d   1       8.161  -9.949   1.900  0.00  0.00    -0.255 OA
BRANCH  17  18
ATOM     18  C   UNL d   1       9.525  -9.611   1.711  0.00  0.00     0.530 C 
ATOM     19  F   UNL d   1       9.849  -8.441   2.303  0.00  0.00    -0.144 F 
ATOM     20  F   UNL d   1      10.285 -10.579   2.271  0.00  0.00    -0.144 F 
ATOM     21  F   UNL d   1       9.821  -9.550   0.396  0.00  0.00    -0.144 F 
ENDBRANCH  17  18
ENDBRANCH  14  17
ENDBRANCH   7  11
ENDBRANCH   2   5
BRANCH   1  22
ATOM     22  C   UNL d   1       1.109  -1.245   0.031  0.00  0.00     0.082 C 
ATOM     23  C   UNL d   1      -0.049  -0.482   0.029  0.00  0.00    -0.025 C 
ATOM     24  C   UNL d   1       0.221   0.942   0.189  0.00  0.00     0.002 C 
ATOM     25  C   UNL d   1      -1.448  -1.026   0.017  0.00  0.00     0.041 C 
ATOM     26  C   UNL d   1       1.572   1.192  -0.030  0.00  0.00     0.051 C 
ATOM     27  C   UNL d   1      -0.897   1.905   0.600  0.00  0.00     0.085 C 
ATOM     28  S   UNL d   1       2.480  -0.253  -0.179  0.00  0.00    -0.076 SA
ATOM     29  S   UNL d   1      -1.002   3.406  -0.444  0.00  0.00    -0.142 SA
ATOM     30  S   UNL d   1      -0.585   2.418   2.360  0.00  0.00    -0.142 SA
ATOM     31  C   UNL d   1      -2.313   1.244   0.600  0.00  0.00     0.037 C 
ATOM     32  C   UNL d   1      -1.355   4.558   0.910  0.00  0.00     0.086 C 
ATOM     33  C   UNL d   1      -0.461   4.196   2.077  0.00  0.00     0.086 C 
ATOM     34  C   UNL d   1      -2.443   0.067  -0.369  0.00  0.00     0.007 C 
BRANCH  26  35
ATOM     35  S   UNL d   1       2.429   2.734  -0.059  0.00  0.00    -0.126 SA
ATOM     36  C   UNL d   1       2.490   3.046  -1.843  0.00  0.00     0.096 C 
ENDBRANCH  26  35
ENDBRANCH   1  22
TORSDOF 6
