REMARK  4 active torsions:
REMARK  status: ('A' for Active; 'I' for Inactive)
REMARK    1  A    between atoms: S_4  and  C_1 
REMARK    2  A    between atoms: C_6  and  C_2 
REMARK    3  A    between atoms: S_8  and  C_6 
REMARK    4  A    between atoms: C_14  and  S_8 
ROOT
ATOM      1  C   UNL d   1      -0.087  -1.295   0.158  0.00  0.00     0.088 A 
ATOM      2  C   UNL d   1       0.298   1.021   0.244  0.00  0.00     0.085 A 
ATOM      3  C   UNL d   1      -0.655   0.019   0.072  0.00  0.00     0.077 A 
ATOM      4  S   UNL d   1       1.837   0.333   0.607  0.00  0.00    -0.094 SA
ATOM      5  C   UNL d   1       1.264  -1.255   0.428  0.00  0.00     0.075 A 
ATOM      6 CL   UNL d   1      -2.315   0.314  -0.257  0.00  0.00    -0.081 Cl
ENDROOT
BRANCH   2   7
ATOM      7  C   UNL d   1       0.101   2.471   0.209  0.00  0.00     0.228 C 
ATOM      8  O   UNL d   1      -0.957   3.031   0.465  0.00  0.00    -0.279 OA
BRANCH   7   9
ATOM      9  S   UNL d   1       1.509   3.417  -0.310  0.00  0.00    -0.083 SA
BRANCH   9  10
ATOM     10  C   UNL d   1       1.070   5.090   0.269  0.00  0.00     0.047 C 
ATOM     11  C   UNL d   1       1.091   5.173   1.794  0.00  0.00     0.021 C 
ATOM     12  C   UNL d   1       2.088   6.072  -0.314  0.00  0.00     0.021 C 
ENDBRANCH   9  10
ENDBRANCH   7   9
ENDBRANCH   2   7
BRANCH   1  13
ATOM     13  S   UNL d   1      -0.921  -2.796  -0.100  0.00  0.00     0.174 S 
ATOM     14  O   UNL d   1      -1.572  -2.638  -1.382  0.00  0.00    -0.223 OA
ATOM     15  O   UNL d   1       0.089  -3.812   0.121  0.00  0.00    -0.223 OA
ATOM     16  C   UNL d   1      -2.130  -2.932   1.186  0.00  0.00     0.167 C 
ENDBRANCH   1  13
TORSDOF 4
