REMARK  3 active torsions:
REMARK  status: ('A' for Active; 'I' for Inactive)
REMARK    1  A    between atoms: C_2  and  C_1 
REMARK    2  A    between atoms: C_12  and  N_3 
REMARK    3  A    between atoms: C_14  and  C_8 
ROOT
ATOM      1  C   UNL d   1      -0.088  -1.247   0.049  0.00  0.00     0.153 C 
ATOM      2  N   UNL d   1       1.043  -0.668   0.595  0.00  0.00    -0.224 N 
ATOM      3  N   UNL d   1       0.801   0.652   0.761  0.00  0.00     0.001 NA
ATOM      4  N   UNL d   1      -0.338   0.888   0.127  0.00  0.00    -0.007 NA
ATOM      5  N   UNL d   1      -0.890  -0.275  -0.339  0.00  0.00    -0.269 N 
ATOM      6  HN  UNL d   1      -1.750  -0.371  -0.879  1.00  0.00     0.185 HD
ENDROOT
BRANCH   1   7
ATOM      7  C   UNL d   1      -0.427  -2.686  -0.038  0.00  0.00     0.065 A 
ATOM      8  C   UNL d   1      -1.223  -3.287  -0.987  0.00  0.00     0.124 A 
ATOM      9  O   UNL d   1      -1.310  -4.620  -0.698  0.00  0.00    -0.236 OA
ATOM     10  N   UNL d   1      -0.565  -4.905   0.437  0.00  0.00    -0.271 N 
ATOM     11  C   UNL d   1      -0.051  -3.736   0.823  0.00  0.00     0.132 A 
ATOM     12  HN  UNL d   1      -0.438  -5.814   0.881  1.00  0.00     0.194 HD
BRANCH   8  13
ATOM     13  C   UNL d   1      -1.886  -2.857  -2.207  0.00  0.00     0.001 A 
ATOM     14  C   UNL d   1      -1.306  -1.869  -3.022  0.00  0.00     0.016 A 
ATOM     15  C   UNL d   1      -1.964  -1.398  -4.157  0.00  0.00     0.024 A 
ATOM     16  C   UNL d   1      -3.205  -1.925  -4.501  0.00  0.00     0.034 A 
ATOM     17  C   UNL d   1      -3.779  -2.933  -3.729  0.00  0.00     0.024 A 
ATOM     18 CL   UNL d   1      -4.036  -1.319  -5.879  0.00  0.00    -0.084 Cl
ATOM     19  C   UNL d   1      -3.119  -3.400  -2.588  0.00  0.00     0.016 A 
ENDBRANCH   8  13
ENDBRANCH   1   7
BRANCH   2  20
ATOM     20  C   UNL d   1       2.325  -1.216   0.825  0.00  0.00     0.056 A 
ATOM     21  C   UNL d   1       2.777  -2.320   0.081  0.00  0.00     0.033 A 
ATOM     22  C   UNL d   1       4.044  -2.853   0.318  0.00  0.00     0.026 A 
ATOM     23  C   UNL d   1       4.864  -2.282   1.289  0.00  0.00     0.034 A 
ATOM     24  C   UNL d   1       4.436  -1.166   2.008  0.00  0.00     0.026 A 
ATOM     25 CL   UNL d   1       6.419  -2.950   1.588  0.00  0.00    -0.084 Cl
ATOM     26  C   UNL d   1       3.172  -0.619   1.767  0.00  0.00     0.033 A 
ENDBRANCH   2  20
TORSDOF 3
