REMARK  8 active torsions:
REMARK  status: ('A' for Active; 'I' for Inactive)
REMARK    1  A    between atoms: C_7  and  C_1 
REMARK    2  A    between atoms: C_19  and  C_3 
REMARK    3  A    between atoms: S_20  and  C_5 
REMARK    4  A    between atoms: S_6  and  C_14 
REMARK    5  A    between atoms: C_13  and  S_6 
REMARK    6  A    between atoms: S_21  and  C_11 
REMARK    7  A    between atoms: C_14  and  C_25 
REMARK    8  A    between atoms: C_25  and  S_21 
ROOT
ATOM      1  C   UNL d   1       1.236  -1.328   0.020  0.00  0.00     0.045 A 
ATOM      2  C   UNL d   1      -0.256   0.351  -0.691  0.00  0.00     0.080 A 
ATOM      3  C   UNL d   1       0.670  -0.697  -1.097  0.00  0.00     0.016 A 
ATOM      4  S   UNL d   1       0.665  -0.617   1.484  0.00  0.00    -0.079 SA
ATOM      5  C   UNL d   1      -0.331   0.501   0.679  0.00  0.00     0.063 A 
ATOM      6  C   UNL d   1      -1.018   1.175  -1.584  0.00  0.00     0.102 C 
ATOM      7  N   UNL d   1      -1.688   1.808  -2.296  0.00  0.00    -0.191 NA
ENDROOT
BRANCH   3   8
ATOM      8  C   UNL d   1       0.995  -1.071  -2.493  0.00  0.00    -0.023 A 
ATOM      9  C   UNL d   1       2.314  -1.340  -2.893  0.00  0.00     0.012 A 
ATOM     10  C   UNL d   1       2.604  -1.765  -4.194  0.00  0.00     0.001 A 
ATOM     11  C   UNL d   1       1.589  -1.855  -5.141  0.00  0.00     0.000 A 
ATOM     12  C   UNL d   1       0.285  -1.530  -4.784  0.00  0.00     0.001 A 
ATOM     13  C   UNL d   1      -0.013  -1.163  -3.467  0.00  0.00     0.012 A 
ENDBRANCH   3   8
BRANCH   5  14
ATOM     14  S   UNL d   1      -1.231   1.700   1.611  0.00  0.00    -0.126 SA
ATOM     15  C   UNL d   1      -2.937   1.157   1.366  0.00  0.00     0.096 C 
ENDBRANCH   5  14
BRANCH   1  16
ATOM     16  C   UNL d   1       2.175  -2.471   0.138  0.00  0.00     0.053 A 
ATOM     17  N   UNL d   1       2.023  -3.421  -0.802  0.00  0.00    -0.336 N 
ATOM     18  C   UNL d   1       2.899  -4.437  -0.805  0.00  0.00     0.144 A 
ATOM     19  HN  UNL d   1       1.269  -3.371  -1.488  1.00  0.00     0.168 HD
ATOM     20  N   UNL d   1       3.880  -4.602   0.094  0.00  0.00    -0.347 N 
ATOM     21  C   UNL d   1       3.980  -3.654   1.042  0.00  0.00     0.092 A 
ATOM     22  HN  UNL d   1       4.514  -5.400   0.060  1.00  0.00     0.167 HD
ATOM     23  C   UNL d   1       3.161  -2.550   1.104  0.00  0.00     0.048 A 
BRANCH  18  24
ATOM     24  S   UNL d   1       2.815  -5.533  -2.199  0.00  0.00    -0.093 SA
BRANCH  24  25
ATOM     25  C   UNL d   1       3.288  -7.106  -1.411  0.00  0.00     0.097 C 
BRANCH  25  26
ATOM     26  C   UNL d   1       3.165  -8.224  -2.437  0.00  0.00     0.156 C 
BRANCH  26  27
ATOM     27  S   UNL d   1       3.587  -9.780  -1.690  0.00  0.00     0.176 S 
ATOM     28  O   UNL d   1       5.001  -9.763  -1.371  0.00  0.00    -0.223 OA
ATOM     29  O   UNL d   1       2.600 -10.077  -0.669  0.00  0.00    -0.223 OA
BRANCH  27  30
ATOM     30  C   UNL d   1       3.361 -10.976  -2.994  0.00  0.00     0.059 A 
ATOM     31  C   UNL d   1       4.452 -11.354  -3.785  0.00  0.00     0.025 A 
ATOM     32  C   UNL d   1       4.297 -12.367  -4.736  0.00  0.00     0.025 A 
ATOM     33  C   UNL d   1       3.061 -12.999  -4.883  0.00  0.00     0.034 A 
ATOM     34  C   UNL d   1       1.973 -12.622  -4.094  0.00  0.00     0.025 A 
ATOM     35 CL   UNL d   1       2.883 -14.270  -6.029  0.00  0.00    -0.084 Cl
ATOM     36  C   UNL d   1       2.122 -11.610  -3.142  0.00  0.00     0.025 A 
ENDBRANCH  27  30
ENDBRANCH  26  27
ENDBRANCH  25  26
ENDBRANCH  24  25
ENDBRANCH  18  24
ENDBRANCH   1  16
TORSDOF 8
