REMARK  2 active torsions:
REMARK  status: ('A' for Active; 'I' for Inactive)
REMARK    1  A    between atoms: C_2  and  S_1 
REMARK    2  A    between atoms: N_10  and  S_1 
ROOT
ATOM      1  C   UNL d   1       0.266  -1.653  -0.235  0.00  0.00     0.096 A 
ATOM      2  C   UNL d   1      -1.029  -1.904  -0.685  0.00  0.00     0.058 A 
ATOM      3  C   UNL d   1       1.129  -2.725   0.051  0.00  0.00     0.035 A 
ATOM      4  C   UNL d   1      -1.456  -3.225  -0.847  0.00  0.00     0.050 A 
ATOM      5  C   UNL d   1      -0.601  -4.294  -0.557  0.00  0.00     0.041 A 
ATOM      6  C   UNL d   1       0.704  -4.058  -0.102  0.00  0.00    -0.039 A 
ATOM      7 CL   UNL d   1      -2.184  -0.671  -1.050  0.00  0.00    -0.083 Cl
ATOM      8 CL   UNL d   1      -1.227  -5.887  -0.784  0.00  0.00    -0.084 Cl
ATOM      9  C   UNL d   1       1.680  -5.149   0.244  0.00  0.00     0.050 C 
ENDROOT
BRANCH   1  10
ATOM     10  S   UNL d   1       0.868  -0.007  -0.032  0.00  0.00     0.241 S 
ATOM     11  O   UNL d   1       0.632   0.742  -1.243  0.00  0.00    -0.206 OA
ATOM     12  O   UNL d   1       2.173  -0.059   0.586  0.00  0.00    -0.206 OA
BRANCH  10  13
ATOM     13  N   UNL d   1      -0.142   0.622   1.151  0.00  0.00    -0.225 NA
ATOM     14  H   UNL d   1      -0.772   1.316   0.744  0.00  0.00     0.136 HD
ATOM     15  H   UNL d   1       0.414   0.974   1.931  0.00  0.00     0.136 HD
ENDBRANCH  10  13
ENDBRANCH   1  10
TORSDOF 2
