REMARK  5 active torsions:
REMARK  status: ('A' for Active; 'I' for Inactive)
REMARK    1  A    between atoms: C_4  and  N_1 
REMARK    2  A    between atoms: C_2  and  N_3 
REMARK    3  A    between atoms: N_5  and  C_2 
REMARK    4  A    between atoms: C_10  and  N_5 
REMARK    5  A    between atoms: N_6  and  C_7 
ROOT
ATOM      1  N   UNL d   1      -4.654   0.499   5.870  0.00  0.00    -0.356 N 
ATOM      2  N   UNL d   1      -1.872   0.940   4.786  0.00  0.00    -0.366 N 
ATOM      3  C   UNL d   1      -3.681  -0.601   5.694  0.00  0.00     0.145 C 
ATOM      4  C   UNL d   1      -2.201  -0.156   5.711  0.00  0.00     0.144 C 
ATOM      5  C   UNL d   1      -3.813   2.429   4.425  0.00  0.00     0.040 C 
ATOM      6  C   UNL d   1      -4.857   1.354   4.702  0.00  0.00     0.127 C 
ATOM      7  C   UNL d   1      -2.453   2.245   5.083  0.00  0.00     0.126 C 
ENDROOT
BRANCH   1   8
ATOM      8  C   UNL d   1      -5.170   0.812   7.112  0.00  0.00     0.174 C 
ATOM      9  S   UNL d   1      -5.195   2.350   7.781  0.00  0.00    -0.041 SA
BRANCH   8  10
ATOM     10  N   UNL d   1      -5.665  -0.206   7.884  0.00  0.00    -0.332 N 
ATOM     11  H   UNL d   1      -5.727   0.045   8.869  0.00  0.00     0.168 HD
BRANCH  10  12
ATOM     12  C   UNL d   1      -6.688  -1.130   7.509  0.00  0.00     0.051 A 
ATOM     13  C   UNL d   1      -7.371  -1.832   8.526  0.00  0.00     0.040 A 
ATOM     14  C   UNL d   1      -8.463  -2.654   8.232  0.00  0.00     0.063 A 
ATOM     15 BR   UNL d   1      -6.874  -1.659  10.355  0.00  0.00    -0.049 Br
ATOM     16  C   UNL d   1      -8.876  -2.784   6.915  0.00  0.00     0.117 A 
ATOM     17  C   UNL d   1      -8.214  -2.120   5.892  0.00  0.00     0.044 A 
ATOM     18  F   UNL d   1      -9.937  -3.548   6.627  0.00  0.00    -0.206 F 
ATOM     19  C   UNL d   1      -7.124  -1.295   6.189  0.00  0.00     0.034 A 
ENDBRANCH  10  12
ENDBRANCH   8  10
ENDBRANCH   1   8
BRANCH   2  20
ATOM     20  C   UNL d   1      -1.204   0.679   3.607  0.00  0.00     0.103 A 
ATOM     21  C   UNL d   1      -0.440   1.666   2.969  0.00  0.00     0.051 A 
ATOM     22  C   UNL d   1       0.258   1.392   1.790  0.00  0.00     0.041 A 
ATOM     23  C   UNL d   1       0.171   0.115   1.256  0.00  0.00     0.118 A 
ATOM     24  C   UNL d   1      -0.592  -0.826   1.923  0.00  0.00     0.125 A 
ATOM     25  N   UNL d   1      -1.264  -0.567   3.081  0.00  0.00    -0.350 N 
ATOM     26  HN  UNL d   1      -1.803  -1.299   3.543  1.00  0.00     0.166 HD
BRANCH  23  27
ATOM     27  N   UNL d   1       0.873  -0.233   0.030  0.00  0.00    -0.114 N 
ATOM     28  O   UNL d   1       0.742  -1.392  -0.399  0.00  0.00    -0.532 OA
ATOM     29  O   UNL d   1       1.555   0.646  -0.514  0.00  0.00    -0.532 OA
ENDBRANCH  23  27
ENDBRANCH   2  20
TORSDOF 5
