REMARK  5 active torsions:
REMARK  status: ('A' for Active; 'I' for Inactive)
REMARK    1  A    between atoms: C_2  and  C_1 
REMARK    2  A    between atoms: O_11  and  C_1 
REMARK    3  A    between atoms: N_4  and  O_11 
REMARK    4  A    between atoms: C_10  and  C_6 
REMARK    5  A    between atoms: N_22  and  C_6 
ROOT
ATOM      1  N   UNL d   1      -1.130   0.351  -1.202  0.00  0.00    -0.246 N 
ATOM      2  HN  UNL d   1      -0.158   0.063  -1.317  1.00  0.00     0.196 HD
ATOM      3  C   UNL d   1      -1.786   1.040  -2.086  0.00  0.00     0.109 C 
ENDROOT
BRANCH   3   4
ATOM      4  C   UNL d   1      -1.040   1.488  -3.309  0.00  0.00     0.005 A 
ATOM      5  C   UNL d   1      -1.407   2.672  -3.966  0.00  0.00     0.029 A 
ATOM      6  C   UNL d   1      -0.652   3.134  -5.051  0.00  0.00    -0.002 A 
ATOM      7  C   UNL d   1      -1.000   4.369  -5.744  0.00  0.00     0.013 C 
ATOM      8  C   UNL d   1       0.463   2.404  -5.479  0.00  0.00     0.080 A 
ATOM      9  C   UNL d   1      -0.088   4.887  -6.575  0.00  0.00     0.011 C 
ATOM     10  C   UNL d   1       1.258   4.231  -6.804  0.00  0.00     0.078 C 
ATOM     11  O   UNL d   1       1.265   2.814  -6.513  0.00  0.00    -0.336 OA
ATOM     12  C   UNL d   1       2.328   4.908  -5.934  0.00  0.00     0.051 C 
ATOM     13  C   UNL d   1       1.654   4.361  -8.280  0.00  0.00     0.051 C 
ATOM     14  C   UNL d   1       0.799   1.200  -4.862  0.00  0.00     0.038 A 
ATOM     15  C   UNL d   1       0.058   0.749  -3.767  0.00  0.00     0.017 A 
ENDBRANCH   3   4
BRANCH   3  16
ATOM     16  N   UNL d   1      -3.114   1.378  -1.959  0.00  0.00    -0.286 NA
ATOM     17  H   UNL d   1      -3.587   0.830  -1.249  0.00  0.00     0.125 HD
ATOM     18  H   UNL d   1      -3.638   1.416  -2.827  0.00  0.00     0.125 HD
ENDBRANCH   3  16
BRANCH   1  19
ATOM     19  O   UNL d   1      -1.911   0.045  -0.062  0.00  0.00    -0.193 OA
BRANCH  19  20
ATOM     20  C   UNL d   1      -1.148  -0.677   0.839  0.00  0.00     0.322 C 
ATOM     21  O   UNL d   1      -0.004  -1.075   0.636  0.00  0.00    -0.257 OA
BRANCH  20  22
ATOM     22  C   UNL d   1      -1.868  -0.939   2.079  0.00  0.00     0.082 A 
ATOM     23  S   UNL d   1      -3.421  -0.308   2.432  0.00  0.00    -0.096 SA
ATOM     24  C   UNL d   1      -3.455  -1.050   3.976  0.00  0.00     0.050 A 
ATOM     25  C   UNL d   1      -2.312  -1.774   4.225  0.00  0.00     0.009 A 
ATOM     26  C   UNL d   1      -1.398  -1.706   3.137  0.00  0.00     0.026 A 
ENDBRANCH  20  22
ENDBRANCH  19  20
ENDBRANCH   1  19
TORSDOF 5
