REMARK  1 active torsions:
REMARK  status: ('A' for Active; 'I' for Inactive)
REMARK    1  A    between atoms: C_2  and  C_1 
REMARK       I    between atoms: N_6  and  C_2 
ROOT
ATOM      1  C   UNL d   1       1.506  -1.629   0.124  0.00  0.00     0.067 A 
ATOM      2  C   UNL d   1       2.241  -0.455   0.205  0.00  0.00     0.090 A 
ATOM      3  C   UNL d   1       1.632   0.801   0.104  0.00  0.00    -0.020 A 
ATOM      4  C   UNL d   1       0.106  -1.483  -0.009  0.00  0.00     0.039 A 
ATOM      5  O   UNL d   1       3.589  -0.332   0.445  0.00  0.00    -0.349 OA
ATOM      6  C   UNL d   1       0.262   0.941  -0.023  0.00  0.00     0.029 A 
ATOM      7  C   UNL d   1      -0.501  -0.220  -0.071  0.00  0.00     0.012 A 
ATOM      8 BR   UNL d   1      -2.384  -0.091  -0.199  0.00  0.00    -0.051 Br
ATOM      9  C   UNL d   1       3.893   1.016   0.020  0.00  0.00     0.180 C 
ATOM     10  C   UNL d   1       2.652   1.869   0.238  0.00  0.00     0.068 C 
ENDROOT
BRANCH   1  11
ATOM     11  C   UNL d   1       2.002  -3.037   0.214  0.00  0.00     0.255 C 
ATOM     12  N   UNL d   1       3.191  -3.489  -0.369  0.00  0.00    -0.357 N 
ATOM     13  C   UNL d   1       3.503  -4.907  -0.257  0.00  0.00     0.152 C 
ATOM     14  C   UNL d   1       4.272  -2.664  -0.875  0.00  0.00     0.152 C 
ATOM     15  O   UNL d   1       1.235  -3.830   0.779  0.00  0.00    -0.267 OA
ENDBRANCH   1  11
TORSDOF 1
