REMARK  2 active torsions:
REMARK  status: ('A' for Active; 'I' for Inactive)
REMARK    1  A    between atoms: N_11  and  C_1 
REMARK    2  A    between atoms: C_10  and  N_11 
ROOT
ATOM      1  C   UNL d   1       1.169  -4.749   0.167  0.00  0.00     0.140 C 
ATOM      2  C   UNL d   1      -0.021  -5.492  -0.053  0.00  0.00     0.112 C 
ATOM      3  C   UNL d   1       2.378  -5.445   0.439  0.00  0.00     0.112 C 
ATOM      4  N   UNL d   1      -1.012  -6.066  -0.238  0.00  0.00    -0.191 NA
ATOM      5  N   UNL d   1       3.372  -6.000   0.668  0.00  0.00    -0.191 NA
ATOM      6  C   UNL d   1       1.173  -3.405   0.128  0.00  0.00     0.124 C 
ENDROOT
BRANCH   6   7
ATOM      7  N   UNL d   1       0.145  -2.509  -0.093  0.00  0.00    -0.344 N 
ATOM      8  H   UNL d   1      -0.786  -2.891  -0.235  0.00  0.00     0.167 HD
BRANCH   7   9
ATOM      9  C   UNL d   1       0.263  -1.157  -0.089  0.00  0.00     0.148 A 
ATOM     10  N   UNL d   1       1.391  -0.496   0.059  0.00  0.00    -0.346 N 
ATOM     11  C   UNL d   1       1.159   0.863   0.026  0.00  0.00     0.097 A 
ATOM     12  HN  UNL d   1       2.307  -0.928   0.180  1.00  0.00     0.167 HD
ATOM     13  C   UNL d   1      -0.155   1.236  -0.140  0.00  0.00     0.070 A 
ATOM     14  S   UNL d   1      -1.134  -0.163  -0.280  0.00  0.00    -0.064 SA
ENDBRANCH   7   9
ENDBRANCH   6   7
TORSDOF 2
