REMARK  4 active torsions:
REMARK  status: ('A' for Active; 'I' for Inactive)
REMARK    1  A    between atoms: C_2  and  C_1 
REMARK       I    between atoms: N_3  and  C_1 
REMARK       I    between atoms: C_4  and  N_3 
REMARK       I    between atoms: N_7  and  C_4 
REMARK    2  A    between atoms: O_16  and  C_5 
REMARK    3  A    between atoms: C_6  and  N_7 
REMARK    4  A    between atoms: O_19  and  C_8 
ROOT
ATOM      1  C   UNL d   1       0.628  -0.091   0.542  0.00  0.00     0.265 C 
ATOM      2  N   UNL d   1      -0.303  -0.845   1.257  0.00  0.00    -0.275 N 
ATOM      3  C   UNL d   1      -0.202  -1.681   2.335  0.00  0.00     0.327 C 
ATOM      4  N   UNL d   1       0.979  -1.678   3.026  0.00  0.00    -0.306 N 
ATOM      5  O   UNL d   1       1.730   0.243   0.941  0.00  0.00    -0.267 OA
ATOM      6  O   UNL d   1      -1.185  -2.372   2.591  0.00  0.00    -0.247 OA
ATOM      7  H   UNL d   1      -1.185  -1.021   0.797  0.00  0.00     0.173 HD
ATOM      8  H   UNL d   1       1.437  -0.769   3.035  0.00  0.00     0.170 HD
ENDROOT
BRANCH   1   9
ATOM      9  C   UNL d   1       0.053   0.368  -0.767  0.00  0.00     0.100 A 
ATOM     10  C   UNL d   1      -0.393  -0.613  -1.689  0.00  0.00     0.108 A 
ATOM     11  C   UNL d   1      -1.222  -0.218  -2.748  0.00  0.00     0.068 A 
ATOM     12 CL   UNL d   1      -2.019  -1.328  -3.806  0.00  0.00    -0.081 Cl
ATOM     13  C   UNL d   1      -1.542   1.131  -2.919  0.00  0.00     0.029 A 
ATOM     14  C   UNL d   1      -1.036   2.099  -2.050  0.00  0.00     0.039 A 
ATOM     15  C   UNL d   1      -0.221   1.735  -0.974  0.00  0.00     0.086 A 
BRANCH  10  16
ATOM     16  O   UNL d   1      -0.082  -1.917  -1.390  0.00  0.00    -0.353 OA
ATOM     17  C   UNL d   1       0.397  -2.716  -2.472  0.00  0.00     0.210 C 
ENDBRANCH  10  16
BRANCH  15  18
ATOM     18  O   UNL d   1       0.274   2.634  -0.068  0.00  0.00    -0.355 OA
ATOM     19  C   UNL d   1       0.214   4.017  -0.409  0.00  0.00     0.210 C 
ENDBRANCH  15  18
ENDBRANCH   1   9
BRANCH   4  20
ATOM     20  C   UNL d   1       1.217  -2.519   4.152  0.00  0.00     0.064 A 
ATOM     21  C   UNL d   1       1.760  -1.942   5.318  0.00  0.00     0.061 A 
ATOM     22 CL   UNL d   1       2.101  -0.246   5.405  0.00  0.00    -0.082 Cl
ATOM     23  C   UNL d   1       1.985  -2.706   6.469  0.00  0.00     0.026 A 
ATOM     24  C   UNL d   1       1.693  -4.066   6.469  0.00  0.00     0.002 A 
ATOM     25  C   UNL d   1       1.188  -4.660   5.315  0.00  0.00     0.009 A 
ATOM     26  C   UNL d   1       0.961  -3.910   4.143  0.00  0.00    -0.034 A 
ATOM     27  C   UNL d   1       0.463  -4.674   2.944  0.00  0.00     0.050 C 
ENDBRANCH   4  20
TORSDOF 4
