REMARK  3 active torsions:
REMARK  status: ('A' for Active; 'I' for Inactive)
REMARK    1  A    between atoms: C_2  and  C_1 
REMARK       I    between atoms: N_3  and  C_2 
REMARK    2  A    between atoms: C_4  and  N_3 
REMARK    3  A    between atoms: N_12  and  C_5 
ROOT
ATOM      1  C   UNL d   1       0.982  -0.040   0.208  0.00  0.00     0.127 C 
ATOM      2  C   UNL d   1       0.244   0.309  -0.872  0.00  0.00     0.113 C 
ATOM      3  C   UNL d   1       0.370  -0.253   1.459  0.00  0.00     0.106 C 
ATOM      4  N   UNL d   1      -0.150  -0.449   2.482  0.00  0.00    -0.191 NA
ENDROOT
BRANCH   1   5
ATOM      5  C   UNL d   1       2.486  -0.129   0.025  0.00  0.00     0.270 C 
ATOM      6  N   UNL d   1       3.292  -0.989   0.787  0.00  0.00    -0.315 N 
ATOM      7  C   UNL d   1       2.887  -1.939   1.837  0.00  0.00     0.160 C 
ATOM      8  O   UNL d   1       2.980   0.571  -0.875  0.00  0.00    -0.266 OA
BRANCH   6   9
ATOM      9  C   UNL d   1       4.714  -1.005   0.529  0.00  0.00     0.076 A 
ATOM     10  C   UNL d   1       5.402  -2.206   0.270  0.00  0.00     0.146 A 
ATOM     11  C   UNL d   1       6.777  -2.232   0.053  0.00  0.00     0.086 A 
ATOM     12  F   UNL d   1       4.738  -3.367   0.163  0.00  0.00    -0.204 F 
ATOM     13  C   UNL d   1       7.489  -1.046   0.115  0.00  0.00     0.119 A 
ATOM     14  C   UNL d   1       6.845   0.160   0.379  0.00  0.00     0.044 A 
ATOM     15  F   UNL d   1       8.812  -1.060  -0.084  0.00  0.00    -0.206 F 
ATOM     16  C   UNL d   1       5.458   0.183   0.576  0.00  0.00     0.036 A 
ENDBRANCH   6   9
ENDBRANCH   1   5
BRANCH   2  17
ATOM     17  N   UNL d   1      -1.125   0.548  -1.076  0.00  0.00    -0.397 N 
ATOM     18  C   UNL d   1      -2.088   0.959  -0.045  0.00  0.00     0.148 C 
ATOM     19  C   UNL d   1      -1.722   0.499  -2.415  0.00  0.00     0.148 C 
ENDBRANCH   2  17
TORSDOF 3
