REMARK  3 active torsions:
REMARK  status: ('A' for Active; 'I' for Inactive)
REMARK    1  A    between atoms: N_2  and  S_1 
REMARK    2  A    between atoms: C_6  and  N_2 
REMARK    3  A    between atoms: C_8  and  C_6 
ROOT
ATOM      1  C   UNL d   1      -0.581  -6.286   1.308  0.00  0.00     0.034 A 
ATOM      2  C   UNL d   1       0.329  -3.851   0.261  0.00  0.00    -0.044 A 
ATOM      3 CL   UNL d   1      -1.140  -7.789   1.930  0.00  0.00    -0.084 Cl
ATOM      4  C   UNL d   1      -1.498  -5.301   0.952  0.00  0.00     0.024 A 
ATOM      5  C   UNL d   1       0.786  -6.065   1.156  0.00  0.00     0.024 A 
ATOM      6  C   UNL d   1      -1.045  -4.087   0.428  0.00  0.00     0.010 A 
ATOM      7  C   UNL d   1       1.240  -4.849   0.638  0.00  0.00     0.010 A 
ENDROOT
BRANCH   2   8
ATOM      8  C   UNL d   1       0.810  -2.555  -0.351  0.00  0.00     0.142 C 
BRANCH   8   9
ATOM      9  N   UNL d   1       0.534  -1.402   0.514  0.00  0.00    -0.216 NA
ATOM     10  H   UNL d   1      -0.397  -1.383   0.932  0.00  0.00     0.139 HD
BRANCH   9  11
ATOM     11  S   UNL d   1       0.922   0.112  -0.097  0.00  0.00     0.205 S 
ATOM     12  O   UNL d   1       0.361   1.068   0.827  0.00  0.00    -0.212 OA
ATOM     13  O   UNL d   1       0.577   0.128  -1.499  0.00  0.00    -0.212 OA
ATOM     14  C   UNL d   1       2.696   0.141   0.066  0.00  0.00     0.179 C 
ENDBRANCH   9  11
ENDBRANCH   8   9
ENDBRANCH   2   8
TORSDOF 3
