REMARK  7 active torsions:
REMARK  status: ('A' for Active; 'I' for Inactive)
REMARK    1  A    between atoms: C_21  and  N_1 
REMARK    2  A    between atoms: S_16  and  C_2 
REMARK    3  A    between atoms: O_27  and  C_3 
REMARK    4  A    between atoms: C_18  and  C_10 
REMARK    5  A    between atoms: N_11  and  C_17 
REMARK    6  A    between atoms: C_15  and  C_22 
REMARK    7  A    between atoms: C_22  and  S_16 
ROOT
ATOM      1  C   UNL d   1       3.863  -0.073  -0.539  0.00  0.00     0.168 C 
ENDROOT
BRANCH   1   2
ATOM      2  C   UNL d   1       5.275  -0.440  -0.832  0.00  0.00     0.150 A 
ATOM      3  O   UNL d   1       6.059   0.491  -1.480  0.00  0.00    -0.277 OA
ATOM      4  C   UNL d   1       7.266  -0.163  -1.557  0.00  0.00     0.174 A 
ATOM      5  N   UNL d   1       7.223  -1.361  -1.009  0.00  0.00    -0.277 N 
ATOM      6  N   UNL d   1       5.943  -1.536  -0.532  0.00  0.00    -0.281 N 
ATOM      7  HN  UNL d   1       7.990  -2.030  -0.951  1.00  0.00     0.189 HD
ATOM      8  HN  UNL d   1       5.583  -2.354  -0.041  1.00  0.00     0.189 HD
BRANCH   4   9
ATOM      9  C   UNL d   1       8.396   0.518  -2.188  0.00  0.00     0.017 A 
ATOM     10  C   UNL d   1       8.309   1.823  -2.700  0.00  0.00     0.018 A 
ATOM     11  C   UNL d   1       9.425   2.443  -3.280  0.00  0.00     0.037 A 
ATOM     12  C   UNL d   1      10.645   1.756  -3.354  0.00  0.00     0.102 A 
ATOM     13  C   UNL d   1      10.750   0.453  -2.860  0.00  0.00     0.037 A 
ATOM     14  C   UNL d   1       9.629  -0.155  -2.284  0.00  0.00     0.018 A 
BRANCH  12  15
ATOM     15  N   UNL d   1      11.826   2.404  -3.947  0.00  0.00    -0.116 N 
ATOM     16  O   UNL d   1      11.694   3.568  -4.357  0.00  0.00    -0.532 OA
ATOM     17  O   UNL d   1      12.878   1.753  -3.999  0.00  0.00    -0.532 OA
ENDBRANCH  12  15
ENDBRANCH   4   9
ENDBRANCH   1   2
BRANCH   1  18
ATOM     18  S   UNL d   1       2.753  -1.535  -0.542  0.00  0.00    -0.084 SA
BRANCH  18  19
ATOM     19  C   UNL d   1       1.239  -0.779  -0.193  0.00  0.00     0.165 A 
ATOM     20  N   UNL d   1       0.033  -1.417  -0.044  0.00  0.00    -0.286 N 
ATOM     21  C   UNL d   1      -0.879  -0.384   0.102  0.00  0.00     0.240 A 
ATOM     22  N   UNL d   1      -0.253   0.767   0.122  0.00  0.00    -0.263 N 
ATOM     23  N   UNL d   1       1.082   0.520  -0.073  0.00  0.00    -0.277 N 
ATOM     24  HN  UNL d   1      -0.682   1.683   0.257  1.00  0.00     0.190 HD
ATOM     25  HN  UNL d   1       1.822   1.220  -0.116  1.00  0.00     0.189 HD
BRANCH  20  26
ATOM     26  C   UNL d   1      -0.329  -2.822  -0.033  0.00  0.00     0.095 C 
ATOM     27  C   UNL d   1      -0.565  -3.389  -1.440  0.00  0.00     0.026 C 
ATOM     28  C   UNL d   1      -1.294  -4.730  -1.344  0.00  0.00     0.002 C 
ATOM     29  C   UNL d   1      -0.560  -5.726  -0.445  0.00  0.00     0.000 C 
ATOM     30  C   UNL d   1      -0.173  -5.139   0.914  0.00  0.00     0.002 C 
ATOM     31  C   UNL d   1       0.543  -3.788   0.783  0.00  0.00     0.026 C 
ENDBRANCH  20  26
BRANCH  21  32
ATOM     32  O   UNL d   1      -2.193  -0.487   0.205  0.00  0.00    -0.331 OA
ATOM     33  H   UNL d   1      -2.486  -1.359  -0.082  0.00  0.00     0.221 HD
ENDBRANCH  21  32
ENDBRANCH  18  19
ENDBRANCH   1  18
TORSDOF 7
