REMARK  6 active torsions:
REMARK  status: ('A' for Active; 'I' for Inactive)
REMARK    1  A    between atoms: C_2  and  S_1 
REMARK    2  A    between atoms: N_5  and  S_1 
REMARK    3  A    between atoms: C_8  and  C_4 
REMARK    4  A    between atoms: O_20  and  C_8 
REMARK    5  A    between atoms: C_15  and  N_11 
REMARK    6  A    between atoms: C_19  and  C_15 
ROOT
ATOM      1  N   UNL d   1       0.270   1.107  -0.981  0.00  0.00    -0.203 NA
ATOM      2  N   UNL d   1       0.944   3.948  -2.362  0.00  0.00     0.093 N 
ATOM      3  C   UNL d   1       0.794   2.361  -0.331  0.00  0.00     0.138 C 
ATOM      4  C   UNL d   1       0.404   3.670  -1.028  0.00  0.00     0.288 C 
ATOM      5  C   UNL d   1       0.127   1.742  -3.449  0.00  0.00     0.046 C 
ATOM      6  C   UNL d   1       0.796   0.903  -2.368  0.00  0.00     0.109 C 
ATOM      7  C   UNL d   1       0.173   3.272  -3.398  0.00  0.00     0.274 C 
ENDROOT
BRANCH   1   8
ATOM      8  S   UNL d   1       0.694  -0.279  -0.010  0.00  0.00     0.259 S 
ATOM      9  O   UNL d   1       0.150  -1.467  -0.629  0.00  0.00    -0.204 OA
ATOM     10  O   UNL d   1       2.101  -0.172   0.309  0.00  0.00    -0.204 OA
BRANCH   8  11
ATOM     11  C   UNL d   1      -0.146  -0.169   1.557  0.00  0.00     0.146 A 
ATOM     12  N   UNL d   1      -1.522  -0.216   1.716  0.00  0.00    -0.336 N 
ATOM     13  C   UNL d   1      -1.857  -0.153   3.067  0.00  0.00     0.111 A 
ATOM     14  C   UNL d   1      -2.503  -0.347   0.655  0.00  0.00     0.157 C 
ATOM     15  C   UNL d   1      -0.660  -0.081   3.764  0.00  0.00     0.039 A 
ATOM     16  C   UNL d   1       0.393  -0.080   2.833  0.00  0.00     0.046 A 
BRANCH  13  17
ATOM     17  C   UNL d   1      -3.204  -0.180   3.605  0.00  0.00     0.309 C 
ATOM     18  O   UNL d   1      -4.237  -0.232   2.950  0.00  0.00    -0.258 OA
BRANCH  17  19
ATOM     19  O   UNL d   1      -3.160  -0.134   4.969  0.00  0.00    -0.321 OA
ATOM     20  C   UNL d   1      -4.436  -0.152   5.604  0.00  0.00     0.213 C 
ENDBRANCH  17  19
ENDBRANCH  13  17
ENDBRANCH   8  11
ENDBRANCH   1   8
BRANCH   2  21
ATOM     21  C   UNL d   1       2.394   3.833  -2.548  0.00  0.00     0.311 C 
BRANCH  21  22
ATOM     22  C   UNL d   1       3.239   4.606  -1.556  0.00  0.00    -0.030 A 
ATOM     23  C   UNL d   1       4.115   3.925  -0.691  0.00  0.00     0.012 A 
ATOM     24  C   UNL d   1       4.912   4.630   0.210  0.00  0.00     0.043 A 
ATOM     25  C   UNL d   1       4.847   6.017   0.239  0.00  0.00     0.116 A 
ATOM     26  C   UNL d   1       3.997   6.711  -0.614  0.00  0.00     0.043 A 
ATOM     27  F   UNL d   1       5.619   6.694   1.099  0.00  0.00    -0.206 F 
ATOM     28  C   UNL d   1       3.190   6.007  -1.511  0.00  0.00     0.012 A 
ENDBRANCH  21  22
ENDBRANCH   2  21
TORSDOF 6
