REMARK  6 active torsions:
REMARK  status: ('A' for Active; 'I' for Inactive)
REMARK    1  A    between atoms: C_6  and  C_1 
REMARK    2  A    between atoms: C_8  and  C_2 
REMARK    3  A    between atoms: C_14  and  N_3 
REMARK    4  A    between atoms: O_20  and  C_8 
REMARK    5  A    between atoms: C_10  and  C_16 
REMARK    6  A    between atoms: N_12  and  O_20 
ROOT
ATOM      1  C   UNL d   1       0.971  -0.872  -0.068  0.00  0.00     0.158 C 
ATOM      2  C   UNL d   1      -0.359  -1.286  -0.061  0.00  0.00     0.091 C 
ATOM      3  N   UNL d   1       0.963   0.508   0.027  0.00  0.00    -0.251 N 
ATOM      4  N   UNL d   1      -0.297   0.963   0.276  0.00  0.00    -0.303 N 
ATOM      5  HN  UNL d   1      -0.579   1.918   0.498  1.00  0.00     0.186 HD
ATOM      6  C   UNL d   1      -1.082  -0.107   0.167  0.00  0.00     0.127 C 
ENDROOT
BRANCH   2   7
ATOM      7  C   UNL d   1      -0.839  -2.650  -0.162  0.00  0.00     0.318 C 
ATOM      8  O   UNL d   1      -0.240  -3.521  -0.788  0.00  0.00    -0.257 OA
BRANCH   7   9
ATOM      9  O   UNL d   1      -1.997  -2.872   0.550  0.00  0.00    -0.195 OA
BRANCH   9  10
ATOM     10  N   UNL d   1      -1.710  -3.861   1.515  0.00  0.00    -0.268 N 
ATOM     11  C   UNL d   1      -2.761  -4.556   1.810  0.00  0.00     0.127 C 
ATOM     12  HN  UNL d   1      -0.789  -4.009   1.928  1.00  0.00     0.194 HD
BRANCH  11  13
ATOM     13  C   UNL d   1      -2.681  -5.611   2.850  0.00  0.00     0.003 A 
ATOM     14  C   UNL d   1      -3.758  -6.452   3.159  0.00  0.00     0.047 A 
ATOM     15  C   UNL d   1      -3.633  -7.407   4.177  0.00  0.00     0.048 A 
ATOM     16 CL   UNL d   1      -5.270  -6.376   2.327  0.00  0.00    -0.083 Cl
ATOM     17  C   UNL d   1      -2.437  -7.521   4.885  0.00  0.00     0.035 A 
ATOM     18  C   UNL d   1      -1.358  -6.697   4.581  0.00  0.00     0.025 A 
ATOM     19 CL   UNL d   1      -2.292  -8.681   6.146  0.00  0.00    -0.084 Cl
ATOM     20  C   UNL d   1      -1.479  -5.747   3.566  0.00  0.00     0.016 A 
ENDBRANCH  11  13
ENDBRANCH   9  10
ENDBRANCH   7   9
ENDBRANCH   2   7
BRANCH   1  21
ATOM     21  C   UNL d   1       2.208  -1.673   0.002  0.00  0.00     0.435 C 
ATOM     22  F   UNL d   1       1.986  -2.943   0.420  0.00  0.00    -0.165 F 
ATOM     23  F   UNL d   1       2.837  -1.759  -1.194  0.00  0.00    -0.165 F 
ATOM     24  F   UNL d   1       3.095  -1.156   0.890  0.00  0.00    -0.165 F 
ENDBRANCH   1  21
BRANCH   3  25
ATOM     25  C   UNL d   1       2.031   1.450  -0.060  0.00  0.00     0.057 A 
ATOM     26  C   UNL d   1       3.171   1.210  -0.837  0.00  0.00     0.031 A 
ATOM     27  C   UNL d   1       4.221   2.134  -0.853  0.00  0.00     0.002 A 
ATOM     28  C   UNL d   1       4.135   3.307  -0.107  0.00  0.00     0.000 A 
ATOM     29  C   UNL d   1       2.986   3.575   0.632  0.00  0.00     0.002 A 
ATOM     30  C   UNL d   1       1.929   2.660   0.645  0.00  0.00     0.031 A 
ENDBRANCH   3  25
TORSDOF 6
