REMARK  2 active torsions:
REMARK  status: ('A' for Active; 'I' for Inactive)
REMARK    1  A    between atoms: S_5  and  C_1 
REMARK    2  A    between atoms: C_8  and  S_5 
ROOT
ATOM      1  C   UNL d   1      -0.096  -1.071   0.043  0.00  0.00     0.095 A 
ATOM      2  C   UNL d   1      -0.258  -0.229  -1.057  0.00  0.00     0.078 A 
ATOM      3  C   UNL d   1       0.106  -0.620  -2.385  0.00  0.00     0.102 C 
ATOM      4  N   UNL d   1       0.384  -0.902  -3.475  0.00  0.00    -0.191 NA
ATOM      5  N   UNL d   1      -0.468  -0.701   1.299  0.00  0.00    -0.359 N 
ATOM      6  HN  UNL d   1      -0.340  -1.331   2.091  1.00  0.00     0.166 HD
ATOM      7  C   UNL d   1      -0.818   1.038  -0.849  0.00  0.00     0.027 A 
ATOM      8  C   UNL d   1      -1.011   0.524   1.465  0.00  0.00     0.089 A 
ATOM      9  C   UNL d   1      -1.205   1.421   0.431  0.00  0.00     0.019 A 
ENDROOT
BRANCH   1  10
ATOM     10  S   UNL d   1       0.510  -2.744  -0.094  0.00  0.00    -0.071 SA
BRANCH  10  11
ATOM     11  C   UNL d   1       2.263  -2.536   0.165  0.00  0.00     0.007 A 
ATOM     12  C   UNL d   1       2.775  -1.924   1.314  0.00  0.00     0.019 A 
ATOM     13  C   UNL d   1       4.156  -1.834   1.511  0.00  0.00     0.001 A 
ATOM     14  C   UNL d   1       5.034  -2.363   0.566  0.00  0.00     0.000 A 
ATOM     15  C   UNL d   1       4.533  -2.982  -0.577  0.00  0.00     0.001 A 
ATOM     16  C   UNL d   1       3.152  -3.070  -0.775  0.00  0.00     0.019 A 
ENDBRANCH  10  11
ENDBRANCH   1  10
TORSDOF 2
