REMARK  4 active torsions:
REMARK  status: ('A' for Active; 'I' for Inactive)
REMARK       I    between atoms: N_2  and  C_1 
REMARK    1  A    between atoms: C_3  and  C_1 
REMARK    2  A    between atoms: C_5  and  N_2 
REMARK    3  A    between atoms: C_6  and  N_2 
REMARK    4  A    between atoms: C_13  and  C_6 
ROOT
ATOM      1  C   UNL d   1       1.038   0.004  -0.129  0.00  0.00     0.265 C 
ATOM      2  N   UNL d   1       0.229   0.982  -0.779  0.00  0.00    -0.309 N 
ATOM      3  O   UNL d   1       0.559  -0.956   0.474  0.00  0.00    -0.267 OA
ENDROOT
BRANCH   2   4
ATOM      4  C   UNL d   1      -1.216   0.982  -0.627  0.00  0.00     0.038 A 
ATOM      5  C   UNL d   1      -1.851   0.440   0.501  0.00  0.00     0.033 A 
ATOM      6  C   UNL d   1      -3.245   0.482   0.646  0.00  0.00     0.044 A 
ATOM      7  C   UNL d   1      -4.022   1.069  -0.339  0.00  0.00     0.116 A 
ATOM      8  C   UNL d   1      -3.432   1.616  -1.465  0.00  0.00     0.044 A 
ATOM      9  F   UNL d   1      -5.354   1.114  -0.197  0.00  0.00    -0.206 F 
ATOM     10  C   UNL d   1      -2.037   1.575  -1.607  0.00  0.00     0.033 A 
ENDBRANCH   2   4
BRANCH   2  11
ATOM     11  C   UNL d   1       0.815   2.140  -1.474  0.00  0.00     0.171 C 
BRANCH  11  12
ATOM     12  C   UNL d   1       1.287   1.911  -2.898  0.00  0.00    -0.040 A 
ATOM     13  C   UNL d   1       0.996   0.752  -3.636  0.00  0.00     0.010 A 
ATOM     14  C   UNL d   1       1.628   0.516  -4.863  0.00  0.00     0.019 A 
ATOM     15  C   UNL d   1       2.513   1.459  -5.381  0.00  0.00     0.011 A 
ATOM     16  C   UNL d   1       2.738   2.656  -4.709  0.00  0.00     0.019 A 
ATOM     17 BR   UNL d   1       3.450   1.093  -6.981  0.00  0.00    -0.051 Br
ATOM     18  C   UNL d   1       2.123   2.882  -3.477  0.00  0.00     0.010 A 
ENDBRANCH  11  12
ENDBRANCH   2  11
BRANCH   1  19
ATOM     19  C   UNL d   1       2.496   0.125  -0.212  0.00  0.00     0.073 A 
ATOM     20  S   UNL d   1       3.395   0.275   1.244  0.00  0.00    -0.097 SA
ATOM     21  C   UNL d   1       4.888   0.266   0.406  0.00  0.00     0.050 A 
ATOM     22  C   UNL d   1       4.717   0.147  -0.953  0.00  0.00     0.009 A 
ATOM     23  C   UNL d   1       3.342   0.013  -1.299  0.00  0.00     0.025 A 
ENDBRANCH   1  19
TORSDOF 4
