REMARK  1 active torsions:
REMARK  status: ('A' for Active; 'I' for Inactive)
REMARK    1  A    between atoms: C_8  and  C_7 
ROOT
ATOM      1  C   UNL d   1       1.588  -0.021   0.655  0.00  0.00     0.101 A 
ATOM      2  N   UNL d   1      -0.428   1.303   0.794  0.00  0.00    -0.299 N 
ATOM      3  N   UNL d   1      -0.485  -0.902   1.517  0.00  0.00    -0.299 N 
ATOM      4  C   UNL d   1       0.891   1.272   0.427  0.00  0.00     0.263 A 
ATOM      5  C   UNL d   1       0.835  -1.159   1.248  0.00  0.00     0.263 A 
ATOM      6  C   UNL d   1      -1.141   0.273   1.323  0.00  0.00     0.181 A 
ATOM      7  C   UNL d   1       2.882  -0.081   0.286  0.00  0.00     0.036 C 
ATOM      8  S   UNL d   1      -2.746   0.445   1.718  0.00  0.00    -0.040 SA
ATOM      9  O   UNL d   1       1.429   2.261  -0.059  0.00  0.00    -0.267 OA
ATOM     10  O   UNL d   1       1.300  -2.260   1.516  0.00  0.00    -0.267 OA
ATOM     11  H   UNL d   1      -0.907   2.181   0.638  0.00  0.00     0.171 HD
ATOM     12  H   UNL d   1      -1.001  -1.674   1.919  0.00  0.00     0.171 HD
ENDROOT
BRANCH   7  13
ATOM     13  C   UNL d   1       3.737  -1.216   0.362  0.00  0.00    -0.007 A 
ATOM     14  C   UNL d   1       4.484  -1.561   1.464  0.00  0.00     0.100 A 
ATOM     15  N   UNL d   1       5.129  -2.735   1.169  0.00  0.00    -0.364 N 
ATOM     16  C   UNL d   1       4.837  -3.134  -0.117  0.00  0.00     0.043 A 
ATOM     17  H   UNL d   1       5.725  -3.247   1.804  0.00  0.00     0.165 HD
ATOM     18  C   UNL d   1       3.974  -2.180  -0.659  0.00  0.00     0.002 A 
ATOM     19  C   UNL d   1       5.258  -4.262  -0.831  0.00  0.00     0.030 A 
ATOM     20  C   UNL d   1       3.523  -2.350  -1.984  0.00  0.00     0.014 A 
ATOM     21  C   UNL d   1       3.940  -3.469  -2.713  0.00  0.00     0.001 A 
ATOM     22  C   UNL d   1       4.790  -4.412  -2.140  0.00  0.00     0.002 A 
ENDBRANCH   7  13
TORSDOF 1
