REMARK  3 active torsions:
REMARK  status: ('A' for Active; 'I' for Inactive)
REMARK    1  A    between atoms: C_7  and  C_3 
REMARK    2  A    between atoms: C_12  and  N_4 
REMARK    3  A    between atoms: C_15  and  C_8 
ROOT
ATOM      1  N   UNL d   1       1.220  -0.667   0.024  0.00  0.00    -0.288 N 
ATOM      2  HN  UNL d   1       2.094  -1.193   0.051  1.00  0.00     0.188 HD
ATOM      3  C   UNL d   1       1.227   0.635  -0.094  0.00  0.00     0.125 C 
ATOM      4  N   UNL d   1       0.007  -1.311   0.110  0.00  0.00    -0.267 N 
ATOM      5  C   UNL d   1      -0.060   1.449  -0.021  0.00  0.00     0.203 C 
ATOM      6  C   UNL d   1      -1.317   0.695  -0.047  0.00  0.00     0.076 C 
ATOM      7  C   UNL d   1      -1.192  -0.630   0.035  0.00  0.00     0.120 C 
ATOM      8  O   UNL d   1      -0.078   2.660   0.134  0.00  0.00    -0.286 OA
ENDROOT
BRANCH   3   9
ATOM      9  C   UNL d   1       2.510   1.349  -0.304  0.00  0.00     0.067 A 
ATOM     10  N   UNL d   1       2.441   2.510  -0.979  0.00  0.00    -0.340 N 
ATOM     11  C   UNL d   1       3.592   3.167  -1.186  0.00  0.00     0.116 A 
ATOM     12  HN  UNL d   1       1.551   2.875  -1.318  1.00  0.00     0.167 HD
ATOM     13  N   UNL d   1       4.798   2.709  -0.796  0.00  0.00    -0.352 N 
ATOM     14  C   UNL d   1       4.820   1.526  -0.152  0.00  0.00     0.092 A 
ATOM     15  HN  UNL d   1       5.653   3.233  -0.979  1.00  0.00     0.166 HD
ATOM     16  C   UNL d   1       3.694   0.792   0.124  0.00  0.00     0.049 A 
BRANCH  11  17
ATOM     17  C   UNL d   1       3.515   4.467  -1.880  0.00  0.00     0.008 A 
ATOM     18  C   UNL d   1       2.271   5.034  -2.227  0.00  0.00     0.015 A 
ATOM     19  C   UNL d   1       2.182   6.264  -2.885  0.00  0.00     0.001 A 
ATOM     20  C   UNL d   1       3.341   6.962  -3.211  0.00  0.00     0.000 A 
ATOM     21  C   UNL d   1       4.584   6.431  -2.877  0.00  0.00     0.001 A 
ATOM     22  C   UNL d   1       4.668   5.199  -2.220  0.00  0.00     0.015 A 
ENDBRANCH  11  17
ENDBRANCH   3   9
BRANCH   4  23
ATOM     23  C   UNL d   1       0.094  -2.738   0.202  0.00  0.00     0.056 A 
ATOM     24  C   UNL d   1       1.208  -3.346   0.813  0.00  0.00     0.033 A 
ATOM     25  C   UNL d   1       1.305  -4.736   0.939  0.00  0.00     0.026 A 
ATOM     26  C   UNL d   1       0.292  -5.546   0.440  0.00  0.00     0.034 A 
ATOM     27  C   UNL d   1      -0.812  -4.979  -0.187  0.00  0.00     0.026 A 
ATOM     28 CL   UNL d   1       0.406  -7.255   0.594  0.00  0.00    -0.084 Cl
ATOM     29  C   UNL d   1      -0.909  -3.587  -0.305  0.00  0.00     0.033 A 
ENDBRANCH   4  23
TORSDOF 3
