REMARK  4 active torsions:
REMARK  status: ('A' for Active; 'I' for Inactive)
REMARK    1  A    between atoms: C_2  and  S_1 
REMARK    2  A    between atoms: C_6  and  S_1 
REMARK    3  A    between atoms: C_4  and  C_3 
REMARK    4  A    between atoms: N_11  and  N_5 
ROOT
ATOM      1  C   UNL d   1       0.465   0.036   1.693  0.00  0.00     0.147 C 
ATOM      2  C   UNL d   1      -0.403   0.979   2.105  0.00  0.00     0.066 C 
ATOM      3  C   UNL d   1       1.028  -0.026   0.396  0.00  0.00     0.112 C 
ATOM      4  N   UNL d   1       1.466  -0.112  -0.677  0.00  0.00    -0.191 NA
ENDROOT
BRANCH   1   5
ATOM      5  S   UNL d   1       0.840  -1.260   2.779  0.00  0.00     0.232 S 
ATOM      6  O   UNL d   1      -0.051  -2.372   2.466  0.00  0.00    -0.215 OA
ATOM      7  O   UNL d   1       0.903  -0.773   4.147  0.00  0.00    -0.215 OA
BRANCH   5   8
ATOM      8  C   UNL d   1       2.499  -1.778   2.333  0.00  0.00     0.134 A 
ATOM      9  N   UNL d   1       3.426  -0.784   2.391  0.00  0.00    -0.356 N 
ATOM     10  C   UNL d   1       4.689  -1.144   2.070  0.00  0.00     0.089 A 
ATOM     11  HN  UNL d   1       3.184   0.170   2.658  1.00  0.00     0.166 HD
ATOM     12  C   UNL d   1       5.054  -2.428   1.687  0.00  0.00     0.017 A 
ATOM     13  C   UNL d   1       4.069  -3.411   1.624  0.00  0.00     0.004 A 
ATOM     14  C   UNL d   1       2.757  -3.087   1.955  0.00  0.00     0.042 A 
ENDBRANCH   5   8
ENDBRANCH   1   5
BRANCH   2  15
ATOM     15  C   UNL d   1      -0.680   2.118   1.306  0.00  0.00     0.053 A 
ATOM     16  N   UNL d   1      -1.808   2.244   0.510  0.00  0.00    -0.287 N 
ATOM     17  C   UNL d   1      -1.691   3.396  -0.231  0.00  0.00     0.111 A 
ATOM     18  C   UNL d   1      -0.558   4.068   0.163  0.00  0.00     0.021 A 
ATOM     19  C   UNL d   1       0.063   3.280   1.154  0.00  0.00     0.032 A 
BRANCH  16  20
ATOM     20  N   UNL d   1      -2.973   1.427   0.394  0.00  0.00    -0.233 NA
ATOM     21  C   UNL d   1      -3.599   1.054   1.649  0.00  0.00     0.136 C 
ATOM     22  C   UNL d   1      -2.837   0.328  -0.546  0.00  0.00     0.136 C 
ENDBRANCH  16  20
ENDBRANCH   2  15
TORSDOF 4
