REMARK  5 active torsions:
REMARK  status: ('A' for Active; 'I' for Inactive)
REMARK    1  A    between atoms: C_2  and  S_1 
REMARK    2  A    between atoms: N_3  and  S_1 
REMARK    3  A    between atoms: C_6  and  N_3 
REMARK    4  A    between atoms: O_5  and  C_4 
REMARK    5  A    between atoms: C_7  and  O_5 
ROOT
ATOM      1  C   UNL d   1       0.440   0.882  -1.161  0.00  0.00     0.113 A 
ATOM      2  C   UNL d   1      -0.630   0.193  -1.738  0.00  0.00     0.099 A 
ATOM      3  C   UNL d   1       0.696   2.217  -1.516  0.00  0.00     0.028 A 
ATOM      4  C   UNL d   1      -1.330   0.798  -2.788  0.00  0.00     0.039 A 
ATOM      5  C   UNL d   1      -0.026   2.817  -2.545  0.00  0.00     0.002 A 
ATOM      6  C   UNL d   1      -1.015   2.094  -3.207  0.00  0.00     0.003 A 
ENDROOT
BRANCH   1   7
ATOM      7  S   UNL d   1       1.703   0.058  -0.222  0.00  0.00     0.266 S 
ATOM      8  O   UNL d   1       1.190  -1.137   0.401  0.00  0.00    -0.200 OA
ATOM      9  O   UNL d   1       2.414   1.056   0.554  0.00  0.00    -0.200 OA
BRANCH   7  10
ATOM     10  N   UNL d   1       2.659  -0.460  -1.501  0.00  0.00    -0.280 N 
ATOM     11  H   UNL d   1       2.683  -1.477  -1.584  0.00  0.00     0.179 HD
BRANCH  10  12
ATOM     12  C   UNL d   1       3.809   0.256  -1.917  0.00  0.00     0.045 A 
ATOM     13  C   UNL d   1       4.978   0.177  -1.165  0.00  0.00     0.054 A 
ATOM     14  C   UNL d   1       6.185   0.582  -1.730  0.00  0.00     0.037 A 
ATOM     15 CL   UNL d   1       7.648   0.381  -0.844  0.00  0.00    -0.084 Cl
ATOM     16  C   UNL d   1       6.230   1.083  -3.029  0.00  0.00     0.048 A 
ATOM     17  C   UNL d   1       5.046   1.208  -3.751  0.00  0.00     0.037 A 
ATOM     18  C   UNL d   1       3.831   0.794  -3.204  0.00  0.00     0.054 A 
ATOM     19 CL   UNL d   1       5.092   1.812  -5.363  0.00  0.00    -0.084 Cl
ENDBRANCH  10  12
ENDBRANCH   7  10
ENDBRANCH   1   7
BRANCH   2  20
ATOM     20  O   UNL d   1      -0.947  -1.120  -1.505  0.00  0.00    -0.307 OA
BRANCH  20  21
ATOM     21  C   UNL d   1      -1.532  -1.502  -0.312  0.00  0.00     0.098 A 
ATOM     22  C   UNL d   1      -1.683  -2.888  -0.118  0.00  0.00     0.069 A 
ATOM     23  C   UNL d   1      -2.161  -3.400   1.092  0.00  0.00     0.050 A 
ATOM     24 CL   UNL d   1      -1.268  -4.017  -1.362  0.00  0.00    -0.081 Cl
ATOM     25  C   UNL d   1      -2.495  -2.520   2.117  0.00  0.00     0.035 A 
ATOM     26  C   UNL d   1      -2.385  -1.144   1.930  0.00  0.00     0.026 A 
ATOM     27 CL   UNL d   1      -3.042  -3.143   3.626  0.00  0.00    -0.084 Cl
ATOM     28  C   UNL d   1      -1.921  -0.631   0.714  0.00  0.00     0.041 A 
ENDBRANCH  20  21
ENDBRANCH   2  20
TORSDOF 5
