REMARK  2 active torsions:
REMARK  status: ('A' for Active; 'I' for Inactive)
REMARK    1  A    between atoms: O_16  and  C_12 
REMARK    2  A    between atoms: C_15  and  O_16 
ROOT
ATOM      1  C   UNL d   1       4.991   4.099  -0.648  0.00  0.00    -0.091 C 
ATOM      2  C   UNL d   1       6.015   4.727  -0.610  0.00  0.00     0.014 C 
ATOM      3  C   UNL d   1       3.714   3.370  -0.694  0.00  0.00     0.268 C 
ENDROOT
BRANCH   3   4
ATOM      4  O   UNL d   1       3.859   2.110  -0.034  0.00  0.00    -0.339 OA
BRANCH   4   5
ATOM      5  C   UNL d   1       2.754   1.304  -0.040  0.00  0.00     0.072 A 
ATOM      6  C   UNL d   1       1.435   1.741  -0.040  0.00  0.00     0.075 A 
ATOM      7  C   UNL d   1       0.399   0.798  -0.021  0.00  0.00     0.092 A 
ATOM      8  O   UNL d   1      -0.907   1.331  -0.017  0.00  0.00    -0.275 OA
ATOM      9  C   UNL d   1       0.627  -0.581  -0.002  0.00  0.00     0.004 A 
ATOM     10  C   UNL d   1      -2.015   0.506  -0.004  0.00  0.00     0.288 A 
ATOM     11  O   UNL d   1      -3.161   0.942   0.002  0.00  0.00    -0.260 OA
ATOM     12  C   UNL d   1      -1.761  -0.941  -0.007  0.00  0.00     0.090 A 
ATOM     13  C   UNL d   1      -0.534  -1.485  -0.004  0.00  0.00    -0.043 A 
ATOM     14  C   UNL d   1      -0.401  -2.981  -0.017  0.00  0.00     0.049 C 
ATOM     15  C   UNL d   1       1.962  -1.000   0.019  0.00  0.00     0.017 A 
ATOM     16  C   UNL d   1       3.011  -0.067   0.009  0.00  0.00     0.038 A 
ENDBRANCH   4   5
ENDBRANCH   3   4
TORSDOF 2
