REMARK  4 active torsions:
REMARK  status: ('A' for Active; 'I' for Inactive)
REMARK    1  A    between atoms: S_7  and  C_3 
REMARK    2  A    between atoms: C_11  and  S_7 
REMARK    3  A    between atoms: C_9  and  C_11 
REMARK    4  A    between atoms: O_12  and  C_9 
ROOT
ATOM      1  N   UNL d   1      -1.079  -0.968   0.091  0.00  0.00    -0.359 N 
ATOM      2  HN  UNL d   1      -1.260  -1.970   0.150  1.00  0.00     0.166 HD
ATOM      3  C   UNL d   1      -0.600   1.778  -0.053  0.00  0.00     0.015 A 
ATOM      4  C   UNL d   1       0.493   0.868  -0.004  0.00  0.00     0.007 A 
ATOM      5  C   UNL d   1       0.180  -0.506   0.058  0.00  0.00     0.044 A 
ATOM      6  C   UNL d   1      -1.905   1.280  -0.035  0.00  0.00     0.044 A 
ATOM      7  C   UNL d   1      -2.102  -0.090   0.045  0.00  0.00     0.007 A 
ATOM      8  C   UNL d   1       1.865   1.240  -0.022  0.00  0.00     0.015 A 
ATOM      9  C   UNL d   1       1.210  -1.438   0.071  0.00  0.00     0.030 A 
ATOM     10  C   UNL d   1      -3.480  -0.678   0.044  0.00  0.00     0.068 C 
ATOM     11  C   UNL d   1       2.882   0.285  -0.002  0.00  0.00     0.001 A 
ATOM     12  C   UNL d   1       2.552  -1.061   0.038  0.00  0.00     0.002 A 
ENDROOT
BRANCH   3  13
ATOM     13  S   UNL d   1      -0.316   3.546  -0.277  0.00  0.00    -0.119 SA
BRANCH  13  14
ATOM     14  C   UNL d   1      -1.597   4.308   0.776  0.00  0.00     0.190 C 
BRANCH  14  15
ATOM     15  C   UNL d   1      -1.349   5.801   0.898  0.00  0.00     0.268 C 
ATOM     16  O   UNL d   1      -0.261   6.335   1.064  0.00  0.00    -0.264 OA
BRANCH  15  17
ATOM     17  O   UNL d   1      -2.537   6.475   0.840  0.00  0.00    -0.326 OA
ATOM     18  C   UNL d   1      -2.400   7.897   0.903  0.00  0.00     0.213 C 
ENDBRANCH  15  17
ENDBRANCH  14  15
ENDBRANCH  13  14
ENDBRANCH   3  13
TORSDOF 4
