REMARK  8 active torsions:
REMARK  status: ('A' for Active; 'I' for Inactive)
REMARK    1  A    between atoms: C_4  and  C_1 
REMARK    2  A    between atoms: C_5  and  C_1 
REMARK    3  A    between atoms: N_7  and  C_2 
REMARK    4  A    between atoms: C_3  and  N_7 
REMARK    5  A    between atoms: O_14  and  C_4 
REMARK    6  A    between atoms: O_13  and  C_5 
REMARK    7  A    between atoms: C_17  and  O_13 
REMARK    8  A    between atoms: C_16  and  O_14 
ROOT
ATOM      1  C   UNL d   1       1.054  -0.096   0.070  0.00  0.00     0.129 C 
ATOM      2  C   UNL d   1       0.366  -1.132  -0.456  0.00  0.00     0.112 C 
ENDROOT
BRANCH   1   3
ATOM      3  C   UNL d   1       0.315   0.872   0.918  0.00  0.00     0.300 C 
ATOM      4  O   UNL d   1       0.789   1.465   1.884  0.00  0.00    -0.259 OA
BRANCH   3   5
ATOM      5  O   UNL d   1      -0.983   0.959   0.519  0.00  0.00    -0.318 OA
BRANCH   5   6
ATOM      6  C   UNL d   1      -1.870   1.599   1.445  0.00  0.00     0.174 C 
ATOM      7  C   UNL d   1      -2.350   0.562   2.446  0.00  0.00     0.034 C 
ENDBRANCH   5   6
ENDBRANCH   3   5
ENDBRANCH   1   3
BRANCH   1   8
ATOM      8  C   UNL d   1       2.526   0.034  -0.049  0.00  0.00     0.300 C 
ATOM      9  O   UNL d   1       3.218   0.745   0.665  0.00  0.00    -0.259 OA
BRANCH   8  10
ATOM     10  O   UNL d   1       2.986  -0.661  -1.124  0.00  0.00    -0.318 OA
BRANCH  10  11
ATOM     11  C   UNL d   1       4.322  -0.346  -1.532  0.00  0.00     0.174 C 
ATOM     12  C   UNL d   1       4.232   0.808  -2.513  0.00  0.00     0.034 C 
ENDBRANCH  10  11
ENDBRANCH   8  10
ENDBRANCH   1   8
BRANCH   2  13
ATOM     13  N   UNL d   1       0.797  -2.208  -1.219  0.00  0.00    -0.364 N 
ATOM     14  H   UNL d   1       1.457  -1.895  -1.935  0.00  0.00     0.165 HD
BRANCH  13  15
ATOM     15  C   UNL d   1       1.117  -3.429  -0.688  0.00  0.00     0.044 A 
ATOM     16  C   UNL d   1       1.733  -4.481  -1.447  0.00  0.00    -0.028 A 
ATOM     17  C   UNL d   1       1.966  -5.588  -0.647  0.00  0.00     0.058 A 
ATOM     18  C   UNL d   1       2.079  -4.448  -2.900  0.00  0.00     0.051 C 
ATOM     19  S   UNL d   1       1.500  -5.353   0.977  0.00  0.00    -0.111 SA
ATOM     20  C   UNL d   1       0.942  -3.776   0.636  0.00  0.00     0.079 A 
ENDBRANCH  13  15
ENDBRANCH   2  13
TORSDOF 8
