REMARK  4 active torsions:
REMARK  status: ('A' for Active; 'I' for Inactive)
REMARK    1  A    between atoms: C_5  and  C_1 
REMARK    2  A    between atoms: C_7  and  C_2 
REMARK       I    between atoms: N_9  and  C_7 
REMARK    3  A    between atoms: C_14  and  N_9 
REMARK    4  A    between atoms: C_13  and  C_14 
ROOT
ATOM      1  C   UNL d   1       0.327  -0.066  -0.458  0.00  0.00     0.086 A 
ATOM      2  C   UNL d   1      -0.261  -1.280   0.034  0.00  0.00     0.092 A 
ATOM      3  N   UNL d   1      -0.594   0.913  -0.472  0.00  0.00    -0.259 N 
ATOM      4  HN  UNL d   1      -0.473   1.856  -0.842  1.00  0.00     0.195 HD
ATOM      5  O   UNL d   1      -1.728   0.403   0.106  0.00  0.00    -0.241 OA
ATOM      6  C   UNL d   1      -1.532  -0.900   0.423  0.00  0.00     0.090 A 
ATOM      7  C   UNL d   1      -2.668  -1.543   1.112  0.00  0.00     0.080 C 
ENDROOT
BRANCH   2   8
ATOM      8  C   UNL d   1       0.321  -2.605   0.154  0.00  0.00     0.256 C 
ATOM      9  N   UNL d   1      -0.543  -3.627  -0.193  0.00  0.00    -0.356 N 
ATOM     10  H   UNL d   1      -1.424  -3.380  -0.614  0.00  0.00     0.162 HD
ATOM     11  O   UNL d   1       1.489  -2.777   0.479  0.00  0.00    -0.267 OA
BRANCH   9  12
ATOM     12  C   UNL d   1      -0.126  -5.015  -0.314  0.00  0.00     0.131 C 
BRANCH  12  13
ATOM     13  C   UNL d   1      -0.769  -5.963   0.730  0.00  0.00    -0.035 C 
ATOM     14  C   UNL d   1      -2.304  -5.941   0.641  0.00  0.00     0.016 C 
ATOM     15  C   UNL d   1      -0.291  -7.399   0.443  0.00  0.00     0.016 C 
ATOM     16  C   UNL d   1      -0.334  -5.573   2.152  0.00  0.00     0.016 C 
ENDBRANCH  12  13
ENDBRANCH   9  12
ENDBRANCH   2   8
BRANCH   1  17
ATOM     17  C   UNL d   1       1.679   0.219  -0.954  0.00  0.00     0.037 A 
ATOM     18  C   UNL d   1       2.264  -0.522  -1.999  0.00  0.00     0.048 A 
ATOM     19 CL   UNL d   1       1.441  -1.806  -2.825  0.00  0.00    -0.083 Cl
ATOM     20  C   UNL d   1       3.543  -0.204  -2.484  0.00  0.00     0.025 A 
ATOM     21  C   UNL d   1       4.246   0.882  -1.973  0.00  0.00     0.003 A 
ATOM     22  C   UNL d   1       3.680   1.644  -0.959  0.00  0.00     0.025 A 
ATOM     23  C   UNL d   1       2.418   1.311  -0.441  0.00  0.00     0.048 A 
ATOM     24 CL   UNL d   1       1.858   2.313   0.862  0.00  0.00    -0.083 Cl
ENDBRANCH   1  17
TORSDOF 4
