REMARK  5 active torsions:
REMARK  status: ('A' for Active; 'I' for Inactive)
REMARK    1  A    between atoms: C_2  and  C_1 
REMARK    2  A    between atoms: C_8  and  C_2 
REMARK    3  A    between atoms: C_10  and  N_3 
REMARK    4  A    between atoms: C_11  and  C_8 
REMARK    5  A    between atoms: N_13  and  C_9 
ROOT
ATOM      1  C   UNL d   1      -0.517  -2.941   0.017  0.00  0.00     0.077 C 
ATOM      2  C   UNL d   1       0.528  -3.802  -0.014  0.00  0.00     0.104 C 
ENDROOT
BRANCH   1   3
ATOM      3  C   UNL d   1      -0.135  -1.590   0.180  0.00  0.00     0.154 A 
ATOM      4  N   UNL d   1       0.066  -0.714  -0.895  0.00  0.00    -0.224 N 
ATOM      5  N   UNL d   1       0.406   0.489  -0.359  0.00  0.00     0.001 NA
ATOM      6  N   UNL d   1       0.442   0.338   0.953  0.00  0.00    -0.007 NA
ATOM      7  N   UNL d   1       0.123  -0.940   1.308  0.00  0.00    -0.269 N 
ATOM      8  HN  UNL d   1       0.088  -1.321   2.253  1.00  0.00     0.185 HD
BRANCH   4   9
ATOM      9  C   UNL d   1      -0.053  -0.853  -2.312  0.00  0.00     0.056 A 
ATOM     10  C   UNL d   1      -0.410  -2.049  -2.949  0.00  0.00     0.031 A 
ATOM     11  C   UNL d   1      -0.515  -2.115  -4.343  0.00  0.00     0.002 A 
ATOM     12  C   UNL d   1      -0.263  -0.993  -5.123  0.00  0.00     0.000 A 
ATOM     13  C   UNL d   1       0.094   0.204  -4.510  0.00  0.00     0.002 A 
ATOM     14  C   UNL d   1       0.197   0.277  -3.118  0.00  0.00     0.031 A 
ENDBRANCH   4   9
ENDBRANCH   1   3
BRANCH   1  15
ATOM     15  C   UNL d   1      -1.980  -3.306  -0.093  0.00  0.00     0.197 C 
ATOM     16  O   UNL d   1      -2.382  -4.267  -0.749  0.00  0.00    -0.286 OA
BRANCH  15  17
ATOM     17  C   UNL d   1      -3.005  -2.519   0.664  0.00  0.00     0.015 A 
ATOM     18  C   UNL d   1      -3.087  -1.123   0.652  0.00  0.00     0.016 A 
ATOM     19  C   UNL d   1      -4.007  -0.455   1.466  0.00  0.00     0.007 A 
ATOM     20  C   UNL d   1      -4.904  -1.173   2.262  0.00  0.00    -0.062 A 
ATOM     21  C   UNL d   1      -4.887  -2.570   2.204  0.00  0.00     0.007 A 
ATOM     22  C   UNL d   1      -5.813  -0.443   3.207  0.00  0.00     0.048 C 
ATOM     23  C   UNL d   1      -3.948  -3.237   1.409  0.00  0.00     0.016 A 
ENDBRANCH  15  17
ENDBRANCH   1  15
BRANCH   2  24
ATOM     24  N   UNL d   1       0.732  -5.151  -0.273  0.00  0.00    -0.398 N 
ATOM     25  C   UNL d   1      -0.103  -5.957  -1.159  0.00  0.00     0.148 C 
ATOM     26  C   UNL d   1       1.863  -5.869   0.321  0.00  0.00     0.148 C 
ENDBRANCH   2  24
TORSDOF 5
