REMARK  4 active torsions:
REMARK  status: ('A' for Active; 'I' for Inactive)
REMARK    1  A    between atoms: N_6  and  C_2 
REMARK    2  A    between atoms: C_14  and  C_3 
REMARK    3  A    between atoms: C_12  and  C_17 
REMARK    4  A    between atoms: O_21  and  C_12 
ROOT
ATOM      1  C   UNL d   1       0.167   1.038  -0.053  0.00  0.00     0.048 A 
ATOM      2  C   UNL d   1       1.517   1.477   0.009  0.00  0.00     0.097 A 
ATOM      3  C   UNL d   1      -1.128   1.715  -0.091  0.00  0.00    -0.003 A 
ATOM      4  C   UNL d   1      -0.004  -0.339  -0.088  0.00  0.00     0.089 A 
ATOM      5  C   UNL d   1      -2.170   0.804  -0.086  0.00  0.00     0.065 A 
ATOM      6  S   UNL d   1      -1.637  -0.815  -0.075  0.00  0.00    -0.082 SA
ATOM      7  N   UNL d   1       2.507   0.556  -0.057  0.00  0.00    -0.342 N 
ATOM      8  HN  UNL d   1       3.485   0.846  -0.060  1.00  0.00     0.167 HD
ATOM      9  N   UNL d   1       0.960  -1.274  -0.117  0.00  0.00    -0.346 N 
ATOM     10  HN  UNL d   1       0.777  -2.278  -0.136  1.00  0.00     0.167 HD
ATOM     11  C   UNL d   1       2.181  -0.742  -0.117  0.00  0.00     0.182 A 
ENDROOT
BRANCH   2  12
ATOM     12  N   UNL d   1       1.844   2.826   0.146  0.00  0.00    -0.269 NA
ATOM     13  C   UNL d   1       3.074   3.259  -0.513  0.00  0.00     0.098 C 
ATOM     14  C   UNL d   1       2.967   4.777  -0.674  0.00  0.00     0.030 C 
ATOM     15  C   UNL d   1       2.617   5.508   0.640  0.00  0.00     0.086 C 
ATOM     16  C   UNL d   1       1.615   4.777   1.547  0.00  0.00     0.030 C 
ATOM     17  C   UNL d   1       1.780   3.261   1.540  0.00  0.00     0.098 C 
BRANCH  15  18
ATOM     18  C   UNL d   1       3.858   5.834   1.439  0.00  0.00     0.143 C 
ATOM     19  O   UNL d   1       4.954   5.308   1.280  0.00  0.00    -0.650 OA
BRANCH  18  20
ATOM     20  O   UNL d   1       3.645   6.784   2.378  0.00  0.00    -0.776 OA
ATOM     21  H   UNL d   1       2.727   7.118   2.405  0.00  0.00     0.167 HD
ENDBRANCH  18  20
ENDBRANCH  15  18
ENDBRANCH   2  12
BRANCH   3  22
ATOM     22  C   UNL d   1      -1.416   3.154  -0.140  0.00  0.00    -0.024 A 
ATOM     23  C   UNL d   1      -0.712   3.994  -1.013  0.00  0.00     0.012 A 
ATOM     24  C   UNL d   1      -0.902   5.381  -0.986  0.00  0.00     0.001 A 
ATOM     25  C   UNL d   1      -1.833   5.940  -0.116  0.00  0.00     0.000 A 
ATOM     26  C   UNL d   1      -2.594   5.112   0.707  0.00  0.00     0.001 A 
ATOM     27  C   UNL d   1      -2.386   3.728   0.697  0.00  0.00     0.012 A 
ENDBRANCH   3  22
TORSDOF 4
