REMARK  4 active torsions:
REMARK  status: ('A' for Active; 'I' for Inactive)
REMARK    1  A    between atoms: C_5  and  C_1 
REMARK    2  A    between atoms: C_7  and  C_2 
REMARK       I    between atoms: N_8  and  C_5 
REMARK    3  A    between atoms: C_10  and  C_6 
REMARK    4  A    between atoms: C_16  and  N_8 
ROOT
ATOM      1  C   UNL d   1       1.143   0.667   0.084  0.00  0.00     0.073 A 
ATOM      2  C   UNL d   1      -0.156   1.143  -0.054  0.00  0.00     0.175 A 
ATOM      3  O   UNL d   1      -1.042   0.096  -0.003  0.00  0.00    -0.304 OA
ATOM      4  C   UNL d   1       1.001  -0.738   0.313  0.00  0.00     0.058 A 
ATOM      5  C   UNL d   1      -0.334  -1.050   0.202  0.00  0.00     0.087 A 
ENDROOT
BRANCH   1   6
ATOM      6  C   UNL d   1       2.439   1.344   0.052  0.00  0.00     0.259 C 
ATOM      7  N   UNL d   1       2.488   2.559  -0.602  0.00  0.00    -0.323 N 
ATOM      8  H   UNL d   1       1.620   2.981  -0.898  0.00  0.00     0.169 HD
ATOM      9  O   UNL d   1       3.403   0.794   0.569  0.00  0.00    -0.267 OA
BRANCH   7  10
ATOM     10  C   UNL d   1       3.639   3.359  -0.800  0.00  0.00     0.037 A 
ATOM     11  C   UNL d   1       4.940   2.925  -0.567  0.00  0.00     0.046 A 
ATOM     12  C   UNL d   1       5.979   3.822  -0.752  0.00  0.00     0.090 A 
ATOM     13  N   UNL d   1       5.809   5.098  -1.155  0.00  0.00    -0.375 N 
ATOM     14  C   UNL d   1       4.543   5.490  -1.398  0.00  0.00     0.090 A 
ATOM     15  HN  UNL d   1       6.599   5.733  -1.270  1.00  0.00     0.164 HD
ATOM     16  C   UNL d   1       3.440   4.665  -1.251  0.00  0.00     0.046 A 
ENDBRANCH   7  10
ENDBRANCH   1   6
BRANCH   2  17
ATOM     17  C   UNL d   1      -0.776   2.480  -0.225  0.00  0.00     0.440 C 
ATOM     18  F   UNL d   1       0.140   3.479  -0.128  0.00  0.00    -0.164 F 
ATOM     19  F   UNL d   1      -1.349   2.619  -1.445  0.00  0.00    -0.164 F 
ATOM     20  F   UNL d   1      -1.731   2.737   0.703  0.00  0.00    -0.164 F 
ENDBRANCH   2  17
BRANCH   5  21
ATOM     21  C   UNL d   1      -1.083  -2.301   0.243  0.00  0.00    -0.002 A 
ATOM     22  C   UNL d   1      -2.474  -2.322   0.413  0.00  0.00     0.014 A 
ATOM     23  C   UNL d   1      -3.168  -3.535   0.461  0.00  0.00     0.001 A 
ATOM     24  C   UNL d   1      -2.482  -4.741   0.334  0.00  0.00     0.000 A 
ATOM     25  C   UNL d   1      -1.102  -4.737   0.154  0.00  0.00     0.001 A 
ATOM     26  C   UNL d   1      -0.408  -3.526   0.110  0.00  0.00     0.014 A 
ENDBRANCH   5  21
TORSDOF 4
