REMARK  3 active torsions:
REMARK  status: ('A' for Active; 'I' for Inactive)
REMARK    1  A    between atoms: C_7  and  C_1 
REMARK    2  A    between atoms: C_11  and  C_6 
REMARK    3  A    between atoms: N_10  and  C_11 
ROOT
ATOM      1  C   UNL d   1      -0.680   0.900   0.715  0.00  0.00     0.144 A 
ATOM      2  N   UNL d   1      -0.151  -0.259   1.229  0.00  0.00    -0.321 N 
ATOM      3  HN  UNL d   1      -0.048  -0.535   2.206  1.00  0.00     0.169 HD
ATOM      4  N   UNL d   1      -0.726   0.940  -0.627  0.00  0.00    -0.242 N 
ATOM      5  HN  UNL d   1      -1.100   1.677  -1.225  1.00  0.00     0.196 HD
ATOM      6  C   UNL d   1       0.189  -0.921   0.147  0.00  0.00     0.177 A 
ATOM      7  O   UNL d   1      -0.138  -0.274  -1.008  0.00  0.00    -0.221 OA
ENDROOT
BRANCH   6   8
ATOM      8  C   UNL d   1       0.895  -2.232   0.045  0.00  0.00     0.358 C 
BRANCH   8   9
ATOM      9  N   UNL d   1       2.364  -2.109  -0.065  0.00  0.00     0.100 N 
ATOM     10  C   UNL d   1       2.991  -1.461   1.113  0.00  0.00     0.299 C 
ATOM     11  C   UNL d   1       3.048  -2.345   2.369  0.00  0.00     0.198 C 
ATOM     12  O   UNL d   1       3.713  -3.585   2.098  0.00  0.00    -0.388 OA
ATOM     13  C   UNL d   1       3.076  -4.289   1.027  0.00  0.00     0.198 C 
ATOM     14  C   UNL d   1       3.001  -3.432  -0.251  0.00  0.00     0.299 C 
ENDBRANCH   8   9
ENDBRANCH   6   8
BRANCH   1  15
ATOM     15  C   UNL d   1      -1.111   2.024   1.597  0.00  0.00     0.050 A 
ATOM     16  S   UNL d   1      -1.019   1.937   3.304  0.00  0.00    -0.098 SA
ATOM     17  C   UNL d   1      -1.564   3.546   3.478  0.00  0.00     0.050 A 
ATOM     18  C   UNL d   1      -1.841   4.131   2.263  0.00  0.00     0.009 A 
ATOM     19  C   UNL d   1      -1.592   3.244   1.170  0.00  0.00     0.023 A 
ENDBRANCH   1  15
TORSDOF 3
