REMARK  5 active torsions:
REMARK  status: ('A' for Active; 'I' for Inactive)
REMARK    1  A    between atoms: C_8  and  C_1 
REMARK    2  A    between atoms: C_11  and  N_6 
REMARK    3  A    between atoms: C_9  and  C_10 
REMARK       I    between atoms: C_10  and  N_13 
REMARK    4  A    between atoms: C_12  and  C_11 
REMARK       I    between atoms: N_15  and  C_12 
REMARK    5  A    between atoms: N_13  and  N_15 
ROOT
ATOM      1  C   UNL d   1       3.304   0.809   0.135  0.00  0.00     0.257 C 
ATOM      2  N   UNL d   1       3.384  -0.555  -0.030  0.00  0.00    -0.266 N 
ATOM      3  O   UNL d   1       4.326   1.498   0.243  0.00  0.00    -0.270 OA
ATOM      4  H   UNL d   1       2.596  -1.089  -0.414  0.00  0.00     0.190 HD
ENDROOT
BRANCH   1   5
ATOM      5  C   UNL d   1       1.946   1.438   0.314  0.00  0.00     0.271 C 
BRANCH   5   6
ATOM      6  N   UNL d   1       0.811   0.773  -0.290  0.00  0.00    -0.207 N 
ATOM      7  N   UNL d   1       0.905  -0.259  -1.153  0.00  0.00    -0.268 N 
ATOM      8  C   UNL d   1      -0.358  -0.297  -1.616  0.00  0.00     0.151 A 
ATOM      9  HN  UNL d   1       1.707  -0.844  -1.388  1.00  0.00     0.190 HD
ATOM     10  N   UNL d   1      -1.173   0.626  -1.012  0.00  0.00    -0.266 N 
ATOM     11  N   UNL d   1      -0.420   1.298  -0.154  0.00  0.00    -0.002 NA
ATOM     12  HN  UNL d   1      -2.167   0.769  -1.190  1.00  0.00     0.186 HD
BRANCH   8  13
ATOM     13  C   UNL d   1      -0.802  -1.192  -2.723  0.00  0.00     0.051 A 
ATOM     14  S   UNL d   1      -2.334  -1.085  -3.470  0.00  0.00    -0.098 SA
ATOM     15  C   UNL d   1      -1.933  -2.304  -4.603  0.00  0.00     0.050 A 
ATOM     16  C   UNL d   1      -0.676  -2.821  -4.380  0.00  0.00     0.009 A 
ATOM     17  C   UNL d   1      -0.020  -2.179  -3.288  0.00  0.00     0.023 A 
ENDBRANCH   8  13
ENDBRANCH   5   6
ENDBRANCH   1   5
BRANCH   2  18
ATOM     18  N   UNL d   1       4.657  -1.103  -0.243  0.00  0.00    -0.263 N 
ATOM     19  C   UNL d   1       4.791  -2.465  -0.389  0.00  0.00     0.271 C 
ATOM     20  O   UNL d   1       3.816  -3.215  -0.382  0.00  0.00    -0.266 OA
ATOM     21  H   UNL d   1       5.442  -0.450  -0.234  0.00  0.00     0.190 HD
BRANCH  19  22
ATOM     22  C   UNL d   1       6.172  -3.028  -0.529  0.00  0.00     0.055 A 
ATOM     23  C   UNL d   1       7.326  -2.316  -0.895  0.00  0.00     0.049 A 
ATOM     24 CL   UNL d   1       7.351  -0.630  -1.276  0.00  0.00    -0.083 Cl
ATOM     25  C   UNL d   1       8.561  -2.979  -0.998  0.00  0.00     0.025 A 
ATOM     26  C   UNL d   1       8.659  -4.346  -0.743  0.00  0.00     0.002 A 
ATOM     27  C   UNL d   1       7.526  -5.063  -0.381  0.00  0.00     0.001 A 
ATOM     28  C   UNL d   1       6.294  -4.410  -0.276  0.00  0.00     0.019 A 
ENDBRANCH  19  22
ENDBRANCH   2  18
TORSDOF 5
