REMARK  4 active torsions:
REMARK  status: ('A' for Active; 'I' for Inactive)
REMARK    1  A    between atoms: S_11  and  C_3 
REMARK    2  A    between atoms: C_6  and  C_5 
REMARK    3  A    between atoms: O_12  and  C_6 
REMARK    4  A    between atoms: O_13  and  C_6 
ROOT
ATOM      1  N   UNL d   1       1.034   0.483  -0.633  0.00  0.00    -0.349 N 
ATOM      2  HN  UNL d   1       1.804   0.921  -1.139  1.00  0.00     0.166 HD
ATOM      3  C   UNL d   1       0.951  -0.868  -0.539  0.00  0.00     0.088 A 
ATOM      4  C   UNL d   1      -0.076  -1.516   0.135  0.00  0.00     0.077 A 
ATOM      5  C   UNL d   1       0.073   1.249  -0.041  0.00  0.00     0.072 A 
ATOM      6  C   UNL d   1      -0.162  -2.942   0.221  0.00  0.00     0.102 C 
ATOM      7  N   UNL d   1      -0.264  -4.095   0.307  0.00  0.00    -0.191 NA
ATOM      8  C   UNL d   1      -1.064  -0.730   0.733  0.00  0.00     0.027 A 
ATOM      9  C   UNL d   1      -0.996   0.662   0.638  0.00  0.00     0.032 A 
ENDROOT
BRANCH   3  10
ATOM     10  S   UNL d   1       2.266  -1.714  -1.384  0.00  0.00    -0.124 SA
ATOM     11  H   UNL d   1       2.840  -0.585  -1.820  0.00  0.00     0.108 HD
ENDBRANCH   3  10
BRANCH   5  12
ATOM     12  C   UNL d   1       0.133   2.783  -0.235  0.00  0.00     0.203 C 
ATOM     13  C   UNL d   1       1.586   3.259  -0.423  0.00  0.00     0.086 C 
BRANCH  12  14
ATOM     14  O   UNL d   1      -0.715   3.168  -1.331  0.00  0.00    -0.355 OA
ATOM     15  C   UNL d   1      -0.326   2.688  -2.612  0.00  0.00     0.206 C 
ENDBRANCH  12  14
BRANCH  12  16
ATOM     16  O   UNL d   1      -0.371   3.371   0.988  0.00  0.00    -0.355 OA
ATOM     17  C   UNL d   1      -0.592   4.774   0.931  0.00  0.00     0.206 C 
ENDBRANCH  12  16
ENDBRANCH   5  12
TORSDOF 4
