REMARK  3 active torsions:
REMARK  status: ('A' for Active; 'I' for Inactive)
REMARK    1  A    between atoms: C_2  and  C_1 
REMARK    2  A    between atoms: C_14  and  C_10 
REMARK    3  A    between atoms: C_15  and  N_13 
ROOT
ATOM      1  C   UNL d   1      -1.482   2.249  -0.020  0.00  0.00     0.077 A 
ATOM      2  N   UNL d   1      -2.481   2.449   0.907  0.00  0.00    -0.334 N 
ATOM      3  HN  UNL d   1      -2.756   1.771   1.618  1.00  0.00     0.168 HD
ATOM      4  C   UNL d   1      -3.032   3.631   0.751  0.00  0.00     0.149 A 
ATOM      5  S   UNL d   1      -2.387   4.549  -0.562  0.00  0.00    -0.063 SA
ATOM      6  C   UNL d   1      -1.258   3.298  -0.882  0.00  0.00     0.085 A 
ATOM      7  N   UNL d   1      -4.041   4.128   1.505  0.00  0.00    -0.337 N 
ATOM      8  H   UNL d   1      -4.477   4.993   1.214  0.00  0.00     0.168 HD
ENDROOT
BRANCH   1   9
ATOM      9  C   UNL d   1      -0.731   0.969  -0.063  0.00  0.00     0.128 A 
ATOM     10  C   UNL d   1      -0.989  -0.134   0.713  0.00  0.00     0.074 A 
ATOM     11  C   UNL d   1      -0.062  -1.118   0.282  0.00  0.00     0.068 A 
ATOM     12  N   UNL d   1       0.730  -0.612  -0.680  0.00  0.00    -0.260 N 
ATOM     13  O   UNL d   1       0.307   0.686  -0.893  0.00  0.00    -0.235 OA
ATOM     14  HN  UNL d   1       1.493  -1.092  -1.158  1.00  0.00     0.195 HD
BRANCH  11  15
ATOM     15  C   UNL d   1       0.060  -2.504   0.735  0.00  0.00    -0.007 A 
ATOM     16  C   UNL d   1       0.615  -3.478  -0.110  0.00  0.00     0.014 A 
ATOM     17  C   UNL d   1       0.704  -4.810   0.299  0.00  0.00     0.001 A 
ATOM     18  C   UNL d   1       0.246  -5.184   1.560  0.00  0.00     0.000 A 
ATOM     19  C   UNL d   1      -0.299  -4.228   2.414  0.00  0.00     0.001 A 
ATOM     20  C   UNL d   1      -0.393  -2.894   2.004  0.00  0.00     0.014 A 
ENDBRANCH  11  15
ENDBRANCH   1   9
BRANCH   7  21
ATOM     21  C   UNL d   1      -4.306   3.774   2.842  0.00  0.00     0.034 A 
ATOM     22  C   UNL d   1      -3.319   3.262   3.699  0.00  0.00     0.031 A 
ATOM     23  C   UNL d   1      -3.620   2.900   5.014  0.00  0.00     0.026 A 
ATOM     24  C   UNL d   1      -4.925   3.016   5.479  0.00  0.00     0.034 A 
ATOM     25  C   UNL d   1      -5.927   3.499   4.640  0.00  0.00     0.026 A 
ATOM     26 CL   UNL d   1      -5.302   2.559   7.093  0.00  0.00    -0.084 Cl
ATOM     27  C   UNL d   1      -5.616   3.879   3.330  0.00  0.00     0.031 A 
ENDBRANCH   7  21
TORSDOF 3
