REMARK  5 active torsions:
REMARK  status: ('A' for Active; 'I' for Inactive)
REMARK    1  A    between atoms: N_7  and  C_1 
REMARK    2  A    between atoms: C_11  and  N_7 
REMARK    3  A    between atoms: C_19  and  C_12 
REMARK    4  A    between atoms: C_20  and  C_19 
REMARK    5  A    between atoms: C_21  and  C_20 
ROOT
ATOM      1  C   UNL d   1      -1.192  -1.524   0.159  0.00  0.00     0.110 A 
ATOM      2  C   UNL d   1       0.097  -1.249  -0.082  0.00  0.00     0.115 A 
ATOM      3  C   UNL d   1      -1.956  -0.649   1.112  0.00  0.00     0.211 A 
ATOM      4  C   UNL d   1       0.834  -0.160   0.591  0.00  0.00     0.207 A 
ATOM      5  C   UNL d   1      -1.227   0.412   1.843  0.00  0.00     0.031 A 
ATOM      6  C   UNL d   1       0.122   0.638   1.599  0.00  0.00     0.030 A 
ATOM      7  O   UNL d   1      -3.159  -0.825   1.303  0.00  0.00    -0.285 OA
ATOM      8  O   UNL d   1       2.012   0.101   0.347  0.00  0.00    -0.286 OA
ATOM      9 CL   UNL d   1       1.021  -2.132  -1.265  0.00  0.00    -0.077 Cl
ATOM     10  C   UNL d   1      -1.890   1.203   2.795  0.00  0.00     0.016 A 
ATOM     11  C   UNL d   1       0.817   1.635   2.302  0.00  0.00     0.016 A 
ATOM     12  C   UNL d   1       0.157   2.412   3.252  0.00  0.00     0.001 A 
ATOM     13  C   UNL d   1      -1.199   2.198   3.493  0.00  0.00     0.001 A 
ENDROOT
BRANCH   1  14
ATOM     14  N   UNL d   1      -1.927  -2.546  -0.465  0.00  0.00    -0.352 N 
ATOM     15  H   UNL d   1      -2.938  -2.392  -0.444  0.00  0.00     0.166 HD
BRANCH  14  16
ATOM     16  C   UNL d   1      -1.602  -3.919  -0.322  0.00  0.00     0.032 A 
ATOM     17  C   UNL d   1      -0.953  -4.438   0.808  0.00  0.00     0.030 A 
ATOM     18  C   UNL d   1      -0.538  -5.774   0.848  0.00  0.00     0.009 A 
ATOM     19  C   UNL d   1      -0.768  -6.622  -0.240  0.00  0.00    -0.058 A 
ATOM     20  C   UNL d   1      -1.491  -6.128  -1.333  0.00  0.00     0.009 A 
ATOM     21  C   UNL d   1      -1.914  -4.794  -1.366  0.00  0.00     0.030 A 
BRANCH  19  22
ATOM     22  C   UNL d   1      -0.217  -8.029  -0.247  0.00  0.00     0.038 C 
BRANCH  22  23
ATOM     23  C   UNL d   1       0.773  -8.304  -1.388  0.00  0.00     0.004 C 
BRANCH  23  24
ATOM     24  C   UNL d   1       2.026  -7.423  -1.339  0.00  0.00    -0.004 C 
ATOM     25  C   UNL d   1       2.964  -7.742  -2.494  0.00  0.00     0.005 C 
ENDBRANCH  23  24
ENDBRANCH  22  23
ENDBRANCH  19  22
ENDBRANCH  14  16
ENDBRANCH   1  14
TORSDOF 5
