REMARK  6 active torsions:
REMARK  status: ('A' for Active; 'I' for Inactive)
REMARK    1  A    between atoms: C_5  and  C_1 
REMARK    2  A    between atoms: C_6  and  C_1 
REMARK    3  A    between atoms: N_8  and  C_2 
REMARK    4  A    between atoms: O_11  and  C_7 
REMARK    5  A    between atoms: C_16  and  N_8 
REMARK    6  A    between atoms: C_12  and  O_11 
ROOT
ATOM      1  N   UNL d   1       0.160  -5.890   0.753  0.00  0.00    -0.344 N 
ATOM      2  HN  UNL d   1       0.497  -6.669   1.319  1.00  0.00     0.167 HD
ATOM      3  C   UNL d   1      -0.906  -6.015  -0.065  0.00  0.00     0.148 A 
ATOM      4  C   UNL d   1       0.339  -3.557   0.068  0.00  0.00     0.047 A 
ATOM      5  C   UNL d   1       0.758  -4.677   0.784  0.00  0.00     0.119 A 
ATOM      6  C   UNL d   1      -1.435  -4.965  -0.797  0.00  0.00     0.059 A 
ATOM      7  C   UNL d   1      -0.796  -3.725  -0.731  0.00  0.00     0.035 A 
ENDROOT
BRANCH   4   8
ATOM      8  N   UNL d   1       1.043  -2.349   0.034  0.00  0.00    -0.364 N 
ATOM      9  H   UNL d   1       0.513  -1.507  -0.220  0.00  0.00     0.165 HD
BRANCH   8  10
ATOM     10  C   UNL d   1       2.370  -2.135   0.333  0.00  0.00     0.107 C 
ATOM     11  C   UNL d   1       3.019  -0.965   0.493  0.00  0.00     0.070 C 
BRANCH  11  12
ATOM     12  C   UNL d   1       4.490  -0.963   0.751  0.00  0.00     0.160 C 
ATOM     13  O   UNL d   1       5.165   0.014   0.426  0.00  0.00    -0.293 OA
ATOM     14  C   UNL d   1       5.164  -2.155   1.392  0.00  0.00     0.097 C 
ENDBRANCH  11  12
BRANCH  11  15
ATOM     15  C   UNL d   1       2.232   0.305   0.364  0.00  0.00     0.160 C 
ATOM     16  O   UNL d   1       1.137   0.313  -0.215  0.00  0.00    -0.293 OA
ATOM     17  C   UNL d   1       2.737   1.575   1.003  0.00  0.00     0.097 C 
ENDBRANCH  11  15
ENDBRANCH   8  10
ENDBRANCH   4   8
BRANCH   3  18
ATOM     18  O   UNL d   1      -1.517  -7.254  -0.199  0.00  0.00    -0.292 OA
BRANCH  18  19
ATOM     19  C   UNL d   1      -0.733  -8.363   0.008  0.00  0.00     0.094 A 
ATOM     20  C   UNL d   1       0.560  -8.505  -0.501  0.00  0.00     0.064 A 
ATOM     21  C   UNL d   1       1.266  -9.672  -0.238  0.00  0.00     0.052 A 
ATOM     22 CL   UNL d   1       2.878  -9.859  -0.799  0.00  0.00    -0.083 Cl
ATOM     23  C   UNL d   1       0.642 -10.676   0.488  0.00  0.00     0.111 A 
ATOM     24  N   UNL d   1      -0.626 -10.589   0.961  0.00  0.00    -0.371 N 
ATOM     25  C   UNL d   1      -1.282  -9.430   0.708  0.00  0.00     0.124 A 
ATOM     26  HN  UNL d   1      -1.062 -11.353   1.477  1.00  0.00     0.164 HD
ENDBRANCH  18  19
ENDBRANCH   3  18
TORSDOF 6
