REMARK  5 active torsions:
REMARK  status: ('A' for Active; 'I' for Inactive)
REMARK    1  A    between atoms: N_2  and  C_1 
REMARK    2  A    between atoms: C_3  and  C_1 
REMARK    3  A    between atoms: C_4  and  C_1 
REMARK    4  A    between atoms: O_7  and  C_1 
REMARK       I    between atoms: C_5  and  N_2 
REMARK    5  A    between atoms: C_8  and  C_5 
ROOT
ATOM      1  C   UNL d   1       0.949  -0.140  -0.127  0.00  0.00     0.336 C 
ENDROOT
BRANCH   1   2
ATOM      2  N   UNL d   1       0.523  -1.497  -0.525  0.00  0.00    -0.310 N 
ATOM      3  C   UNL d   1       0.894  -2.044  -1.730  0.00  0.00     0.254 C 
ATOM      4  O   UNL d   1       1.583  -1.441  -2.531  0.00  0.00    -0.268 OA
ATOM      5  H   UNL d   1       0.265  -2.117   0.227  0.00  0.00     0.166 HD
BRANCH   3   6
ATOM      6  C   UNL d   1       0.427  -3.430  -1.982  0.00  0.00     0.032 A 
ATOM      7  C   UNL d   1      -0.794  -3.893  -1.472  0.00  0.00     0.017 A 
ATOM      8  C   UNL d   1      -1.209  -5.198  -1.743  0.00  0.00     0.001 A 
ATOM      9  C   UNL d   1      -0.410  -6.035  -2.522  0.00  0.00     0.000 A 
ATOM     10  C   UNL d   1       0.799  -5.572  -3.040  0.00  0.00     0.001 A 
ATOM     11  C   UNL d   1       1.217  -4.266  -2.777  0.00  0.00     0.017 A 
ENDBRANCH   3   6
ENDBRANCH   1   2
BRANCH   1  12
ATOM     12  C   UNL d   1       0.528   1.006  -1.085  0.00  0.00     0.447 C 
ATOM     13  F   UNL d   1      -0.754   0.817  -1.512  0.00  0.00    -0.166 F 
ATOM     14  F   UNL d   1       0.536   2.204  -0.446  0.00  0.00    -0.166 F 
ATOM     15  F   UNL d   1       1.273   1.151  -2.196  0.00  0.00    -0.166 F 
ENDBRANCH   1  12
BRANCH   1  16
ATOM     16  C   UNL d   1       2.492   0.017   0.056  0.00  0.00     0.447 C 
ATOM     17  F   UNL d   1       3.098  -1.198   0.165  0.00  0.00    -0.166 F 
ATOM     18  F   UNL d   1       3.131   0.687  -0.921  0.00  0.00    -0.166 F 
ATOM     19  F   UNL d   1       2.784   0.671   1.214  0.00  0.00    -0.166 F 
ENDBRANCH   1  16
BRANCH   1  20
ATOM     20  O   UNL d   1       0.343  -0.017   1.204  0.00  0.00    -0.351 OA
ATOM     21  C   UNL d   1      -1.067   0.170   1.240  0.00  0.00     0.205 C 
ENDBRANCH   1  20
TORSDOF 5
