REMARK  3 active torsions:
REMARK  status: ('A' for Active; 'I' for Inactive)
REMARK    1  A    between atoms: C_2  and  S_1 
REMARK    2  A    between atoms: N_3  and  S_1 
REMARK    3  A    between atoms: C_12  and  N_3 
ROOT
ATOM      1  S   UNL d   1       1.128   0.021   0.020  0.00  0.00     0.263 S 
ATOM      2  O   UNL d   1       0.909   0.963  -1.058  0.00  0.00    -0.200 OA
ATOM      3  O   UNL d   1       2.446  -0.166   0.591  0.00  0.00    -0.200 OA
ENDROOT
BRANCH   1   4
ATOM      4  C   UNL d   1       0.553  -1.573  -0.541  0.00  0.00     0.080 A 
ATOM      5  C   UNL d   1       1.056  -2.736   0.061  0.00  0.00     0.035 A 
ATOM      6  C   UNL d   1       0.656  -3.954  -0.464  0.00  0.00    -0.021 A 
ATOM      7  C   UNL d   1       0.973  -5.328  -0.014  0.00  0.00     0.068 C 
ATOM      8  C   UNL d   1      -0.204  -4.018  -1.549  0.00  0.00     0.075 A 
ATOM      9  C   UNL d   1       0.493  -6.099  -1.246  0.00  0.00     0.180 C 
ATOM     10  O   UNL d   1      -0.488  -5.299  -1.950  0.00  0.00    -0.350 OA
ATOM     11  C   UNL d   1      -0.711  -2.885  -2.153  0.00  0.00     0.039 A 
ATOM     12  C   UNL d   1      -0.320  -1.643  -1.645  0.00  0.00     0.028 A 
ENDBRANCH   1   4
BRANCH   1  13
ATOM     13  N   UNL d   1       0.059   0.438   1.226  0.00  0.00    -0.281 N 
ATOM     14  H   UNL d   1      -0.662   1.108   0.973  0.00  0.00     0.179 HD
BRANCH  13  15
ATOM     15  C   UNL d   1      -0.053  -0.293   2.431  0.00  0.00     0.042 A 
ATOM     16  C   UNL d   1       0.783   0.001   3.508  0.00  0.00     0.032 A 
ATOM     17  C   UNL d   1       0.582  -0.634   4.739  0.00  0.00     0.026 A 
ATOM     18  C   UNL d   1      -0.449  -1.562   4.877  0.00  0.00     0.034 A 
ATOM     19  C   UNL d   1      -1.269  -1.873   3.791  0.00  0.00     0.026 A 
ATOM     20 CL   UNL d   1      -0.731  -2.313   6.401  0.00  0.00    -0.084 Cl
ATOM     21  C   UNL d   1      -1.072  -1.233   2.567  0.00  0.00     0.032 A 
ENDBRANCH  13  15
ENDBRANCH   1  13
TORSDOF 3
