REMARK  4 active torsions:
REMARK  status: ('A' for Active; 'I' for Inactive)
REMARK    1  A    between atoms: C_17  and  C_11 
REMARK    2  A    between atoms: C_14  and  N_24 
REMARK    3  A    between atoms: S_27  and  C_15 
REMARK    4  A    between atoms: N_24  and  C_16 
ROOT
ATOM      1  N   UNL d   1       4.150  -0.048  -1.732  0.00  0.00    -0.200 N 
ATOM      2  H   UNL d   1       4.390   0.775  -1.189  0.00  0.00     0.183 HD
ENDROOT
BRANCH   1   3
ATOM      3  C   UNL d   1       5.073  -0.359  -2.729  0.00  0.00     0.685 A 
ATOM      4  N   UNL d   1       4.805  -1.372  -3.547  0.00  0.00    -0.180 N 
ATOM      5  C   UNL d   1       5.679  -1.613  -4.518  0.00  0.00     0.103 A 
ATOM      6  HN  UNL d   1       3.964  -1.939  -3.435  1.00  0.00     0.185 HD
ATOM      7  N   UNL d   1       6.809  -0.927  -4.654  0.00  0.00    -0.325 N 
ATOM      8  C   UNL d   1       7.008   0.046  -3.768  0.00  0.00     0.160 A 
ATOM      9  HN  UNL d   1       7.481  -1.134  -5.392  1.00  0.00     0.169 HD
ATOM     10  N   UNL d   1       6.168   0.384  -2.797  0.00  0.00    -0.170 N 
ATOM     11  HN  UNL d   1       6.351   1.155  -2.154  1.00  0.00     0.186 HD
BRANCH   5  12
ATOM     12  C   UNL d   1       5.378  -2.725  -5.491  0.00  0.00     0.054 A 
ATOM     13  C   UNL d   1       5.207  -2.422  -6.962  0.00  0.00     0.013 A 
ATOM     14  C   UNL d   1       4.015  -2.817  -6.144  0.00  0.00     0.013 A 
ENDBRANCH   5  12
BRANCH   8  15
ATOM     15  S   UNL d   1       8.564   0.895  -3.938  0.00  0.00    -0.098 SA
ATOM     16  C   UNL d   1       8.465   2.106  -2.600  0.00  0.00     0.099 C 
ENDBRANCH   8  15
ENDBRANCH   1   3
BRANCH   1  17
ATOM     17  C   UNL d   1       2.989  -0.731  -1.452  0.00  0.00     0.135 C 
ATOM     18  C   UNL d   1       2.080  -0.481  -0.500  0.00  0.00     0.147 C 
ATOM     19  S   UNL d   1       0.878  -1.653  -0.103  0.00  0.00     0.270 S 
ATOM     20  C   UNL d   1       2.234   0.632   0.457  0.00  0.00     0.215 C 
ATOM     21  N   UNL d   1       1.303  -2.028   1.513  0.00  0.00    -0.275 N 
ATOM     22  O   UNL d   1      -0.416  -1.009  -0.059  0.00  0.00    -0.200 OA
ATOM     23  O   UNL d   1       1.067  -2.852  -0.896  0.00  0.00    -0.200 OA
ATOM     24  C   UNL d   1       1.682  -0.953   2.347  0.00  0.00     0.066 A 
ATOM     25  C   UNL d   1       1.150  -3.411   1.976  0.00  0.00     0.170 C 
ATOM     26  C   UNL d   1       2.058   0.284   1.854  0.00  0.00     0.084 A 
ATOM     27  C   UNL d   1       1.773  -0.989   3.769  0.00  0.00     0.039 A 
ATOM     28  S   UNL d   1       2.419   1.402   3.087  0.00  0.00    -0.096 SA
ATOM     29  C   UNL d   1       2.153   0.227   4.299  0.00  0.00     0.053 A 
ATOM     30  O   UNL d   1       2.599   1.736   0.049  0.00  0.00    -0.285 OA
ENDBRANCH   1  17
TORSDOF 4
