REMARK  5 active torsions:
REMARK  status: ('A' for Active; 'I' for Inactive)
REMARK    1  A    between atoms: N_3  and  C_1 
REMARK    2  A    between atoms: C_8  and  C_2 
REMARK    3  A    between atoms: S_4  and  N_3 
REMARK    4  A    between atoms: O_14  and  C_8 
REMARK    5  A    between atoms: C_17  and  O_14 
ROOT
ATOM      1  C   UNL d   1       0.947  -1.543   0.072  0.00  0.00     0.102 C 
ATOM      2  C   UNL d   1      -0.386  -1.740   0.395  0.00  0.00     0.081 C 
ATOM      3  S   UNL d   1       1.375   0.096  -0.048  0.00  0.00    -0.075 SA
ATOM      4  C   UNL d   1      -1.117  -0.488   0.219  0.00  0.00    -0.030 C 
ATOM      5  C   UNL d   1      -0.254   0.588   0.062  0.00  0.00    -0.012 C 
ATOM      6  C   UNL d   1      -2.609  -0.338   0.200  0.00  0.00     0.050 C 
ATOM      7  C   UNL d   1      -0.601   2.038  -0.050  0.00  0.00     0.057 C 
ENDROOT
BRANCH   1   8
ATOM      8  N   UNL d   1       1.868  -2.615  -0.159  0.00  0.00    -0.273 N 
ATOM      9  C   UNL d   1       2.896  -2.919   0.850  0.00  0.00     0.170 C 
BRANCH   8  10
ATOM     10  S   UNL d   1       2.300  -2.794  -1.800  0.00  0.00     0.229 S 
ATOM     11  O   UNL d   1       1.256  -2.246  -2.651  0.00  0.00    -0.206 OA
ATOM     12  O   UNL d   1       3.684  -2.406  -1.973  0.00  0.00    -0.206 OA
ATOM     13  C   UNL d   1       2.194  -4.558  -1.955  0.00  0.00     0.186 C 
ENDBRANCH   8  10
ENDBRANCH   1   8
BRANCH   2  14
ATOM     14  C   UNL d   1      -0.926  -3.046   0.800  0.00  0.00     0.296 C 
ATOM     15  O   UNL d   1      -0.292  -4.096   0.787  0.00  0.00    -0.259 OA
BRANCH  14  16
ATOM     16  O   UNL d   1      -2.197  -2.954   1.292  0.00  0.00    -0.318 OA
BRANCH  16  17
ATOM     17  C   UNL d   1      -2.746  -4.138   1.889  0.00  0.00     0.174 C 
ATOM     18  C   UNL d   1      -3.284  -5.088   0.838  0.00  0.00     0.034 C 
ENDBRANCH  16  17
ENDBRANCH  14  16
ENDBRANCH   2  14
TORSDOF 5
