REMARK  5 active torsions:
REMARK  status: ('A' for Active; 'I' for Inactive)
REMARK    1  A    between atoms: C_2  and  C_1 
REMARK    2  A    between atoms: N_16  and  C_2 
REMARK    3  A    between atoms: O_11  and  N_3 
REMARK    4  A    between atoms: C_5  and  O_11 
REMARK       I    between atoms: N_10  and  C_5 
REMARK    5  A    between atoms: C_13  and  N_10 
ROOT
ATOM      1  C   UNL d   1       0.193   1.294  -0.918  0.00  0.00     0.135 C 
ATOM      2  N   UNL d   1       0.765   2.456  -1.066  0.00  0.00    -0.242 N 
ATOM      3  HN  UNL d   1       1.359   2.714  -1.854  1.00  0.00     0.196 HD
ENDROOT
BRANCH   2   4
ATOM      4  O   UNL d   1       0.452   3.311   0.014  0.00  0.00    -0.179 OA
BRANCH   4   5
ATOM      5  C   UNL d   1       1.123   4.490  -0.132  0.00  0.00     0.387 C 
ATOM      6  N   UNL d   1       0.351   5.627  -0.115  0.00  0.00    -0.301 N 
ATOM      7  H   UNL d   1       0.930   6.452  -0.209  0.00  0.00     0.171 HD
ATOM      8  O   UNL d   1       2.346   4.575  -0.250  0.00  0.00    -0.236 OA
BRANCH   6   9
ATOM      9  C   UNL d   1      -1.044   5.808  -0.197  0.00  0.00     0.038 A 
ATOM     10  C   UNL d   1      -1.992   4.784  -0.150  0.00  0.00     0.053 A 
ATOM     11  C   UNL d   1      -3.350   5.072  -0.322  0.00  0.00     0.036 A 
ATOM     12 CL   UNL d   1      -4.502   3.792  -0.280  0.00  0.00    -0.084 Cl
ATOM     13  C   UNL d   1      -3.782   6.376  -0.537  0.00  0.00     0.024 A 
ATOM     14  C   UNL d   1      -2.849   7.408  -0.562  0.00  0.00     0.004 A 
ATOM     15  C   UNL d   1      -1.491   7.125  -0.386  0.00  0.00     0.029 A 
ENDBRANCH   6   9
ENDBRANCH   4   5
ENDBRANCH   2   4
BRANCH   1  16
ATOM     16  C   UNL d   1       0.317   0.380  -2.031  0.00  0.00     0.139 A 
ATOM     17  O   UNL d   1      -0.274  -0.847  -1.925  0.00  0.00    -0.235 OA
ATOM     18  N   UNL d   1      -0.066  -1.567  -3.090  0.00  0.00    -0.272 N 
ATOM     19  C   UNL d   1       0.644  -0.758  -3.881  0.00  0.00     0.117 A 
ATOM     20  HN  UNL d   1      -0.386  -2.513  -3.299  1.00  0.00     0.194 HD
ATOM     21  C   UNL d   1       0.916   0.476  -3.267  0.00  0.00     0.062 A 
ENDBRANCH   1  16
BRANCH   1  22
ATOM     22  N   UNL d   1      -0.490   0.949   0.227  0.00  0.00    -0.285 NA
ATOM     23  H   UNL d   1      -0.557  -0.049   0.399  0.00  0.00     0.125 HD
ATOM     24  H   UNL d   1      -0.193   1.478   1.039  0.00  0.00     0.125 HD
ENDBRANCH   1  22
TORSDOF 5
