REMARK  4 active torsions:
REMARK  status: ('A' for Active; 'I' for Inactive)
REMARK       I    between atoms: N_2  and  C_1 
REMARK    1  A    between atoms: C_3  and  C_1 
REMARK       I    between atoms: C_4  and  N_2 
REMARK       I    between atoms: N_9  and  C_4 
REMARK    2  A    between atoms: O_6  and  C_5 
REMARK    3  A    between atoms: C_7  and  O_6 
REMARK    4  A    between atoms: C_16  and  N_9 
ROOT
ATOM      1  C   UNL d   1       0.136  -1.339  -0.167  0.00  0.00     0.066 A 
ATOM      2  C   UNL d   1       0.512  -2.358   0.725  0.00  0.00     0.091 A 
ATOM      3  C   UNL d   1      -0.979  -1.540  -1.000  0.00  0.00     0.020 A 
ATOM      4  C   UNL d   1      -0.229  -3.549   0.769  0.00  0.00     0.038 A 
ATOM      5  C   UNL d   1      -1.725  -2.716  -0.924  0.00  0.00     0.001 A 
ATOM      6  C   UNL d   1      -1.349  -3.723  -0.041  0.00  0.00     0.003 A 
ENDROOT
BRANCH   1   7
ATOM      7  C   UNL d   1       0.953  -0.116  -0.334  0.00  0.00     0.262 C 
ATOM      8  N   UNL d   1       0.383   1.149  -0.395  0.00  0.00    -0.275 N 
ATOM      9  C   UNL d   1      -0.882   1.605  -0.139  0.00  0.00     0.327 C 
ATOM     10  H   UNL d   1       1.113   1.835  -0.333  0.00  0.00     0.173 HD
ATOM     11  N   UNL d   1      -1.113   2.950  -0.185  0.00  0.00    -0.309 N 
ATOM     12  O   UNL d   1      -1.834   0.887   0.161  0.00  0.00    -0.247 OA
ATOM     13  H   UNL d   1      -2.058   3.136   0.136  0.00  0.00     0.170 HD
ATOM     14  O   UNL d   1       2.182  -0.198  -0.391  0.00  0.00    -0.267 OA
BRANCH  11  15
ATOM     15  C   UNL d   1      -0.284   4.079  -0.321  0.00  0.00     0.036 A 
ATOM     16  C   UNL d   1       0.960   4.106  -0.953  0.00  0.00     0.029 A 
ATOM     17  C   UNL d   1       1.776   5.239  -0.855  0.00  0.00     0.002 A 
ATOM     18  C   UNL d   1       1.333   6.370  -0.174  0.00  0.00     0.000 A 
ATOM     19  C   UNL d   1       0.050   6.391   0.363  0.00  0.00     0.002 A 
ATOM     20  C   UNL d   1      -0.759   5.257   0.275  0.00  0.00     0.029 A 
ENDBRANCH  11  15
ENDBRANCH   1   7
BRANCH   2  21
ATOM     21  O   UNL d   1       1.657  -2.398   1.485  0.00  0.00    -0.308 OA
BRANCH  21  22
ATOM     22  C   UNL d   1       1.989  -1.394   2.364  0.00  0.00     0.098 A 
ATOM     23  C   UNL d   1       3.337  -1.339   2.764  0.00  0.00     0.069 A 
ATOM     24  C   UNL d   1       3.783  -0.356   3.648  0.00  0.00     0.050 A 
ATOM     25 CL   UNL d   1       4.492  -2.494   2.193  0.00  0.00    -0.081 Cl
ATOM     26  C   UNL d   1       2.877   0.576   4.142  0.00  0.00     0.035 A 
ATOM     27  C   UNL d   1       1.531   0.516   3.782  0.00  0.00     0.026 A 
ATOM     28 CL   UNL d   1       3.421   1.804   5.218  0.00  0.00    -0.084 Cl
ATOM     29  C   UNL d   1       1.080  -0.479   2.906  0.00  0.00     0.041 A 
ENDBRANCH  21  22
ENDBRANCH   2  21
TORSDOF 4
