REMARK  4 active torsions:
REMARK  status: ('A' for Active; 'I' for Inactive)
REMARK    1  A    between atoms: N_4  and  S_1 
REMARK    2  A    between atoms: C_5  and  C_2 
REMARK    3  A    between atoms: C_3  and  N_4 
REMARK    4  A    between atoms: O_14  and  C_5 
ROOT
ATOM      1  C   UNL d   1      -0.114  -3.753  -1.030  0.00  0.00     0.061 A 
ATOM      2  C   UNL d   1       0.870  -2.830  -0.640  0.00  0.00     0.040 A 
ATOM      3  C   UNL d   1       2.181  -2.970  -1.121  0.00  0.00     0.049 A 
ATOM      4  C   UNL d   1       0.231  -4.802  -1.901  0.00  0.00     0.021 A 
ATOM      5  C   UNL d   1       2.505  -4.015  -1.986  0.00  0.00     0.035 A 
ATOM      6  C   UNL d   1       1.535  -4.932  -2.381  0.00  0.00     0.025 A 
ATOM      7 CL   UNL d   1       4.116  -4.181  -2.565  0.00  0.00    -0.084 Cl
ENDROOT
BRANCH   2   8
ATOM      8  N   UNL d   1       0.623  -1.776   0.301  0.00  0.00    -0.185 NA
ATOM      9  H   UNL d   1       1.014  -0.865   0.045  0.00  0.00     0.146 HD
BRANCH   8  10
ATOM     10  S   UNL d   1       0.988  -2.069   1.927  0.00  0.00     0.210 S 
ATOM     11  O   UNL d   1       1.403  -0.786   2.452  0.00  0.00    -0.211 OA
ATOM     12  O   UNL d   1       1.832  -3.237   2.036  0.00  0.00    -0.211 OA
ATOM     13  C   UNL d   1      -0.614  -2.441   2.607  0.00  0.00     0.180 C 
ENDBRANCH   8  10
ENDBRANCH   2   8
BRANCH   1  14
ATOM     14  C   UNL d   1      -1.530  -3.724  -0.590  0.00  0.00     0.294 C 
ATOM     15  O   UNL d   1      -2.203  -4.740  -0.477  0.00  0.00    -0.259 OA
BRANCH  14  16
ATOM     16  O   UNL d   1      -1.981  -2.461  -0.404  0.00  0.00    -0.322 OA
ATOM     17  C   UNL d   1      -3.357  -2.395  -0.022  0.00  0.00     0.213 C 
ENDBRANCH  14  16
ENDBRANCH   1  14
TORSDOF 4
