REMARK  7 active torsions:
REMARK  status: ('A' for Active; 'I' for Inactive)
REMARK    1  A    between atoms: C_4  and  N_1 
REMARK    2  A    between atoms: N_2  and  C_3 
REMARK    3  A    between atoms: C_15  and  C_5 
REMARK    4  A    between atoms: C_6  and  O_11 
REMARK    5  A    between atoms: O_11  and  C_12 
REMARK    6  A    between atoms: C_16  and  O_23 
REMARK    7  A    between atoms: O_23  and  C_22 
ROOT
ATOM      1  C   UNL d   1      -1.726   3.620  -4.859  0.00  0.00    -0.014 C 
ATOM      2  C   UNL d   1      -1.627   4.534  -3.777  0.00  0.00     0.085 C 
ATOM      3  C   UNL d   1      -1.542   4.161  -6.153  0.00  0.00     0.048 C 
ATOM      4  C   UNL d   1      -1.329   5.528  -6.369  0.00  0.00     0.078 C 
ATOM      5  C   UNL d   1      -1.548   5.919  -4.016  0.00  0.00     0.040 C 
ATOM      6  C   UNL d   1      -1.398   6.414  -5.304  0.00  0.00     0.040 C 
ENDROOT
BRANCH   2   7
ATOM      7  O   UNL d   1      -1.683   4.074  -2.477  0.00  0.00    -0.293 OA
BRANCH   7   8
ATOM      8  C   UNL d   1      -0.877   4.651  -1.508  0.00  0.00     0.148 A 
ATOM      9  C   UNL d   1       0.398   5.165  -1.760  0.00  0.00     0.059 A 
ATOM     10  C   UNL d   1       1.167   5.644  -0.694  0.00  0.00     0.041 A 
ATOM     11  C   UNL d   1       0.654   5.551   0.598  0.00  0.00     0.118 A 
ATOM     12  C   UNL d   1      -0.622   5.041   0.772  0.00  0.00     0.126 A 
ATOM     13  N   UNL d   1      -1.392   4.593  -0.255  0.00  0.00    -0.344 N 
ATOM     14  HN  UNL d   1      -2.329   4.225  -0.089  1.00  0.00     0.167 HD
BRANCH  11  15
ATOM     15  N   UNL d   1       1.457   5.923   1.757  0.00  0.00    -0.114 N 
ATOM     16  O   UNL d   1       0.965   5.749   2.880  0.00  0.00    -0.532 OA
ATOM     17  O   UNL d   1       2.591   6.375   1.548  0.00  0.00    -0.532 OA
ENDBRANCH  11  15
ENDBRANCH   7   8
ENDBRANCH   2   7
BRANCH   1  18
ATOM     18  C   UNL d   1      -2.087   2.120  -4.689  0.00  0.00    -0.021 C 
ATOM     19  C   UNL d   1      -3.450   1.980  -3.972  0.00  0.00     0.019 C 
ATOM     20  C   UNL d   1      -2.245   1.367  -6.042  0.00  0.00     0.019 C 
ATOM     21  C   UNL d   1      -1.016   1.343  -3.897  0.00  0.00     0.019 C 
ENDBRANCH   1  18
BRANCH   4  22
ATOM     22  O   UNL d   1      -1.163   5.934  -7.675  0.00  0.00    -0.294 OA
BRANCH  22  23
ATOM     23  C   UNL d   1      -0.209   6.912  -7.931  0.00  0.00     0.148 A 
ATOM     24  N   UNL d   1       0.832   7.088  -7.081  0.00  0.00    -0.344 N 
ATOM     25  C   UNL d   1       1.713   8.074  -7.373  0.00  0.00     0.126 A 
ATOM     26  HN  UNL d   1       0.947   6.502  -6.255  1.00  0.00     0.167 HD
ATOM     27  C   UNL d   1       1.597   8.881  -8.498  0.00  0.00     0.118 A 
ATOM     28  C   UNL d   1       0.537   8.665  -9.380  0.00  0.00     0.041 A 
ATOM     29  C   UNL d   1      -0.382   7.655  -9.091  0.00  0.00     0.059 A 
BRANCH  27  30
ATOM     30  N   UNL d   1       2.578   9.940  -8.726  0.00  0.00    -0.114 N 
ATOM     31  O   UNL d   1       3.468  10.087  -7.885  0.00  0.00    -0.532 OA
ATOM     32  O   UNL d   1       2.442  10.621  -9.752  0.00  0.00    -0.532 OA
ENDBRANCH  27  30
ENDBRANCH  22  23
ENDBRANCH   4  22
TORSDOF 7
