REMARK  5 active torsions:
REMARK  status: ('A' for Active; 'I' for Inactive)
REMARK    1  A    between atoms: C_12  and  N_1 
REMARK    2  A    between atoms: C_7  and  C_4 
REMARK    3  A    between atoms: C_9  and  C_8 
REMARK       I    between atoms: N_14  and  C_9 
REMARK    4  A    between atoms: C_11  and  C_12 
REMARK    5  A    between atoms: C_20  and  N_14 
ROOT
ATOM      1  C   UNL d   1       5.021   3.266  -0.669  0.00  0.00     0.143 A 
ATOM      2  O   UNL d   1       4.699   1.984  -1.037  0.00  0.00    -0.308 OA
ATOM      3  C   UNL d   1       3.976   1.444  -0.001  0.00  0.00     0.072 A 
ATOM      4  C   UNL d   1       4.508   3.528   0.589  0.00  0.00     0.045 A 
ATOM      5  C   UNL d   1       3.850   2.360   1.022  0.00  0.00     0.037 A 
ENDROOT
BRANCH   1   6
ATOM      6  C   UNL d   1       5.789   4.154  -1.525  0.00  0.00     0.279 C 
ATOM      7  N   UNL d   1       6.189   3.636  -2.747  0.00  0.00    -0.321 N 
ATOM      8  H   UNL d   1       5.803   2.731  -2.996  0.00  0.00     0.169 HD
ATOM      9  O   UNL d   1       6.034   5.301  -1.155  0.00  0.00    -0.265 OA
BRANCH   7  10
ATOM     10  C   UNL d   1       7.071   4.260  -3.666  0.00  0.00     0.035 A 
ATOM     11  C   UNL d   1       7.844   5.383  -3.344  0.00  0.00     0.047 A 
ATOM     12  C   UNL d   1       8.778   5.957  -4.241  0.00  0.00     0.067 A 
ATOM     13  C   UNL d   1       8.916   5.373  -5.502  0.00  0.00     0.026 A 
ATOM     14  C   UNL d   1       8.128   4.266  -5.849  0.00  0.00     0.022 A 
ATOM     15 BR   UNL d   1      10.150   5.970  -6.814  0.00  0.00    -0.050 Br
ATOM     16  C   UNL d   1       7.219   3.710  -4.938  0.00  0.00     0.031 A 
BRANCH  12  17
ATOM     17  C   UNL d   1       9.540   7.156  -3.730  0.00  0.00     0.418 C 
ATOM     18  F   UNL d   1      10.506   7.656  -4.543  0.00  0.00    -0.166 F 
ATOM     19  F   UNL d   1       8.711   8.208  -3.466  0.00  0.00    -0.166 F 
ATOM     20  F   UNL d   1      10.172   6.888  -2.550  0.00  0.00    -0.166 F 
ENDBRANCH  12  17
ENDBRANCH   7  10
ENDBRANCH   1   6
BRANCH   3  21
ATOM     21  C   UNL d   1       3.423   0.073  -0.173  0.00  0.00     0.200 C 
BRANCH  21  22
ATOM     22  N   UNL d   1       4.290  -0.911   0.433  0.00  0.00    -0.274 N 
ATOM     23  C   UNL d   1       4.131  -1.402   1.702  0.00  0.00     0.262 A 
ATOM     24  C   UNL d   1       5.136  -2.456   1.866  0.00  0.00     0.048 A 
ATOM     25  O   UNL d   1       3.318  -1.090   2.548  0.00  0.00    -0.267 OA
ATOM     26  C   UNL d   1       5.403  -3.291   2.935  0.00  0.00     0.018 A 
ATOM     27  C   UNL d   1       5.838  -2.548   0.679  0.00  0.00     0.048 A 
ATOM     28  C   UNL d   1       6.424  -4.236   2.772  0.00  0.00     0.001 A 
ATOM     29  C   UNL d   1       7.139  -4.327   1.560  0.00  0.00     0.001 A 
ATOM     30  C   UNL d   1       6.846  -3.476   0.491  0.00  0.00     0.018 A 
ATOM     31  C   UNL d   1       5.281  -1.561  -0.245  0.00  0.00     0.262 A 
ATOM     32  O   UNL d   1       5.645  -1.423  -1.397  0.00  0.00    -0.267 OA
ENDBRANCH  21  22
ENDBRANCH   3  21
TORSDOF 5
