REMARK  3 active torsions:
REMARK  status: ('A' for Active; 'I' for Inactive)
REMARK    1  A    between atoms: C_3  and  S_1 
REMARK    2  A    between atoms: N_5  and  S_1 
REMARK    3  A    between atoms: C_2  and  N_5 
ROOT
ATOM      1  S   UNL d   1       1.070  -0.033   0.074  0.00  0.00     0.247 S 
ATOM      2  O   UNL d   1       0.656  -1.388  -0.218  0.00  0.00    -0.205 OA
ATOM      3  O   UNL d   1       0.567   1.049  -0.738  0.00  0.00    -0.205 OA
ENDROOT
BRANCH   1   4
ATOM      4  C   UNL d   1       2.846   0.003   0.121  0.00  0.00     0.097 A 
ATOM      5  C   UNL d   1       3.602   1.159  -0.047  0.00  0.00     0.058 A 
ATOM      6  C   UNL d   1       4.997   1.085   0.073  0.00  0.00     0.050 A 
ATOM      7 CL   UNL d   1       2.956   2.729  -0.344  0.00  0.00    -0.083 Cl
ATOM      8  C   UNL d   1       5.637  -0.129   0.349  0.00  0.00     0.041 A 
ATOM      9  C   UNL d   1       4.893  -1.305   0.487  0.00  0.00    -0.039 A 
ATOM     10 CL   UNL d   1       7.354  -0.099   0.525  0.00  0.00    -0.084 Cl
ATOM     11  C   UNL d   1       3.495  -1.224   0.361  0.00  0.00     0.035 A 
ATOM     12  C   UNL d   1       5.491  -2.654   0.773  0.00  0.00     0.050 C 
ENDBRANCH   1   4
BRANCH   1  13
ATOM     13  N   UNL d   1       0.642   0.321   1.693  0.00  0.00    -0.177 NA
ATOM     14  H   UNL d   1      -0.316   0.675   1.664  0.00  0.00     0.146 HD
BRANCH  13  15
ATOM     15  C   UNL d   1       0.918  -0.619   2.698  0.00  0.00     0.070 A 
ATOM     16  C   UNL d   1       0.180  -1.720   3.085  0.00  0.00     0.048 A 
ATOM     17  N   UNL d   1       0.911  -2.316   4.085  0.00  0.00    -0.299 N 
ATOM     18  C   UNL d   1      -1.112  -2.265   2.600  0.00  0.00     0.072 C 
ATOM     19  C   UNL d   1       0.639  -3.543   4.798  0.00  0.00     0.177 C 
ATOM     20  N   UNL d   1       2.008  -1.622   4.433  0.00  0.00    -0.301 N 
ATOM     21  C   UNL d   1       1.996  -0.560   3.622  0.00  0.00     0.046 A 
ATOM     22  HN  UNL d   1       2.693  -1.853   5.152  1.00  0.00     0.187 HD
ATOM     23  C   UNL d   1       3.003   0.512   3.806  0.00  0.00     0.072 C 
ENDBRANCH  13  15
ENDBRANCH   1  13
TORSDOF 3
