REMARK  5 active torsions:
REMARK  status: ('A' for Active; 'I' for Inactive)
REMARK    1  A    between atoms: S_2  and  N_1 
REMARK    2  A    between atoms: C_11  and  S_2 
REMARK    3  A    between atoms: S_10  and  C_6 
REMARK    4  A    between atoms: C_8  and  C_9 
REMARK    5  A    between atoms: C_16  and  S_10 
ROOT
ATOM      1  N   UNL d   1      -0.129  -1.196   0.024  0.00  0.00    -0.180 N 
ATOM      2  C   UNL d   1       1.200  -0.813   0.171  0.00  0.00     0.061 C 
ATOM      3  N   UNL d   1      -0.985  -0.133   0.119  0.00  0.00    -0.287 N 
ATOM      4  HN  UNL d   1      -2.001  -0.154   0.206  1.00  0.00     0.188 HD
ATOM      5  C   UNL d   1       1.179   0.567   0.095  0.00  0.00     0.055 C 
ATOM      6  C   UNL d   1      -0.185   0.938   0.070  0.00  0.00     0.042 C 
ATOM      7  C   UNL d   1       2.355  -1.736   0.297  0.00  0.00     0.072 C 
ATOM      8  C   UNL d   1      -0.776   2.300   0.023  0.00  0.00     0.071 C 
ENDROOT
BRANCH   5   9
ATOM      9  S   UNL d   1       2.540   1.660   0.131  0.00  0.00    -0.069 SA
BRANCH   9  10
ATOM     10  C   UNL d   1       3.358   1.410  -1.440  0.00  0.00     0.074 A 
ATOM     11  N   UNL d   1       2.678   0.841  -2.461  0.00  0.00    -0.359 N 
ATOM     12  C   UNL d   1       3.306   0.738  -3.658  0.00  0.00     0.105 A 
ATOM     13  HN  UNL d   1       1.724   0.501  -2.334  1.00  0.00     0.166 HD
ATOM     14  C   UNL d   1       4.596   1.185  -3.903  0.00  0.00     0.063 A 
ATOM     15  C   UNL d   1       5.290   1.748  -2.829  0.00  0.00     0.020 A 
ATOM     16  C   UNL d   1       4.666   1.864  -1.587  0.00  0.00     0.038 A 
BRANCH  14  17
ATOM     17  C   UNL d   1       5.205   1.088  -5.269  0.00  0.00     0.418 C 
ATOM     18  F   UNL d   1       4.385   0.523  -6.196  0.00  0.00    -0.166 F 
ATOM     19  F   UNL d   1       5.548   2.308  -5.768  0.00  0.00    -0.166 F 
ATOM     20  F   UNL d   1       6.348   0.348  -5.280  0.00  0.00    -0.166 F 
ENDBRANCH  14  17
ENDBRANCH   9  10
ENDBRANCH   5   9
BRANCH   1  21
ATOM     21  S   UNL d   1      -0.674  -2.848  -0.118  0.00  0.00     0.282 S 
ATOM     22  O   UNL d   1      -2.026  -2.798  -0.639  0.00  0.00    -0.198 OA
ATOM     23  O   UNL d   1       0.381  -3.559  -0.823  0.00  0.00    -0.198 OA
BRANCH  21  24
ATOM     24  C   UNL d   1      -0.754  -3.440   1.550  0.00  0.00     0.081 A 
ATOM     25  C   UNL d   1      -1.690  -2.897   2.434  0.00  0.00     0.026 A 
ATOM     26  C   UNL d   1      -1.758  -3.380   3.744  0.00  0.00     0.008 A 
ATOM     27  C   UNL d   1      -0.900  -4.402   4.175  0.00  0.00    -0.062 A 
ATOM     28  C   UNL d   1       0.010  -4.960   3.267  0.00  0.00     0.008 A 
ATOM     29  C   UNL d   1      -0.965  -4.893   5.592  0.00  0.00     0.048 C 
ATOM     30  C   UNL d   1       0.079  -4.487   1.955  0.00  0.00     0.026 A 
ENDBRANCH  21  24
ENDBRANCH   1  21
TORSDOF 5
