REMARK  3 active torsions:
REMARK  status: ('A' for Active; 'I' for Inactive)
REMARK    1  A    between atoms: S_2  and  C_1 
REMARK    2  A    between atoms: N_9  and  S_2 
REMARK    3  A    between atoms: C_12  and  N_9 
ROOT
ATOM      1  C   UNL d   1       0.768  -1.629  -0.069  0.00  0.00     0.105 A 
ATOM      2  C   UNL d   1       0.847  -0.621   0.859  0.00  0.00     0.099 A 
ATOM      3  C   UNL d   1      -0.146  -1.299  -1.124  0.00  0.00     0.058 A 
ATOM      4  S   UNL d   1      -0.165   0.699   0.491  0.00  0.00    -0.064 SA
ATOM      5  C   UNL d   1      -0.711  -0.066  -0.916  0.00  0.00     0.077 A 
ATOM      6 CL   UNL d   1       1.796  -0.534   2.291  0.00  0.00    -0.075 Cl
ATOM      7 CL   UNL d   1      -1.869   0.711  -1.916  0.00  0.00    -0.076 Cl
ENDROOT
BRANCH   1   8
ATOM      8  S   UNL d   1       1.621  -3.120   0.025  0.00  0.00     0.243 S 
ATOM      9  O   UNL d   1       1.270  -3.656   1.320  0.00  0.00    -0.206 OA
ATOM     10  O   UNL d   1       1.295  -3.814  -1.200  0.00  0.00    -0.206 OA
BRANCH   8  11
ATOM     11  N   UNL d   1       3.279  -2.819   0.040  0.00  0.00    -0.216 NA
ATOM     12  H   UNL d   1       3.732  -3.501   0.651  0.00  0.00     0.139 HD
BRANCH  11  13
ATOM     13  C   UNL d   1       3.931  -2.651  -1.271  0.00  0.00     0.100 C 
ATOM     14  C   UNL d   1       5.408  -2.364  -1.061  0.00  0.00     0.021 C 
ENDBRANCH  11  13
ENDBRANCH   8  11
ENDBRANCH   1   8
TORSDOF 3
