REMARK  10 active torsions:
REMARK  status: ('A' for Active; 'I' for Inactive)
REMARK    1  A    between atoms: C_6  and  C_1 
REMARK    2  A    between atoms: C_7  and  C_2 
REMARK    3  A    between atoms: C_8  and  N_3 
REMARK    4  A    between atoms: O_9  and  C_4 
REMARK    5  A    between atoms: O_10  and  C_5 
REMARK    6  A    between atoms: O_16  and  C_6 
REMARK    7  A    between atoms: O_15  and  C_7 
REMARK    8  A    between atoms: C_22  and  O_15 
REMARK    9  A    between atoms: C_21  and  O_16 
REMARK   10  A    between atoms: O_20  and  C_17 
ROOT
ATOM      1  C   UNL d   1      -0.190  -1.235  -0.008  0.00  0.00     0.152 A 
ATOM      2  C   UNL d   1       1.015   0.709  -0.015  0.00  0.00     0.152 A 
ATOM      3  N   UNL d   1       1.113  -0.694  -0.016  0.00  0.00    -0.296 N 
ATOM      4  C   UNL d   1      -1.060  -0.167   0.010  0.00  0.00     0.135 A 
ATOM      5  C   UNL d   1      -0.330   1.011  -0.027  0.00  0.00     0.135 A 
ENDROOT
BRANCH   3   6
ATOM      6  C   UNL d   1       2.332  -1.450  -0.033  0.00  0.00     0.040 A 
ATOM      7  C   UNL d   1       2.444  -2.646   0.690  0.00  0.00     0.033 A 
ATOM      8  C   UNL d   1       3.603  -3.430   0.604  0.00  0.00     0.039 A 
ATOM      9  C   UNL d   1       4.675  -3.013  -0.180  0.00  0.00     0.068 A 
ATOM     10  C   UNL d   1       4.579  -1.809  -0.877  0.00  0.00     0.039 A 
ATOM     11  C   UNL d   1       3.420  -1.026  -0.805  0.00  0.00     0.033 A 
BRANCH   9  12
ATOM     12  O   UNL d   1       5.840  -3.704  -0.371  0.00  0.00    -0.356 OA
ATOM     13  C   UNL d   1       6.162  -4.679   0.614  0.00  0.00     0.210 C 
ENDBRANCH   9  12
ENDBRANCH   3   6
BRANCH   2  14
ATOM     14  C   UNL d   1       2.096   1.650   0.146  0.00  0.00     0.313 C 
ATOM     15  O   UNL d   1       3.097   1.480   0.827  0.00  0.00    -0.257 OA
BRANCH  14  16
ATOM     16  O   UNL d   1       1.806   2.803  -0.524  0.00  0.00    -0.317 OA
BRANCH  16  17
ATOM     17  C   UNL d   1       2.558   3.959  -0.136  0.00  0.00     0.175 C 
ATOM     18  C   UNL d   1       1.921   4.575   1.097  0.00  0.00     0.034 C 
ENDBRANCH  16  17
ENDBRANCH  14  16
ENDBRANCH   2  14
BRANCH   1  19
ATOM     19  C   UNL d   1      -0.544  -2.635  -0.098  0.00  0.00     0.313 C 
ATOM     20  O   UNL d   1       0.076  -3.517  -0.670  0.00  0.00    -0.257 OA
BRANCH  19  21
ATOM     21  O   UNL d   1      -1.732  -2.830   0.554  0.00  0.00    -0.317 OA
BRANCH  21  22
ATOM     22  C   UNL d   1      -2.182  -4.193   0.640  0.00  0.00     0.175 C 
ATOM     23  C   UNL d   1      -1.524  -4.892   1.815  0.00  0.00     0.034 C 
ENDBRANCH  21  22
ENDBRANCH  19  21
ENDBRANCH   1  19
BRANCH   5  24
ATOM     24  O   UNL d   1      -0.848   2.248   0.009  0.00  0.00    -0.356 OA
ATOM     25  H   UNL d   1      -1.822   2.175  -0.000  0.00  0.00     0.218 HD
ENDBRANCH   5  24
BRANCH   4  26
ATOM     26  O   UNL d   1      -2.404  -0.231   0.035  0.00  0.00    -0.356 OA
ATOM     27  H   UNL d   1      -2.697  -1.154   0.155  0.00  0.00     0.218 HD
ENDBRANCH   4  26
TORSDOF 10
