REMARK  11 active torsions:
REMARK  status: ('A' for Active; 'I' for Inactive)
REMARK    1  A    between atoms: N_2  and  S_1 
REMARK    2  A    between atoms: C_3  and  S_1 
REMARK    3  A    between atoms: C_6  and  N_2 
REMARK    4  A    between atoms: C_4  and  C_9 
REMARK    5  A    between atoms: C_5  and  C_8 
REMARK    6  A    between atoms: C_7  and  C_6 
REMARK    7  A    between atoms: C_31  and  C_6 
REMARK       I    between atoms: N_20  and  C_7 
REMARK    8  A    between atoms: C_15  and  C_19 
REMARK    9  A    between atoms: N_16  and  N_20 
REMARK   10  A    between atoms: C_33  and  C_31 
REMARK   11  A    between atoms: S_32  and  C_33 
ROOT
ATOM      1  N   UNL d   1       0.799   0.750  -1.492  0.00  0.00    -0.301 N 
ATOM      2  H   UNL d   1       0.809   0.273  -0.595  0.00  0.00     0.173 HD
ENDROOT
BRANCH   1   3
ATOM      3  S   UNL d   1       1.037  -0.286  -2.804  0.00  0.00     0.259 S 
ATOM      4  O   UNL d   1       1.130   0.453  -4.034  0.00  0.00    -0.201 OA
ATOM      5  O   UNL d   1       0.065  -1.347  -2.633  0.00  0.00    -0.201 OA
BRANCH   3   6
ATOM      6  C   UNL d   1       2.628  -1.030  -2.493  0.00  0.00     0.081 A 
ATOM      7  C   UNL d   1       2.681  -2.229  -1.774  0.00  0.00     0.041 A 
ATOM      8  C   UNL d   1       3.884  -2.941  -1.672  0.00  0.00     0.050 A 
ATOM      9  C   UNL d   1       5.037  -2.413  -2.279  0.00  0.00     0.032 A 
ATOM     10  C   UNL d   1       4.993  -1.212  -3.013  0.00  0.00     0.050 A 
ATOM     11  C   UNL d   1       3.772  -0.532  -3.125  0.00  0.00     0.041 A 
BRANCH   8  12
ATOM     12  C   UNL d   1       3.936  -4.288  -0.984  0.00  0.00     0.417 C 
ATOM     13  F   UNL d   1       2.737  -4.679  -0.472  0.00  0.00    -0.166 F 
ATOM     14  F   UNL d   1       4.331  -5.282  -1.824  0.00  0.00    -0.166 F 
ATOM     15  F   UNL d   1       4.810  -4.300   0.059  0.00  0.00    -0.166 F 
ENDBRANCH   8  12
BRANCH  10  16
ATOM     16  C   UNL d   1       6.235  -0.714  -3.720  0.00  0.00     0.417 C 
ATOM     17  F   UNL d   1       6.056   0.441  -4.412  0.00  0.00    -0.166 F 
ATOM     18  F   UNL d   1       7.264  -0.488  -2.858  0.00  0.00    -0.166 F 
ATOM     19  F   UNL d   1       6.701  -1.623  -4.622  0.00  0.00    -0.166 F 
ENDBRANCH  10  16
ENDBRANCH   3   6
ENDBRANCH   1   3
BRANCH   1  20
ATOM     20  C   UNL d   1       1.210   2.178  -1.527  0.00  0.00     0.187 C 
BRANCH  20  21
ATOM     21  C   UNL d   1       2.701   2.315  -1.805  0.00  0.00     0.259 C 
ATOM     22  N   UNL d   1       3.500   1.928  -0.728  0.00  0.00    -0.269 N 
ATOM     23  H   UNL d   1       3.112   1.662   0.170  0.00  0.00     0.190 HD
ATOM     24  O   UNL d   1       3.147   2.686  -2.885  0.00  0.00    -0.269 OA
BRANCH  22  25
ATOM     25  N   UNL d   1       4.844   2.058  -0.877  0.00  0.00    -0.308 N 
ATOM     26  C   UNL d   1       5.620   1.663   0.079  0.00  0.00     0.126 C 
ATOM     27  HN  UNL d   1       5.234   2.460  -1.729  1.00  0.00     0.186 HD
BRANCH  26  28
ATOM     28  C   UNL d   1       7.040   1.854  -0.074  0.00  0.00     0.021 A 
ATOM     29  S   UNL d   1       8.120   1.271   1.110  0.00  0.00    -0.101 SA
ATOM     30  C   UNL d   1       9.477   1.870   0.252  0.00  0.00     0.050 A 
ATOM     31  C   UNL d   1       9.112   2.501  -0.916  0.00  0.00     0.008 A 
ATOM     32  C   UNL d   1       7.703   2.488  -1.107  0.00  0.00     0.021 A 
ENDBRANCH  26  28
ENDBRANCH  22  25
ENDBRANCH  20  21
BRANCH  20  33
ATOM     33  C   UNL d   1       0.290   2.965  -2.479  0.00  0.00     0.045 C 
BRANCH  33  34
ATOM     34  C   UNL d   1       0.682   4.428  -2.695  0.00  0.00     0.076 C 
BRANCH  34  35
ATOM     35  S   UNL d   1      -0.500   5.260  -3.816  0.00  0.00    -0.173 SA
ATOM     36  C   UNL d   1      -0.040   4.486  -5.397  0.00  0.00     0.089 C 
ENDBRANCH  34  35
ENDBRANCH  33  34
ENDBRANCH  20  33
ENDBRANCH   1  20
TORSDOF 11
