REMARK  5 active torsions:
REMARK  status: ('A' for Active; 'I' for Inactive)
REMARK    1  A    between atoms: C_7  and  C_1 
REMARK    2  A    between atoms: O_11  and  C_6 
REMARK    3  A    between atoms: C_8  and  C_9 
REMARK       I    between atoms: N_10  and  C_8 
REMARK    4  A    between atoms: C_9  and  O_11 
REMARK    5  A    between atoms: C_13  and  N_10 
ROOT
ATOM      1  C   UNL d   1       3.802   1.055  -0.072  0.00  0.00     0.143 C 
ATOM      2  C   UNL d   1       3.914   0.489  -1.504  0.00  0.00     0.057 C 
ATOM      3  C   UNL d   1       4.661   2.352  -0.112  0.00  0.00     0.057 C 
ENDROOT
BRANCH   1   4
ATOM      4  C   UNL d   1       4.402   0.065   0.990  0.00  0.00     0.258 C 
ATOM      5  N   UNL d   1       3.886  -1.222   1.145  0.00  0.00    -0.320 N 
ATOM      6  C   UNL d   1       3.033  -1.933   0.202  0.00  0.00     0.159 C 
ATOM      7  O   UNL d   1       5.318   0.468   1.724  0.00  0.00    -0.270 OA
BRANCH   5   8
ATOM      8  C   UNL d   1       4.324  -1.999   2.257  0.00  0.00     0.036 A 
ATOM      9  C   UNL d   1       3.928  -1.630   3.547  0.00  0.00     0.029 A 
ATOM     10  C   UNL d   1       4.274  -2.424   4.641  0.00  0.00     0.002 A 
ATOM     11  C   UNL d   1       5.040  -3.573   4.452  0.00  0.00     0.000 A 
ATOM     12  C   UNL d   1       5.452  -3.935   3.170  0.00  0.00     0.002 A 
ATOM     13  C   UNL d   1       5.079  -3.160   2.068  0.00  0.00     0.029 A 
ENDBRANCH   5   8
ENDBRANCH   1   4
BRANCH   1  14
ATOM     14  O   UNL d   1       2.417   1.360   0.140  0.00  0.00    -0.314 OA
BRANCH  14  15
ATOM     15  C   UNL d   1       2.133   2.134   1.213  0.00  0.00     0.160 A 
ATOM     16  C   UNL d   1       2.656   2.180   2.507  0.00  0.00     0.093 A 
ATOM     17  C   UNL d   1       2.000   3.221   3.138  0.00  0.00     0.138 A 
ATOM     18  N   UNL d   1       1.120   3.709   2.205  0.00  0.00    -0.290 N 
ATOM     19  N   UNL d   1       1.164   3.029   1.036  0.00  0.00    -0.278 N 
ATOM     20  C   UNL d   1       0.192   4.814   2.283  0.00  0.00     0.178 C 
ATOM     21  HN  UNL d   1       0.586   3.170   0.208  1.00  0.00     0.189 HD
BRANCH  17  22
ATOM     22  C   UNL d   1       2.204   3.733   4.506  0.00  0.00     0.434 C 
ATOM     23  F   UNL d   1       1.326   4.691   4.885  0.00  0.00    -0.165 F 
ATOM     24  F   UNL d   1       2.099   2.735   5.420  0.00  0.00    -0.165 F 
ATOM     25  F   UNL d   1       3.444   4.264   4.649  0.00  0.00    -0.165 F 
ENDBRANCH  17  22
ENDBRANCH  14  15
ENDBRANCH   1  14
TORSDOF 5
