REMARK  2 active torsions:
REMARK  status: ('A' for Active; 'I' for Inactive)
REMARK    1  A    between atoms: C_6  and  C_1 
REMARK    2  A    between atoms: S_7  and  C_2 
ROOT
ATOM      1  C   UNL d   1       1.333  -0.124   0.024  0.00  0.00     0.039 A 
ATOM      2  C   UNL d   1       0.441  -1.170   0.233  0.00  0.00     0.055 A 
ATOM      3  S   UNL d   1      -1.185  -0.628   0.272  0.00  0.00    -0.093 SA
ATOM      4  C   UNL d   1       0.636   1.153  -0.060  0.00  0.00    -0.040 A 
ATOM      5  C   UNL d   1      -0.731   0.991   0.034  0.00  0.00     0.058 A 
ATOM      6  C   UNL d   1       1.284   2.495  -0.207  0.00  0.00     0.049 C 
ENDROOT
BRANCH   1   7
ATOM      7  C   UNL d   1       2.790  -0.259  -0.113  0.00  0.00     0.158 C 
ATOM      8  O   UNL d   1       3.382   0.303  -1.036  0.00  0.00    -0.293 OA
ATOM      9  C   UNL d   1       3.577  -1.037   0.909  0.00  0.00     0.097 C 
ENDBRANCH   1   7
BRANCH   2  10
ATOM     10  S   UNL d   1       0.745  -2.893   0.463  0.00  0.00    -0.126 SA
ATOM     11  C   UNL d   1       1.555  -3.348  -1.083  0.00  0.00     0.096 C 
ENDBRANCH   2  10
TORSDOF 2
