REMARK  7 active torsions:
REMARK  status: ('A' for Active; 'I' for Inactive)
REMARK       I    between atoms: N_2  and  C_1 
REMARK    1  A    between atoms: C_12  and  C_1 
REMARK    2  A    between atoms: C_3  and  N_2 
REMARK    3  A    between atoms: C_8  and  C_4 
REMARK    4  A    between atoms: C_7  and  C_15 
REMARK    5  A    between atoms: O_16  and  C_7 
REMARK    6  A    between atoms: C_9  and  C_12 
REMARK    7  A    between atoms: C_15  and  C_9 
ROOT
ATOM      1  C   UNL d   1       0.974  -0.604  -0.021  0.00  0.00     0.222 C 
ATOM      2  N   UNL d   1       0.148  -0.778  -1.133  0.00  0.00    -0.327 N 
ATOM      3  O   UNL d   1       2.128  -1.029   0.065  0.00  0.00    -0.273 OA
ATOM      4  H   UNL d   1      -0.571  -0.080  -1.270  0.00  0.00     0.169 HD
ENDROOT
BRANCH   2   5
ATOM      5  C   UNL d   1       0.630  -1.459  -2.289  0.00  0.00     0.040 C 
ATOM      6  C   UNL d   1       0.427  -0.946  -3.575  0.00  0.00    -0.035 C 
ATOM      7  C   UNL d   1       1.239  -1.435  -4.629  0.00  0.00     0.017 C 
ATOM      8  C   UNL d   1      -0.556   0.152  -3.858  0.00  0.00     0.050 C 
ATOM      9  C   UNL d   1       2.163  -2.484  -4.444  0.00  0.00    -0.050 C 
ATOM     10  C   UNL d   1       2.112  -3.149  -3.214  0.00  0.00     0.010 C 
ATOM     11  C   UNL d   1       1.378  -2.628  -2.146  0.00  0.00     0.030 C 
BRANCH   9  12
ATOM     12  C   UNL d   1       3.189  -2.880  -5.525  0.00  0.00    -0.024 C 
ATOM     13  C   UNL d   1       2.532  -3.827  -6.542  0.00  0.00     0.019 C 
ATOM     14  C   UNL d   1       3.743  -1.643  -6.274  0.00  0.00     0.019 C 
ATOM     15  C   UNL d   1       4.433  -3.590  -4.929  0.00  0.00     0.019 C 
ENDBRANCH   9  12
ENDBRANCH   2   5
BRANCH   1  16
ATOM     16  C   UNL d   1       0.338   0.138   1.148  0.00  0.00     0.112 C 
BRANCH  16  17
ATOM     17  C   UNL d   1       1.228   1.177   1.910  0.00  0.00    -0.030 C 
ATOM     18  C   UNL d   1       0.427   1.663   3.143  0.00  0.00     0.016 C 
ATOM     19  C   UNL d   1       2.537   0.571   2.473  0.00  0.00     0.016 C 
BRANCH  17  20
ATOM     20  C   UNL d   1       1.665   2.367   1.017  0.00  0.00     0.119 C 
BRANCH  20  21
ATOM     21  C   UNL d   1       0.577   3.183   0.356  0.00  0.00     0.140 C 
ATOM     22  O   UNL d   1      -0.627   3.029   0.510  0.00  0.00    -0.650 OA
BRANCH  21  23
ATOM     23  O   UNL d   1       1.083   4.132  -0.464  0.00  0.00    -0.776 OA
ATOM     24  H   UNL d   1       2.055   4.141  -0.501  0.00  0.00     0.167 HD
ENDBRANCH  21  23
ENDBRANCH  20  21
ENDBRANCH  17  20
ENDBRANCH  16  17
ENDBRANCH   1  16
TORSDOF 7
