REMARK  5 active torsions:
REMARK  status: ('A' for Active; 'I' for Inactive)
REMARK    1  A    between atoms: C_9  and  C_5 
REMARK    2  A    between atoms: N_7  and  C_10 
REMARK    3  A    between atoms: N_8  and  C_16 
REMARK       I    between atoms: N_13  and  C_9 
REMARK    4  A    between atoms: C_11  and  C_18 
REMARK    5  A    between atoms: C_17  and  N_13 
ROOT
ATOM      1  C   UNL d   1      -0.531   0.895   0.056  0.00  0.00     0.005 A 
ATOM      2  C   UNL d   1      -1.017  -0.446   0.127  0.00  0.00     0.029 A 
ATOM      3  C   UNL d   1       1.316  -0.571  -0.060  0.00  0.00     0.028 A 
ATOM      4  C   UNL d   1       0.930   0.789  -0.107  0.00  0.00    -0.010 A 
ATOM      5  C   UNL d   1      -1.495   1.911   0.091  0.00  0.00     0.046 A 
ATOM      6  C   UNL d   1       0.113  -1.382   0.096  0.00  0.00     0.194 A 
ATOM      7  C   UNL d   1      -3.281   0.166   0.123  0.00  0.00     0.104 A 
ATOM      8  C   UNL d   1      -2.341  -0.846   0.154  0.00  0.00     0.052 A 
ATOM      9  C   UNL d   1      -2.870   1.515   0.116  0.00  0.00     0.054 A 
ATOM     10  C   UNL d   1       2.599  -1.063  -0.232  0.00  0.00     0.052 A 
ATOM     11  C   UNL d   1       3.591  -0.118  -0.475  0.00  0.00     0.103 A 
ATOM     12  C   UNL d   1       1.934   1.698  -0.385  0.00  0.00     0.016 A 
ATOM     13  O   UNL d   1       0.058  -2.590   0.160  0.00  0.00    -0.287 OA
ATOM     14  C   UNL d   1       3.266   1.253  -0.550  0.00  0.00     0.037 A 
ENDROOT
BRANCH   5  15
ATOM     15  C   UNL d   1      -1.357   3.406   0.070  0.00  0.00     0.257 C 
ATOM     16  N   UNL d   1      -0.337   4.029   0.773  0.00  0.00    -0.321 N 
ATOM     17  H   UNL d   1       0.551   3.555   0.792  0.00  0.00     0.169 HD
ATOM     18  O   UNL d   1      -2.223   4.040  -0.532  0.00  0.00    -0.267 OA
BRANCH  16  19
ATOM     19  C   UNL d   1      -0.284   5.457   0.775  0.00  0.00     0.057 A 
ATOM     20  C   UNL d   1      -1.262   6.180   1.486  0.00  0.00     0.047 A 
ATOM     21  C   UNL d   1      -1.228   7.589   1.536  0.00  0.00     0.050 A 
ATOM     22  C   UNL d   1      -0.221   8.270   0.836  0.00  0.00     0.018 A 
ATOM     23  C   UNL d   1       0.738   7.561   0.113  0.00  0.00     0.027 A 
ATOM     24  C   UNL d   1       0.721   6.164   0.101  0.00  0.00     0.060 A 
ATOM     25 CL   UNL d   1       1.920   5.371  -0.848  0.00  0.00    -0.082 Cl
BRANCH  21  26
ATOM     26  C   UNL d   1      -2.212   8.381   2.366  0.00  0.00     0.417 C 
ATOM     27  F   UNL d   1      -3.354   7.699   2.662  0.00  0.00    -0.166 F 
ATOM     28  F   UNL d   1      -1.681   8.754   3.565  0.00  0.00    -0.166 F 
ATOM     29  F   UNL d   1      -2.609   9.534   1.762  0.00  0.00    -0.166 F 
ENDBRANCH  21  26
ENDBRANCH  16  19
ENDBRANCH   5  15
BRANCH   7  30
ATOM     30  N   UNL d   1      -4.709  -0.174   0.070  0.00  0.00    -0.116 N 
ATOM     31  O   UNL d   1      -5.010  -1.373  -0.002  0.00  0.00    -0.532 OA
ATOM     32  O   UNL d   1      -5.521   0.758   0.093  0.00  0.00    -0.532 OA
ENDBRANCH   7  30
BRANCH  11  33
ATOM     33  N   UNL d   1       4.970  -0.566  -0.696  0.00  0.00    -0.116 N 
ATOM     34  O   UNL d   1       5.250  -1.734  -0.397  0.00  0.00    -0.532 OA
ATOM     35  O   UNL d   1       5.767   0.255  -1.172  0.00  0.00    -0.532 OA
ENDBRANCH  11  33
TORSDOF 5
