REMARK  6 active torsions:
REMARK  status: ('A' for Active; 'I' for Inactive)
REMARK    1  A    between atoms: C_8  and  N_3 
REMARK    2  A    between atoms: S_10  and  C_7 
REMARK    3  A    between atoms: C_18  and  S_10 
REMARK    4  A    between atoms: C_11  and  C_18 
REMARK       I    between atoms: N_14  and  C_11 
REMARK       I    between atoms: C_12  and  N_13 
REMARK    5  A    between atoms: N_13  and  C_15 
REMARK    6  A    between atoms: C_19  and  N_14 
ROOT
ATOM      1  N   UNL d   1      -0.245  -1.367   0.257  0.00  0.00    -0.259 N 
ATOM      2  HN  UNL d   1      -0.425  -2.354   0.077  1.00  0.00     0.191 HD
ATOM      3  N   UNL d   1       0.912  -0.663   0.166  0.00  0.00    -0.178 N 
ATOM      4  N   UNL d   1       0.766   0.668   0.375  0.00  0.00     0.003 NA
ATOM      5  N   UNL d   1      -0.513   0.836   0.683  0.00  0.00    -0.261 N 
ATOM      6  HN  UNL d   1      -0.979   1.716   0.903  1.00  0.00     0.186 HD
ATOM      7  C   UNL d   1      -1.081  -0.403   0.648  0.00  0.00     0.174 A 
ENDROOT
BRANCH   7   8
ATOM      8  S   UNL d   1      -2.736  -0.722   1.075  0.00  0.00    -0.082 SA
BRANCH   8   9
ATOM      9  C   UNL d   1      -2.645  -2.478   1.535  0.00  0.00     0.185 C 
BRANCH   9  10
ATOM     10  C   UNL d   1      -1.709  -2.701   2.720  0.00  0.00     0.231 C 
ATOM     11  N   UNL d   1      -0.640  -3.536   2.427  0.00  0.00    -0.327 N 
ATOM     12  H   UNL d   1      -0.498  -3.769   1.448  0.00  0.00     0.169 HD
ATOM     13  O   UNL d   1      -1.926  -2.168   3.806  0.00  0.00    -0.272 OA
BRANCH  11  14
ATOM     14  C   UNL d   1       0.396  -3.934   3.300  0.00  0.00     0.034 A 
ATOM     15  C   UNL d   1       0.388  -3.719   4.678  0.00  0.00     0.029 A 
ATOM     16  C   UNL d   1       1.482  -4.104   5.462  0.00  0.00     0.002 A 
ATOM     17  C   UNL d   1       2.592  -4.707   4.877  0.00  0.00     0.000 A 
ATOM     18  C   UNL d   1       2.599  -4.952   3.508  0.00  0.00     0.002 A 
ATOM     19  C   UNL d   1       1.499  -4.581   2.732  0.00  0.00     0.029 A 
ENDBRANCH  11  14
ENDBRANCH   9  10
ENDBRANCH   8   9
ENDBRANCH   7   8
BRANCH   3  20
ATOM     20  C   UNL d   1       2.160  -1.288  -0.060  0.00  0.00     0.075 A 
ATOM     21  C   UNL d   1       2.198  -2.668  -0.325  0.00  0.00     0.062 A 
ATOM     22  C   UNL d   1       3.415  -3.330  -0.487  0.00  0.00     0.036 A 
ATOM     23  C   UNL d   1       4.600  -2.589  -0.392  0.00  0.00     0.029 A 
ATOM     24  C   UNL d   1       4.567  -1.212  -0.149  0.00  0.00     0.005 A 
ATOM     25  C   UNL d   1       3.348  -0.555   0.015  0.00  0.00     0.033 A 
BRANCH  22  26
ATOM     26  N   UNL d   1       3.527  -4.716  -0.732  0.00  0.00    -0.327 N 
ATOM     27  C   UNL d   1       2.497  -5.636  -0.844  0.00  0.00     0.218 C 
ATOM     28  O   UNL d   1       1.297  -5.409  -0.744  0.00  0.00    -0.274 OA
ATOM     29  C   UNL d   1       2.991  -7.045  -1.055  0.00  0.00     0.117 C 
ATOM     30  H   UNL d   1       4.470  -5.073  -0.826  0.00  0.00     0.169 HD
ENDBRANCH  22  26
ENDBRANCH   3  20
TORSDOF 6
