REMARK  4 active torsions:
REMARK  status: ('A' for Active; 'I' for Inactive)
REMARK    1  A    between atoms: C_7  and  C_1 
REMARK    2  A    between atoms: C_11  and  C_5 
REMARK       I    between atoms: N_9  and  C_7 
REMARK       I    between atoms: C_8  and  N_10 
REMARK    3  A    between atoms: C_12  and  C_8 
REMARK    4  A    between atoms: N_10  and  N_9 
ROOT
ATOM      1  C   UNL d   1      -0.140  -1.101  -0.005  0.00  0.00     0.098 A 
ATOM      2  S   UNL d   1       1.397  -0.339  -0.076  0.00  0.00    -0.064 SA
ATOM      3  N   UNL d   1      -0.663   1.185  -0.044  0.00  0.00    -0.352 N 
ATOM      4  HN  UNL d   1      -1.263   2.009  -0.073  1.00  0.00     0.166 HD
ATOM      5  C   UNL d   1       0.654   1.219  -0.050  0.00  0.00     0.085 A 
ATOM      6  C   UNL d   1      -1.126  -0.124   0.008  0.00  0.00     0.029 A 
ATOM      7  C   UNL d   1      -2.599  -0.333   0.073  0.00  0.00     0.070 C 
ENDROOT
BRANCH   1   8
ATOM      8  C   UNL d   1      -0.318  -2.545   0.052  0.00  0.00     0.279 C 
ATOM      9  N   UNL d   1       0.815  -3.335  -0.057  0.00  0.00    -0.263 N 
ATOM     10  H   UNL d   1       1.748  -2.962  -0.225  0.00  0.00     0.190 HD
ATOM     11  O   UNL d   1      -1.422  -3.083   0.190  0.00  0.00    -0.265 OA
BRANCH   9  12
ATOM     12  N   UNL d   1       0.688  -4.739  -0.007  0.00  0.00    -0.267 N 
ATOM     13  C   UNL d   1       1.828  -5.505  -0.146  0.00  0.00     0.243 C 
ATOM     14  O   UNL d   1       2.931  -4.969  -0.275  0.00  0.00    -0.271 OA
ATOM     15  H   UNL d   1      -0.251  -5.111   0.120  0.00  0.00     0.190 HD
BRANCH  13  16
ATOM     16  C   UNL d   1       1.632  -7.038  -0.164  0.00  0.00     0.032 C 
ATOM     17  C   UNL d   1       0.748  -7.441  -1.353  0.00  0.00     0.025 C 
ATOM     18  C   UNL d   1       3.006  -7.717  -0.319  0.00  0.00     0.025 C 
ATOM     19  C   UNL d   1       0.992  -7.538   1.139  0.00  0.00     0.025 C 
ENDBRANCH  13  16
ENDBRANCH   9  12
ENDBRANCH   1   8
BRANCH   5  20
ATOM     20  C   UNL d   1       1.440   2.470  -0.067  0.00  0.00    -0.002 A 
ATOM     21  C   UNL d   1       0.867   3.637  -0.609  0.00  0.00     0.016 A 
ATOM     22  C   UNL d   1       1.570   4.849  -0.633  0.00  0.00     0.024 A 
ATOM     23  C   UNL d   1       2.854   4.912  -0.103  0.00  0.00     0.034 A 
ATOM     24  C   UNL d   1       3.437   3.778   0.456  0.00  0.00     0.024 A 
ATOM     25 CL   UNL d   1       3.723   6.397  -0.126  0.00  0.00    -0.084 Cl
ATOM     26  C   UNL d   1       2.733   2.566   0.475  0.00  0.00     0.016 A 
ENDBRANCH   5  20
TORSDOF 4
