REMARK  7 active torsions:
REMARK  status: ('A' for Active; 'I' for Inactive)
REMARK    1  A    between atoms: N_5  and  C_1 
REMARK    2  A    between atoms: C_3  and  C_2 
REMARK       I    between atoms: N_6  and  C_3 
REMARK    3  A    between atoms: O_30  and  C_4 
REMARK       I    between atoms: C_8  and  N_6 
REMARK       I    between atoms: N_17  and  C_8 
REMARK    4  A    between atoms: C_9  and  C_13 
REMARK    5  A    between atoms: C_10  and  C_14 
REMARK    6  A    between atoms: O_32  and  C_11 
REMARK    7  A    between atoms: C_16  and  N_17 
ROOT
ATOM      1  C   UNL d   1       3.382  -2.526  -0.858  0.00  0.00     0.265 C 
ATOM      2  N   UNL d   1       4.252  -2.194  -1.884  0.00  0.00    -0.275 N 
ATOM      3  C   UNL d   1       5.616  -2.364  -1.862  0.00  0.00     0.327 C 
ATOM      4  N   UNL d   1       6.093  -3.461  -1.192  0.00  0.00    -0.309 N 
ATOM      5  O   UNL d   1       3.373  -3.602  -0.274  0.00  0.00    -0.267 OA
ATOM      6  O   UNL d   1       6.288  -1.501  -2.423  0.00  0.00    -0.247 OA
ATOM      7  H   UNL d   1       4.082  -1.301  -2.328  0.00  0.00     0.173 HD
ATOM      8  H   UNL d   1       5.386  -4.133  -0.904  0.00  0.00     0.170 HD
ENDROOT
BRANCH   1   9
ATOM      9  C   UNL d   1       2.395  -1.449  -0.543  0.00  0.00     0.102 A 
ATOM     10  C   UNL d   1       2.910  -0.281   0.038  0.00  0.00     0.119 A 
ATOM     11  C   UNL d   1       2.079   0.824   0.186  0.00  0.00     0.138 A 
ATOM     12  C   UNL d   1       0.716   0.733  -0.094  0.00  0.00     0.061 A 
ATOM     13  C   UNL d   1       0.178  -0.473  -0.573  0.00  0.00     0.048 A 
ATOM     14  C   UNL d   1       1.016  -1.573  -0.857  0.00  0.00     0.104 A 
ATOM     15 BR   UNL d   1      -1.724  -0.446  -0.696  0.00  0.00    -0.048 Br
BRANCH  10  16
ATOM     16  O   UNL d   1       4.215  -0.242   0.448  0.00  0.00    -0.352 OA
ATOM     17  C   UNL d   1       4.316  -0.562   1.844  0.00  0.00     0.210 C 
ENDBRANCH  10  16
BRANCH  11  18
ATOM     18  N   UNL d   1       2.614   2.096   0.635  0.00  0.00    -0.113 N 
ATOM     19  O   UNL d   1       3.602   2.543   0.045  0.00  0.00    -0.532 OA
ATOM     20  O   UNL d   1       2.006   2.659   1.556  0.00  0.00    -0.532 OA
ENDBRANCH  11  18
BRANCH  14  21
ATOM     21  O   UNL d   1       0.672  -2.788  -1.380  0.00  0.00    -0.353 OA
ATOM     22  C   UNL d   1      -0.511  -2.940  -2.153  0.00  0.00     0.210 C 
ENDBRANCH  14  21
ENDBRANCH   1   9
BRANCH   4  23
ATOM     23  C   UNL d   1       7.455  -3.778  -0.962  0.00  0.00     0.037 A 
ATOM     24  C   UNL d   1       8.501  -2.876  -1.190  0.00  0.00     0.045 A 
ATOM     25  C   UNL d   1       9.842  -3.221  -0.944  0.00  0.00     0.050 A 
ATOM     26  C   UNL d   1      10.133  -4.502  -0.461  0.00  0.00     0.032 A 
ATOM     27  C   UNL d   1       9.104  -5.426  -0.213  0.00  0.00     0.050 A 
ATOM     28  C   UNL d   1       7.767  -5.049  -0.466  0.00  0.00     0.045 A 
BRANCH  25  29
ATOM     29  C   UNL d   1      10.933  -2.204  -1.185  0.00  0.00     0.417 C 
ATOM     30  F   UNL d   1      12.185  -2.698  -0.972  0.00  0.00    -0.166 F 
ATOM     31  F   UNL d   1      10.936  -1.724  -2.458  0.00  0.00    -0.166 F 
ATOM     32  F   UNL d   1      10.820  -1.119  -0.370  0.00  0.00    -0.166 F 
ENDBRANCH  25  29
BRANCH  27  33
ATOM     33  C   UNL d   1       9.453  -6.807   0.287  0.00  0.00     0.417 C 
ATOM     34  F   UNL d   1      10.390  -6.782   1.276  0.00  0.00    -0.166 F 
ATOM     35  F   UNL d   1       8.390  -7.486   0.799  0.00  0.00    -0.166 F 
ATOM     36  F   UNL d   1       9.969  -7.597  -0.694  0.00  0.00    -0.166 F 
ENDBRANCH  27  33
ENDBRANCH   4  23
TORSDOF 7
