REMARK  7 active torsions:
REMARK  status: ('A' for Active; 'I' for Inactive)
REMARK    1  A    between atoms: N_2  and  C_1 
REMARK    2  A    between atoms: C_7  and  C_14 
REMARK       I    between atoms: N_9  and  C_7 
REMARK    3  A    between atoms: C_14  and  N_8 
REMARK    4  A    between atoms: C_24  and  N_9 
REMARK    5  A    between atoms: C_10  and  C_11 
REMARK    6  A    between atoms: C_28  and  C_17 
REMARK    7  A    between atoms: C_29  and  C_28 
ROOT
ATOM      1  N   UNL d   1       0.559   2.593  -0.223  0.00  0.00    -0.214 N 
ATOM      2  N   UNL d   1       0.962   5.534   0.031  0.00  0.00     0.100 N 
ATOM      3  C   UNL d   1      -0.060   3.308   0.893  0.00  0.00     0.171 C 
ATOM      4  C   UNL d   1       1.843   3.155  -0.644  0.00  0.00     0.171 C 
ATOM      5  C   UNL d   1      -0.249   4.800   0.498  0.00  0.00     0.293 C 
ATOM      6  C   UNL d   1       1.691   4.675  -0.946  0.00  0.00     0.293 C 
ENDROOT
BRANCH   2   7
ATOM      7  C   UNL d   1       1.773   5.924   1.201  0.00  0.00     0.375 C 
BRANCH   7   8
ATOM      8  C   UNL d   1       2.982   6.811   0.874  0.00  0.00     0.250 C 
ATOM      9  N   UNL d   1       2.790   7.769  -0.110  0.00  0.00    -0.326 N 
ATOM     10  H   UNL d   1       1.929   7.673  -0.637  0.00  0.00     0.169 HD
ATOM     11  O   UNL d   1       4.020   6.649   1.528  0.00  0.00    -0.271 OA
BRANCH   9  12
ATOM     12  C   UNL d   1       3.782   8.666  -0.590  0.00  0.00     0.034 A 
ATOM     13  C   UNL d   1       4.994   8.892   0.071  0.00  0.00     0.030 A 
ATOM     14  C   UNL d   1       6.010   9.652  -0.517  0.00  0.00     0.017 A 
ATOM     15  C   UNL d   1       5.827  10.207  -1.783  0.00  0.00     0.009 A 
ATOM     16  C   UNL d   1       4.579  10.089  -2.404  0.00  0.00     0.017 A 
ATOM     17  C   UNL d   1       3.559   9.332  -1.803  0.00  0.00     0.030 A 
BRANCH  15  18
ATOM     18  C   UNL d   1       6.993  10.862  -2.433  0.00  0.00     0.155 C 
ATOM     19  O   UNL d   1       7.821  11.455  -1.747  0.00  0.00    -0.293 OA
ATOM     20  C   UNL d   1       7.172  10.716  -3.923  0.00  0.00     0.096 C 
ENDBRANCH  15  18
ENDBRANCH   9  12
ENDBRANCH   7   8
ENDBRANCH   2   7
BRANCH   1  21
ATOM     21  C   UNL d   1       0.434   1.211  -0.215  0.00  0.00     0.679 A 
ATOM     22  N   UNL d   1      -0.563   0.656   0.498  0.00  0.00    -0.201 N 
ATOM     23  C   UNL d   1      -0.710  -0.686   0.459  0.00  0.00     0.114 A 
ATOM     24  HN  UNL d   1      -1.192   1.235   1.054  1.00  0.00     0.183 HD
ATOM     25  C   UNL d   1       0.108  -1.524  -0.258  0.00  0.00    -0.026 A 
ATOM     26  C   UNL d   1       1.084  -0.873  -0.972  0.00  0.00     0.114 A 
ATOM     27  N   UNL d   1       1.268   0.467  -0.962  0.00  0.00    -0.201 N 
ATOM     28  HN  UNL d   1       2.016   0.899  -1.504  1.00  0.00     0.183 HD
BRANCH  25  29
ATOM     29  C   UNL d   1      -0.052  -3.016  -0.244  0.00  0.00     0.041 C 
BRANCH  29  30
ATOM     30  C   UNL d   1       1.156  -3.712   0.391  0.00  0.00     0.000 C 
ATOM     31  C   UNL d   1       0.976  -5.219   0.467  0.00  0.00     0.005 C 
ENDBRANCH  29  30
ENDBRANCH  25  29
ENDBRANCH   1  21
TORSDOF 7
