REMARK  6 active torsions:
REMARK  status: ('A' for Active; 'I' for Inactive)
REMARK    1  A    between atoms: C_2  and  C_1 
REMARK       I    between atoms: C_3  and  N_4 
REMARK    2  A    between atoms: C_7  and  C_3 
REMARK    3  A    between atoms: N_4  and  N_5 
REMARK    4  A    between atoms: N_5  and  C_6 
REMARK    5  A    between atoms: C_19  and  C_16 
REMARK    6  A    between atoms: C_20  and  C_19 
ROOT
ATOM      1  C   UNL d   1       4.724  -0.396   0.656  0.00  0.00     0.266 C 
ATOM      2  N   UNL d   1       4.225  -0.061   1.906  0.00  0.00    -0.283 N 
ATOM      3  O   UNL d   1       4.388   0.137  -0.394  0.00  0.00    -0.266 OA
ATOM      4  H   UNL d   1       4.253  -0.756   2.649  0.00  0.00     0.184 HD
ENDROOT
BRANCH   2   5
ATOM      5  N   UNL d   1       3.127   0.810   1.958  0.00  0.00    -0.202 NA
ATOM      6  H   UNL d   1       3.119   1.441   1.144  0.00  0.00     0.153 HD
BRANCH   5   7
ATOM      7  C   UNL d   1       2.984   1.511   3.183  0.00  0.00     0.042 A 
ATOM      8  C   UNL d   1       1.749   2.093   3.528  0.00  0.00     0.070 A 
ATOM      9  C   UNL d   1       1.613   2.740   4.778  0.00  0.00     0.018 A 
ATOM     10  C   UNL d   1       2.684   2.842   5.661  0.00  0.00     0.001 A 
ATOM     11  C   UNL d   1       3.916   2.315   5.303  0.00  0.00     0.002 A 
ATOM     12  C   UNL d   1       4.065   1.666   4.075  0.00  0.00     0.026 A 
BRANCH   8  13
ATOM     13  C   UNL d   1       0.519   2.031   2.654  0.00  0.00     0.419 C 
ATOM     14  F   UNL d   1       0.696   1.519   1.406  0.00  0.00    -0.166 F 
ATOM     15  F   UNL d   1      -0.019   3.272   2.455  0.00  0.00    -0.166 F 
ATOM     16  F   UNL d   1      -0.480   1.295   3.222  0.00  0.00    -0.166 F 
ENDBRANCH   8  13
ENDBRANCH   5   7
ENDBRANCH   2   5
BRANCH   1  17
ATOM     17  C   UNL d   1       5.716  -1.502   0.683  0.00  0.00     0.033 A 
ATOM     18  C   UNL d   1       5.690  -2.481  -0.311  0.00  0.00     0.017 A 
ATOM     19  C   UNL d   1       6.597  -3.547  -0.258  0.00  0.00     0.008 A 
ATOM     20  C   UNL d   1       7.540  -3.633   0.776  0.00  0.00    -0.058 A 
ATOM     21  C   UNL d   1       7.584  -2.619   1.742  0.00  0.00     0.008 A 
ATOM     22  C   UNL d   1       6.673  -1.563   1.702  0.00  0.00     0.017 A 
BRANCH  20  23
ATOM     23  C   UNL d   1       8.509  -4.792   0.839  0.00  0.00     0.038 C 
BRANCH  23  24
ATOM     24  C   UNL d   1       8.441  -5.598   2.143  0.00  0.00     0.000 C 
ATOM     25  C   UNL d   1       7.099  -6.286   2.352  0.00  0.00     0.005 C 
ENDBRANCH  23  24
ENDBRANCH  20  23
ENDBRANCH   1  17
TORSDOF 6
