REMARK  4 active torsions:
REMARK  status: ('A' for Active; 'I' for Inactive)
REMARK    1  A    between atoms: C_3  and  S_1 
REMARK    2  A    between atoms: C_4  and  S_1 
REMARK    3  A    between atoms: N_2  and  C_5 
REMARK    4  A    between atoms: C_7  and  C_4 
ROOT
ATOM      1  S   UNL d   1       1.019  -0.069   0.077  0.00  0.00     0.180 S 
ATOM      2  O   UNL d   1       0.435  -1.389  -0.094  0.00  0.00    -0.222 OA
ATOM      3  O   UNL d   1       2.459   0.076   0.171  0.00  0.00    -0.222 OA
ENDROOT
BRANCH   1   4
ATOM      4  C   UNL d   1       0.336   0.603   1.600  0.00  0.00     0.066 A 
ATOM      5  C   UNL d   1      -0.492  -0.252   2.356  0.00  0.00     0.032 A 
ATOM      6  C   UNL d   1      -1.023   0.146   3.594  0.00  0.00    -0.039 A 
ATOM      7  C   UNL d   1      -1.852  -0.821   4.393  0.00  0.00     0.050 C 
ATOM      8  C   UNL d   1      -0.745   1.437   4.051  0.00  0.00     0.040 A 
ATOM      9  C   UNL d   1       0.080   2.287   3.308  0.00  0.00     0.032 A 
ATOM     10 CL   UNL d   1      -1.383   2.027   5.544  0.00  0.00    -0.084 Cl
ATOM     11  C   UNL d   1       0.662   1.880   2.090  0.00  0.00    -0.039 A 
ATOM     12  C   UNL d   1       1.569   2.871   1.417  0.00  0.00     0.050 C 
ENDBRANCH   1   4
BRANCH   1  13
ATOM     13  C   UNL d   1       0.367   0.968  -1.236  0.00  0.00     0.186 C 
BRANCH  13  14
ATOM     14  C   UNL d   1       0.932   0.477  -2.556  0.00  0.00    -0.022 A 
ATOM     15  C   UNL d   1       2.133   0.970  -3.099  0.00  0.00     0.043 A 
ATOM     16  C   UNL d   1       2.672   0.428  -4.270  0.00  0.00     0.060 A 
ATOM     17 CL   UNL d   1       2.994   2.277  -2.367  0.00  0.00    -0.084 Cl
ATOM     18  C   UNL d   1       2.004  -0.616  -4.919  0.00  0.00     0.104 A 
ATOM     19  C   UNL d   1       0.794  -1.104  -4.415  0.00  0.00     0.037 A 
ATOM     20  C   UNL d   1       0.266  -0.559  -3.240  0.00  0.00     0.012 A 
BRANCH  18  21
ATOM     21  N   UNL d   1       2.580  -1.207  -6.133  0.00  0.00    -0.116 N 
ATOM     22  O   UNL d   1       3.675  -0.775  -6.520  0.00  0.00    -0.532 OA
ATOM     23  O   UNL d   1       1.936  -2.100  -6.701  0.00  0.00    -0.532 OA
ENDBRANCH  18  21
ENDBRANCH  13  14
ENDBRANCH   1  13
TORSDOF 4
