REMARK  7 active torsions:
REMARK  status: ('A' for Active; 'I' for Inactive)
REMARK    1  A    between atoms: C_9  and  C_3 
REMARK    2  A    between atoms: C_10  and  C_4 
REMARK    3  A    between atoms: C_11  and  C_6 
REMARK    4  A    between atoms: O_19  and  C_10 
REMARK    5  A    between atoms: O_20  and  C_11 
REMARK    6  A    between atoms: C_22  and  O_19 
REMARK    7  A    between atoms: C_21  and  O_20 
ROOT
ATOM      1  C   UNL d   1       0.141   0.307   0.150  0.00  0.00     0.030 A 
ATOM      2  C   UNL d   1      -0.190  -0.988   0.265  0.00  0.00     0.060 A 
ATOM      3  C   UNL d   1       1.552   0.532   0.070  0.00  0.00     0.035 A 
ATOM      4  C   UNL d   1      -2.181   0.383   0.158  0.00  0.00     0.108 A 
ATOM      5  C   UNL d   1      -1.009   1.145   0.087  0.00  0.00     0.062 A 
ATOM      6  C   UNL d   1       2.201  -0.715   0.077  0.00  0.00     0.095 A 
ATOM      7  S   UNL d   1      -1.816  -1.307   0.352  0.00  0.00    -0.074 SA
ATOM      8  S   UNL d   1       1.091  -2.037   0.284  0.00  0.00    -0.075 SA
ATOM      9  N   UNL d   1      -0.997   2.484  -0.056  0.00  0.00    -0.397 N 
ATOM     10  H   UNL d   1      -1.843   3.048  -0.041  0.00  0.00     0.156 HD
ATOM     11  H   UNL d   1      -0.133   3.023  -0.011  0.00  0.00     0.156 HD
ENDROOT
BRANCH   3  12
ATOM     12  C   UNL d   1       2.264   1.865  -0.038  0.00  0.00     0.087 A 
ATOM     13  O   UNL d   1       1.646   3.082   0.134  0.00  0.00    -0.322 OA
ATOM     14  C   UNL d   1       2.579   4.059   0.023  0.00  0.00     0.142 A 
ATOM     15  C   UNL d   1       3.809   3.514  -0.240  0.00  0.00     0.027 A 
ATOM     16  C   UNL d   1       3.602   2.112  -0.303  0.00  0.00     0.040 A 
ENDBRANCH   3  12
BRANCH   6  17
ATOM     17  C   UNL d   1       3.595  -1.092  -0.020  0.00  0.00     0.301 C 
ATOM     18  O   UNL d   1       4.519  -0.596   0.606  0.00  0.00    -0.259 OA
BRANCH  17  19
ATOM     19  O   UNL d   1       3.725  -2.063  -0.963  0.00  0.00    -0.317 OA
BRANCH  19  20
ATOM     20  C   UNL d   1       5.051  -2.430  -1.359  0.00  0.00     0.174 C 
ATOM     21  C   UNL d   1       5.344  -1.748  -2.681  0.00  0.00     0.034 C 
ENDBRANCH  19  20
ENDBRANCH  17  19
ENDBRANCH   6  17
BRANCH   4  22
ATOM     22  C   UNL d   1      -3.596   0.702   0.067  0.00  0.00     0.302 C 
ATOM     23  O   UNL d   1      -4.514  -0.097   0.222  0.00  0.00    -0.259 OA
BRANCH  22  24
ATOM     24  O   UNL d   1      -3.793   2.007  -0.295  0.00  0.00    -0.317 OA
BRANCH  24  25
ATOM     25  C   UNL d   1      -5.136   2.317  -0.706  0.00  0.00     0.174 C 
ATOM     26  C   UNL d   1      -5.217   2.205  -2.218  0.00  0.00     0.034 C 
ENDBRANCH  24  25
ENDBRANCH  22  24
ENDBRANCH   4  22
TORSDOF 7
