REMARK  5 active torsions:
REMARK  status: ('A' for Active; 'I' for Inactive)
REMARK    1  A    between atoms: C_5  and  C_1 
REMARK    2  A    between atoms: N_9  and  C_2 
REMARK    3  A    between atoms: N_8  and  C_3 
REMARK       I    between atoms: C_4  and  N_6 
REMARK       I    between atoms: N_7  and  C_4 
REMARK    4  A    between atoms: N_6  and  C_5 
REMARK    5  A    between atoms: C_11  and  N_7 
ROOT
ATOM      1  C   UNL d   1       2.838  -0.695   0.319  0.00  0.00     0.167 C 
ENDROOT
BRANCH   1   2
ATOM      2  C   UNL d   1       1.399  -0.409  -0.149  0.00  0.00     0.007 A 
ATOM      3  C   UNL d   1       0.467  -1.505  -0.235  0.00  0.00     0.039 A 
ATOM      4  C   UNL d   1      -0.907  -1.203  -0.301  0.00  0.00     0.030 A 
ATOM      5  C   UNL d   1      -1.377   0.103  -0.308  0.00  0.00     0.004 A 
ATOM      6  C   UNL d   1      -0.476   1.158  -0.308  0.00  0.00     0.024 A 
ATOM      7  C   UNL d   1       0.916   0.947  -0.232  0.00  0.00     0.020 A 
BRANCH   3   8
ATOM      8  N   UNL d   1       0.875  -2.843  -0.221  0.00  0.00    -0.389 N 
ATOM      9  C   UNL d   1       0.025  -3.921   0.279  0.00  0.00     0.149 C 
ATOM     10  C   UNL d   1       1.833  -3.256  -1.249  0.00  0.00     0.149 C 
ENDBRANCH   3   8
BRANCH   7  11
ATOM     11  N   UNL d   1       1.803   2.059  -0.204  0.00  0.00    -0.291 NA
ATOM     12  C   UNL d   1       1.271   3.317   0.357  0.00  0.00     0.116 C 
ATOM     13  C   UNL d   1       2.417   2.285  -1.523  0.00  0.00     0.116 C 
ENDBRANCH   7  11
ENDBRANCH   1   2
BRANCH   1  14
ATOM     14  N   UNL d   1       3.922  -0.239  -0.540  0.00  0.00    -0.338 N 
ATOM     15  C   UNL d   1       4.605  -0.990  -1.450  0.00  0.00     0.320 C 
ATOM     16  N   UNL d   1       5.351  -0.296  -2.369  0.00  0.00    -0.309 N 
ATOM     17  O   UNL d   1       4.493  -2.204  -1.581  0.00  0.00    -0.247 OA
ATOM     18  H   UNL d   1       5.384  -0.775  -3.263  0.00  0.00     0.170 HD
ATOM     19  H   UNL d   1       4.098   0.751  -0.485  0.00  0.00     0.164 HD
BRANCH  16  20
ATOM     20  C   UNL d   1       5.795   1.020  -2.299  0.00  0.00     0.036 A 
ATOM     21  C   UNL d   1       6.399   1.520  -1.139  0.00  0.00     0.031 A 
ATOM     22  C   UNL d   1       6.788   2.855  -1.075  0.00  0.00     0.026 A 
ATOM     23  C   UNL d   1       6.553   3.709  -2.159  0.00  0.00     0.034 A 
ATOM     24  C   UNL d   1       5.985   3.212  -3.336  0.00  0.00     0.026 A 
ATOM     25 CL   UNL d   1       6.952   5.368  -2.055  0.00  0.00    -0.084 Cl
ATOM     26  C   UNL d   1       5.632   1.852  -3.416  0.00  0.00     0.031 A 
ENDBRANCH  16  20
ENDBRANCH   1  14
TORSDOF 5
