REMARK  2 active torsions:
REMARK  status: ('A' for Active; 'I' for Inactive)
REMARK    1  A    between atoms: C_4  and  C_2 
REMARK    2  A    between atoms: C_7  and  C_3 
REMARK       I    between atoms: N_11  and  C_4 
ROOT
ATOM      1  S   UNL d   1      -1.027  -0.014  -0.041  0.00  0.00    -0.083 SA
ATOM      2  C   UNL d   1       0.137   1.240  -0.055  0.00  0.00     0.073 A 
ATOM      3  C   UNL d   1       0.165  -1.247   0.032  0.00  0.00     0.032 A 
ATOM      4  C   UNL d   1       1.419   0.726  -0.059  0.00  0.00     0.026 A 
ATOM      5  C   UNL d   1       1.434  -0.699  -0.030  0.00  0.00     0.023 A 
ENDROOT
BRANCH   3   6
ATOM      6  C   UNL d   1      -0.212  -2.663   0.132  0.00  0.00     0.049 A 
ATOM      7  N   UNL d   1       0.665  -3.521  -0.444  0.00  0.00    -0.365 N 
ATOM      8  C   UNL d   1       0.393  -4.841  -0.350  0.00  0.00     0.088 A 
ATOM      9  HN  UNL d   1       1.497  -3.184  -0.929  1.00  0.00     0.165 HD
ATOM     10  C   UNL d   1      -0.711  -5.357   0.309  0.00  0.00     0.017 A 
ATOM     11  C   UNL d   1      -1.596  -4.466   0.901  0.00  0.00     0.004 A 
ATOM     12  C   UNL d   1      -1.348  -3.099   0.811  0.00  0.00     0.031 A 
ENDBRANCH   3   6
BRANCH   2  13
ATOM     13  C   UNL d   1      -0.241   2.644  -0.059  0.00  0.00     0.256 C 
ATOM     14  O   UNL d   1       0.564   3.573  -0.050  0.00  0.00    -0.267 OA
ATOM     15  N   UNL d   1      -1.579   2.924  -0.064  0.00  0.00    -0.366 N 
ATOM     16  H   UNL d   1      -2.275   2.194  -0.082  0.00  0.00     0.159 HD
ATOM     17  H   UNL d   1      -1.862   3.892  -0.064  0.00  0.00     0.159 HD
ENDBRANCH   2  13
TORSDOF 2
