REMARK  6 active torsions:
REMARK  status: ('A' for Active; 'I' for Inactive)
REMARK    1  A    between atoms: N_2  and  S_1 
REMARK    2  A    between atoms: C_4  and  S_1 
REMARK    3  A    between atoms: C_3  and  N_8 
REMARK    4  A    between atoms: N_7  and  C_3 
REMARK    5  A    between atoms: N_12  and  N_7 
REMARK    6  A    between atoms: N_8  and  C_13 
ROOT
ATOM      1  C   UNL d   1       0.839   0.311  -1.782  0.00  0.00     0.079 A 
ATOM      2  C   UNL d   1       0.981  -0.844  -2.555  0.00  0.00     0.027 A 
ATOM      3  C   UNL d   1       0.251   1.454  -2.335  0.00  0.00     0.027 A 
ATOM      4  C   UNL d   1      -0.134   0.250  -4.414  0.00  0.00     0.034 A 
ATOM      5  C   UNL d   1      -0.252   1.412  -3.642  0.00  0.00     0.031 A 
ATOM      6  C   UNL d   1       0.521  -0.863  -3.878  0.00  0.00     0.031 A 
ENDROOT
BRANCH   1   7
ATOM      7  S   UNL d   1       1.134   0.228  -0.015  0.00  0.00     0.260 S 
ATOM      8  O   UNL d   1       0.385   1.303   0.592  0.00  0.00    -0.200 OA
ATOM      9  O   UNL d   1       0.910  -1.149   0.382  0.00  0.00    -0.200 OA
BRANCH   7  10
ATOM     10  N   UNL d   1       2.797   0.568   0.174  0.00  0.00    -0.307 N 
ATOM     11  C   UNL d   1       3.200   1.970  -0.084  0.00  0.00     0.135 C 
ATOM     12  C   UNL d   1       4.621   2.221   0.414  0.00  0.00     0.021 C 
ATOM     13  C   UNL d   1       5.597   1.222  -0.192  0.00  0.00     0.003 C 
ATOM     14  C   UNL d   1       5.153  -0.196   0.145  0.00  0.00     0.021 C 
ATOM     15  C   UNL d   1       3.733  -0.457  -0.348  0.00  0.00     0.135 C 
ENDBRANCH   7  10
ENDBRANCH   1   7
BRANCH   4  16
ATOM     16  N   UNL d   1      -0.831   0.171  -5.635  0.00  0.00    -0.332 N 
ATOM     17  H   UNL d   1      -1.684   0.712  -5.721  0.00  0.00     0.168 HD
BRANCH  16  18
ATOM     18  C   UNL d   1      -0.497  -0.499  -6.789  0.00  0.00     0.186 C 
ATOM     19  S   UNL d   1       1.042  -0.883  -7.319  0.00  0.00    -0.040 SA
BRANCH  18  20
ATOM     20  N   UNL d   1      -1.571  -0.803  -7.613  0.00  0.00    -0.296 N 
ATOM     21  H   UNL d   1      -1.317  -1.288  -8.472  0.00  0.00     0.183 HD
BRANCH  20  22
ATOM     22  N   UNL d   1      -2.848  -1.069  -7.052  0.00  0.00    -0.238 NA
ATOM     23  C   UNL d   1      -3.904  -0.400  -7.816  0.00  0.00     0.135 C 
ATOM     24  C   UNL d   1      -3.101  -2.520  -7.033  0.00  0.00     0.135 C 
ENDBRANCH  20  22
ENDBRANCH  18  20
ENDBRANCH  16  18
ENDBRANCH   4  16
TORSDOF 6
