REMARK  2 active torsions:
REMARK  status: ('A' for Active; 'I' for Inactive)
REMARK    1  A    between atoms: N_2  and  C_1 
REMARK    2  A    between atoms: N_7  and  C_5 
ROOT
ATOM      1  C   UNL d   1       0.431  -1.127  -0.125  0.00  0.00     0.103 A 
ATOM      2  N   UNL d   1      -0.908  -1.317  -0.133  0.00  0.00    -0.355 N 
ATOM      3  HN  UNL d   1      -1.309  -2.249  -0.242  1.00  0.00     0.166 HD
ATOM      4  C   UNL d   1       1.003   0.171  -0.046  0.00  0.00     0.044 A 
ATOM      5  C   UNL d   1      -1.696  -0.228   0.009  0.00  0.00     0.089 A 
ATOM      6  C   UNL d   1       0.156   1.259   0.156  0.00  0.00     0.028 A 
ATOM      7  C   UNL d   1      -1.219   1.062   0.165  0.00  0.00     0.019 A 
ENDROOT
BRANCH   1   8
ATOM      8  N   UNL d   1       1.309  -2.233  -0.264  0.00  0.00    -0.264 NA
ATOM      9  C   UNL d   1       0.662  -3.399  -0.903  0.00  0.00     0.123 C 
ATOM     10  C   UNL d   1       1.720  -4.501  -1.083  0.00  0.00     0.182 C 
ATOM     11  O   UNL d   1       2.303  -4.886   0.176  0.00  0.00    -0.389 OA
ATOM     12  C   UNL d   1       2.895  -3.747   0.828  0.00  0.00     0.182 C 
ATOM     13  C   UNL d   1       1.867  -2.623   1.053  0.00  0.00     0.123 C 
ENDBRANCH   1   8
BRANCH   4  14
ATOM     14  N   UNL d   1       2.407   0.354   0.006  0.00  0.00    -0.300 NA
ATOM     15  H   UNL d   1       2.845  -0.454  -0.440  0.00  0.00     0.124 HD
ATOM     16  H   UNL d   1       2.701   1.232  -0.410  0.00  0.00     0.124 HD
ENDBRANCH   4  14
TORSDOF 2
