REMARK  4 active torsions:
REMARK  status: ('A' for Active; 'I' for Inactive)
REMARK    1  A    between atoms: N_6  and  N_1 
REMARK    2  A    between atoms: C_11  and  C_2 
REMARK    3  A    between atoms: C_3  and  N_6 
REMARK    4  A    between atoms: O_16  and  C_11 
ROOT
ATOM      1  N   UNL d   1       3.192   0.086  -0.154  0.00  0.00    -0.286 N 
ATOM      2  H   UNL d   1       3.219  -0.554  -0.958  0.00  0.00     0.188 HD
ENDROOT
BRANCH   1   3
ATOM      3  C   UNL d   1       4.021   1.173  -0.145  0.00  0.00     0.078 A 
ATOM      4  C   UNL d   1       4.865   1.441  -1.216  0.00  0.00     0.108 A 
ATOM      5  S   UNL d   1       5.710   2.913  -0.993  0.00  0.00    -0.093 SA
ATOM      6  C   UNL d   1       5.016   3.158   0.537  0.00  0.00     0.059 A 
ATOM      7  C   UNL d   1       4.167   2.135   0.922  0.00  0.00    -0.026 A 
ATOM      8  C   UNL d   1       3.523   2.125   2.271  0.00  0.00     0.051 C 
BRANCH   4   9
ATOM      9  C   UNL d   1       5.035   0.640  -2.419  0.00  0.00     0.302 C 
ATOM     10  O   UNL d   1       4.423  -0.400  -2.650  0.00  0.00    -0.259 OA
BRANCH   9  11
ATOM     11  O   UNL d   1       5.970   1.172  -3.260  0.00  0.00    -0.322 OA
ATOM     12  C   UNL d   1       6.198   0.414  -4.448  0.00  0.00     0.213 C 
ENDBRANCH   9  11
ENDBRANCH   4   9
ENDBRANCH   1   3
BRANCH   1  13
ATOM     13  N   UNL d   1       1.987  -0.014   0.538  0.00  0.00    -0.181 N 
ATOM     14  C   UNL d   1       1.047   0.987   0.607  0.00  0.00     0.280 C 
ATOM     15  C   UNL d   1      -0.047   0.419   1.394  0.00  0.00     0.050 A 
ATOM     16  O   UNL d   1       1.018   2.109   0.144  0.00  0.00    -0.265 OA
ATOM     17  C   UNL d   1      -1.177   1.032   1.901  0.00  0.00     0.018 A 
ATOM     18  C   UNL d   1       0.220  -0.927   1.597  0.00  0.00     0.050 A 
ATOM     19  C   UNL d   1      -2.067   0.229   2.616  0.00  0.00     0.001 A 
ATOM     20  C   UNL d   1      -1.821  -1.149   2.791  0.00  0.00     0.001 A 
ATOM     21  C   UNL d   1      -0.662  -1.744   2.279  0.00  0.00     0.018 A 
ATOM     22  C   UNL d   1       1.524  -1.222   0.998  0.00  0.00     0.280 C 
ATOM     23  O   UNL d   1       2.010  -2.337   0.928  0.00  0.00    -0.265 OA
ENDBRANCH   1  13
TORSDOF 4
