REMARK  6 active torsions:
REMARK  status: ('A' for Active; 'I' for Inactive)
REMARK    1  A    between atoms: S_10  and  C_1 
REMARK    2  A    between atoms: C_11  and  C_4 
REMARK    3  A    between atoms: C_13  and  C_5 
REMARK    4  A    between atoms: C_9  and  C_12 
REMARK    5  A    between atoms: C_22  and  S_10 
REMARK    6  A    between atoms: C_24  and  C_22 
ROOT
ATOM      1  C   UNL d   1       0.973  -1.269  -0.111  0.00  0.00     0.087 A 
ATOM      2  N   UNL d   1       1.641  -0.091  -0.093  0.00  0.00    -0.336 N 
ATOM      3  HN  UNL d   1       2.661  -0.065  -0.119  1.00  0.00     0.168 HD
ATOM      4  C   UNL d   1      -0.413  -1.338  -0.073  0.00  0.00     0.065 A 
ATOM      5  C   UNL d   1       0.923   1.040  -0.042  0.00  0.00     0.116 A 
ATOM      6  N   UNL d   1      -0.418   1.065  -0.002  0.00  0.00    -0.345 N 
ATOM      7  HN  UNL d   1      -0.925   1.949   0.044  1.00  0.00     0.167 HD
ATOM      8  C   UNL d   1      -1.078  -0.118  -0.024  0.00  0.00     0.023 A 
ATOM      9  C   UNL d   1      -2.574   0.003   0.032  0.00  0.00     0.069 C 
ENDROOT
BRANCH   5  10
ATOM     10  C   UNL d   1       1.640   2.329  -0.018  0.00  0.00     0.008 A 
ATOM     11  C   UNL d   1       3.037   2.402  -0.182  0.00  0.00     0.016 A 
ATOM     12  C   UNL d   1       3.717   3.626  -0.159  0.00  0.00     0.017 A 
ATOM     13  C   UNL d   1       3.019   4.824   0.034  0.00  0.00     0.048 A 
ATOM     14  C   UNL d   1       1.631   4.773   0.198  0.00  0.00     0.017 A 
ATOM     15  C   UNL d   1       0.958   3.546   0.168  0.00  0.00     0.016 A 
BRANCH  13  16
ATOM     16  C   UNL d   1       3.733   6.155   0.073  0.00  0.00     0.417 C 
ATOM     17  F   UNL d   1       5.079   6.059  -0.121  0.00  0.00    -0.166 F 
ATOM     18  F   UNL d   1       3.281   7.017  -0.879  0.00  0.00    -0.166 F 
ATOM     19  F   UNL d   1       3.573   6.796   1.264  0.00  0.00    -0.166 F 
ENDBRANCH  13  16
ENDBRANCH   5  10
BRANCH   1  20
ATOM     20  S   UNL d   1       2.093  -2.652  -0.123  0.00  0.00    -0.107 SA
BRANCH  20  21
ATOM     21  C   UNL d   1       1.782  -3.339  -1.778  0.00  0.00     0.119 C 
BRANCH  21  22
ATOM     22  C   UNL d   1       2.687  -4.486  -2.189  0.00  0.00    -0.049 A 
ATOM     23  C   UNL d   1       3.429  -5.270  -1.292  0.00  0.00     0.008 A 
ATOM     24  C   UNL d   1       4.216  -6.333  -1.747  0.00  0.00     0.001 A 
ATOM     25  C   UNL d   1       4.259  -6.644  -3.101  0.00  0.00     0.000 A 
ATOM     26  C   UNL d   1       3.513  -5.894  -4.005  0.00  0.00     0.001 A 
ATOM     27  C   UNL d   1       2.734  -4.826  -3.553  0.00  0.00     0.008 A 
ENDBRANCH  21  22
ENDBRANCH  20  21
ENDBRANCH   1  20
BRANCH   4  28
ATOM     28  C   UNL d   1      -1.191  -2.596  -0.145  0.00  0.00     0.160 C 
ATOM     29  O   UNL d   1      -2.091  -2.681  -0.978  0.00  0.00    -0.293 OA
ATOM     30  C   UNL d   1      -0.907  -3.728   0.805  0.00  0.00     0.097 C 
ENDBRANCH   4  28
TORSDOF 6
