REMARK  1 active torsions:
REMARK  status: ('A' for Active; 'I' for Inactive)
REMARK    1  A    between atoms: C_3  and  C_1 
REMARK       I    between atoms: N_10  and  C_3 
ROOT
ATOM      1  C   UNL d   1       1.353  -1.736   0.009  0.00  0.00     0.067 A 
ATOM      2  C   UNL d   1       2.193  -0.628   0.022  0.00  0.00     0.090 A 
ATOM      3  C   UNL d   1       1.693   0.670   0.032  0.00  0.00    -0.020 A 
ATOM      4  C   UNL d   1      -0.032  -1.498   0.001  0.00  0.00     0.039 A 
ATOM      5  O   UNL d   1       3.569  -0.660   0.054  0.00  0.00    -0.349 OA
ATOM      6  C   UNL d   1       0.331   0.913   0.034  0.00  0.00     0.029 A 
ATOM      7  C   UNL d   1      -0.530  -0.185   0.014  0.00  0.00     0.012 A 
ATOM      8 BR   UNL d   1      -2.400   0.102   0.014  0.00  0.00    -0.051 Br
ATOM      9  C   UNL d   1       3.970   0.702  -0.214  0.00  0.00     0.180 C 
ATOM     10  C   UNL d   1       2.810   1.638   0.113  0.00  0.00     0.068 C 
ENDROOT
BRANCH   1  11
ATOM     11  C   UNL d   1       1.833  -3.149  -0.003  0.00  0.00     0.254 C 
ATOM     12  O   UNL d   1       1.024  -4.070  -0.011  0.00  0.00    -0.268 OA
ATOM     13  N   UNL d   1       3.196  -3.339  -0.007  0.00  0.00    -0.361 N 
ATOM     14  C   UNL d   1       3.814  -4.640  -0.021  0.00  0.00     0.149 C 
ATOM     15  H   UNL d   1       3.796  -2.521   0.011  0.00  0.00     0.162 HD
ENDBRANCH   1  11
TORSDOF 1
