REMARK  2 active torsions:
REMARK  status: ('A' for Active; 'I' for Inactive)
REMARK    1  A    between atoms: C_5  and  C_3 
REMARK    2  A    between atoms: C_6  and  C_4 
ROOT
ATOM      1  N   UNL d   1       1.181   0.133   0.221  0.00  0.00    -0.316 N 
ATOM      2  HN  UNL d   1       2.151   0.241   0.516  1.00  0.00     0.169 HD
ATOM      3  C   UNL d   1       0.245   1.109  -0.040  0.00  0.00     0.157 A 
ATOM      4  C   UNL d   1       0.504  -0.980  -0.006  0.00  0.00     0.200 A 
ATOM      5  N   UNL d   1      -0.964   0.647  -0.382  0.00  0.00    -0.241 N 
ATOM      6  HN  UNL d   1      -1.806   1.179  -0.599  1.00  0.00     0.196 HD
ATOM      7  O   UNL d   1      -0.795  -0.737  -0.369  0.00  0.00    -0.215 OA
ENDROOT
BRANCH   3   8
ATOM      8  C   UNL d   1       0.616   2.527   0.008  0.00  0.00     0.103 A 
ATOM      9  N   UNL d   1      -0.235   3.539  -0.208  0.00  0.00    -0.257 N 
ATOM     10  O   UNL d   1       0.531   4.691  -0.133  0.00  0.00    -0.242 OA
ATOM     11  HN  UNL d   1      -1.236   3.475  -0.390  1.00  0.00     0.195 HD
ATOM     12  C   UNL d   1       1.825   4.359   0.125  0.00  0.00     0.074 A 
ATOM     13  C   UNL d   1       1.927   2.995   0.246  0.00  0.00     0.070 A 
ATOM     14  C   UNL d   1       2.783   5.475   0.194  0.00  0.00     0.079 C 
ENDBRANCH   3   8
BRANCH   4  15
ATOM     15  C   UNL d   1       1.088  -2.348   0.101  0.00  0.00     0.110 A 
ATOM     16  N   UNL d   1       0.400  -3.454  -0.212  0.00  0.00    -0.257 N 
ATOM     17  O   UNL d   1       1.271  -4.508   0.002  0.00  0.00    -0.242 OA
ATOM     18  HN  UNL d   1      -0.565  -3.507  -0.539  1.00  0.00     0.195 HD
ATOM     19  C   UNL d   1       2.462  -4.029   0.451  0.00  0.00     0.075 A 
ATOM     20  C   UNL d   1       2.398  -2.660   0.526  0.00  0.00     0.070 A 
ATOM     21  C   UNL d   1       3.501  -5.032   0.744  0.00  0.00     0.079 C 
ENDBRANCH   4  15
TORSDOF 2
