REMARK  6 active torsions:
REMARK  status: ('A' for Active; 'I' for Inactive)
REMARK    1  A    between atoms: S_2  and  C_1 
REMARK    2  A    between atoms: N_10  and  S_2 
REMARK    3  A    between atoms: C_4  and  C_11 
REMARK    4  A    between atoms: N_15  and  C_8 
REMARK    5  A    between atoms: N_14  and  C_9 
REMARK    6  A    between atoms: C_11  and  N_10 
ROOT
ATOM      1  C   UNL d   1       1.744  -3.213   2.495  0.00  0.00     0.175 C 
ENDROOT
BRANCH   1   2
ATOM      2  C   UNL d   1       1.282  -4.002   3.719  0.00  0.00     0.013 A 
ATOM      3  C   UNL d   1       1.131  -5.427   3.621  0.00  0.00     0.039 A 
ATOM      4  C   UNL d   1       1.004  -6.154   4.816  0.00  0.00     0.030 A 
ATOM      5  C   UNL d   1       1.005  -5.530   6.057  0.00  0.00     0.005 A 
ATOM      6  C   UNL d   1       1.082  -4.144   6.138  0.00  0.00     0.030 A 
ATOM      7  C   UNL d   1       1.205  -3.341   4.993  0.00  0.00     0.039 A 
BRANCH   3   8
ATOM      8  N   UNL d   1       1.180  -6.089   2.383  0.00  0.00    -0.389 N 
ATOM      9  C   UNL d   1       1.625  -7.483   2.315  0.00  0.00     0.149 C 
ATOM     10  C   UNL d   1       0.093  -5.772   1.452  0.00  0.00     0.149 C 
ENDBRANCH   3   8
BRANCH   7  11
ATOM     11  N   UNL d   1       1.336  -1.941   5.111  0.00  0.00    -0.389 N 
ATOM     12  C   UNL d   1       1.830  -1.388   6.377  0.00  0.00     0.149 C 
ATOM     13  C   UNL d   1       0.246  -1.145   4.537  0.00  0.00     0.149 C 
ENDBRANCH   7  11
ENDBRANCH   1   2
BRANCH   1  14
ATOM     14  N   UNL d   1       0.660  -2.759   1.603  0.00  0.00    -0.311 N 
ATOM     15  H   UNL d   1      -0.216  -2.535   2.066  0.00  0.00     0.172 HD
BRANCH  14  16
ATOM     16  S   UNL d   1       1.051  -1.636   0.428  0.00  0.00     0.261 S 
ATOM     17  O   UNL d   1       2.334  -1.039   0.723  0.00  0.00    -0.200 OA
ATOM     18  O   UNL d   1      -0.129  -0.834   0.199  0.00  0.00    -0.200 OA
BRANCH  16  19
ATOM     19  C   UNL d   1       1.285  -2.472  -1.056  0.00  0.00     0.110 A 
ATOM     20  C   UNL d   1       0.326  -3.226  -1.687  0.00  0.00     0.099 A 
ATOM     21  S   UNL d   1       0.882  -3.926  -3.134  0.00  0.00    -0.064 SA
ATOM     22 CL   UNL d   1      -1.298  -3.544  -1.212  0.00  0.00    -0.075 Cl
ATOM     23  C   UNL d   1       2.400  -3.216  -2.936  0.00  0.00     0.077 A 
ATOM     24  C   UNL d   1       2.518  -2.466  -1.796  0.00  0.00     0.059 A 
ATOM     25 CL   UNL d   1       3.630  -3.485  -4.112  0.00  0.00    -0.076 Cl
ENDBRANCH  16  19
ENDBRANCH  14  16
ENDBRANCH   1  14
TORSDOF 6
