REMARK  5 active torsions:
REMARK  status: ('A' for Active; 'I' for Inactive)
REMARK    1  A    between atoms: C_2  and  C_1 
REMARK    2  A    between atoms: S_4  and  C_3 
REMARK    3  A    between atoms: C_13  and  S_4 
REMARK    4  A    between atoms: C_5  and  C_13 
REMARK       I    between atoms: N_8  and  C_5 
REMARK    5  A    between atoms: C_14  and  N_8 
ROOT
ATOM      1  S   UNL d   1      -1.721   0.100   1.220  0.00  0.00    -0.102 SA
ENDROOT
BRANCH   1   2
ATOM      2  C   UNL d   1      -2.749   0.556  -0.168  0.00  0.00     0.085 A 
ATOM      3  C   UNL d   1      -4.032   0.052  -0.363  0.00  0.00     0.081 A 
ATOM      4  C   UNL d   1      -4.683   0.377  -1.571  0.00  0.00     0.020 A 
ATOM      5  C   UNL d   1      -4.069   1.197  -2.508  0.00  0.00     0.018 A 
ATOM      6  C   UNL d   1      -2.815   1.680  -2.207  0.00  0.00     0.089 A 
ATOM      7  N   UNL d   1      -2.150   1.371  -1.073  0.00  0.00    -0.360 N 
ATOM      8  HN  UNL d   1      -1.216   1.742  -0.900  1.00  0.00     0.166 HD
BRANCH   3   9
ATOM      9  C   UNL d   1      -4.785  -0.797   0.620  0.00  0.00     0.420 C 
ATOM     10  F   UNL d   1      -4.194  -1.015   1.824  0.00  0.00    -0.166 F 
ATOM     11  F   UNL d   1      -5.072  -2.031   0.119  0.00  0.00    -0.166 F 
ATOM     12  F   UNL d   1      -5.995  -0.242   0.926  0.00  0.00    -0.166 F 
ENDBRANCH   3   9
ENDBRANCH   1   2
BRANCH   1  13
ATOM     13  C   UNL d   1      -0.662   1.571   1.387  0.00  0.00     0.184 C 
BRANCH  13  14
ATOM     14  C   UNL d   1      -1.380   2.813   1.891  0.00  0.00     0.231 C 
ATOM     15  N   UNL d   1      -2.587   2.612   2.530  0.00  0.00    -0.327 N 
ATOM     16  H   UNL d   1      -2.789   1.661   2.824  0.00  0.00     0.169 HD
ATOM     17  O   UNL d   1      -0.822   3.912   1.799  0.00  0.00    -0.272 OA
BRANCH  15  18
ATOM     18  C   UNL d   1      -3.478   3.623   2.942  0.00  0.00     0.034 A 
ATOM     19  C   UNL d   1      -3.479   4.900   2.372  0.00  0.00     0.031 A 
ATOM     20  C   UNL d   1      -4.388   5.870   2.803  0.00  0.00     0.026 A 
ATOM     21  C   UNL d   1      -5.291   5.567   3.817  0.00  0.00     0.034 A 
ATOM     22  C   UNL d   1      -5.306   4.297   4.388  0.00  0.00     0.026 A 
ATOM     23 CL   UNL d   1      -6.397   6.766   4.362  0.00  0.00    -0.084 Cl
ATOM     24  C   UNL d   1      -4.414   3.318   3.936  0.00  0.00     0.031 A 
ENDBRANCH  15  18
ENDBRANCH  13  14
ENDBRANCH   1  13
TORSDOF 5
