REMARK  5 active torsions:
REMARK  status: ('A' for Active; 'I' for Inactive)
REMARK    1  A    between atoms: C_2  and  C_1 
REMARK    2  A    between atoms: C_11  and  C_5 
REMARK       I    between atoms: C_9  and  N_10 
REMARK    3  A    between atoms: N_10  and  C_17 
REMARK    4  A    between atoms: O_16  and  C_11 
REMARK    5  A    between atoms: C_19  and  O_16 
ROOT
ATOM      1  C   UNL d   1      -0.610   3.060  -4.492  0.00  0.00     0.234 C 
ENDROOT
BRANCH   1   2
ATOM      2  C   UNL d   1       0.152   2.132  -3.567  0.00  0.00     0.055 A 
ATOM      3  N   UNL d   1      -0.039   0.795  -3.776  0.00  0.00    -0.365 N 
ATOM      4  C   UNL d   1       0.639  -0.079  -2.997  0.00  0.00     0.104 A 
ATOM      5  HN  UNL d   1      -0.677   0.465  -4.501  1.00  0.00     0.165 HD
ATOM      6  C   UNL d   1       1.518   0.302  -1.997  0.00  0.00     0.064 A 
ATOM      7  C   UNL d   1       1.684   1.672  -1.773  0.00  0.00     0.043 A 
ATOM      8  C   UNL d   1       0.993   2.601  -2.556  0.00  0.00     0.059 A 
ATOM      9 CL   UNL d   1       1.211   4.275  -2.212  0.00  0.00    -0.082 Cl
BRANCH   6  10
ATOM     10  C   UNL d   1       2.244  -0.745  -1.211  0.00  0.00     0.418 C 
ATOM     11  F   UNL d   1       3.111  -0.232  -0.296  0.00  0.00    -0.166 F 
ATOM     12  F   UNL d   1       2.982  -1.571  -2.002  0.00  0.00    -0.166 F 
ATOM     13  F   UNL d   1       1.399  -1.553  -0.513  0.00  0.00    -0.166 F 
ENDBRANCH   6  10
ENDBRANCH   1   2
BRANCH   1  14
ATOM     14  O   UNL d   1       0.303   3.889  -5.216  0.00  0.00    -0.345 OA
BRANCH  14  15
ATOM     15  C   UNL d   1      -0.242   4.763  -6.115  0.00  0.00     0.069 A 
ATOM     16  C   UNL d   1       0.533   5.888  -6.399  0.00  0.00     0.039 A 
ATOM     17  C   UNL d   1       0.111   6.826  -7.349  0.00  0.00     0.032 A 
ATOM     18  C   UNL d   1      -1.089   6.645  -8.045  0.00  0.00     0.034 A 
ATOM     19  C   UNL d   1      -1.865   5.522  -7.752  0.00  0.00     0.032 A 
ATOM     20  C   UNL d   1      -1.445   4.586  -6.793  0.00  0.00     0.039 A 
BRANCH  18  21
ATOM     21  N   UNL d   1      -1.430   7.608  -9.020  0.00  0.00    -0.328 N 
ATOM     22  C   UNL d   1      -2.537   7.609  -9.848  0.00  0.00     0.218 C 
ATOM     23  O   UNL d   1      -3.445   6.782  -9.863  0.00  0.00    -0.274 OA
ATOM     24  C   UNL d   1      -2.564   8.773 -10.810  0.00  0.00     0.117 C 
ATOM     25  H   UNL d   1      -0.769   8.367  -9.136  0.00  0.00     0.169 HD
ENDBRANCH  18  21
ENDBRANCH  14  15
ENDBRANCH   1  14
TORSDOF 5
