REMARK  3 active torsions:
REMARK  status: ('A' for Active; 'I' for Inactive)
REMARK       I    between atoms: C_9  and  N_2 
REMARK    1  A    between atoms: S_20  and  C_7 
REMARK    2  A    between atoms: C_14  and  C_9 
REMARK    3  A    between atoms: C_10  and  C_15 
ROOT
ATOM      1  C   UNL d   1      -0.730  -0.677   0.012  0.00  0.00     0.069 A 
ATOM      2  N   UNL d   1      -2.777  -1.248   0.061  0.00  0.00    -0.230 N 
ATOM      3  N   UNL d   1      -1.513  -1.746   0.094  0.00  0.00    -0.290 N 
ATOM      4  HN  UNL d   1      -1.230  -2.723   0.166  1.00  0.00     0.187 HD
ATOM      5  C   UNL d   1       0.736  -0.650   0.011  0.00  0.00     0.023 A 
ATOM      6  C   UNL d   1      -1.456   0.531  -0.081  0.00  0.00    -0.011 A 
ATOM      7  C   UNL d   1       1.639  -1.685  -0.129  0.00  0.00     0.053 A 
ATOM      8  C   UNL d   1      -2.773   0.138  -0.029  0.00  0.00     0.129 A 
ATOM      9  C   UNL d   1      -3.882  -2.126   0.141  0.00  0.00     0.276 C 
ATOM     10  C   UNL d   1       1.370   0.643   0.143  0.00  0.00    -0.037 A 
ATOM     11  S   UNL d   1       3.251  -1.094  -0.110  0.00  0.00    -0.093 SA
ATOM     12  C   UNL d   1       2.743   0.528   0.079  0.00  0.00     0.059 A 
ATOM     13  C   UNL d   1      -0.824   1.870  -0.262  0.00  0.00     0.047 C 
ATOM     14  O   UNL d   1      -3.730  -3.299  -0.199  0.00  0.00    -0.265 OA
ATOM     15  C   UNL d   1       0.592   1.922   0.346  0.00  0.00     0.045 C 
ENDROOT
BRANCH   9  16
ATOM     16  C   UNL d   1      -5.222  -1.722   0.630  0.00  0.00     0.035 A 
ATOM     17  C   UNL d   1      -6.364  -2.332   0.093  0.00  0.00     0.033 A 
ATOM     18  C   UNL d   1      -7.637  -2.024   0.597  0.00  0.00     0.048 A 
ATOM     19  C   UNL d   1      -7.745  -1.097   1.649  0.00  0.00     0.016 A 
ATOM     20  C   UNL d   1      -6.606  -0.507   2.197  0.00  0.00     0.002 A 
ATOM     21  C   UNL d   1      -5.346  -0.823   1.699  0.00  0.00     0.017 A 
BRANCH  18  22
ATOM     22  C   UNL d   1      -8.882  -2.678   0.048  0.00  0.00     0.417 C 
ATOM     23  F   UNL d   1      -8.639  -3.558  -0.961  0.00  0.00    -0.166 F 
ATOM     24  F   UNL d   1      -9.565  -3.373   0.997  0.00  0.00    -0.166 F 
ATOM     25  F   UNL d   1      -9.762  -1.768  -0.455  0.00  0.00    -0.166 F 
ENDBRANCH  18  22
ENDBRANCH   9  16
BRANCH   7  26
ATOM     26  S   UNL d   1       1.330  -3.399  -0.388  0.00  0.00    -0.126 SA
ATOM     27  C   UNL d   1       1.176  -3.973   1.318  0.00  0.00     0.096 C 
ENDBRANCH   7  26
TORSDOF 3
