REMARK  4 active torsions:
REMARK  status: ('A' for Active; 'I' for Inactive)
REMARK    1  A    between atoms: C_5  and  C_1 
REMARK    2  A    between atoms: C_7  and  C_2 
REMARK       I    between atoms: N_10  and  C_7 
REMARK    3  A    between atoms: C_21  and  N_10 
REMARK    4  A    between atoms: C_20  and  C_21 
ROOT
ATOM      1  C   UNL d   1       0.267  -0.062  -0.369  0.00  0.00     0.086 A 
ATOM      2  C   UNL d   1      -0.294  -1.357  -0.046  0.00  0.00     0.092 A 
ATOM      3  N   UNL d   1      -0.715   0.858  -0.363  0.00  0.00    -0.259 N 
ATOM      4  HN  UNL d   1      -0.622   1.841  -0.621  1.00  0.00     0.195 HD
ATOM      5  O   UNL d   1      -1.856   0.237   0.052  0.00  0.00    -0.241 OA
ATOM      6  C   UNL d   1      -1.621  -1.081   0.237  0.00  0.00     0.090 A 
ATOM      7  C   UNL d   1      -2.796  -1.841   0.706  0.00  0.00     0.080 C 
ENDROOT
BRANCH   2   8
ATOM      8  C   UNL d   1       0.337  -2.663   0.041  0.00  0.00     0.256 C 
ATOM      9  N   UNL d   1      -0.436  -3.731  -0.399  0.00  0.00    -0.352 N 
ATOM     10  H   UNL d   1      -1.241  -3.522  -0.965  0.00  0.00     0.163 HD
ATOM     11  O   UNL d   1       1.490  -2.800   0.444  0.00  0.00    -0.267 OA
BRANCH   9  12
ATOM     12  C   UNL d   1       0.157  -5.043  -0.560  0.00  0.00     0.161 C 
BRANCH  12  13
ATOM     13  C   UNL d   1      -0.851  -6.160  -0.754  0.00  0.00    -0.038 A 
ATOM     14  C   UNL d   1      -0.811  -6.962  -1.911  0.00  0.00     0.048 A 
ATOM     15  C   UNL d   1      -1.650  -8.056  -1.990  0.00  0.00     0.105 A 
ATOM     16  O   UNL d   1      -1.703  -8.951  -3.018  0.00  0.00    -0.323 OA
ATOM     17  C   UNL d   1      -2.521  -8.379  -0.976  0.00  0.00     0.105 A 
ATOM     18  C   UNL d   1      -2.702  -9.873  -2.530  0.00  0.00     0.352 A 
ATOM     19  O   UNL d   1      -3.230  -9.512  -1.237  0.00  0.00    -0.323 OA
ATOM     20  C   UNL d   1      -2.614  -7.611   0.161  0.00  0.00     0.040 A 
ATOM     21  C   UNL d   1      -1.768  -6.493   0.272  0.00  0.00     0.012 A 
ENDBRANCH  12  13
ENDBRANCH   9  12
ENDBRANCH   2   8
BRANCH   1  22
ATOM     22  C   UNL d   1       1.619   0.386  -0.763  0.00  0.00     0.037 A 
ATOM     23  C   UNL d   1       2.371  -0.261  -1.764  0.00  0.00     0.048 A 
ATOM     24 CL   UNL d   1       1.820  -1.666  -2.617  0.00  0.00    -0.083 Cl
ATOM     25  C   UNL d   1       3.596   0.266  -2.214  0.00  0.00     0.025 A 
ATOM     26  C   UNL d   1       4.078   1.475  -1.725  0.00  0.00     0.003 A 
ATOM     27  C   UNL d   1       3.355   2.143  -0.748  0.00  0.00     0.025 A 
ATOM     28  C   UNL d   1       2.159   1.599  -0.250  0.00  0.00     0.048 A 
ATOM     29 CL   UNL d   1       1.419   2.517   1.027  0.00  0.00    -0.083 Cl
ENDBRANCH   1  22
TORSDOF 4
