REMARK  4 active torsions:
REMARK  status: ('A' for Active; 'I' for Inactive)
REMARK    1  A    between atoms: N_10  and  C_2 
REMARK    2  A    between atoms: C_21  and  C_3 
REMARK    3  A    between atoms: C_4  and  N_11 
REMARK    4  A    between atoms: C_9  and  C_15 
ROOT
ATOM      1  N   UNL d   1       2.301   2.612   0.166  0.00  0.00    -0.265 NA
ATOM      2  N   UNL d   1       2.905   5.363  -0.368  0.00  0.00    -0.215 N 
ATOM      3  C   UNL d   1       2.268   4.996   0.901  0.00  0.00     0.156 C 
ATOM      4  C   UNL d   1       3.743   4.320  -0.967  0.00  0.00     0.156 C 
ATOM      5  C   UNL d   1       2.913   3.032  -1.131  0.00  0.00     0.117 C 
ATOM      6  C   UNL d   1       1.444   3.694   0.717  0.00  0.00     0.117 C 
ENDROOT
BRANCH   1   7
ATOM      7  C   UNL d   1       1.581   1.409   0.021  0.00  0.00     0.097 A 
ATOM      8  C   UNL d   1       1.401   0.447   1.058  0.00  0.00     0.048 A 
ATOM      9  C   UNL d   1       1.675   0.383   2.493  0.00  0.00    -0.003 A 
ATOM     10  C   UNL d   1       0.813  -0.749   0.646  0.00  0.00     0.089 A 
ATOM     11  C   UNL d   1       1.386  -0.874   3.009  0.00  0.00     0.065 A 
ATOM     12  S   UNL d   1       0.700  -1.924   1.866  0.00  0.00    -0.082 SA
ATOM     13  N   UNL d   1       0.356  -1.061  -0.578  0.00  0.00    -0.346 N 
ATOM     14  C   UNL d   1       0.530  -0.079  -1.451  0.00  0.00     0.182 A 
ATOM     15  HN  UNL d   1      -0.076  -1.955  -0.811  1.00  0.00     0.167 HD
ATOM     16  N   UNL d   1       1.115   1.100  -1.220  0.00  0.00    -0.342 N 
ATOM     17  HN  UNL d   1       1.213   1.774  -1.980  1.00  0.00     0.167 HD
BRANCH   9  18
ATOM     18  C   UNL d   1       2.134   1.417   3.427  0.00  0.00    -0.024 A 
ATOM     19  C   UNL d   1       1.450   1.610   4.642  0.00  0.00     0.012 A 
ATOM     20  C   UNL d   1       1.843   2.602   5.542  0.00  0.00     0.001 A 
ATOM     21  C   UNL d   1       2.917   3.429   5.233  0.00  0.00     0.000 A 
ATOM     22  C   UNL d   1       3.615   3.239   4.041  0.00  0.00     0.001 A 
ATOM     23  C   UNL d   1       3.238   2.225   3.151  0.00  0.00     0.012 A 
ENDBRANCH   9  18
ENDBRANCH   1   7
BRANCH   2  24
ATOM     24  C   UNL d   1       3.159   6.679  -0.657  0.00  0.00     0.680 A 
ATOM     25  N   UNL d   1       2.636   7.624   0.135  0.00  0.00    -0.186 N 
ATOM     26  C   UNL d   1       2.775   8.928  -0.220  0.00  0.00     0.133 A 
ATOM     27  HN  UNL d   1       2.142   7.370   0.991  1.00  0.00     0.184 HD
ATOM     28  C   UNL d   1       3.433   9.300  -1.375  0.00  0.00     0.052 A 
ATOM     29  C   UNL d   1       3.955   8.275  -2.116  0.00  0.00     0.108 A 
ATOM     30  N   UNL d   1       3.837   6.979  -1.774  0.00  0.00    -0.202 N 
ATOM     31  HN  UNL d   1       4.252   6.246  -2.349  1.00  0.00     0.183 HD
BRANCH  26  32
ATOM     32  C   UNL d   1       2.164  10.001   0.660  0.00  0.00     0.433 C 
ATOM     33  F   UNL d   1       1.619   9.538   1.820  0.00  0.00    -0.165 F 
ATOM     34  F   UNL d   1       3.076  10.948   1.032  0.00  0.00    -0.165 F 
ATOM     35  F   UNL d   1       1.167  10.687   0.028  0.00  0.00    -0.165 F 
ENDBRANCH  26  32
ENDBRANCH   2  24
TORSDOF 4
