REMARK  7 active torsions:
REMARK  status: ('A' for Active; 'I' for Inactive)
REMARK    1  A    between atoms: C_5  and  C_1 
REMARK    2  A    between atoms: O_16  and  C_1 
REMARK    3  A    between atoms: C_2  and  C_6 
REMARK    4  A    between atoms: N_7  and  O_14 
REMARK    5  A    between atoms: O_14  and  C_21 
REMARK    6  A    between atoms: C_24  and  O_16 
REMARK    7  A    between atoms: C_21  and  C_18 
ROOT
ATOM      1  O   UNL d   1       1.222   1.062  -7.256  0.00  0.00    -0.276 OA
ENDROOT
BRANCH   1   2
ATOM      2  N   UNL d   1       1.661   0.433  -6.078  0.00  0.00    -0.270 N 
ATOM      3  C   UNL d   1       2.604  -0.426  -6.346  0.00  0.00     0.038 C 
ATOM      4  C   UNL d   1       3.089  -0.688  -7.763  0.00  0.00     0.071 C 
ATOM      5  HN  UNL d   1       1.294   0.622  -5.145  1.00  0.00     0.194 HD
BRANCH   3   6
ATOM      6  C   UNL d   1       3.230  -1.198  -5.231  0.00  0.00    -0.010 A 
ATOM      7  C   UNL d   1       2.466  -1.503  -4.097  0.00  0.00     0.039 A 
ATOM      8  C   UNL d   1       3.021  -2.260  -3.058  0.00  0.00     0.056 A 
ATOM      9 CL   UNL d   1       2.016  -2.621  -1.699  0.00  0.00    -0.083 Cl
ATOM     10  C   UNL d   1       4.345  -2.707  -3.146  0.00  0.00     0.055 A 
ATOM     11  C   UNL d   1       5.114  -2.379  -4.265  0.00  0.00     0.026 A 
ATOM     12 CL   UNL d   1       5.088  -3.665  -1.915  0.00  0.00    -0.083 Cl
ATOM     13  C   UNL d   1       4.561  -1.622  -5.302  0.00  0.00     0.015 A 
ENDBRANCH   3   6
ENDBRANCH   1   2
BRANCH   1  14
ATOM     14  C   UNL d   1       0.185   1.991  -6.947  0.00  0.00     0.239 C 
BRANCH  14  15
ATOM     15  C   UNL d   1      -0.288   2.622  -8.235  0.00  0.00    -0.031 A 
ATOM     16  C   UNL d   1      -0.862   1.828  -9.245  0.00  0.00     0.027 A 
ATOM     17  C   UNL d   1      -1.312   2.406 -10.441  0.00  0.00     0.040 A 
ATOM     18  C   UNL d   1      -1.183   3.789 -10.627  0.00  0.00     0.017 A 
ATOM     19  C   UNL d   1      -0.610   4.582  -9.633  0.00  0.00     0.002 A 
ATOM     20  C   UNL d   1      -0.167   4.002  -8.443  0.00  0.00     0.009 A 
BRANCH  17  21
ATOM     21  C   UNL d   1      -1.946   1.613 -11.530  0.00  0.00     0.293 C 
ATOM     22  O   UNL d   1      -2.428   2.116 -12.533  0.00  0.00    -0.259 OA
BRANCH  21  23
ATOM     23  O   UNL d   1      -1.908   0.287 -11.246  0.00  0.00    -0.318 OA
BRANCH  23  24
ATOM     24  C   UNL d   1      -2.536  -0.572 -12.210  0.00  0.00     0.174 C 
ATOM     25  C   UNL d   1      -1.589  -0.879 -13.355  0.00  0.00     0.034 C 
ENDBRANCH  23  24
ENDBRANCH  21  23
ENDBRANCH  17  21
ENDBRANCH  14  15
ENDBRANCH   1  14
TORSDOF 7
