REMARK  3 active torsions:
REMARK  status: ('A' for Active; 'I' for Inactive)
REMARK    1  A    between atoms: C_3  and  C_1 
REMARK    2  A    between atoms: C_10  and  C_2 
REMARK       I    between atoms: N_14  and  C_10 
REMARK    3  A    between atoms: N_15  and  N_14 
REMARK       I    between atoms: C_16  and  N_15 
ROOT
ATOM      1  C   UNL d   1      -1.375  -0.763   0.319  0.00  0.00     0.145 A 
ATOM      2  C   UNL d   1      -0.118  -1.351   0.205  0.00  0.00     0.096 A 
ATOM      3  O   UNL d   1      -1.253   0.580   0.101  0.00  0.00    -0.234 OA
ATOM      4  N   UNL d   1       0.059   0.920  -0.086  0.00  0.00    -0.264 N 
ATOM      5  HN  UNL d   1       0.434   1.854  -0.252  1.00  0.00     0.194 HD
ATOM      6  C   UNL d   1       0.748  -0.222  -0.006  0.00  0.00     0.047 A 
ATOM      7  C   UNL d   1       2.225  -0.146  -0.135  0.00  0.00     0.071 C 
ENDROOT
BRANCH   2   8
ATOM      8  C   UNL d   1       0.311  -2.747   0.281  0.00  0.00     0.275 C 
ATOM      9  N   UNL d   1      -0.653  -3.720   0.171  0.00  0.00    -0.263 N 
ATOM     10  H   UNL d   1      -1.656  -3.525   0.145  0.00  0.00     0.190 HD
ATOM     11  O   UNL d   1       1.498  -3.056   0.393  0.00  0.00    -0.266 OA
BRANCH   9  12
ATOM     12  N   UNL d   1      -0.313  -5.075   0.175  0.00  0.00    -0.268 N 
ATOM     13  C   UNL d   1      -1.261  -5.967  -0.280  0.00  0.00     0.232 C 
ATOM     14  O   UNL d   1      -2.372  -5.627  -0.680  0.00  0.00    -0.272 OA
ATOM     15  C   UNL d   1      -0.845  -7.408  -0.228  0.00  0.00     0.119 C 
ATOM     16  H   UNL d   1       0.638  -5.321   0.439  0.00  0.00     0.190 HD
ENDBRANCH   9  12
ENDBRANCH   2   8
BRANCH   1  17
ATOM     17  C   UNL d   1      -2.712  -1.339   0.654  0.00  0.00     0.094 A 
ATOM     18  N   UNL d   1      -2.908  -2.618   0.983  0.00  0.00    -0.258 N 
ATOM     19  O   UNL d   1      -4.254  -2.749   1.244  0.00  0.00    -0.242 OA
ATOM     20  HN  UNL d   1      -2.201  -3.351   1.031  1.00  0.00     0.195 HD
ATOM     21  C   UNL d   1      -4.863  -1.545   1.089  0.00  0.00     0.074 A 
ATOM     22  C   UNL d   1      -3.927  -0.616   0.705  0.00  0.00     0.068 A 
ATOM     23  C   UNL d   1      -6.309  -1.512   1.366  0.00  0.00     0.079 C 
ENDBRANCH   1  17
TORSDOF 3
