REMARK  7 active torsions:
REMARK  status: ('A' for Active; 'I' for Inactive)
REMARK    1  A    between atoms: S_11  and  C_1 
REMARK    2  A    between atoms: C_9  and  C_8 
REMARK    3  A    between atoms: C_12  and  C_9 
REMARK    4  A    between atoms: C_10  and  S_11 
REMARK    5  A    between atoms: O_22  and  C_17 
REMARK    6  A    between atoms: O_23  and  C_18 
REMARK    7  A    between atoms: C_24  and  O_22 
ROOT
ATOM      1  C   UNL d   1      -2.149  -0.741   0.279  0.00  0.00     0.117 A 
ATOM      2  N   UNL d   1      -2.103   0.293   1.085  0.00  0.00    -0.344 N 
ATOM      3  HN  UNL d   1      -2.911   0.722   1.535  1.00  0.00     0.167 HD
ATOM      4  S   UNL d   1      -0.635  -1.285  -0.323  0.00  0.00    -0.063 SA
ATOM      5  C   UNL d   1       0.165  -0.023   0.534  0.00  0.00     0.036 A 
ATOM      6  C   UNL d   1      -0.794   0.715   1.232  0.00  0.00     0.050 A 
ATOM      7  C   UNL d   1       1.535   0.299   0.594  0.00  0.00     0.058 A 
ATOM      8  C   UNL d   1      -0.367   1.803   2.014  0.00  0.00     0.034 A 
ATOM      9  C   UNL d   1       1.942   1.391   1.375  0.00  0.00     0.070 A 
ATOM     10  C   UNL d   1       0.994   2.132   2.079  0.00  0.00     0.039 A 
ENDROOT
BRANCH   1  11
ATOM     11  S   UNL d   1      -3.651  -1.568  -0.115  0.00  0.00    -0.077 SA
BRANCH  11  12
ATOM     12  C   UNL d   1      -4.786  -0.261   0.053  0.00  0.00     0.056 C 
ATOM     13  C   UNL d   1      -6.103  -0.492  -0.063  0.00  0.00     0.063 C 
BRANCH  13  14
ATOM     14  C   UNL d   1      -7.083   0.625   0.032  0.00  0.00     0.182 C 
ATOM     15  O   UNL d   1      -6.742   1.798  -0.071  0.00  0.00    -0.288 OA
BRANCH  14  16
ATOM     16  C   UNL d   1      -8.522   0.267   0.194  0.00  0.00     0.014 A 
ATOM     17  C   UNL d   1      -8.928  -0.882   0.884  0.00  0.00     0.018 A 
ATOM     18  C   UNL d   1     -10.289  -1.197   0.999  0.00  0.00     0.037 A 
ATOM     19  C   UNL d   1     -11.252  -0.363   0.430  0.00  0.00     0.068 A 
ATOM     20  C   UNL d   1     -10.851   0.810  -0.212  0.00  0.00     0.037 A 
ATOM     21  C   UNL d   1      -9.494   1.125  -0.335  0.00  0.00     0.018 A 
BRANCH  19  22
ATOM     22  O   UNL d   1     -12.603  -0.570   0.491  0.00  0.00    -0.356 OA
ATOM     23  C   UNL d   1     -13.014  -1.934   0.530  0.00  0.00     0.210 C 
ENDBRANCH  19  22
ENDBRANCH  14  16
ENDBRANCH  13  14
ENDBRANCH  11  12
ENDBRANCH   1  11
BRANCH   9  24
ATOM     24  O   UNL d   1       3.291   1.635   1.372  0.00  0.00    -0.351 OA
BRANCH  24  25
ATOM     25  C   UNL d   1       3.743   2.745   2.151  0.00  0.00     0.171 C 
ATOM     26  C   UNL d   1       5.251   2.863   2.021  0.00  0.00     0.034 C 
ENDBRANCH  24  25
ENDBRANCH   9  24
TORSDOF 7
