REMARK  3 active torsions:
REMARK  status: ('A' for Active; 'I' for Inactive)
REMARK    1  A    between atoms: N_8  and  C_1 
REMARK    2  A    between atoms: C_2  and  C_7 
REMARK       I    between atoms: C_7  and  N_8 
REMARK    3  A    between atoms: O_19  and  C_14 
ROOT
ATOM      1  C   UNL d   1      -0.976   1.730  -0.193  0.00  0.00     0.138 A 
ATOM      2  N   UNL d   1      -2.009   0.909  -0.379  0.00  0.00    -0.282 N 
ATOM      3  HN  UNL d   1      -2.983   1.157  -0.555  1.00  0.00     0.189 HD
ATOM      4  C   UNL d   1       0.274   1.028  -0.081  0.00  0.00     0.071 A 
ATOM      5  N   UNL d   1      -1.478  -0.316  -0.281  0.00  0.00    -0.294 N 
ATOM      6  C   UNL d   1      -0.114  -0.321  -0.144  0.00  0.00     0.067 A 
ATOM      7  C   UNL d   1       1.667   1.295   0.053  0.00  0.00     0.084 A 
ATOM      8  C   UNL d   1      -2.346  -1.469  -0.255  0.00  0.00     0.178 C 
ATOM      9  C   UNL d   1       0.783  -1.398  -0.054  0.00  0.00     0.032 A 
ATOM     10  C   UNL d   1       2.136  -1.110   0.077  0.00  0.00     0.005 A 
ATOM     11  C   UNL d   1       2.566   0.208   0.125  0.00  0.00     0.038 A 
ENDROOT
BRANCH   1  12
ATOM     12  N   UNL d   1      -1.204   3.069   0.003  0.00  0.00    -0.307 N 
ATOM     13  C   UNL d   1      -1.950   3.856  -0.849  0.00  0.00     0.259 C 
ATOM     14  O   UNL d   1      -2.406   3.519  -1.934  0.00  0.00    -0.267 OA
ATOM     15  H   UNL d   1      -0.626   3.523   0.687  0.00  0.00     0.170 HD
BRANCH  13  16
ATOM     16  C   UNL d   1      -2.030   5.232  -0.377  0.00  0.00     0.064 A 
ATOM     17  C   UNL d   1      -2.021   6.378  -1.163  0.00  0.00     0.065 A 
ATOM     18  O   UNL d   1      -2.079   7.489  -0.376  0.00  0.00    -0.319 OA
ATOM     19  C   UNL d   1      -1.925   6.639  -2.615  0.00  0.00     0.077 C 
ATOM     20  C   UNL d   1      -2.144   7.076   0.916  0.00  0.00     0.050 A 
ATOM     21  C   UNL d   1      -2.118   5.700   0.972  0.00  0.00     0.051 A 
ATOM     22  C   UNL d   1      -2.227   8.132   1.942  0.00  0.00     0.076 C 
ENDBRANCH  13  16
ENDBRANCH   1  12
BRANCH   7  23
ATOM     23  O   UNL d   1       2.368   2.497   0.133  0.00  0.00    -0.355 OA
ATOM     24  C   UNL d   1       1.740   3.709  -0.226  0.00  0.00     0.210 C 
ENDBRANCH   7  23
TORSDOF 3
