REMARK  4 active torsions:
REMARK  status: ('A' for Active; 'I' for Inactive)
REMARK       I    between atoms: N_2  and  C_1 
REMARK    1  A    between atoms: C_3  and  C_1 
REMARK       I    between atoms: C_4  and  N_6 
REMARK    2  A    between atoms: C_16  and  C_4 
REMARK    3  A    between atoms: N_6  and  C_17 
REMARK    4  A    between atoms: C_18  and  C_16 
ROOT
ATOM      1  C   UNL d   1       0.933   0.061   0.017  0.00  0.00     0.260 C 
ATOM      2  N   UNL d   1       0.224  -1.125   0.267  0.00  0.00    -0.347 N 
ATOM      3  C   UNL d   1       0.609  -1.962   1.403  0.00  0.00     0.128 C 
ATOM      4  C   UNL d   1      -0.705  -1.765  -0.660  0.00  0.00     0.128 C 
ATOM      5  O   UNL d   1       1.925   0.344   0.691  0.00  0.00    -0.267 OA
ATOM      6  C   UNL d   1      -1.994  -2.121   0.070  0.00  0.00     0.045 C 
ATOM      7  C   UNL d   1      -0.623  -2.425   2.181  0.00  0.00     0.045 C 
ATOM      8  C   UNL d   1      -1.710  -3.024   1.275  0.00  0.00     0.087 C 
ENDROOT
BRANCH   8   9
ATOM      9  N   UNL d   1      -1.373  -4.373   0.829  0.00  0.00    -0.356 N 
ATOM     10  C   UNL d   1      -1.646  -5.487   1.595  0.00  0.00     0.222 C 
ATOM     11  O   UNL d   1      -2.184  -5.433   2.699  0.00  0.00    -0.273 OA
ATOM     12  H   UNL d   1      -0.713  -4.490   0.070  0.00  0.00     0.162 HD
BRANCH  10  13
ATOM     13  C   UNL d   1      -1.250  -6.796   0.938  0.00  0.00     0.141 C 
BRANCH  13  14
ATOM     14  C   UNL d   1       0.141  -7.259   1.288  0.00  0.00    -0.050 A 
ATOM     15  C   UNL d   1       0.494  -7.502   2.623  0.00  0.00     0.007 A 
ATOM     16  C   UNL d   1       1.755  -8.006   2.943  0.00  0.00     0.001 A 
ATOM     17  C   UNL d   1       2.676  -8.275   1.933  0.00  0.00     0.000 A 
ATOM     18  C   UNL d   1       2.341  -8.030   0.603  0.00  0.00     0.001 A 
ATOM     19  C   UNL d   1       1.080  -7.524   0.280  0.00  0.00     0.007 A 
ENDBRANCH  13  14
ENDBRANCH  10  13
ENDBRANCH   8   9
BRANCH   1  20
ATOM     20  C   UNL d   1       0.444   0.941  -1.041  0.00  0.00     0.072 A 
ATOM     21  S   UNL d   1       1.580   1.774  -2.022  0.00  0.00    -0.097 SA
ATOM     22  C   UNL d   1       0.347   2.452  -2.994  0.00  0.00     0.050 A 
ATOM     23  C   UNL d   1      -0.909   2.100  -2.555  0.00  0.00     0.009 A 
ATOM     24  C   UNL d   1      -0.852   1.283  -1.390  0.00  0.00     0.025 A 
ENDBRANCH   1  20
TORSDOF 4
