REMARK  6 active torsions:
REMARK  status: ('A' for Active; 'I' for Inactive)
REMARK    1  A    between atoms: C_7  and  C_1 
REMARK    2  A    between atoms: N_13  and  C_2 
REMARK    3  A    between atoms: N_6  and  C_3 
REMARK    4  A    between atoms: C_8  and  N_15 
REMARK       I    between atoms: C_11  and  N_13 
REMARK       I    between atoms: N_16  and  C_11 
REMARK    5  A    between atoms: C_12  and  C_17 
REMARK    6  A    between atoms: N_15  and  N_16 
ROOT
ATOM      1  C   UNL d   1       1.967  -2.881  -0.792  0.00  0.00     0.335 C 
ATOM      2  N   UNL d   1       0.733  -2.263  -0.847  0.00  0.00    -0.303 N 
ATOM      3  N   UNL d   1       3.066  -2.067  -0.573  0.00  0.00    -0.266 N 
ATOM      4  O   UNL d   1       1.965  -4.111  -0.771  0.00  0.00    -0.246 OA
ATOM      5  H   UNL d   1       0.036  -2.908  -0.491  0.00  0.00     0.171 HD
ATOM      6  H   UNL d   1       3.076  -1.150  -0.999  0.00  0.00     0.186 HD
ENDROOT
BRANCH   2   7
ATOM      7  C   UNL d   1       0.456  -0.914  -0.696  0.00  0.00     0.097 A 
ATOM      8  C   UNL d   1      -0.322  -0.248   0.319  0.00  0.00     0.097 A 
ATOM      9  N   UNL d   1      -0.418   1.058   0.006  0.00  0.00    -0.258 N 
ATOM     10  O   UNL d   1       0.220   1.245  -1.186  0.00  0.00    -0.240 OA
ATOM     11  HN  UNL d   1      -0.884   1.778   0.559  1.00  0.00     0.195 HD
ATOM     12  C   UNL d   1       0.770   0.081  -1.604  0.00  0.00     0.101 A 
ATOM     13  C   UNL d   1       1.452   0.172  -2.911  0.00  0.00     0.081 C 
BRANCH   8  14
ATOM     14  C   UNL d   1      -0.868  -0.661   1.631  0.00  0.00     0.038 C 
ATOM     15  C   UNL d   1      -0.089  -1.319   2.602  0.00  0.00     0.048 C 
ATOM     16 CL   UNL d   1       1.341  -2.211   2.284  0.00  0.00    -0.083 Cl
ATOM     17  C   UNL d   1      -0.450  -1.309   3.961  0.00  0.00     0.025 C 
ATOM     18  C   UNL d   1      -1.619  -0.694   4.380  0.00  0.00     0.003 C 
ATOM     19  C   UNL d   1      -2.471  -0.155   3.428  0.00  0.00     0.025 C 
ATOM     20  C   UNL d   1      -2.114  -0.153   2.069  0.00  0.00     0.048 C 
ATOM     21 CL   UNL d   1      -3.312   0.469   0.976  0.00  0.00    -0.083 Cl
ENDBRANCH   8  14
ENDBRANCH   2   7
BRANCH   3  22
ATOM     22  N   UNL d   1       4.387  -2.557  -0.241  0.00  0.00    -0.195 NA
ATOM     23  C   UNL d   1       4.458  -3.951   0.254  0.00  0.00     0.143 C 
BRANCH  22  24
ATOM     24  C   UNL d   1       5.129  -1.656   0.593  0.00  0.00     0.063 A 
ATOM     25  C   UNL d   1       6.545  -1.589   0.645  0.00  0.00     0.126 A 
ATOM     26  C   UNL d   1       7.198  -0.665   1.510  0.00  0.00     0.054 A 
ATOM     27  C   UNL d   1       6.486   0.210   2.326  0.00  0.00     0.050 A 
ATOM     28  C   UNL d   1       5.095   0.153   2.287  0.00  0.00     0.018 A 
ATOM     29  C   UNL d   1       4.444  -0.748   1.432  0.00  0.00     0.029 A 
BRANCH  25  30
ATOM     30  N   UNL d   1       7.423  -2.389  -0.237  0.00  0.00    -0.114 N 
ATOM     31  O   UNL d   1       6.927  -3.108  -1.111  0.00  0.00    -0.532 OA
ATOM     32  O   UNL d   1       8.646  -2.285  -0.057  0.00  0.00    -0.532 OA
ENDBRANCH  25  30
BRANCH  27  33
ATOM     33  C   UNL d   1       7.174   1.205   3.234  0.00  0.00     0.417 C 
ATOM     34  F   UNL d   1       8.517   1.284   3.026  0.00  0.00    -0.166 F 
ATOM     35  F   UNL d   1       6.695   2.465   3.076  0.00  0.00    -0.166 F 
ATOM     36  F   UNL d   1       7.014   0.901   4.551  0.00  0.00    -0.166 F 
ENDBRANCH  27  33
ENDBRANCH  22  24
ENDBRANCH   3  22
TORSDOF 6
