REMARK  4 active torsions:
REMARK  status: ('A' for Active; 'I' for Inactive)
REMARK    1  A    between atoms: C_2  and  C_1 
REMARK    2  A    between atoms: C_3  and  C_2 
REMARK    3  A    between atoms: N_8  and  C_4 
REMARK    4  A    between atoms: C_9  and  N_8 
ROOT
ATOM      1  C   UNL d   1       0.964  -0.042  -0.021  0.00  0.00     0.111 C 
ATOM      2  C   UNL d   1       0.271  -0.322  -1.144  0.00  0.00     0.116 C 
ATOM      3  C   UNL d   1       0.295   0.338   1.172  0.00  0.00     0.105 C 
ATOM      4  N   UNL d   1      -0.297   0.661   2.115  0.00  0.00    -0.191 NA
ENDROOT
BRANCH   1   5
ATOM      5  C   UNL d   1       2.460  -0.160  -0.041  0.00  0.00     0.210 C 
ATOM      6  O   UNL d   1       2.976  -0.956  -0.828  0.00  0.00    -0.285 OA
BRANCH   5   7
ATOM      7  C   UNL d   1       3.248   0.667   0.875  0.00  0.00     0.056 A 
ATOM      8  S   UNL d   1       4.780   0.091   1.398  0.00  0.00    -0.098 SA
ATOM      9  C   UNL d   1       5.058   1.477   2.358  0.00  0.00     0.050 A 
ATOM     10  C   UNL d   1       4.022   2.377   2.273  0.00  0.00     0.009 A 
ATOM     11  C   UNL d   1       2.984   1.917   1.409  0.00  0.00     0.023 A 
ENDBRANCH   5   7
ENDBRANCH   1   5
BRANCH   2  12
ATOM     12  N   UNL d   1      -1.095  -0.253  -1.335  0.00  0.00    -0.350 N 
ATOM     13  H   UNL d   1      -1.671  -0.183  -0.501  0.00  0.00     0.166 HD
BRANCH  12  14
ATOM     14  C   UNL d   1      -1.798  -0.678  -2.479  0.00  0.00     0.120 A 
ATOM     15  N   UNL d   1      -1.158  -1.257  -3.519  0.00  0.00    -0.350 N 
ATOM     16  C   UNL d   1      -1.917  -1.565  -4.601  0.00  0.00     0.106 A 
ATOM     17  HN  UNL d   1      -0.158  -1.453  -3.492  1.00  0.00     0.166 HD
ATOM     18  C   UNL d   1      -3.273  -1.296  -4.667  0.00  0.00     0.104 A 
ATOM     19  N   UNL d   1      -3.937  -0.710  -3.651  0.00  0.00    -0.371 N 
ATOM     20  C   UNL d   1      -3.170  -0.405  -2.574  0.00  0.00     0.136 A 
ATOM     21  HN  UNL d   1      -4.936  -0.510  -3.689  1.00  0.00     0.164 HD
ENDBRANCH  12  14
ENDBRANCH   2  12
TORSDOF 4
