REMARK  5 active torsions:
REMARK  status: ('A' for Active; 'I' for Inactive)
REMARK    1  A    between atoms: N_2  and  C_1 
REMARK    2  A    between atoms: C_3  and  C_6 
REMARK       I    between atoms: N_7  and  C_3 
REMARK    3  A    between atoms: O_9  and  C_5 
REMARK    4  A    between atoms: C_15  and  N_7 
REMARK    5  A    between atoms: C_14  and  O_9 
ROOT
ATOM      1  C   UNL d   1       1.474  -0.360   0.286  0.00  0.00     0.137 A 
ATOM      2  C   UNL d   1       0.507  -1.376   0.316  0.00  0.00     0.056 A 
ATOM      3  C   UNL d   1       1.107   0.982   0.159  0.00  0.00     0.109 A 
ATOM      4  C   UNL d   1      -0.861  -1.061   0.314  0.00  0.00     0.034 A 
ATOM      5  C   UNL d   1      -0.259   1.293   0.202  0.00  0.00     0.041 A 
ATOM      6  C   UNL d   1      -1.237   0.288   0.295  0.00  0.00     0.020 A 
ENDROOT
BRANCH   4   7
ATOM      7  C   UNL d   1      -1.824  -2.208   0.378  0.00  0.00     0.256 C 
ATOM      8  N   UNL d   1      -3.168  -1.931   0.185  0.00  0.00    -0.323 N 
ATOM      9  H   UNL d   1      -3.438  -0.995  -0.075  0.00  0.00     0.169 HD
ATOM     10  O   UNL d   1      -1.343  -3.321   0.561  0.00  0.00    -0.267 OA
BRANCH   8  11
ATOM     11  C   UNL d   1      -4.217  -2.882   0.162  0.00  0.00     0.035 A 
ATOM     12  C   UNL d   1      -4.062  -4.223   0.527  0.00  0.00     0.029 A 
ATOM     13  C   UNL d   1      -5.127  -5.122   0.414  0.00  0.00     0.002 A 
ATOM     14  C   UNL d   1      -6.362  -4.688  -0.056  0.00  0.00     0.000 A 
ATOM     15  C   UNL d   1      -6.540  -3.348  -0.390  0.00  0.00     0.002 A 
ATOM     16  C   UNL d   1      -5.475  -2.448  -0.273  0.00  0.00     0.029 A 
ENDBRANCH   8  11
ENDBRANCH   4   7
BRANCH   1  17
ATOM     17  N   UNL d   1       2.853  -0.769   0.489  0.00  0.00    -0.113 N 
ATOM     18  O   UNL d   1       3.313  -1.615  -0.288  0.00  0.00    -0.532 OA
ATOM     19  O   UNL d   1       3.453  -0.273   1.452  0.00  0.00    -0.532 OA
ENDBRANCH   1  17
BRANCH   3  20
ATOM     20  O   UNL d   1       1.928   2.080   0.080  0.00  0.00    -0.308 OA
BRANCH  20  21
ATOM     21  C   UNL d   1       3.084   2.062  -0.665  0.00  0.00     0.076 A 
ATOM     22  C   UNL d   1       3.305   1.282  -1.803  0.00  0.00     0.039 A 
ATOM     23  C   UNL d   1       4.568   1.277  -2.406  0.00  0.00     0.026 A 
ATOM     24  C   UNL d   1       5.580   2.100  -1.914  0.00  0.00     0.034 A 
ATOM     25  C   UNL d   1       5.335   2.947  -0.837  0.00  0.00     0.026 A 
ATOM     26 CL   UNL d   1       7.140   2.069  -2.639  0.00  0.00    -0.084 Cl
ATOM     27  C   UNL d   1       4.086   2.927  -0.215  0.00  0.00     0.039 A 
ENDBRANCH  20  21
ENDBRANCH   3  20
TORSDOF 5
