REMARK  4 active torsions:
REMARK  status: ('A' for Active; 'I' for Inactive)
REMARK    1  A    between atoms: C_7  and  C_1 
REMARK    2  A    between atoms: C_17  and  C_8 
REMARK    3  A    between atoms: C_10  and  O_11 
REMARK    4  A    between atoms: O_11  and  C_17 
ROOT
ATOM      1  C   UNL d   1      -0.737   1.327   0.088  0.00  0.00     0.030 A 
ATOM      2  C   UNL d   1      -1.461   0.112   0.038  0.00  0.00    -0.036 A 
ATOM      3  C   UNL d   1       0.680   1.319   0.047  0.00  0.00    -0.036 A 
ATOM      4  C   UNL d   1      -0.760  -1.123   0.005  0.00  0.00    -0.048 A 
ATOM      5  C   UNL d   1       1.382   0.082   0.009  0.00  0.00    -0.048 A 
ATOM      6  C   UNL d   1       0.659  -1.139  -0.002  0.00  0.00    -0.049 A 
ATOM      7  C   UNL d   1       2.895   0.043  -0.008  0.00  0.00     0.049 C 
ATOM      8  C   UNL d   1       1.376  -2.477  -0.019  0.00  0.00     0.049 C 
ATOM      9  C   UNL d   1      -2.974   0.107   0.016  0.00  0.00     0.050 C 
ATOM     10  C   UNL d   1       1.463   2.615   0.033  0.00  0.00     0.050 C 
ATOM     11  C   UNL d   1      -1.501  -2.448  -0.017  0.00  0.00     0.049 C 
ENDROOT
BRANCH   1  12
ATOM     12  C   UNL d   1      -1.449   2.587   0.173  0.00  0.00    -0.064 C 
ATOM     13  C   UNL d   1      -2.044   3.632   0.186  0.00  0.00    -0.075 C 
BRANCH  13  14
ATOM     14  C   UNL d   1      -2.772   4.903   0.034  0.00  0.00     0.265 C 
BRANCH  14  15
ATOM     15  O   UNL d   1      -3.021   5.540   1.295  0.00  0.00    -0.350 OA
BRANCH  15  16
ATOM     16  C   UNL d   1      -3.632   6.818   1.081  0.00  0.00     0.260 C 
ATOM     17  O   UNL d   1      -4.951   6.697   0.546  0.00  0.00    -0.361 OA
ATOM     18  C   UNL d   1      -5.896   6.211   1.497  0.00  0.00     0.171 C 
ATOM     19  C   UNL d   1      -6.061   7.222   2.617  0.00  0.00     0.026 C 
ATOM     20  C   UNL d   1      -4.732   7.400   3.336  0.00  0.00     0.007 C 
ATOM     21  C   UNL d   1      -3.604   7.688   2.348  0.00  0.00     0.061 C 
ENDBRANCH  15  16
ENDBRANCH  14  15
ENDBRANCH  13  14
ENDBRANCH   1  12
TORSDOF 4
