REMARK  6 active torsions:
REMARK  status: ('A' for Active; 'I' for Inactive)
REMARK    1  A    between atoms: C_8  and  C_1 
REMARK    2  A    between atoms: C_14  and  C_7 
REMARK    3  A    between atoms: C_9  and  C_13 
REMARK       I    between atoms: C_10  and  N_11 
REMARK    4  A    between atoms: C_15  and  C_10 
REMARK    5  A    between atoms: N_11  and  C_12 
REMARK    6  A    between atoms: C_16  and  C_17 
ROOT
ATOM      1  C   UNL d   1      -0.185  -2.821   0.250  0.00  0.00     0.043 A 
ATOM      2  C   UNL d   1      -1.127  -2.908  -0.812  0.00  0.00     0.049 A 
ATOM      3  C   UNL d   1      -0.067  -3.983   1.084  0.00  0.00     0.018 A 
ATOM      4  C   UNL d   1      -1.725  -4.188  -1.051  0.00  0.00     0.030 A 
ATOM      5  C   UNL d   1      -0.715  -5.192   0.854  0.00  0.00     0.001 A 
ATOM      6  C   UNL d   1      -1.526  -5.306  -0.247  0.00  0.00     0.002 A 
ENDROOT
BRANCH   1   7
ATOM      7  C   UNL d   1       0.773  -1.764   0.667  0.00  0.00     0.177 A 
ATOM      8  O   UNL d   1       1.967  -2.270   1.208  0.00  0.00    -0.273 OA
ATOM      9  C   UNL d   1       2.518  -1.191   1.853  0.00  0.00     0.174 A 
ATOM     10  N   UNL d   1       1.808  -0.100   1.647  0.00  0.00    -0.277 N 
ATOM     11  N   UNL d   1       0.681  -0.473   0.903  0.00  0.00    -0.277 N 
ATOM     12  HN  UNL d   1       2.037   0.841   1.969  1.00  0.00     0.189 HD
ATOM     13  HN  UNL d   1      -0.073   0.144   0.600  1.00  0.00     0.189 HD
BRANCH   9  14
ATOM     14  C   UNL d   1       3.697  -1.425   2.722  0.00  0.00     0.017 A 
ATOM     15  C   UNL d   1       4.287  -2.686   2.900  0.00  0.00     0.016 A 
ATOM     16  C   UNL d   1       5.388  -2.879   3.776  0.00  0.00     0.009 A 
ATOM     17  C   UNL d   1       5.949  -1.825   4.522  0.00  0.00    -0.051 A 
ATOM     18  C   UNL d   1       5.355  -0.565   4.338  0.00  0.00     0.009 A 
ATOM     19  C   UNL d   1       4.252  -0.375   3.464  0.00  0.00     0.016 A 
BRANCH  17  20
ATOM     20  C   UNL d   1       7.153  -2.058   5.470  0.00  0.00    -0.024 C 
ATOM     21  C   UNL d   1       7.570  -0.809   6.287  0.00  0.00     0.019 C 
ATOM     22  C   UNL d   1       6.842  -3.167   6.503  0.00  0.00     0.019 C 
ATOM     23  C   UNL d   1       8.395  -2.493   4.659  0.00  0.00     0.019 C 
ENDBRANCH  17  20
ENDBRANCH   9  14
ENDBRANCH   1   7
BRANCH   2  24
ATOM     24  N   UNL d   1      -1.705  -1.966  -1.726  0.00  0.00    -0.322 N 
ATOM     25  C   UNL d   1      -1.753  -0.598  -1.773  0.00  0.00     0.256 C 
ATOM     26  O   UNL d   1      -1.039   0.148  -1.133  0.00  0.00    -0.267 OA
ATOM     27  H   UNL d   1      -2.360  -2.399  -2.354  0.00  0.00     0.169 HD
BRANCH  25  28
ATOM     28  C   UNL d   1      -2.842   0.014  -2.667  0.00  0.00     0.032 A 
ATOM     29  C   UNL d   1      -3.671  -0.701  -3.553  0.00  0.00     0.018 A 
ATOM     30  C   UNL d   1      -4.701  -0.057  -4.273  0.00  0.00     0.017 A 
ATOM     31  C   UNL d   1      -4.930   1.320  -4.140  0.00  0.00     0.048 A 
ATOM     32  C   UNL d   1      -4.097   2.039  -3.275  0.00  0.00     0.017 A 
ATOM     33  C   UNL d   1      -3.073   1.397  -2.556  0.00  0.00     0.018 A 
BRANCH  31  34
ATOM     34  C   UNL d   1      -6.063   1.998  -4.888  0.00  0.00     0.417 C 
ATOM     35  F   UNL d   1      -6.013   3.358  -4.838  0.00  0.00    -0.166 F 
ATOM     36  F   UNL d   1      -6.087   1.674  -6.211  0.00  0.00    -0.166 F 
ATOM     37  F   UNL d   1      -7.285   1.650  -4.399  0.00  0.00    -0.166 F 
ENDBRANCH  31  34
ENDBRANCH  25  28
ENDBRANCH   2  24
TORSDOF 6
