REMARK  3 active torsions:
REMARK  status: ('A' for Active; 'I' for Inactive)
REMARK    1  A    between atoms: C_9  and  C_3 
REMARK    2  A    between atoms: C_8  and  C_7 
REMARK    3  A    between atoms: C_16  and  C_9 
ROOT
ATOM      1  N   UNL d   1       1.314  -1.150  -0.036  0.00  0.00    -0.297 N 
ATOM      2  HN  UNL d   1       1.868  -2.006  -0.041  1.00  0.00     0.187 HD
ATOM      3  C   UNL d   1      -0.230   1.236   0.000  0.00  0.00     0.018 A 
ATOM      4  N   UNL d   1      -0.048  -1.181  -0.118  0.00  0.00    -0.266 N 
ATOM      5  C   UNL d   1      -0.882  -0.091  -0.148  0.00  0.00     0.266 A 
ATOM      6  C   UNL d   1       1.105   1.288   0.097  0.00  0.00     0.045 A 
ATOM      7  C   UNL d   1       1.871   0.019   0.048  0.00  0.00     0.059 A 
ATOM      8  O   UNL d   1      -2.096  -0.203  -0.284  0.00  0.00    -0.266 OA
ATOM      9  H   UNL d   1      -0.475  -2.095  -0.217  0.00  0.00     0.190 HD
ENDROOT
BRANCH   3  10
ATOM     10  C   UNL d   1      -1.092   2.463  -0.060  0.00  0.00     0.084 C 
BRANCH  10  11
ATOM     11  C   UNL d   1      -1.556   2.985   1.275  0.00  0.00    -0.038 A 
ATOM     12  C   UNL d   1      -1.142   4.231   1.740  0.00  0.00     0.095 A 
ATOM     13  N   UNL d   1      -1.576   4.802   2.886  0.00  0.00    -0.375 N 
ATOM     14  C   UNL d   1      -2.473   4.100   3.609  0.00  0.00     0.087 A 
ATOM     15  HN  UNL d   1      -1.242   5.717   3.189  1.00  0.00     0.164 HD
ATOM     16  C   UNL d   1      -2.937   2.846   3.250  0.00  0.00     0.018 A 
ATOM     17  C   UNL d   1      -2.468   2.282   2.067  0.00  0.00     0.010 A 
ENDBRANCH  10  11
ENDBRANCH   3  10
BRANCH   7  18
ATOM     18  C   UNL d   1       3.359   0.124   0.113  0.00  0.00    -0.008 A 
ATOM     19  C   UNL d   1       4.087  -0.928   0.689  0.00  0.00     0.017 A 
ATOM     20  C   UNL d   1       5.478  -0.848   0.791  0.00  0.00     0.043 A 
ATOM     21  C   UNL d   1       6.138   0.278   0.312  0.00  0.00     0.116 A 
ATOM     22  C   UNL d   1       5.436   1.317  -0.285  0.00  0.00     0.043 A 
ATOM     23  F   UNL d   1       7.470   0.361   0.422  0.00  0.00    -0.206 F 
ATOM     24  C   UNL d   1       4.046   1.238  -0.396  0.00  0.00     0.017 A 
ENDBRANCH   7  18
TORSDOF 3
