REMARK  6 active torsions:
REMARK  status: ('A' for Active; 'I' for Inactive)
REMARK    1  A    between atoms: O_4  and  S_1 
REMARK    2  A    between atoms: C_7  and  S_1 
REMARK    3  A    between atoms: N_2  and  O_4 
REMARK    4  A    between atoms: C_5  and  C_10 
REMARK    5  A    between atoms: C_11  and  C_6 
REMARK    6  A    between atoms: N_21  and  C_6 
ROOT
ATOM      1  N   UNL d   1       0.589   2.296   1.092  0.00  0.00    -0.237 N 
ATOM      2  HN  UNL d   1       0.183   1.621   0.443  1.00  0.00     0.197 HD
ATOM      3  C   UNL d   1       0.330   3.571   1.083  0.00  0.00     0.109 C 
ENDROOT
BRANCH   3   4
ATOM      4  C   UNL d   1      -0.569   4.082  -0.001  0.00  0.00     0.004 A 
ATOM      5  C   UNL d   1      -1.521   3.230  -0.573  0.00  0.00     0.015 A 
ATOM      6  C   UNL d   1      -2.339   3.683  -1.610  0.00  0.00     0.017 A 
ATOM      7  C   UNL d   1      -2.216   4.994  -2.095  0.00  0.00     0.048 A 
ATOM      8  C   UNL d   1      -1.258   5.844  -1.517  0.00  0.00     0.017 A 
ATOM      9  C   UNL d   1      -0.440   5.392  -0.476  0.00  0.00     0.015 A 
BRANCH   7  10
ATOM     10  C   UNL d   1      -3.085   5.491  -3.227  0.00  0.00     0.417 C 
ATOM     11  F   UNL d   1      -3.978   4.566  -3.676  0.00  0.00    -0.166 F 
ATOM     12  F   UNL d   1      -3.823   6.580  -2.872  0.00  0.00    -0.166 F 
ATOM     13  F   UNL d   1      -2.359   5.870  -4.315  0.00  0.00    -0.166 F 
ENDBRANCH   7  10
ENDBRANCH   3   4
BRANCH   3  14
ATOM     14  N   UNL d   1       0.835   4.467   1.997  0.00  0.00    -0.286 NA
ATOM     15  H   UNL d   1       1.212   4.029   2.830  0.00  0.00     0.125 HD
ATOM     16  H   UNL d   1       0.255   5.271   2.208  0.00  0.00     0.125 HD
ENDBRANCH   3  14
BRANCH   1  17
ATOM     17  O   UNL d   1       1.507   1.966   2.118  0.00  0.00    -0.146 OA
BRANCH  17  18
ATOM     18  S   UNL d   1       2.528   0.718   1.761  0.00  0.00     0.318 S 
ATOM     19  O   UNL d   1       3.661   0.819   2.667  0.00  0.00    -0.191 OA
ATOM     20  O   UNL d   1       2.745   0.621   0.329  0.00  0.00    -0.191 OA
BRANCH  18  21
ATOM     21  C   UNL d   1       1.625  -0.749   2.236  0.00  0.00     0.088 A 
ATOM     22  C   UNL d   1       0.401  -1.030   1.619  0.00  0.00     0.027 A 
ATOM     23  C   UNL d   1      -0.302  -2.183   1.978  0.00  0.00     0.025 A 
ATOM     24  C   UNL d   1       0.223  -3.047   2.940  0.00  0.00     0.034 A 
ATOM     25  C   UNL d   1       1.451  -2.774   3.544  0.00  0.00     0.025 A 
ATOM     26 CL   UNL d   1      -0.649  -4.463   3.382  0.00  0.00    -0.084 Cl
ATOM     27  C   UNL d   1       2.158  -1.622   3.192  0.00  0.00     0.027 A 
ENDBRANCH  18  21
ENDBRANCH  17  18
ENDBRANCH   1  17
TORSDOF 6
