REMARK  2 active torsions:
REMARK  status: ('A' for Active; 'I' for Inactive)
REMARK    1  A    between atoms: C_5  and  C_1 
REMARK    2  A    between atoms: C_12  and  C_4 
ROOT
ATOM      1  C   UNL d   1      -0.040  -1.314   0.024  0.00  0.00     0.053 A 
ATOM      2  N   UNL d   1      -1.384   0.521   0.029  0.00  0.00    -0.259 N 
ATOM      3  HN  UNL d   1      -2.200   1.133  -0.003  1.00  0.00     0.195 HD
ATOM      4  C   UNL d   1      -1.385  -0.821   0.005  0.00  0.00     0.080 A 
ATOM      5  O   UNL d   1      -0.064   0.912   0.103  0.00  0.00    -0.241 OA
ATOM      6  C   UNL d   1       0.740  -0.182   0.108  0.00  0.00     0.087 A 
ATOM      7  C   UNL d   1       2.191   0.092   0.126  0.00  0.00     0.080 C 
ENDROOT
BRANCH   1   8
ATOM      8  C   UNL d   1       0.458  -2.709  -0.047  0.00  0.00     0.064 A 
ATOM      9  N   UNL d   1      -0.184  -3.761  -0.643  0.00  0.00    -0.300 N 
ATOM     10  N   UNL d   1       0.450  -4.935  -0.488  0.00  0.00    -0.311 N 
ATOM     11  H   UNL d   1      -1.049  -3.748  -1.172  0.00  0.00     0.187 HD
ATOM     12  C   UNL d   1       1.550  -4.610   0.193  0.00  0.00     0.109 A 
ATOM     13  HN  UNL d   1       0.159  -5.857  -0.814  1.00  0.00     0.186 HD
ATOM     14  C   UNL d   1       1.624  -3.230   0.466  0.00  0.00     0.050 A 
ENDBRANCH   1   8
BRANCH   4  15
ATOM     15  C   UNL d   1      -2.653  -1.556   0.015  0.00  0.00    -0.006 A 
ATOM     16  C   UNL d   1      -3.754  -1.079  -0.712  0.00  0.00     0.015 A 
ATOM     17  C   UNL d   1      -4.960  -1.790  -0.726  0.00  0.00     0.024 A 
ATOM     18  C   UNL d   1      -5.071  -2.983  -0.018  0.00  0.00     0.034 A 
ATOM     19  C   UNL d   1      -3.996  -3.458   0.731  0.00  0.00     0.024 A 
ATOM     20 CL   UNL d   1      -6.541  -3.873  -0.059  0.00  0.00    -0.084 Cl
ATOM     21  C   UNL d   1      -2.800  -2.735   0.763  0.00  0.00     0.015 A 
ENDBRANCH   4  15
TORSDOF 2
