REMARK  2 active torsions:
REMARK  status: ('A' for Active; 'I' for Inactive)
REMARK    1  A    between atoms: C_2  and  S_1 
REMARK    2  A    between atoms: N_3  and  S_1 
ROOT
ATOM      1  S   UNL d   1       0.974  -0.061   0.232  0.00  0.00     0.245 S 
ATOM      2  O   UNL d   1       0.259  -0.938   1.139  0.00  0.00    -0.206 OA
ATOM      3  O   UNL d   1       2.418  -0.107   0.189  0.00  0.00    -0.206 OA
ENDROOT
BRANCH   1   4
ATOM      4  C   UNL d   1       0.478   1.594   0.612  0.00  0.00     0.098 A 
ATOM      5  C   UNL d   1      -0.443   1.769   1.660  0.00  0.00     0.050 A 
ATOM      6  C   UNL d   1      -0.845   3.050   2.027  0.00  0.00     0.035 A 
ATOM      7 CL   UNL d   1      -1.978   3.255   3.303  0.00  0.00    -0.084 Cl
ATOM      8  C   UNL d   1      -0.335   4.161   1.365  0.00  0.00     0.025 A 
ATOM      9  C   UNL d   1       0.582   3.986   0.323  0.00  0.00     0.027 A 
ATOM     10  C   UNL d   1       0.992   2.701  -0.063  0.00  0.00     0.057 A 
ATOM     11 CL   UNL d   1       2.090   2.603  -1.388  0.00  0.00    -0.083 Cl
ENDBRANCH   1   4
BRANCH   1  12
ATOM     12  N   UNL d   1       0.370  -0.363  -1.333  0.00  0.00    -0.202 NA
ATOM     13  C   UNL d   1      -1.079  -0.107  -1.599  0.00  0.00     0.134 C 
ATOM     14  C   UNL d   1      -1.965  -1.234  -1.068  0.00  0.00     0.183 C 
ATOM     15  O   UNL d   1      -1.587  -2.494  -1.638  0.00  0.00    -0.389 OA
ATOM     16  C   UNL d   1      -0.217  -2.806  -1.336  0.00  0.00     0.183 C 
ATOM     17  C   UNL d   1       0.735  -1.722  -1.866  0.00  0.00     0.134 C 
ENDBRANCH   1  12
TORSDOF 2
