REMARK  9 active torsions:
REMARK  status: ('A' for Active; 'I' for Inactive)
REMARK    1  A    between atoms: C_5  and  C_1 
REMARK    2  A    between atoms: C_2  and  C_4 
REMARK       I    between atoms: N_3  and  C_5 
REMARK       I    between atoms: C_4  and  N_3 
REMARK    3  A    between atoms: C_14  and  N_3 
REMARK    4  A    between atoms: C_23  and  N_6 
REMARK    5  A    between atoms: C_22  and  N_7 
REMARK    6  A    between atoms: C_24  and  C_8 
REMARK    7  A    between atoms: C_25  and  C_9 
REMARK    8  A    between atoms: C_35  and  C_24 
REMARK    9  A    between atoms: C_34  and  C_25 
ROOT
ATOM      1  N   UNL d   1       0.073   3.662  -0.166  0.00  0.00    -0.228 N 
ATOM      2  C   UNL d   1      -0.431   4.974  -0.065  0.00  0.00     0.270 C 
ATOM      3  C   UNL d   1      -0.678   2.486  -0.039  0.00  0.00     0.270 C 
ATOM      4  O   UNL d   1      -0.130   5.833  -0.896  0.00  0.00    -0.266 OA
ATOM      5  O   UNL d   1      -0.252   1.507   0.563  0.00  0.00    -0.266 OA
ENDROOT
BRANCH   1   6
ATOM      6  C   UNL d   1       1.497   3.555  -0.360  0.00  0.00     0.118 A 
ATOM      7  N   UNL d   1       2.252   4.657  -0.130  0.00  0.00    -0.352 N 
ATOM      8  C   UNL d   1       3.589   4.588  -0.314  0.00  0.00     0.090 A 
ATOM      9  HN  UNL d   1       1.817   5.527   0.179  1.00  0.00     0.166 HD
ATOM     10  C   UNL d   1       4.253   3.439  -0.694  0.00  0.00     0.024 A 
ATOM     11  C   UNL d   1       3.500   2.291  -0.913  0.00  0.00    -0.057 A 
ATOM     12  C   UNL d   1       2.107   2.362  -0.767  0.00  0.00     0.056 A 
ATOM     13  C   UNL d   1       4.179   0.998  -1.252  0.00  0.00     0.048 C 
ENDBRANCH   1   6
BRANCH   3  14
ATOM     14  C   UNL d   1      -2.057   2.477  -0.552  0.00  0.00     0.074 C 
ATOM     15  C   UNL d   1      -3.103   1.619  -0.162  0.00  0.00     0.051 C 
ATOM     16  N   UNL d   1      -4.236   2.089  -0.835  0.00  0.00    -0.260 N 
ATOM     17  N   UNL d   1      -3.972   3.233  -1.514  0.00  0.00    -0.304 N 
ATOM     18  C   UNL d   1      -2.659   3.375  -1.455  0.00  0.00     0.126 C 
ATOM     19  HN  UNL d   1      -4.642   3.851  -1.972  1.00  0.00     0.186 HD
BRANCH  15  20
ATOM     20  C   UNL d   1      -3.150   0.628   0.983  0.00  0.00     0.060 C 
BRANCH  20  21
ATOM     21  C   UNL d   1      -2.869  -0.852   0.702  0.00  0.00     0.002 C 
ATOM     22  C   UNL d   1      -1.491  -1.185   0.161  0.00  0.00     0.005 C 
ENDBRANCH  20  21
ENDBRANCH  15  20
BRANCH  16  23
ATOM     23  C   UNL d   1      -5.529   1.531  -1.016  0.00  0.00     0.056 A 
ATOM     24  C   UNL d   1      -6.623   2.395  -1.190  0.00  0.00     0.031 A 
ATOM     25  C   UNL d   1      -7.852   1.897  -1.626  0.00  0.00     0.002 A 
ATOM     26  C   UNL d   1      -7.990   0.539  -1.903  0.00  0.00     0.000 A 
ATOM     27  C   UNL d   1      -6.914  -0.325  -1.707  0.00  0.00     0.002 A 
ATOM     28  C   UNL d   1      -5.685   0.168  -1.260  0.00  0.00     0.031 A 
ENDBRANCH  16  23
ENDBRANCH   3  14
BRANCH   2  29
ATOM     29  C   UNL d   1      -1.466   5.271   0.944  0.00  0.00     0.074 C 
ATOM     30  C   UNL d   1      -1.992   6.535   1.257  0.00  0.00     0.051 C 
ATOM     31  N   UNL d   1      -3.140   6.292   2.014  0.00  0.00    -0.260 N 
ATOM     32  N   UNL d   1      -3.221   4.983   2.361  0.00  0.00    -0.304 N 
ATOM     33  C   UNL d   1      -2.149   4.419   1.827  0.00  0.00     0.126 C 
ATOM     34  HN  UNL d   1      -3.950   4.531   2.913  1.00  0.00     0.186 HD
BRANCH  30  35
ATOM     35  C   UNL d   1      -1.523   7.888   0.799  0.00  0.00     0.060 C 
BRANCH  35  36
ATOM     36  C   UNL d   1      -0.448   8.502   1.715  0.00  0.00     0.002 C 
ATOM     37  C   UNL d   1       0.801   7.658   1.927  0.00  0.00     0.005 C 
ENDBRANCH  35  36
ENDBRANCH  30  35
BRANCH  31  38
ATOM     38  C   UNL d   1      -4.142   7.149   2.546  0.00  0.00     0.056 A 
ATOM     39  C   UNL d   1      -5.444   6.634   2.687  0.00  0.00     0.031 A 
ATOM     40  C   UNL d   1      -6.418   7.350   3.382  0.00  0.00     0.002 A 
ATOM     41  C   UNL d   1      -6.094   8.572   3.962  0.00  0.00     0.000 A 
ATOM     42  C   UNL d   1      -4.816   9.103   3.796  0.00  0.00     0.002 A 
ATOM     43  C   UNL d   1      -3.846   8.407   3.068  0.00  0.00     0.031 A 
ENDBRANCH  31  38
ENDBRANCH   2  29
TORSDOF 9
