REMARK  4 active torsions:
REMARK  status: ('A' for Active; 'I' for Inactive)
REMARK    1  A    between atoms: C_8  and  N_1 
REMARK    2  A    between atoms: C_3  and  C_2 
REMARK    3  A    between atoms: C_10  and  C_8 
REMARK    4  A    between atoms: O_11  and  C_9 
ROOT
ATOM      1  N   UNL d   1      -0.312   1.029  -0.023  0.00  0.00    -0.337 N 
ATOM      2  C   UNL d   1       1.016   0.644  -0.113  0.00  0.00     0.064 A 
ATOM      3  N   UNL d   1      -0.348  -1.190  -0.175  0.00  0.00    -0.360 N 
ATOM      4  HN  UNL d   1      -0.669  -2.157  -0.212  1.00  0.00     0.166 HD
ATOM      5  C   UNL d   1      -1.082  -0.109  -0.071  0.00  0.00     0.183 A 
ATOM      6  C   UNL d   1       0.941  -0.738  -0.224  0.00  0.00     0.119 A 
ENDROOT
BRANCH   2   7
ATOM      7  C   UNL d   1       2.204   1.511  -0.075  0.00  0.00     0.025 A 
ATOM      8  C   UNL d   1       3.342   1.192   0.690  0.00  0.00     0.078 A 
ATOM      9  C   UNL d   1       4.474   2.009   0.687  0.00  0.00     0.037 A 
ATOM     10  C   UNL d   1       4.483   3.185  -0.056  0.00  0.00     0.003 A 
ATOM     11  C   UNL d   1       3.372   3.522  -0.822  0.00  0.00     0.001 A 
ATOM     12  C   UNL d   1       2.256   2.681  -0.850  0.00  0.00     0.016 A 
BRANCH   8  13
ATOM     13  O   UNL d   1       3.426   0.085   1.494  0.00  0.00    -0.360 OA
ATOM     14  H   UNL d   1       2.525  -0.243   1.652  0.00  0.00     0.217 HD
ENDBRANCH   8  13
ENDBRANCH   2   7
BRANCH   1  15
ATOM     15  C   UNL d   1      -0.898   2.363   0.061  0.00  0.00     0.168 C 
BRANCH  15  16
ATOM     16  C   UNL d   1      -0.447   3.177   1.245  0.00  0.00    -0.040 A 
ATOM     17  C   UNL d   1      -0.212   4.553   1.084  0.00  0.00     0.009 A 
ATOM     18  C   UNL d   1       0.175   5.341   2.168  0.00  0.00     0.001 A 
ATOM     19  C   UNL d   1       0.320   4.768   3.429  0.00  0.00     0.000 A 
ATOM     20  C   UNL d   1       0.068   3.410   3.609  0.00  0.00     0.001 A 
ATOM     21  C   UNL d   1      -0.323   2.621   2.526  0.00  0.00     0.009 A 
ENDBRANCH  15  16
ENDBRANCH   1  15
TORSDOF 4
