REMARK  4 active torsions:
REMARK  status: ('A' for Active; 'I' for Inactive)
REMARK    1  A    between atoms: C_5  and  C_7 
REMARK    2  A    between atoms: C_7  and  C_6 
REMARK    3  A    between atoms: C_8  and  C_12 
REMARK    4  A    between atoms: C_9  and  C_13 
ROOT
ATOM      1  C   UNL d   1       0.088  -2.555  -0.045  0.00  0.00     0.167 C 
ENDROOT
BRANCH   1   2
ATOM      2  C   UNL d   1      -1.246  -3.187   0.085  0.00  0.00     0.121 C 
ATOM      3  N   UNL d   1      -1.779  -3.569   1.202  0.00  0.00    -0.367 N 
ATOM      4  C   UNL d   1      -3.048  -4.199   0.782  0.00  0.00     0.115 C 
ATOM      5  HN  UNL d   1      -1.411  -3.461   2.147  1.00  0.00     0.161 HD
ATOM      6  C   UNL d   1      -3.224  -3.761  -0.666  0.00  0.00     0.203 C 
ATOM      7  O   UNL d   1      -1.920  -3.367  -1.073  0.00  0.00    -0.337 OA
BRANCH   4   8
ATOM      8  C   UNL d   1      -4.201  -3.844   1.757  0.00  0.00    -0.029 C 
ATOM      9  C   UNL d   1      -4.431  -2.324   1.863  0.00  0.00     0.016 C 
ATOM     10  C   UNL d   1      -5.504  -4.516   1.287  0.00  0.00     0.016 C 
ATOM     11  C   UNL d   1      -3.865  -4.380   3.165  0.00  0.00     0.016 C 
ENDBRANCH   4   8
ENDBRANCH   1   2
BRANCH   1  12
ATOM     12  C   UNL d   1       0.103  -1.071   0.015  0.00  0.00     0.121 C 
ATOM     13  N   UNL d   1       1.200  -0.379  -0.026  0.00  0.00    -0.367 N 
ATOM     14  C   UNL d   1       0.745   1.018   0.127  0.00  0.00     0.115 C 
ATOM     15  HN  UNL d   1       2.154  -0.721  -0.138  1.00  0.00     0.161 HD
ATOM     16  C   UNL d   1      -0.757   0.947  -0.111  0.00  0.00     0.203 C 
ATOM     17  O   UNL d   1      -1.078  -0.425   0.090  0.00  0.00    -0.337 OA
BRANCH  14  18
ATOM     18  C   UNL d   1       1.563   1.966  -0.790  0.00  0.00    -0.029 C 
ATOM     19  C   UNL d   1       1.414   1.616  -2.283  0.00  0.00     0.016 C 
ATOM     20  C   UNL d   1       1.114   3.424  -0.577  0.00  0.00     0.016 C 
ATOM     21  C   UNL d   1       3.058   1.866  -0.416  0.00  0.00     0.016 C 
ENDBRANCH  14  18
ENDBRANCH   1  12
TORSDOF 4
