REMARK  5 active torsions:
REMARK  status: ('A' for Active; 'I' for Inactive)
REMARK    1  A    between atoms: C_7  and  S_1 
REMARK    2  A    between atoms: N_16  and  S_1 
REMARK    3  A    between atoms: N_2  and  C_19 
REMARK    4  A    between atoms: C_9  and  C_6 
REMARK    5  A    between atoms: C_27  and  N_16 
ROOT
ATOM      1  C   UNL d   1       1.608  -2.211   4.871  0.00  0.00     0.057 A 
ATOM      2  C   UNL d   1       0.977  -0.648   2.630  0.00  0.00     0.023 A 
ATOM      3  C   UNL d   1       2.623  -1.723   4.035  0.00  0.00     0.033 A 
ATOM      4  C   UNL d   1       0.269  -1.928   4.562  0.00  0.00     0.033 A 
ATOM      5  C   UNL d   1      -0.044  -1.129   3.454  0.00  0.00     0.027 A 
ATOM      6  C   UNL d   1       2.306  -0.933   2.927  0.00  0.00     0.027 A 
ENDROOT
BRANCH   1   7
ATOM      7  N   UNL d   1       1.919  -3.017   6.008  0.00  0.00    -0.255 N 
ATOM      8  C   UNL d   1       3.070  -3.037   6.792  0.00  0.00     0.076 C 
ATOM      9  C   UNL d   1       2.983  -4.191   7.546  0.00  0.00     0.069 C 
ATOM     10  C   UNL d   1       4.091  -2.020   6.843  0.00  0.00     0.033 A 
ATOM     11  C   UNL d   1       1.706  -4.740   7.279  0.00  0.00     0.135 C 
ATOM     12  N   UNL d   1       1.026  -3.962   6.418  0.00  0.00    -0.289 N 
ATOM     13  HN  UNL d   1       0.051  -4.059   6.132  1.00  0.00     0.187 HD
ATOM     14  S   UNL d   1       5.738  -2.418   7.117  0.00  0.00    -0.100 SA
ATOM     15  C   UNL d   1       3.929  -0.651   6.724  0.00  0.00     0.021 A 
ATOM     16  C   UNL d   1       6.227  -0.785   7.005  0.00  0.00     0.050 A 
ATOM     17  C   UNL d   1       5.163   0.058   6.778  0.00  0.00     0.008 A 
BRANCH  11  18
ATOM     18  C   UNL d   1       1.152  -6.002   7.891  0.00  0.00     0.434 C 
ATOM     19  F   UNL d   1      -0.085  -6.335   7.438  0.00  0.00    -0.165 F 
ATOM     20  F   UNL d   1       1.959  -7.070   7.639  0.00  0.00    -0.165 F 
ATOM     21  F   UNL d   1       1.063  -5.904   9.245  0.00  0.00    -0.165 F 
ENDBRANCH  11  18
ENDBRANCH   1   7
BRANCH   2  22
ATOM     22  N   UNL d   1       0.689   0.132   1.470  0.00  0.00    -0.181 NA
ATOM     23  H   UNL d   1      -0.085  -0.238   0.913  0.00  0.00     0.146 HD
BRANCH  22  24
ATOM     24  S   UNL d   1       0.430   1.792   1.694  0.00  0.00     0.250 S 
ATOM     25  O   UNL d   1       0.110   2.337   0.395  0.00  0.00    -0.205 OA
ATOM     26  O   UNL d   1      -0.459   1.981   2.818  0.00  0.00    -0.205 OA
BRANCH  24  27
ATOM     27  C   UNL d   1       1.905   2.531   2.130  0.00  0.00     0.130 A 
ATOM     28  C   UNL d   1       2.929   2.912   1.294  0.00  0.00     0.097 A 
ATOM     29  O   UNL d   1       3.936   3.431   2.048  0.00  0.00    -0.241 OA
ATOM     30  C   UNL d   1       3.176   2.892  -0.160  0.00  0.00     0.081 C 
ATOM     31  N   UNL d   1       3.589   3.387   3.384  0.00  0.00    -0.264 N 
ATOM     32  C   UNL d   1       2.360   2.853   3.429  0.00  0.00     0.054 A 
ATOM     33  HN  UNL d   1       4.153   3.697   4.176  1.00  0.00     0.194 HD
ATOM     34  C   UNL d   1       1.698   2.668   4.743  0.00  0.00     0.072 C 
ENDBRANCH  24  27
ENDBRANCH  22  24
ENDBRANCH   2  22
TORSDOF 5
