REMARK  4 active torsions:
REMARK  status: ('A' for Active; 'I' for Inactive)
REMARK    1  A    between atoms: S_2  and  C_1 
REMARK    2  A    between atoms: S_8  and  C_3 
REMARK    3  A    between atoms: C_4  and  C_5 
REMARK    4  A    between atoms: C_14  and  S_8 
ROOT
ATOM      1  C   UNL d   1       1.029   0.354   0.998  0.00  0.00     0.139 C 
ATOM      2  C   UNL d   1       0.394  -0.749   0.553  0.00  0.00     0.048 C 
ATOM      3  C   UNL d   1       0.380   1.574   1.312  0.00  0.00     0.111 C 
ATOM      4  N   UNL d   1      -0.166   2.571   1.530  0.00  0.00    -0.191 NA
ENDROOT
BRANCH   1   5
ATOM      5  S   UNL d   1       2.744   0.272   1.263  0.00  0.00     0.181 S 
ATOM      6  O   UNL d   1       3.143   1.246   2.262  0.00  0.00    -0.222 OA
ATOM      7  O   UNL d   1       3.140  -1.117   1.425  0.00  0.00    -0.222 OA
ATOM      8  C   UNL d   1       3.408   0.813  -0.290  0.00  0.00     0.168 C 
ENDBRANCH   1   5
BRANCH   2   9
ATOM      9  C   UNL d   1      -1.028  -0.892   0.421  0.00  0.00    -0.010 A 
ATOM     10  C   UNL d   1      -1.765  -0.669  -0.732  0.00  0.00     0.056 A 
ATOM     11  S   UNL d   1      -3.447  -0.869  -0.431  0.00  0.00    -0.094 SA
ATOM     12  C   UNL d   1      -3.177  -1.365   1.179  0.00  0.00     0.052 A 
ATOM     13  C   UNL d   1      -1.842  -1.335   1.510  0.00  0.00     0.020 A 
BRANCH  10  14
ATOM     14  S   UNL d   1      -1.153  -0.147  -2.303  0.00  0.00    -0.082 SA
BRANCH  14  15
ATOM     15  C   UNL d   1      -1.832  -1.383  -3.411  0.00  0.00     0.006 A 
ATOM     16  C   UNL d   1      -2.223  -0.983  -4.699  0.00  0.00     0.020 A 
ATOM     17  C   UNL d   1      -2.656  -1.923  -5.642  0.00  0.00     0.025 A 
ATOM     18  C   UNL d   1      -2.704  -3.272  -5.302  0.00  0.00     0.034 A 
ATOM     19  C   UNL d   1      -2.337  -3.684  -4.024  0.00  0.00     0.025 A 
ATOM     20 CL   UNL d   1      -3.192  -4.436  -6.471  0.00  0.00    -0.084 Cl
ATOM     21  C   UNL d   1      -1.896  -2.744  -3.085  0.00  0.00     0.020 A 
ENDBRANCH  14  15
ENDBRANCH  10  14
ENDBRANCH   2   9
TORSDOF 4
