REMARK  3 active torsions:
REMARK  status: ('A' for Active; 'I' for Inactive)
REMARK    1  A    between atoms: C_9  and  C_6 
REMARK    2  A    between atoms: C_10  and  C_7 
REMARK    3  A    between atoms: S_19  and  C_8 
ROOT
ATOM      1  N   UNL d   1       1.504   1.204   0.034  0.00  0.00    -0.342 N 
ATOM      2  HN  UNL d   1       2.044   2.069   0.051  1.00  0.00     0.167 HD
ATOM      3  C   UNL d   1      -0.592   0.072   0.005  0.00  0.00     0.101 A 
ATOM      4  N   UNL d   1       1.479  -1.154   0.001  0.00  0.00    -0.334 N 
ATOM      5  HN  UNL d   1       1.984  -2.040  -0.008  1.00  0.00     0.168 HD
ATOM      6  C   UNL d   1       2.128   0.017   0.016  0.00  0.00     0.135 A 
ATOM      7  C   UNL d   1       0.150   1.246   0.029  0.00  0.00     0.038 A 
ATOM      8  C   UNL d   1       0.130  -1.117  -0.002  0.00  0.00     0.093 A 
ATOM      9  C   UNL d   1      -2.017   0.102  -0.028  0.00  0.00     0.104 C 
ATOM     10  N   UNL d   1      -3.177   0.149  -0.052  0.00  0.00    -0.191 NA
ENDROOT
BRANCH   7  11
ATOM     11  C   UNL d   1      -0.427   2.649  -0.026  0.00  0.00     0.037 A 
ATOM     12  C   UNL d   1      -0.064   3.583   1.116  0.00  0.00     0.011 A 
ATOM     13  C   UNL d   1      -1.491   3.197   0.892  0.00  0.00     0.011 A 
ENDBRANCH   7  11
BRANCH   8  14
ATOM     14  S   UNL d   1      -0.666  -2.728  -0.040  0.00  0.00    -0.115 SA
ATOM     15  C   UNL d   1       0.778  -3.837  -0.061  0.00  0.00     0.097 C 
ENDBRANCH   8  14
BRANCH   6  16
ATOM     16  C   UNL d   1       3.603  -0.009  -0.027  0.00  0.00     0.092 A 
ATOM     17  N   UNL d   1       4.270   1.184   0.035  0.00  0.00    -0.360 N 
ATOM     18  C   UNL d   1       5.621   1.125  -0.027  0.00  0.00     0.105 A 
ATOM     19  HN  UNL d   1       3.775   2.071   0.123  1.00  0.00     0.165 HD
ATOM     20  C   UNL d   1       6.304  -0.068  -0.142  0.00  0.00     0.104 A 
ATOM     21  N   UNL d   1       5.671  -1.263  -0.203  0.00  0.00    -0.372 N 
ATOM     22  C   UNL d   1       4.315  -1.199  -0.143  0.00  0.00     0.121 A 
ATOM     23  HN  UNL d   1       6.175  -2.146  -0.289  1.00  0.00     0.164 HD
ENDBRANCH   6  16
TORSDOF 3
