REMARK  2 active torsions:
REMARK  status: ('A' for Active; 'I' for Inactive)
REMARK    1  A    between atoms: C_3  and  C_1 
REMARK    2  A    between atoms: C_10  and  N_2 
ROOT
ATOM      1  C   UNL d   1      -0.156  -1.462  -0.172  0.00  0.00     0.167 C 
ATOM      2  N   UNL d   1       1.057  -0.871   0.144  0.00  0.00    -0.223 N 
ATOM      3  N   UNL d   1       0.818   0.441   0.401  0.00  0.00     0.001 NA
ATOM      4  N   UNL d   1      -0.437   0.659   0.041  0.00  0.00    -0.007 NA
ATOM      5  N   UNL d   1      -1.050  -0.504  -0.336  0.00  0.00    -0.268 N 
ATOM      6  HN  UNL d   1      -2.007  -0.610  -0.674  1.00  0.00     0.185 HD
ENDROOT
BRANCH   2   7
ATOM      7  C   UNL d   1       2.386  -1.366   0.131  0.00  0.00     0.059 A 
ATOM      8  C   UNL d   1       2.751  -2.444  -0.686  0.00  0.00     0.055 A 
ATOM      9  C   UNL d   1       4.067  -2.911  -0.676  0.00  0.00     0.037 A 
ATOM     10 CL   UNL d   1       4.502  -4.236  -1.686  0.00  0.00    -0.084 Cl
ATOM     11  C   UNL d   1       5.029  -2.312   0.128  0.00  0.00     0.048 A 
ATOM     12  C   UNL d   1       4.673  -1.219   0.913  0.00  0.00     0.037 A 
ATOM     13  C   UNL d   1       3.364  -0.730   0.910  0.00  0.00     0.055 A 
ATOM     14 CL   UNL d   1       5.859  -0.468   1.910  0.00  0.00    -0.084 Cl
ENDBRANCH   2   7
BRANCH   1  15
ATOM     15  C   UNL d   1      -0.497  -2.908  -0.211  0.00  0.00     0.103 A 
ATOM     16  N   UNL d   1       0.310  -3.864   0.264  0.00  0.00    -0.257 N 
ATOM     17  O   UNL d   1      -0.353  -5.057   0.063  0.00  0.00    -0.242 OA
ATOM     18  HN  UNL d   1       1.229  -3.736   0.688  1.00  0.00     0.195 HD
ATOM     19  C   UNL d   1      -1.557  -4.813  -0.516  0.00  0.00     0.074 A 
ATOM     20  C   UNL d   1      -1.708  -3.459  -0.688  0.00  0.00     0.070 A 
ATOM     21  C   UNL d   1      -2.390  -5.992  -0.809  0.00  0.00     0.079 C 
ENDBRANCH   1  15
TORSDOF 2
