REMARK  1 active torsions:
REMARK  status: ('A' for Active; 'I' for Inactive)
REMARK    1  A    between atoms: C_7  and  C_1 
ROOT
ATOM      1  C   UNL d   1      -0.162   1.011   0.024  0.00  0.00     0.045 A 
ATOM      2  C   UNL d   1       1.046   0.153   0.001  0.00  0.00     0.253 A 
ATOM      3  N   UNL d   1       0.613  -1.150  -0.025  0.00  0.00    -0.353 N 
ATOM      4  C   UNL d   1      -1.215   0.176  -0.012  0.00  0.00    -0.050 A 
ATOM      5  C   UNL d   1      -0.808  -1.260  -0.028  0.00  0.00     0.157 A 
ATOM      6  O   UNL d   1       2.206   0.517  -0.004  0.00  0.00    -0.268 OA
ATOM      7  C   UNL d   1      -2.663   0.523  -0.038  0.00  0.00     0.046 C 
ATOM      8  H   UNL d   1       1.271  -1.916  -0.049  0.00  0.00     0.163 HD
ENDROOT
BRANCH   1   9
ATOM      9  C   UNL d   1      -0.143   2.465   0.080  0.00  0.00    -0.020 A 
ATOM     10  C   UNL d   1      -0.146   3.120   1.317  0.00  0.00     0.012 A 
ATOM     11  C   UNL d   1      -0.103   4.515   1.377  0.00  0.00     0.001 A 
ATOM     12  C   UNL d   1      -0.058   5.262   0.201  0.00  0.00     0.000 A 
ATOM     13  C   UNL d   1      -0.066   4.616  -1.036  0.00  0.00     0.001 A 
ATOM     14  C   UNL d   1      -0.113   3.222  -1.097  0.00  0.00     0.012 A 
ENDBRANCH   1   9
TORSDOF 1
