REMARK  2 active torsions:
REMARK  status: ('A' for Active; 'I' for Inactive)
REMARK    1  A    between atoms: C_6  and  N_1 
REMARK    2  A    between atoms: C_9  and  C_6 
ROOT
ATOM      1  N   UNL d   1       1.888   0.023  -0.109  0.00  0.00    -0.276 N 
ATOM      2  C   UNL d   1       1.103   1.143  -0.131  0.00  0.00     0.262 A 
ATOM      3  C   UNL d   1       1.143  -1.121  -0.040  0.00  0.00     0.262 A 
ATOM      4  C   UNL d   1      -0.283   0.679  -0.060  0.00  0.00     0.048 A 
ATOM      5  C   UNL d   1      -0.258  -0.703  -0.008  0.00  0.00     0.048 A 
ATOM      6  O   UNL d   1       1.430   2.312  -0.212  0.00  0.00    -0.267 OA
ATOM      7  O   UNL d   1       1.512  -2.279  -0.022  0.00  0.00    -0.267 OA
ATOM      8  C   UNL d   1      -1.416  -1.455   0.044  0.00  0.00     0.018 A 
ATOM      9  C   UNL d   1      -1.468   1.388  -0.059  0.00  0.00     0.018 A 
ATOM     10  C   UNL d   1      -2.630  -0.759   0.045  0.00  0.00     0.001 A 
ATOM     11  C   UNL d   1      -2.656   0.650  -0.005  0.00  0.00     0.001 A 
ENDROOT
BRANCH   1  12
ATOM     12  C   UNL d   1       3.332   0.043  -0.166  0.00  0.00     0.174 C 
BRANCH  12  13
ATOM     13  C   UNL d   1       3.945   0.133   1.212  0.00  0.00    -0.038 A 
ATOM     14  C   UNL d   1       4.213  -1.030   1.950  0.00  0.00     0.027 A 
ATOM     15  C   UNL d   1       4.733  -0.936   3.242  0.00  0.00     0.007 A 
ATOM     16  I   UNL d   1       5.103  -2.666   4.334  0.00  0.00    -0.045 I 
ATOM     17  C   UNL d   1       4.995   0.309   3.811  0.00  0.00     0.018 A 
ATOM     18  C   UNL d   1       4.734   1.470   3.082  0.00  0.00     0.002 A 
ATOM     19  C   UNL d   1       4.208   1.383   1.792  0.00  0.00     0.009 A 
ENDBRANCH  12  13
ENDBRANCH   1  12
TORSDOF 2
