REMARK  1 active torsions:
REMARK  status: ('A' for Active; 'I' for Inactive)
REMARK    1  A    between atoms: C_7  and  C_3 
ROOT
ATOM      1  O   UNL d   1       1.903  -0.874  -0.039  0.00  0.00    -0.302 OA
ATOM      2  C   UNL d   1       1.488   0.427  -0.069  0.00  0.00     0.295 A 
ATOM      3  C   UNL d   1       0.790  -1.802  -0.018  0.00  0.00     0.199 A 
ATOM      4  C   UNL d   1      -0.394  -0.906  -0.060  0.00  0.00    -0.008 A 
ATOM      5  C   UNL d   1       0.033   0.406  -0.078  0.00  0.00     0.048 A 
ATOM      6  O   UNL d   1       2.196   1.414  -0.077  0.00  0.00    -0.259 OA
ATOM      7  C   UNL d   1      -1.749  -1.201  -0.050  0.00  0.00     0.011 A 
ATOM      8  C   UNL d   1      -0.845   1.476  -0.072  0.00  0.00     0.018 A 
ATOM      9  C   UNL d   1      -2.660  -0.140  -0.040  0.00  0.00     0.001 A 
ATOM     10  C   UNL d   1      -2.211   1.191  -0.048  0.00  0.00     0.001 A 
ENDROOT
BRANCH   3  11
ATOM     11  C   UNL d   1       0.826  -2.681   1.215  0.00  0.00    -0.024 A 
ATOM     12  C   UNL d   1       1.347  -2.217   2.433  0.00  0.00     0.010 A 
ATOM     13  C   UNL d   1       1.270  -3.001   3.585  0.00  0.00     0.001 A 
ATOM     14  C   UNL d   1       0.671  -4.258   3.535  0.00  0.00     0.000 A 
ATOM     15  C   UNL d   1       0.163  -4.739   2.331  0.00  0.00     0.001 A 
ATOM     16  C   UNL d   1       0.240  -3.958   1.177  0.00  0.00     0.010 A 
ENDBRANCH   3  11
TORSDOF 1
