REMARK  2 active torsions:
REMARK  status: ('A' for Active; 'I' for Inactive)
REMARK    1  A    between atoms: C_13  and  C_8 
REMARK    2  A    between atoms: C_12  and  C_9 
ROOT
ATOM      1  C   UNL d   1       0.172  -0.806   0.016  0.00  0.00     0.147 A 
ATOM      2  N   UNL d   1       0.241   0.589   0.015  0.00  0.00    -0.243 N 
ATOM      3  C   UNL d   1       1.475  -1.239   0.016  0.00  0.00     0.081 A 
ATOM      4  N   UNL d   1       1.528   1.022   0.017  0.00  0.00    -0.294 N 
ATOM      5  HN  UNL d   1       1.850   1.990   0.019  1.00  0.00     0.187 HD
ATOM      6  N   UNL d   1      -1.016  -1.488   0.014  0.00  0.00    -0.336 N 
ATOM      7  HN  UNL d   1      -1.043  -2.507   0.016  1.00  0.00     0.167 HD
ATOM      8  C   UNL d   1       2.293  -0.085   0.016  0.00  0.00     0.055 A 
ATOM      9  C   UNL d   1      -2.115  -0.777   0.011  0.00  0.00     0.120 A 
ATOM     10  C   UNL d   1      -0.937   1.355   0.011  0.00  0.00     0.034 A 
ATOM     11  C   UNL d   1      -2.129   0.726   0.007  0.00  0.00     0.061 A 
ATOM     12 BR   UNL d   1       1.998  -3.041   0.009  0.00  0.00    -0.045 Br
ATOM     13  C   UNL d   1      -0.852   2.850   0.009  0.00  0.00     0.070 C 
ENDROOT
BRANCH   8  14
ATOM     14  C   UNL d   1       3.819   0.046   0.007  0.00  0.00    -0.006 C 
ATOM     15  C   UNL d   1       4.414  -0.584  -1.268  0.00  0.00     0.021 C 
ATOM     16  C   UNL d   1       4.272   1.528   0.029  0.00  0.00     0.021 C 
ATOM     17  C   UNL d   1       4.440  -0.624   1.250  0.00  0.00     0.021 C 
ENDBRANCH   8  14
BRANCH   9  18
ATOM     18  C   UNL d   1      -3.473  -1.485   0.009  0.00  0.00     0.432 C 
ATOM     19  F   UNL d   1      -4.520  -0.611   0.011  0.00  0.00    -0.165 F 
ATOM     20  F   UNL d   1      -3.643  -2.275  -1.085  0.00  0.00    -0.165 F 
ATOM     21  F   UNL d   1      -3.643  -2.280   1.099  0.00  0.00    -0.165 F 
ENDBRANCH   9  18
TORSDOF 2
