REMARK  2 active torsions:
REMARK  status: ('A' for Active; 'I' for Inactive)
REMARK    1  A    between atoms: C_9  and  C_2 
REMARK    2  A    between atoms: O_15  and  C_9 
ROOT
ATOM      1  N   UNL d   1      -0.004   0.720   0.009  0.00  0.00    -0.274 N 
ATOM      2  C   UNL d   1       2.430   0.771  -0.023  0.00  0.00     0.121 A 
ATOM      3  C   UNL d   1       1.145   1.496   0.023  0.00  0.00     0.271 A 
ATOM      4  C   UNL d   1       0.096  -0.666   0.019  0.00  0.00     0.114 A 
ATOM      5  N   UNL d   1       1.222  -1.310   0.015  0.00  0.00    -0.351 N 
ATOM      6  HN  UNL d   1       1.251  -2.329   0.036  1.00  0.00     0.166 HD
ATOM      7  C   UNL d   1       2.372  -0.566  -0.020  0.00  0.00     0.113 A 
ATOM      8  C   UNL d   1      -1.245   1.343  -0.013  0.00  0.00     0.102 A 
ATOM      9  C   UNL d   1      -1.178  -1.437   0.036  0.00  0.00     0.056 A 
ATOM     10  C   UNL d   1      -2.388   0.645  -0.016  0.00  0.00     0.024 A 
ATOM     11  C   UNL d   1      -2.360  -0.800   0.021  0.00  0.00    -0.057 A 
ATOM     12  O   UNL d   1       1.167   2.729   0.069  0.00  0.00    -0.266 OA
ATOM     13  C   UNL d   1      -3.662  -1.541   0.033  0.00  0.00     0.048 C 
ENDROOT
BRANCH   2  14
ATOM     14  C   UNL d   1       3.746   1.437  -0.075  0.00  0.00     0.183 C 
ATOM     15  O   UNL d   1       4.803   0.827  -0.149  0.00  0.00    -0.646 OA
BRANCH  14  16
ATOM     16  O   UNL d   1       3.704   2.786  -0.037  0.00  0.00    -0.772 OA
ATOM     17  H   UNL d   1       2.796   3.171   0.023  0.00  0.00     0.167 HD
ENDBRANCH  14  16
ENDBRANCH   2  14
TORSDOF 2
