REMARK  8 active torsions:
REMARK  status: ('A' for Active; 'I' for Inactive)
REMARK       I    between atoms: N_6  and  C_1 
REMARK    1  A    between atoms: C_7  and  C_1 
REMARK    2  A    between atoms: C_2  and  C_8 
REMARK       I    between atoms: N_5  and  C_2 
REMARK    3  A    between atoms: C_8  and  N_3 
REMARK    4  A    between atoms: N_4  and  C_7 
REMARK    5  A    between atoms: C_9  and  N_5 
REMARK    6  A    between atoms: C_10  and  N_6 
REMARK    7  A    between atoms: S_21  and  C_19 
REMARK    8  A    between atoms: S_22  and  C_20 
ROOT
ATOM      1  N   UNL d   1      -2.324  -1.547  -3.394  0.00  0.00     0.100 N 
ATOM      2  N   UNL d   1      -1.378   0.295  -1.135  0.00  0.00     0.100 N 
ATOM      3  C   UNL d   1      -1.980  -0.118  -3.589  0.00  0.00     0.303 C 
ATOM      4  C   UNL d   1      -2.070   0.808  -2.345  0.00  0.00     0.303 C 
ATOM      5  C   UNL d   1      -1.763  -2.037  -2.105  0.00  0.00     0.303 C 
ATOM      6  C   UNL d   1      -1.895  -1.071  -0.897  0.00  0.00     0.303 C 
ENDROOT
BRANCH   1   7
ATOM      7  C   UNL d   1      -3.784  -1.793  -3.404  0.00  0.00     0.375 C 
BRANCH   7   8
ATOM      8  C   UNL d   1      -4.484  -1.392  -4.707  0.00  0.00     0.250 C 
ATOM      9  N   UNL d   1      -3.746  -1.602  -5.860  0.00  0.00    -0.326 N 
ATOM     10  H   UNL d   1      -2.817  -1.982  -5.716  0.00  0.00     0.169 HD
ATOM     11  O   UNL d   1      -5.644  -0.977  -4.650  0.00  0.00    -0.271 OA
BRANCH   9  12
ATOM     12  C   UNL d   1      -4.172  -1.364  -7.193  0.00  0.00     0.036 A 
ATOM     13  C   UNL d   1      -5.410  -0.788  -7.514  0.00  0.00     0.048 A 
ATOM     14  C   UNL d   1      -5.818  -0.617  -8.843  0.00  0.00     0.002 A 
ATOM     15  C   UNL d   1      -4.945  -0.989  -9.868  0.00  0.00     0.018 A 
ATOM     16  C   UNL d   1      -3.695  -1.533  -9.568  0.00  0.00     0.004 A 
ATOM     17  C   UNL d   1      -3.313  -1.723  -8.235  0.00  0.00     0.029 A 
BRANCH  14  18
ATOM     18  S   UNL d   1      -7.403   0.075  -9.308  0.00  0.00    -0.134 SA
ATOM     19  C   UNL d   1      -8.433  -0.310  -7.861  0.00  0.00     0.095 C 
ENDBRANCH  14  18
ENDBRANCH   9  12
ENDBRANCH   7   8
ENDBRANCH   1   7
BRANCH   2  20
ATOM     20  C   UNL d   1       0.087   0.320  -1.374  0.00  0.00     0.375 C 
BRANCH  20  21
ATOM     21  C   UNL d   1       0.916  -0.275  -0.240  0.00  0.00     0.250 C 
ATOM     22  N   UNL d   1       0.571   0.172   1.024  0.00  0.00    -0.326 N 
ATOM     23  H   UNL d   1      -0.181   0.854   1.060  0.00  0.00     0.169 HD
ATOM     24  O   UNL d   1       1.854  -1.026  -0.514  0.00  0.00    -0.271 OA
BRANCH  22  25
ATOM     25  C   UNL d   1       1.226  -0.163   2.230  0.00  0.00     0.036 A 
ATOM     26  C   UNL d   1       2.157  -1.205   2.317  0.00  0.00     0.048 A 
ATOM     27  C   UNL d   1       2.865  -1.462   3.495  0.00  0.00     0.002 A 
ATOM     28  C   UNL d   1       2.588  -0.691   4.625  0.00  0.00     0.018 A 
ATOM     29  C   UNL d   1       1.627   0.323   4.569  0.00  0.00     0.004 A 
ATOM     30  C   UNL d   1       0.946   0.584   3.375  0.00  0.00     0.029 A 
BRANCH  27  31
ATOM     31  S   UNL d   1       4.094  -2.758   3.619  0.00  0.00    -0.134 SA
ATOM     32  C   UNL d   1       4.729  -2.837   1.915  0.00  0.00     0.095 C 
ENDBRANCH  27  31
ENDBRANCH  22  25
ENDBRANCH  20  21
ENDBRANCH   2  20
TORSDOF 8
