REMARK  4 active torsions:
REMARK  status: ('A' for Active; 'I' for Inactive)
REMARK    1  A    between atoms: C_8  and  C_1 
REMARK    2  A    between atoms: C_12  and  C_7 
REMARK       I    between atoms: C_9  and  N_10 
REMARK    3  A    between atoms: C_13  and  C_9 
REMARK    4  A    between atoms: N_10  and  C_11 
ROOT
ATOM      1  C   UNL d   1      -0.472  -2.926   0.362  0.00  0.00     0.043 A 
ATOM      2  C   UNL d   1      -1.237  -2.945  -0.817  0.00  0.00     0.049 A 
ATOM      3  C   UNL d   1      -0.478  -4.103   1.153  0.00  0.00     0.018 A 
ATOM      4  C   UNL d   1      -1.863  -4.139  -1.230  0.00  0.00     0.030 A 
ATOM      5  C   UNL d   1      -1.144  -5.264   0.763  0.00  0.00     0.001 A 
ATOM      6  C   UNL d   1      -1.820  -5.289  -0.445  0.00  0.00     0.002 A 
ENDROOT
BRANCH   1   7
ATOM      7  C   UNL d   1       0.447  -1.851   0.750  0.00  0.00     0.177 A 
ATOM      8  O   UNL d   1       1.345  -2.212   1.727  0.00  0.00    -0.273 OA
ATOM      9  C   UNL d   1       2.170  -1.132   1.811  0.00  0.00     0.174 A 
ATOM     10  N   UNL d   1       1.811  -0.165   0.995  0.00  0.00    -0.277 N 
ATOM     11  N   UNL d   1       0.714  -0.650   0.278  0.00  0.00    -0.277 N 
ATOM     12  HN  UNL d   1       2.245   0.753   0.905  1.00  0.00     0.189 HD
ATOM     13  HN  UNL d   1       0.215  -0.167  -0.470  1.00  0.00     0.189 HD
BRANCH   9  14
ATOM     14  C   UNL d   1       3.274  -1.268   2.756  0.00  0.00     0.018 A 
ATOM     15  C   UNL d   1       3.726  -2.544   3.141  0.00  0.00     0.041 A 
ATOM     16  C   UNL d   1       4.770  -2.698   4.060  0.00  0.00     0.056 A 
ATOM     17 CL   UNL d   1       5.251  -4.308   4.463  0.00  0.00    -0.083 Cl
ATOM     18  C   UNL d   1       5.378  -1.570   4.612  0.00  0.00     0.055 A 
ATOM     19  C   UNL d   1       4.945  -0.296   4.231  0.00  0.00     0.026 A 
ATOM     20 CL   UNL d   1       6.659  -1.681   5.766  0.00  0.00    -0.083 Cl
ATOM     21  C   UNL d   1       3.905  -0.146   3.304  0.00  0.00     0.017 A 
ENDBRANCH   9  14
ENDBRANCH   1   7
BRANCH   2  22
ATOM     22  N   UNL d   1      -1.478  -1.832  -1.665  0.00  0.00    -0.322 N 
ATOM     23  C   UNL d   1      -2.278  -0.788  -1.196  0.00  0.00     0.256 C 
ATOM     24  O   UNL d   1      -2.352  -0.460  -0.015  0.00  0.00    -0.267 OA
ATOM     25  H   UNL d   1      -1.658  -2.099  -2.618  0.00  0.00     0.169 HD
BRANCH  23  26
ATOM     26  C   UNL d   1      -3.209  -0.139  -2.196  0.00  0.00     0.032 A 
ATOM     27  C   UNL d   1      -4.031   0.906  -1.738  0.00  0.00     0.023 A 
ATOM     28  C   UNL d   1      -5.023   1.469  -2.558  0.00  0.00    -0.061 A 
ATOM     29  C   UNL d   1      -5.899   2.581  -2.059  0.00  0.00     0.048 C 
ATOM     30  C   UNL d   1      -5.181   0.994  -3.862  0.00  0.00     0.007 A 
ATOM     31  C   UNL d   1      -4.365  -0.028  -4.339  0.00  0.00     0.002 A 
ATOM     32  C   UNL d   1      -3.383  -0.590  -3.515  0.00  0.00     0.017 A 
ENDBRANCH  23  26
ENDBRANCH   2  22
TORSDOF 4
