REMARK  3 active torsions:
REMARK  status: ('A' for Active; 'I' for Inactive)
REMARK    1  A    between atoms: C_4  and  C_3 
REMARK    2  A    between atoms: C_11  and  C_5 
REMARK    3  A    between atoms: N_12  and  C_8 
ROOT
ATOM      1  C   UNL d   1      -0.126  -2.722  -0.019  0.00  0.00     0.093 C 
ATOM      2  C   UNL d   1      -0.071  -1.373  -0.008  0.00  0.00     0.110 C 
ATOM      3  C   UNL d   1      -1.384  -3.393  -0.122  0.00  0.00     0.103 C 
ATOM      4  N   UNL d   1      -2.398  -3.952  -0.210  0.00  0.00    -0.191 NA
ENDROOT
BRANCH   1   5
ATOM      5  C   UNL d   1       1.100  -3.493  -0.003  0.00  0.00     0.096 A 
ATOM      6  N   UNL d   1       2.348  -3.040   0.046  0.00  0.00    -0.348 N 
ATOM      7  C   UNL d   1       3.274  -4.081   0.006  0.00  0.00     0.050 A 
ATOM      8  HN  UNL d   1       2.598  -2.053   0.106  1.00  0.00     0.166 HD
ATOM      9  C   UNL d   1       2.720  -5.340  -0.023  0.00  0.00     0.082 A 
ATOM     10  S   UNL d   1       1.023  -5.241  -0.040  0.00  0.00    -0.080 SA
BRANCH   7  11
ATOM     11  C   UNL d   1       4.717  -3.854   0.019  0.00  0.00    -0.009 A 
ATOM     12  C   UNL d   1       5.250  -2.744   0.693  0.00  0.00     0.015 A 
ATOM     13  C   UNL d   1       6.634  -2.534   0.731  0.00  0.00     0.024 A 
ATOM     14  C   UNL d   1       7.495  -3.424   0.087  0.00  0.00     0.034 A 
ATOM     15  C   UNL d   1       6.983  -4.524  -0.593  0.00  0.00     0.024 A 
ATOM     16 CL   UNL d   1       9.192  -3.162   0.130  0.00  0.00    -0.084 Cl
ATOM     17  C   UNL d   1       5.599  -4.736  -0.627  0.00  0.00     0.015 A 
ENDBRANCH   7  11
ENDBRANCH   1   5
BRANCH   2  18
ATOM     18  N   UNL d   1      -1.066  -0.383   0.001  0.00  0.00    -0.397 N 
ATOM     19  C   UNL d   1      -2.437  -0.556   0.493  0.00  0.00     0.148 C 
ATOM     20  C   UNL d   1      -0.816   0.954  -0.545  0.00  0.00     0.148 C 
ENDBRANCH   2  18
TORSDOF 3
