REMARK  4 active torsions:
REMARK  status: ('A' for Active; 'I' for Inactive)
REMARK    1  A    between atoms: N_2  and  S_1 
REMARK    2  A    between atoms: C_7  and  S_1 
REMARK    3  A    between atoms: C_12  and  C_5 
REMARK    4  A    between atoms: C_6  and  C_13 
ROOT
ATOM      1  N   UNL d   1      -0.489   2.128   0.453  0.00  0.00    -0.188 N 
ATOM      2  N   UNL d   1      -0.105   3.307   1.030  0.00  0.00    -0.284 N 
ATOM      3  HN  UNL d   1      -0.023   3.516   2.025  1.00  0.00     0.188 HD
ATOM      4  C   UNL d   1       0.141   4.128  -0.006  0.00  0.00     0.060 A 
ATOM      5  C   UNL d   1      -0.442   2.173  -0.914  0.00  0.00     0.131 A 
ATOM      6  C   UNL d   1      -0.032   3.441  -1.241  0.00  0.00     0.052 A 
ENDROOT
BRANCH   1   7
ATOM      7  S   UNL d   1      -1.000   0.708   1.301  0.00  0.00     0.282 S 
ATOM      8  O   UNL d   1       0.106   0.318   2.149  0.00  0.00    -0.198 OA
ATOM      9  O   UNL d   1      -1.534  -0.200   0.279  0.00  0.00    -0.198 OA
BRANCH   7  10
ATOM     10  C   UNL d   1      -2.350   1.218   2.338  0.00  0.00     0.082 A 
ATOM     11  C   UNL d   1      -2.106   2.096   3.401  0.00  0.00     0.041 A 
ATOM     12  C   UNL d   1      -3.153   2.460   4.267  0.00  0.00     0.049 A 
ATOM     13  C   UNL d   1      -4.433   1.924   4.051  0.00  0.00     0.016 A 
ATOM     14  C   UNL d   1      -4.667   1.034   3.000  0.00  0.00     0.002 A 
ATOM     15  C   UNL d   1      -3.624   0.677   2.140  0.00  0.00     0.025 A 
BRANCH  12  16
ATOM     16  C   UNL d   1      -2.919   3.401   5.424  0.00  0.00     0.417 C 
ATOM     17  F   UNL d   1      -1.626   3.810   5.546  0.00  0.00    -0.166 F 
ATOM     18  F   UNL d   1      -3.664   4.537   5.326  0.00  0.00    -0.166 F 
ATOM     19  F   UNL d   1      -3.248   2.843   6.622  0.00  0.00    -0.166 F 
ENDBRANCH  12  16
ENDBRANCH   7  10
ENDBRANCH   1   7
BRANCH   4  20
ATOM     20  C   UNL d   1       0.408   5.564   0.190  0.00  0.00    -0.007 C 
ATOM     21  C   UNL d   1       0.841   6.071   1.423  0.00  0.00     0.023 C 
ATOM     22  C   UNL d   1       0.885   7.455   1.640  0.00  0.00    -0.024 C 
ATOM     23  C   UNL d   1       1.664   8.075   2.761  0.00  0.00     0.044 C 
ATOM     24  C   UNL d   1       0.279   8.314   0.725  0.00  0.00     0.076 C 
ATOM     25  C   UNL d   1       2.015   9.513   2.328  0.00  0.00     0.042 C 
ATOM     26  C   UNL d   1       0.702  10.273   2.068  0.00  0.00     0.061 C 
ATOM     27  O   UNL d   1      -0.062   9.602   1.033  0.00  0.00    -0.340 OA
ATOM     28  C   UNL d   1      -0.050  10.406   3.414  0.00  0.00     0.046 C 
ATOM     29  C   UNL d   1       0.910  11.700   1.518  0.00  0.00     0.046 C 
ATOM     30  C   UNL d   1       0.026   7.844  -0.560  0.00  0.00     0.038 C 
ATOM     31  C   UNL d   1       0.155   6.481  -0.840  0.00  0.00     0.016 C 
ENDBRANCH   4  20
TORSDOF 4
