REMARK  3 active torsions:
REMARK  status: ('A' for Active; 'I' for Inactive)
REMARK    1  A    between atoms: C_8  and  C_1 
REMARK    2  A    between atoms: O_14  and  C_8 
REMARK    3  A    between atoms: C_15  and  O_14 
ROOT
ATOM      1  C   UNL d   1      -0.199  -1.223  -0.087  0.00  0.00     0.132 A 
ATOM      2  C   UNL d   1      -0.822   0.915  -0.037  0.00  0.00     0.118 A 
ATOM      3  C   UNL d   1      -1.325  -0.368  -0.018  0.00  0.00     0.078 A 
ATOM      4  N   UNL d   1       0.930  -0.502  -0.164  0.00  0.00    -0.255 N 
ATOM      5  HN  UNL d   1       1.883  -0.860  -0.232  1.00  0.00     0.195 HD
ATOM      6  O   UNL d   1       0.541   0.821  -0.132  0.00  0.00    -0.236 OA
ATOM      7  C   UNL d   1      -1.506   2.176   0.040  0.00  0.00     0.040 A 
ATOM      8  S   UNL d   1      -3.211   2.283   0.187  0.00  0.00    -0.099 SA
ATOM      9  C   UNL d   1      -0.927   3.430   0.016  0.00  0.00     0.022 A 
ATOM     10  C   UNL d   1      -3.171   3.989   0.235  0.00  0.00     0.050 A 
ATOM     11  C   UNL d   1      -1.889   4.478   0.130  0.00  0.00     0.008 A 
ENDROOT
BRANCH   1  12
ATOM     12  C   UNL d   1      -0.208  -2.679  -0.008  0.00  0.00     0.311 C 
ATOM     13  O   UNL d   1      -1.236  -3.328   0.146  0.00  0.00    -0.258 OA
BRANCH  12  14
ATOM     14  O   UNL d   1       1.048  -3.215  -0.013  0.00  0.00    -0.317 OA
BRANCH  14  15
ATOM     15  C   UNL d   1       1.164  -4.503   0.599  0.00  0.00     0.175 C 
ATOM     16  C   UNL d   1       1.327  -4.293   2.095  0.00  0.00     0.034 C 
ENDBRANCH  14  15
ENDBRANCH  12  14
ENDBRANCH   1  12
TORSDOF 3
