REMARK  5 active torsions:
REMARK  status: ('A' for Active; 'I' for Inactive)
REMARK       I    between atoms: C_6  and  N_1 
REMARK    1  A    between atoms: S_11  and  C_4 
REMARK    2  A    between atoms: C_10  and  C_6 
REMARK    3  A    between atoms: C_8  and  C_7 
REMARK    4  A    between atoms: O_12  and  C_15 
REMARK    5  A    between atoms: C_18  and  O_12 
ROOT
ATOM      1  N   UNL d   1       0.780  -0.787   0.104  0.00  0.00    -0.213 N 
ATOM      2  N   UNL d   1       0.848   0.573   0.011  0.00  0.00    -0.290 N 
ATOM      3  HN  UNL d   1       1.694   1.141  -0.044  1.00  0.00     0.188 HD
ATOM      4  C   UNL d   1      -0.537  -1.207   0.160  0.00  0.00     0.098 A 
ATOM      5  C   UNL d   1      -1.319  -0.080   0.067  0.00  0.00     0.070 A 
ATOM      6  C   UNL d   1       1.990  -1.521   0.105  0.00  0.00     0.277 C 
ATOM      7  C   UNL d   1      -0.418   1.012   0.006  0.00  0.00     0.061 A 
ATOM      8  O   UNL d   1       1.956  -2.708  -0.216  0.00  0.00    -0.265 OA
ENDROOT
BRANCH   7   9
ATOM      9  C   UNL d   1      -0.714   2.452   0.015  0.00  0.00    -0.008 A 
ATOM     10  C   UNL d   1       0.328   3.390  -0.092  0.00  0.00     0.016 A 
ATOM     11  C   UNL d   1       0.077   4.762   0.008  0.00  0.00     0.038 A 
ATOM     12  C   UNL d   1      -1.219   5.213   0.255  0.00  0.00     0.076 A 
ATOM     13  C   UNL d   1      -2.272   4.300   0.299  0.00  0.00     0.038 A 
ATOM     14  C   UNL d   1      -2.022   2.928   0.182  0.00  0.00     0.016 A 
BRANCH  12  15
ATOM     15  O   UNL d   1      -1.548   6.540   0.401  0.00  0.00    -0.311 OA
BRANCH  15  16
ATOM     16  C   UNL d   1      -0.727   7.359   1.146  0.00  0.00     0.076 A 
ATOM     17  C   UNL d   1      -0.689   8.700   0.757  0.00  0.00     0.037 A 
ATOM     18  C   UNL d   1       0.106   9.611   1.454  0.00  0.00     0.003 A 
ATOM     19  C   UNL d   1       0.860   9.185   2.546  0.00  0.00     0.000 A 
ATOM     20  C   UNL d   1       0.800   7.854   2.958  0.00  0.00     0.003 A 
ATOM     21  C   UNL d   1      -0.008   6.945   2.271  0.00  0.00     0.037 A 
ENDBRANCH  15  16
ENDBRANCH  12  15
ENDBRANCH   7   9
BRANCH   4  22
ATOM     22  S   UNL d   1      -1.036  -2.834   0.514  0.00  0.00    -0.115 SA
ATOM     23  C   UNL d   1      -1.179  -3.525  -1.147  0.00  0.00     0.097 C 
ENDBRANCH   4  22
BRANCH   6  24
ATOM     24  C   UNL d   1       3.311  -0.926   0.456  0.00  0.00     0.034 A 
ATOM     25  C   UNL d   1       3.422   0.056   1.450  0.00  0.00     0.017 A 
ATOM     26  C   UNL d   1       4.673   0.568   1.795  0.00  0.00     0.001 A 
ATOM     27  C   UNL d   1       5.819   0.098   1.157  0.00  0.00     0.000 A 
ATOM     28  C   UNL d   1       5.717  -0.891   0.176  0.00  0.00     0.001 A 
ATOM     29  C   UNL d   1       4.468  -1.408  -0.170  0.00  0.00     0.017 A 
ENDBRANCH   6  24
TORSDOF 5
