REMARK  4 active torsions:
REMARK  status: ('A' for Active; 'I' for Inactive)
REMARK    1  A    between atoms: C_6  and  C_2 
REMARK    2  A    between atoms: S_7  and  C_3 
REMARK    3  A    between atoms: C_10  and  S_7 
REMARK    4  A    between atoms: C_12  and  C_10 
ROOT
ATOM      1  S   UNL d   1      -1.007  -0.001  -0.032  0.00  0.00    -0.081 SA
ATOM      2  C   UNL d   1       0.180   1.238  -0.036  0.00  0.00     0.033 A 
ATOM      3  C   UNL d   1       0.161  -1.251   0.005  0.00  0.00     0.042 A 
ATOM      4  C   UNL d   1       1.448   0.691   0.066  0.00  0.00     0.023 A 
ATOM      5  C   UNL d   1       1.438  -0.739   0.068  0.00  0.00     0.027 A 
ENDROOT
BRANCH   3   6
ATOM      6  S   UNL d   1      -0.350  -2.931  -0.094  0.00  0.00    -0.118 SA
BRANCH   6   7
ATOM      7  C   UNL d   1       0.953  -3.817   0.800  0.00  0.00     0.118 C 
BRANCH   7   8
ATOM      8  C   UNL d   1       0.690  -5.305   0.829  0.00  0.00    -0.049 A 
ATOM      9  C   UNL d   1       1.139  -6.127  -0.218  0.00  0.00     0.009 A 
ATOM     10  C   UNL d   1       0.897  -7.503  -0.196  0.00  0.00     0.024 A 
ATOM     11  C   UNL d   1       0.198  -8.065   0.869  0.00  0.00     0.034 A 
ATOM     12  C   UNL d   1      -0.268  -7.263   1.908  0.00  0.00     0.024 A 
ATOM     13 CL   UNL d   1      -0.092  -9.761   0.900  0.00  0.00    -0.084 Cl
ATOM     14  C   UNL d   1      -0.027  -5.886   1.887  0.00  0.00     0.009 A 
ENDBRANCH   7   8
ENDBRANCH   6   7
ENDBRANCH   3   6
BRANCH   2  15
ATOM     15  C   UNL d   1      -0.196   2.658  -0.131  0.00  0.00     0.049 A 
ATOM     16  N   UNL d   1       0.684   3.512   0.450  0.00  0.00    -0.365 N 
ATOM     17  C   UNL d   1       0.407   4.834   0.374  0.00  0.00     0.088 A 
ATOM     18  HN  UNL d   1       1.520   3.171   0.925  1.00  0.00     0.165 HD
ATOM     19  C   UNL d   1      -0.702   5.357  -0.271  0.00  0.00     0.017 A 
ATOM     20  C   UNL d   1      -1.584   4.472  -0.872  0.00  0.00     0.004 A 
ATOM     21  C   UNL d   1      -1.332   3.103  -0.802  0.00  0.00     0.031 A 
ENDBRANCH   2  15
TORSDOF 4
