REMARK  6 active torsions:
REMARK  status: ('A' for Active; 'I' for Inactive)
REMARK    1  A    between atoms: C_7  and  C_1 
REMARK    2  A    between atoms: C_10  and  N_2 
REMARK    3  A    between atoms: C_11  and  C_6 
REMARK       I    between atoms: N_9  and  C_7 
REMARK    4  A    between atoms: C_8  and  N_12 
REMARK    5  A    between atoms: N_12  and  N_9 
REMARK    6  A    between atoms: C_16  and  C_10 
ROOT
ATOM      1  C   UNL d   1      -0.297  -1.325   0.234  0.00  0.00     0.122 A 
ATOM      2  N   UNL d   1       0.922  -0.699   0.165  0.00  0.00    -0.282 N 
ATOM      3  N   UNL d   1       0.832   0.636  -0.015  0.00  0.00    -0.301 N 
ATOM      4  HN  UNL d   1       1.597   1.293  -0.169  1.00  0.00     0.187 HD
ATOM      5  C   UNL d   1      -1.216  -0.283   0.166  0.00  0.00     0.064 A 
ATOM      6  C   UNL d   1      -0.474   0.913   0.051  0.00  0.00     0.036 A 
ENDROOT
BRANCH   1   7
ATOM      7  C   UNL d   1      -0.620  -2.735   0.276  0.00  0.00     0.288 C 
ATOM      8  N   UNL d   1       0.247  -3.614   0.940  0.00  0.00    -0.262 N 
ATOM      9  H   UNL d   1       0.749  -3.245   1.740  0.00  0.00     0.190 HD
ATOM     10  O   UNL d   1      -1.668  -3.168  -0.210  0.00  0.00    -0.264 OA
BRANCH   8  11
ATOM     11  N   UNL d   1      -0.298  -4.918   1.091  0.00  0.00    -0.274 N 
ATOM     12  H   UNL d   1      -1.210  -5.043   0.639  0.00  0.00     0.189 HD
BRANCH  11  13
ATOM     13  C   UNL d   1       0.388  -6.066   1.376  0.00  0.00     0.186 C 
ATOM     14  S   UNL d   1      -0.406  -7.514   1.118  0.00  0.00    -0.040 SA
ATOM     15  N   UNL d   1       1.649  -5.919   1.875  0.00  0.00    -0.370 N 
ATOM     16  C   UNL d   1       2.519  -6.978   2.365  0.00  0.00     0.148 C 
ATOM     17  H   UNL d   1       1.996  -4.978   1.947  0.00  0.00     0.161 HD
ENDBRANCH  11  13
ENDBRANCH   8  11
ENDBRANCH   1   7
BRANCH   2  18
ATOM     18  C   UNL d   1       2.265  -1.256   0.286  0.00  0.00     0.188 C 
BRANCH  18  19
ATOM     19  C   UNL d   1       2.734  -1.266   1.725  0.00  0.00    -0.038 A 
ATOM     20  C   UNL d   1       3.485  -2.348   2.212  0.00  0.00     0.012 A 
ATOM     21  C   UNL d   1       3.927  -2.361   3.536  0.00  0.00     0.043 A 
ATOM     22  C   UNL d   1       3.637  -1.286   4.372  0.00  0.00     0.116 A 
ATOM     23  C   UNL d   1       2.929  -0.192   3.910  0.00  0.00     0.043 A 
ATOM     24  F   UNL d   1       4.064  -1.312   5.643  0.00  0.00    -0.206 F 
ATOM     25  C   UNL d   1       2.493  -0.176   2.588  0.00  0.00     0.012 A 
ENDBRANCH  18  19
ENDBRANCH   2  18
BRANCH   6  26
ATOM     26  C   UNL d   1      -0.931   2.364   0.005  0.00  0.00    -0.007 C 
ATOM     27  C   UNL d   1      -2.465   2.497   0.064  0.00  0.00     0.021 C 
ATOM     28  C   UNL d   1      -0.344   3.129   1.213  0.00  0.00     0.021 C 
ATOM     29  C   UNL d   1      -0.442   3.043  -1.291  0.00  0.00     0.021 C 
ENDBRANCH   6  26
TORSDOF 6
