REMARK  4 active torsions:
REMARK  status: ('A' for Active; 'I' for Inactive)
REMARK    1  A    between atoms: C_2  and  S_1 
REMARK    2  A    between atoms: C_6  and  S_1 
REMARK    3  A    between atoms: C_4  and  C_3 
REMARK    4  A    between atoms: N_12  and  N_5 
ROOT
ATOM      1  C   UNL d   1       0.352  -0.849  -1.468  0.00  0.00     0.146 C 
ATOM      2  C   UNL d   1      -0.555  -1.842  -1.401  0.00  0.00     0.066 C 
ATOM      3  C   UNL d   1       0.917  -0.203  -0.341  0.00  0.00     0.112 C 
ATOM      4  N   UNL d   1       1.367   0.343   0.579  0.00  0.00    -0.191 NA
ENDROOT
BRANCH   1   5
ATOM      5  S   UNL d   1       0.791  -0.275  -3.041  0.00  0.00     0.216 S 
ATOM      6  O   UNL d   1      -0.070   0.842  -3.383  0.00  0.00    -0.216 OA
ATOM      7  O   UNL d   1       0.883  -1.397  -3.962  0.00  0.00    -0.216 OA
BRANCH   5   8
ATOM      8  C   UNL d   1       2.445   0.374  -2.890  0.00  0.00     0.066 A 
ATOM      9  C   UNL d   1       2.624   1.722  -2.560  0.00  0.00     0.047 A 
ATOM     10  C   UNL d   1       3.914   2.240  -2.500  0.00  0.00     0.035 A 
ATOM     11 CL   UNL d   1       4.150   3.894  -2.088  0.00  0.00    -0.084 Cl
ATOM     12  C   UNL d   1       5.019   1.436  -2.780  0.00  0.00     0.024 A 
ATOM     13  C   UNL d   1       4.833   0.096  -3.133  0.00  0.00     0.003 A 
ATOM     14  C   UNL d   1       3.543  -0.442  -3.193  0.00  0.00     0.024 A 
ENDBRANCH   5   8
ENDBRANCH   1   5
BRANCH   2  15
ATOM     15  C   UNL d   1      -0.925  -2.429  -0.165  0.00  0.00     0.053 A 
ATOM     16  N   UNL d   1      -2.091  -2.109   0.515  0.00  0.00    -0.287 N 
ATOM     17  C   UNL d   1      -2.095  -2.783   1.712  0.00  0.00     0.111 A 
ATOM     18  C   UNL d   1      -0.989  -3.594   1.773  0.00  0.00     0.021 A 
ATOM     19  C   UNL d   1      -0.263  -3.394   0.581  0.00  0.00     0.032 A 
BRANCH  16  20
ATOM     20  N   UNL d   1      -3.185  -1.262   0.161  0.00  0.00    -0.233 NA
ATOM     21  C   UNL d   1      -3.702  -1.414  -1.186  0.00  0.00     0.136 C 
ATOM     22  C   UNL d   1      -3.020   0.120   0.578  0.00  0.00     0.136 C 
ENDBRANCH  16  20
ENDBRANCH   2  15
TORSDOF 4
