REMARK  2 active torsions:
REMARK  status: ('A' for Active; 'I' for Inactive)
REMARK    1  A    between atoms: N_2  and  C_1 
REMARK    2  A    between atoms: C_4  and  C_3 
ROOT
ATOM      1  C   UNL d   1      -0.672   1.221   0.127  0.00  0.00     0.143 A 
ATOM      2  C   UNL d   1       0.720   1.290   0.024  0.00  0.00     0.093 A 
ATOM      3  N   UNL d   1      -1.341   0.037   0.282  0.00  0.00    -0.350 N 
ATOM      4  HN  UNL d   1      -2.350   0.021   0.428  1.00  0.00     0.166 HD
ATOM      5  C   UNL d   1       1.415   0.067  -0.029  0.00  0.00     0.021 A 
ATOM      6  C   UNL d   1      -0.629  -1.108   0.236  0.00  0.00     0.090 A 
ATOM      7  C   UNL d   1       0.738  -1.144   0.066  0.00  0.00     0.018 A 
ENDROOT
BRANCH   1   8
ATOM      8  N   UNL d   1      -1.500   2.373   0.016  0.00  0.00    -0.234 N 
ATOM      9  N   UNL d   1      -1.109   3.535  -0.549  0.00  0.00    -0.287 N 
ATOM     10  C   UNL d   1      -2.236   4.253  -0.523  0.00  0.00     0.199 A 
ATOM     11  HN  UNL d   1      -0.190   3.798  -0.904  1.00  0.00     0.188 HD
ATOM     12  N   UNL d   1      -3.314   3.632   0.025  0.00  0.00    -0.346 N 
ATOM     13  C   UNL d   1      -2.834   2.449   0.343  0.00  0.00     0.209 A 
ATOM     14  HN  UNL d   1      -4.259   3.993   0.157  1.00  0.00     0.167 HD
ENDBRANCH   1   8
BRANCH   2  15
ATOM     15  C   UNL d   1       1.512   2.570   0.030  0.00  0.00     0.421 C 
ATOM     16  F   UNL d   1       1.047   3.516   0.892  0.00  0.00    -0.166 F 
ATOM     17  F   UNL d   1       2.803   2.355   0.444  0.00  0.00    -0.166 F 
ATOM     18  F   UNL d   1       1.633   3.143  -1.194  0.00  0.00    -0.166 F 
ENDBRANCH   2  15
TORSDOF 2
