REMARK  3 active torsions:
REMARK  status: ('A' for Active; 'I' for Inactive)
REMARK    1  A    between atoms: C_8  and  N_1 
REMARK    2  A    between atoms: C_6  and  N_3 
REMARK    3  A    between atoms: N_7  and  C_10 
ROOT
ATOM      1  N   UNL d   1      -0.233  -1.300  -0.137  0.00  0.00    -0.253 N 
ATOM      2  C   UNL d   1       1.053  -0.764  -0.094  0.00  0.00     0.343 C 
ATOM      3  N   UNL d   1       1.012   0.629  -0.016  0.00  0.00    -0.226 N 
ATOM      4  C   UNL d   1      -1.232  -0.385   0.097  0.00  0.00     0.311 C 
ATOM      5  S   UNL d   1      -0.547   1.232   0.204  0.00  0.00     0.060 SA
ATOM      6  O   UNL d   1       2.088  -1.427  -0.050  0.00  0.00    -0.245 OA
ATOM      7  O   UNL d   1      -2.422  -0.592   0.264  0.00  0.00    -0.258 OA
ENDROOT
BRANCH   3   8
ATOM      8  C   UNL d   1       2.150   1.459  -0.058  0.00  0.00     0.073 A 
ATOM      9  C   UNL d   1       3.022   1.453  -1.164  0.00  0.00     0.064 A 
ATOM     10  C   UNL d   1       4.149   2.280  -1.186  0.00  0.00     0.062 A 
ATOM     11 CL   UNL d   1       2.674   0.551  -2.601  0.00  0.00    -0.082 Cl
ATOM     12  C   UNL d   1       4.420   3.106  -0.090  0.00  0.00     0.104 A 
ATOM     13  C   UNL d   1       3.560   3.129   1.015  0.00  0.00     0.038 A 
ATOM     14  C   UNL d   1       2.420   2.318   1.021  0.00  0.00     0.035 A 
BRANCH  12  15
ATOM     15  N   UNL d   1       5.609   3.969  -0.108  0.00  0.00    -0.116 N 
ATOM     16  O   UNL d   1       6.320   3.945  -1.118  0.00  0.00    -0.532 OA
ATOM     17  O   UNL d   1       5.824   4.668   0.892  0.00  0.00    -0.532 OA
ENDBRANCH  12  15
ENDBRANCH   3   8
BRANCH   1  18
ATOM     18  C   UNL d   1      -0.465  -2.741   0.013  0.00  0.00     0.107 C 
ATOM     19  C   UNL d   1       0.540  -3.662  -0.731  0.00  0.00     0.065 C 
ATOM     20  C   UNL d   1      -0.233  -4.941  -0.827  0.00  0.00    -0.050 A 
ATOM     21  C   UNL d   1       0.250  -6.215  -1.069  0.00  0.00     0.007 A 
ATOM     22  C   UNL d   1      -1.599  -4.707  -0.654  0.00  0.00    -0.050 A 
ATOM     23  C   UNL d   1      -0.663  -7.270  -1.117  0.00  0.00     0.001 A 
ATOM     24  C   UNL d   1      -2.036  -7.036  -0.941  0.00  0.00     0.001 A 
ATOM     25  C   UNL d   1      -2.515  -5.744  -0.716  0.00  0.00     0.007 A 
ATOM     26  C   UNL d   1      -1.863  -3.249  -0.438  0.00  0.00     0.065 C 
ENDBRANCH   1  18
TORSDOF 3
