REMARK  8 active torsions:
REMARK  status: ('A' for Active; 'I' for Inactive)
REMARK    1  A    between atoms: N_9  and  C_1 
REMARK    2  A    between atoms: C_15  and  N_2 
REMARK    3  A    between atoms: C_3  and  C_15 
REMARK    4  A    between atoms: S_18  and  C_10 
REMARK    5  A    between atoms: N_16  and  C_17 
REMARK    6  A    between atoms: C_26  and  S_18 
REMARK    7  A    between atoms: C_21  and  C_23 
REMARK    8  A    between atoms: C_23  and  C_26 
ROOT
ATOM      1  C   UNL d   1       3.439   0.829  -0.191  0.00  0.00     0.120 A 
ATOM      2  N   UNL d   1       3.701   0.108  -1.339  0.00  0.00    -0.318 N 
ATOM      3  C   UNL d   1       4.944  -0.445  -1.157  0.00  0.00     0.162 A 
ATOM      4  N   UNL d   1       4.503   0.758   0.592  0.00  0.00    -0.285 N 
ATOM      5  HN  UNL d   1       4.606   1.216   1.498  1.00  0.00     0.188 HD
ATOM      6  N   UNL d   1       5.446  -0.034  -0.018  0.00  0.00    -0.278 N 
ATOM      7  HN  UNL d   1       6.370  -0.261   0.350  1.00  0.00     0.189 HD
ATOM      8  C   UNL d   1       2.851  -0.061  -2.490  0.00  0.00     0.160 C 
ENDROOT
BRANCH   3   9
ATOM      9  S   UNL d   1       5.673  -1.566  -2.258  0.00  0.00    -0.085 SA
BRANCH   9  10
ATOM     10  C   UNL d   1       7.418  -1.471  -1.755  0.00  0.00     0.166 C 
BRANCH  10  11
ATOM     11  C   UNL d   1       8.309  -2.430  -2.549  0.00  0.00     0.169 C 
ATOM     12  O   UNL d   1       7.874  -3.323  -3.276  0.00  0.00    -0.291 OA
BRANCH  11  13
ATOM     13  C   UNL d   1       9.799  -2.277  -2.432  0.00  0.00     0.013 A 
ATOM     14  C   UNL d   1      10.394  -1.318  -1.602  0.00  0.00     0.051 A 
ATOM     15  C   UNL d   1      11.794  -1.172  -1.597  0.00  0.00     0.103 A 
ATOM     16  C   UNL d   1      12.610  -1.995  -2.383  0.00  0.00     0.036 A 
ATOM     17  C   UNL d   1      12.020  -2.972  -3.182  0.00  0.00     0.003 A 
ATOM     18  C   UNL d   1      10.627  -3.110  -3.208  0.00  0.00     0.015 A 
BRANCH  15  19
ATOM     19  N   UNL d   1      12.406  -0.117  -0.777  0.00  0.00    -0.116 N 
ATOM     20  O   UNL d   1      11.649   0.598  -0.108  0.00  0.00    -0.532 OA
ATOM     21  O   UNL d   1      13.639   0.001  -0.814  0.00  0.00    -0.532 OA
ENDBRANCH  15  19
ENDBRANCH  11  13
ENDBRANCH  10  11
ENDBRANCH   9  10
ENDBRANCH   3   9
BRANCH   1  22
ATOM     22  C   UNL d   1       2.138   1.456   0.172  0.00  0.00     0.227 C 
BRANCH  22  23
ATOM     23  N   UNL d   1       2.217   2.914   0.264  0.00  0.00    -0.287 N 
ATOM     24  C   UNL d   1       2.386   3.685   1.395  0.00  0.00     0.060 A 
ATOM     25  C   UNL d   1       2.077   4.984   1.008  0.00  0.00     0.150 A 
ATOM     26  C   UNL d   1       2.810   3.141   2.714  0.00  0.00     0.072 C 
ATOM     27  C   UNL d   1       1.842   4.910  -0.388  0.00  0.00     0.057 A 
ATOM     28  N   UNL d   1       1.906   3.646  -0.833  0.00  0.00    -0.300 N 
ATOM     29  C   UNL d   1       1.556   6.016  -1.340  0.00  0.00     0.072 C 
ATOM     30  HN  UNL d   1       1.753   3.310  -1.784  1.00  0.00     0.187 HD
BRANCH  25  31
ATOM     31  N   UNL d   1       2.016   6.155   1.849  0.00  0.00    -0.112 N 
ATOM     32  O   UNL d   1       2.199   5.998   3.064  0.00  0.00    -0.532 OA
ATOM     33  O   UNL d   1       1.755   7.231   1.302  0.00  0.00    -0.532 OA
ENDBRANCH  25  31
ENDBRANCH  22  23
ENDBRANCH   1  22
TORSDOF 8
