REMARK  6 active torsions:
REMARK  status: ('A' for Active; 'I' for Inactive)
REMARK    1  A    between atoms: C_4  and  C_1 
REMARK    2  A    between atoms: C_8  and  C_4 
REMARK    3  A    between atoms: N_15  and  N_5 
REMARK    4  A    between atoms: C_9  and  C_12 
REMARK    5  A    between atoms: C_19  and  N_15 
REMARK    6  A    between atoms: O_24  and  C_22 
ROOT
ATOM      1  C   UNL d   1       0.888   0.098  -0.707  0.00  0.00     0.179 C 
ATOM      2  N   UNL d   1       0.246   1.045  -0.082  0.00  0.00    -0.287 N 
ATOM      3  HN  UNL d   1       0.756   1.807   0.363  1.00  0.00     0.188 HD
ATOM      4  C   UNL d   1       0.139  -0.949  -1.359  0.00  0.00     0.123 C 
ATOM      5  N   UNL d   1      -0.481  -1.808  -1.844  0.00  0.00    -0.190 NA
ENDROOT
BRANCH   1   6
ATOM      6  C   UNL d   1       2.387   0.141  -0.765  0.00  0.00     0.220 C 
ATOM      7  O   UNL d   1       2.929  -0.183  -1.815  0.00  0.00    -0.284 OA
BRANCH   6   8
ATOM      8  C   UNL d   1       3.188   0.587   0.403  0.00  0.00     0.020 A 
ATOM      9  C   UNL d   1       2.706   0.500   1.717  0.00  0.00     0.052 A 
ATOM     10  C   UNL d   1       3.500   0.932   2.783  0.00  0.00     0.069 A 
ATOM     11  C   UNL d   1       4.771   1.452   2.527  0.00  0.00     0.037 A 
ATOM     12  C   UNL d   1       5.260   1.532   1.224  0.00  0.00     0.004 A 
ATOM     13  C   UNL d   1       4.473   1.092   0.162  0.00  0.00     0.016 A 
BRANCH  10  14
ATOM     14  O   UNL d   1       3.155   0.898   4.106  0.00  0.00    -0.356 OA
ATOM     15  C   UNL d   1       1.880   0.360   4.431  0.00  0.00     0.210 C 
ENDBRANCH  10  14
ENDBRANCH   6   8
ENDBRANCH   1   6
BRANCH   2  16
ATOM     16  N   UNL d   1      -1.121   1.004  -0.030  0.00  0.00    -0.300 N 
ATOM     17  H   UNL d   1      -1.553   0.237   0.490  0.00  0.00     0.187 HD
BRANCH  16  18
ATOM     18  C   UNL d   1      -1.756   2.242   0.240  0.00  0.00     0.049 A 
ATOM     19  C   UNL d   1      -1.225   3.446  -0.251  0.00  0.00     0.044 A 
ATOM     20  C   UNL d   1      -1.844   4.691  -0.032  0.00  0.00    -0.007 A 
ATOM     21  C   UNL d   1      -3.062   4.687   0.666  0.00  0.00     0.014 A 
ATOM     22  C   UNL d   1      -3.618   3.498   1.147  0.00  0.00     0.003 A 
ATOM     23  C   UNL d   1      -2.970   2.281   0.931  0.00  0.00     0.031 A 
BRANCH  20  24
ATOM     24  C   UNL d   1      -1.226   5.952  -0.495  0.00  0.00     0.045 A 
ATOM     25  N   UNL d   1      -2.076   6.949  -0.835  0.00  0.00    -0.345 N 
ATOM     26  C   UNL d   1      -1.531   8.111  -1.245  0.00  0.00     0.077 A 
ATOM     27  HN  UNL d   1      -3.087   6.825  -0.784  1.00  0.00     0.167 HD
ATOM     28  C   UNL d   1      -2.452   9.229  -1.623  0.00  0.00     0.089 C 
ATOM     29  N   UNL d   1      -0.211   8.355  -1.325  0.00  0.00    -0.356 N 
ATOM     30  C   UNL d   1       0.601   7.348  -0.969  0.00  0.00     0.091 A 
ATOM     31  HN  UNL d   1       0.152   9.256  -1.637  1.00  0.00     0.166 HD
ATOM     32  C   UNL d   1       0.146   6.122  -0.548  0.00  0.00     0.047 A 
ENDBRANCH  20  24
ENDBRANCH  16  18
ENDBRANCH   2  16
TORSDOF 6
