REMARK  9 active torsions:
REMARK  status: ('A' for Active; 'I' for Inactive)
REMARK    1  A    between atoms: S_14  and  C_2 
REMARK    2  A    between atoms: C_22  and  C_7 
REMARK    3  A    between atoms: C_17  and  C_10 
REMARK    4  A    between atoms: C_11  and  C_24 
REMARK    5  A    between atoms: C_19  and  S_14 
REMARK    6  A    between atoms: C_15  and  C_19 
REMARK       I    between atoms: N_16  and  C_15 
REMARK    7  A    between atoms: C_23  and  N_16 
REMARK    8  A    between atoms: S_20  and  C_22 
REMARK    9  A    between atoms: C_24  and  S_20 
ROOT
ATOM      1  N   UNL d   1       0.965  -0.087  -0.080  0.00  0.00    -0.319 N 
ATOM      2  C   UNL d   1       0.178   0.970  -0.434  0.00  0.00     0.162 C 
ATOM      3  N   UNL d   1      -1.079   0.654  -0.259  0.00  0.00    -0.278 N 
ATOM      4  HN  UNL d   1      -1.875   1.288  -0.327  1.00  0.00     0.189 HD
ATOM      5  N   UNL d   1      -1.133  -0.688   0.034  0.00  0.00    -0.286 N 
ATOM      6  HN  UNL d   1      -1.981  -1.230   0.203  1.00  0.00     0.188 HD
ATOM      7  C   UNL d   1       0.098  -1.152   0.058  0.00  0.00     0.109 C 
ATOM      8  C   UNL d   1       2.397  -0.105   0.068  0.00  0.00     0.159 C 
ENDROOT
BRANCH   7   9
ATOM      9  C   UNL d   1       0.487  -2.588   0.073  0.00  0.00     0.152 C 
BRANCH   9  10
ATOM     10  S   UNL d   1       0.727  -3.265   1.734  0.00  0.00    -0.155 SA
BRANCH  10  11
ATOM     11  C   UNL d   1      -0.959  -3.103   2.415  0.00  0.00     0.139 C 
BRANCH  11  12
ATOM     12  C   UNL d   1      -2.028  -3.862   1.682  0.00  0.00     0.060 A 
ATOM     13  N   UNL d   1      -2.030  -5.160   1.438  0.00  0.00    -0.352 N 
ATOM     14  C   UNL d   1      -3.216  -5.532   0.813  0.00  0.00     0.049 A 
ATOM     15  HN  UNL d   1      -1.270  -5.798   1.674  1.00  0.00     0.166 HD
ATOM     16  C   UNL d   1      -4.109  -4.499   0.612  0.00  0.00     0.081 A 
ATOM     17  S   UNL d   1      -3.456  -3.030   1.190  0.00  0.00    -0.086 SA
BRANCH  14  18
ATOM     18  C   UNL d   1      -3.500  -6.918   0.449  0.00  0.00    -0.009 A 
ATOM     19  C   UNL d   1      -2.971  -7.965   1.217  0.00  0.00     0.014 A 
ATOM     20  C   UNL d   1      -3.259  -9.296   0.900  0.00  0.00     0.001 A 
ATOM     21  C   UNL d   1      -4.072  -9.597  -0.192  0.00  0.00     0.000 A 
ATOM     22  C   UNL d   1      -4.593  -8.568  -0.971  0.00  0.00     0.001 A 
ATOM     23  C   UNL d   1      -4.309  -7.236  -0.653  0.00  0.00     0.014 A 
ENDBRANCH  14  18
ENDBRANCH  11  12
ENDBRANCH  10  11
ENDBRANCH   9  10
ENDBRANCH   7   9
BRANCH   2  24
ATOM     24  S   UNL d   1       0.747   2.347  -1.306  0.00  0.00    -0.083 SA
BRANCH  24  25
ATOM     25  C   UNL d   1      -0.697   3.439  -1.351  0.00  0.00     0.185 C 
BRANCH  25  26
ATOM     26  C   UNL d   1      -1.901   3.043  -2.203  0.00  0.00     0.231 C 
ATOM     27  N   UNL d   1      -1.940   1.758  -2.699  0.00  0.00    -0.327 N 
ATOM     28  H   UNL d   1      -1.257   1.119  -2.312  0.00  0.00     0.169 HD
ATOM     29  O   UNL d   1      -2.788   3.885  -2.368  0.00  0.00    -0.272 OA
BRANCH  27  30
ATOM     30  C   UNL d   1      -3.021   1.136  -3.358  0.00  0.00     0.034 A 
ATOM     31  C   UNL d   1      -4.090   1.831  -3.925  0.00  0.00     0.029 A 
ATOM     32  C   UNL d   1      -5.173   1.139  -4.474  0.00  0.00     0.002 A 
ATOM     33  C   UNL d   1      -5.189  -0.254  -4.473  0.00  0.00     0.000 A 
ATOM     34  C   UNL d   1      -4.108  -0.958  -3.949  0.00  0.00     0.002 A 
ATOM     35  C   UNL d   1      -3.025  -0.265  -3.402  0.00  0.00     0.029 A 
ENDBRANCH  27  30
ENDBRANCH  25  26
ENDBRANCH  24  25
ENDBRANCH   2  24
TORSDOF 9
