REMARK  6 active torsions:
REMARK  status: ('A' for Active; 'I' for Inactive)
REMARK    1  A    between atoms: C_8  and  S_1 
REMARK    2  A    between atoms: C_14  and  S_1 
REMARK    3  A    between atoms: C_2  and  C_8 
REMARK    4  A    between atoms: C_11  and  C_6 
REMARK    5  A    between atoms: C_7  and  C_10 
REMARK    6  A    between atoms: C_16  and  C_14 
ROOT
ATOM      1  S   UNL d   1       1.000   0.005   0.124  0.00  0.00     0.154 S 
ATOM      2  O   UNL d   1       0.401   0.776   1.199  0.00  0.00    -0.227 OA
ATOM      3  O   UNL d   1       2.436  -0.199   0.050  0.00  0.00    -0.227 OA
ENDROOT
BRANCH   1   4
ATOM      4  C   UNL d   1       0.435   0.684  -1.429  0.00  0.00     0.205 C 
BRANCH   4   5
ATOM      5  C   UNL d   1       0.976   2.065  -1.558  0.00  0.00     0.065 A 
ATOM      6  S   UNL d   1       0.076   3.414  -0.987  0.00  0.00    -0.074 SA
ATOM      7  C   UNL d   1       1.325   4.484  -1.496  0.00  0.00     0.032 A 
ATOM      8  C   UNL d   1       2.316   3.731  -2.103  0.00  0.00     0.108 A 
ATOM      9  N   UNL d   1       2.099   2.367  -2.174  0.00  0.00    -0.361 N 
ATOM     10  HN  UNL d   1       2.715   1.697  -2.633  1.00  0.00     0.165 HD
BRANCH   7  11
ATOM     11  C   UNL d   1       1.224   5.940  -1.306  0.00  0.00    -0.018 A 
ATOM     12  C   UNL d   1       0.539   6.502  -0.215  0.00  0.00     0.014 A 
ATOM     13  C   UNL d   1       0.430   7.889  -0.067  0.00  0.00     0.024 A 
ATOM     14  C   UNL d   1       1.015   8.734  -1.004  0.00  0.00     0.034 A 
ATOM     15  C   UNL d   1       1.715   8.203  -2.083  0.00  0.00     0.024 A 
ATOM     16 CL   UNL d   1       0.867  10.439  -0.832  0.00  0.00    -0.084 Cl
ATOM     17  C   UNL d   1       1.820   6.815  -2.231  0.00  0.00     0.014 A 
ENDBRANCH   7  11
ENDBRANCH   4   5
ENDBRANCH   1   4
BRANCH   1  18
ATOM     18  C   UNL d   1       0.222  -1.607   0.118  0.00  0.00     0.179 C 
BRANCH  18  19
ATOM     19  C   UNL d   1       0.563  -2.342   1.391  0.00  0.00    -0.043 A 
ATOM     20  C   UNL d   1      -0.235  -2.192   2.538  0.00  0.00     0.024 A 
ATOM     21  C   UNL d   1       0.072  -2.873   3.728  0.00  0.00     0.048 A 
ATOM     22  C   UNL d   1       1.191  -3.717   3.759  0.00  0.00     0.016 A 
ATOM     23  C   UNL d   1       1.998  -3.861   2.631  0.00  0.00     0.001 A 
ATOM     24  C   UNL d   1       1.688  -3.174   1.456  0.00  0.00     0.008 A 
BRANCH  21  25
ATOM     25  C   UNL d   1      -0.777  -2.705   4.965  0.00  0.00     0.417 C 
ATOM     26  F   UNL d   1      -1.806  -1.825   4.807  0.00  0.00    -0.166 F 
ATOM     27  F   UNL d   1      -1.351  -3.876   5.362  0.00  0.00    -0.166 F 
ATOM     28  F   UNL d   1      -0.064  -2.259   6.036  0.00  0.00    -0.166 F 
ENDBRANCH  21  25
ENDBRANCH  18  19
ENDBRANCH   1  18
TORSDOF 6
