REMARK  3 active torsions:
REMARK  status: ('A' for Active; 'I' for Inactive)
REMARK    1  A    between atoms: C_10  and  C_3 
REMARK       I    between atoms: C_4  and  N_9 
REMARK    2  A    between atoms: C_6  and  C_4 
REMARK    3  A    between atoms: N_9  and  C_18 
ROOT
ATOM      1  C   UNL d   1       1.990  -2.363   0.128  0.00  0.00    -0.009 A 
ATOM      2  C   UNL d   1       1.704  -3.391  -0.782  0.00  0.00     0.016 A 
ATOM      3  C   UNL d   1       3.107  -2.516   0.955  0.00  0.00     0.016 A 
ATOM      4  C   UNL d   1       3.680  -4.635  -0.100  0.00  0.00     0.035 A 
ATOM      5  C   UNL d   1       3.939  -3.637   0.841  0.00  0.00     0.030 A 
ATOM      6  C   UNL d   1       2.537  -4.514  -0.896  0.00  0.00     0.030 A 
ENDROOT
BRANCH   4   7
ATOM      7  N   UNL d   1       4.530  -5.738  -0.327  0.00  0.00    -0.321 N 
ATOM      8  C   UNL d   1       5.737  -6.008   0.296  0.00  0.00     0.279 C 
ATOM      9  O   UNL d   1       6.198  -5.384   1.246  0.00  0.00    -0.265 OA
ATOM     10  H   UNL d   1       4.282  -6.372  -1.079  0.00  0.00     0.169 HD
BRANCH   8  11
ATOM     11  C   UNL d   1       6.468  -7.115  -0.292  0.00  0.00     0.142 A 
ATOM     12  O   UNL d   1       5.933  -7.829  -1.334  0.00  0.00    -0.317 OA
ATOM     13  C   UNL d   1       6.853  -8.768  -1.684  0.00  0.00     0.143 A 
ATOM     14  C   UNL d   1       7.972  -8.673  -0.891  0.00  0.00     0.027 A 
ATOM     15  C   UNL d   1       7.722  -7.614   0.012  0.00  0.00     0.045 A 
ENDBRANCH   8  11
ENDBRANCH   4   7
BRANCH   1  16
ATOM     16  C   UNL d   1       1.147  -1.166   0.159  0.00  0.00     0.049 A 
ATOM     17  N   UNL d   1       0.030  -1.061  -0.662  0.00  0.00    -0.353 N 
ATOM     18  C   UNL d   1      -0.544   0.112  -0.508  0.00  0.00     0.047 A 
ATOM     19  HN  UNL d   1      -0.298  -1.791  -1.294  1.00  0.00     0.166 HD
ATOM     20  S   UNL d   1       0.198   1.154   0.635  0.00  0.00    -0.087 SA
ATOM     21  C   UNL d   1      -1.747   0.562  -1.257  0.00  0.00     0.076 C 
ATOM     22  C   UNL d   1       1.384  -0.047   0.937  0.00  0.00     0.081 A 
ENDBRANCH   1  16
TORSDOF 3
