REMARK  4 active torsions:
REMARK  status: ('A' for Active; 'I' for Inactive)
REMARK    1  A    between atoms: C_7  and  C_1 
REMARK    2  A    between atoms: S_9  and  C_4 
REMARK    3  A    between atoms: O_10  and  C_7 
REMARK    4  A    between atoms: C_11  and  O_10 
ROOT
ATOM      1  C   UNL d   1      -0.345  -1.070  -0.019  0.00  0.00     0.125 A 
ATOM      2  N   UNL d   1      -1.259  -0.024   0.022  0.00  0.00    -0.331 N 
ATOM      3  HN  UNL d   1      -2.276  -0.088  -0.019  1.00  0.00     0.168 HD
ATOM      4  C   UNL d   1      -0.536   1.058   0.126  0.00  0.00     0.142 A 
ATOM      5  C   UNL d   1       0.942  -0.566   0.080  0.00  0.00     0.126 A 
ATOM      6  N   UNL d   1       0.799   0.791   0.170  0.00  0.00    -0.344 N 
ATOM      7  H   UNL d   1       1.532   1.482   0.236  0.00  0.00     0.167 HD
ENDROOT
BRANCH   1   8
ATOM      8  C   UNL d   1      -0.710  -2.475  -0.195  0.00  0.00     0.311 C 
ATOM      9  O   UNL d   1       0.118  -3.375  -0.308  0.00  0.00    -0.258 OA
BRANCH   8  10
ATOM     10  O   UNL d   1      -2.061  -2.652  -0.268  0.00  0.00    -0.317 OA
BRANCH  10  11
ATOM     11  C   UNL d   1      -2.506  -3.951  -0.673  0.00  0.00     0.175 C 
ATOM     12  C   UNL d   1      -2.599  -3.989  -2.187  0.00  0.00     0.034 C 
ENDBRANCH  10  11
ENDBRANCH   8  10
ENDBRANCH   1   8
BRANCH   4  13
ATOM     13  S   UNL d   1      -1.116   2.674   0.181  0.00  0.00    -0.107 SA
ATOM     14  H   UNL d   1      -2.415   2.365   0.061  0.00  0.00     0.110 HD
ENDBRANCH   4  13
TORSDOF 4
