REMARK  3 active torsions:
REMARK  status: ('A' for Active; 'I' for Inactive)
REMARK    1  A    between atoms: C_10  and  C_1 
REMARK    2  A    between atoms: S_9  and  C_3 
REMARK    3  A    between atoms: C_6  and  S_9 
ROOT
ATOM      1  C   UNL d   1      -0.666  -5.431   2.581  0.00  0.00     0.209 A 
ATOM      2  N   UNL d   1      -0.229  -5.139   1.306  0.00  0.00    -0.312 N 
ATOM      3  C   UNL d   1       0.130  -3.817   1.329  0.00  0.00     0.167 A 
ATOM      4  N   UNL d   1      -0.493  -4.355   3.334  0.00  0.00    -0.279 N 
ATOM      5  HN  UNL d   1      -0.683  -4.291   4.334  1.00  0.00     0.188 HD
ATOM      6  N   UNL d   1      -0.017  -3.344   2.545  0.00  0.00    -0.278 N 
ATOM      7  HN  UNL d   1       0.188  -2.391   2.847  1.00  0.00     0.189 HD
ATOM      8  C   UNL d   1      -0.185  -6.019   0.164  0.00  0.00     0.160 C 
ENDROOT
BRANCH   3   9
ATOM      9  S   UNL d   1       0.517  -2.878  -0.067  0.00  0.00    -0.049 SA
BRANCH   9  10
ATOM     10  C   UNL d   1       2.260  -2.983  -0.009  0.00  0.00     0.055 A 
ATOM     11  C   UNL d   1       3.131  -2.560   0.972  0.00  0.00     0.041 A 
ATOM     12  N   UNL d   1       4.382  -2.822   0.482  0.00  0.00    -0.304 N 
ATOM     13  C   UNL d   1       2.956  -1.921   2.298  0.00  0.00     0.071 C 
ATOM     14  N   UNL d   1       4.385  -3.382  -0.737  0.00  0.00    -0.304 N 
ATOM     15  H   UNL d   1       5.277  -2.629   0.921  0.00  0.00     0.186 HD
ATOM     16  C   UNL d   1       3.087  -3.459  -1.060  0.00  0.00     0.041 A 
ATOM     17  HN  UNL d   1       5.188  -3.680  -1.289  1.00  0.00     0.186 HD
ATOM     18  C   UNL d   1       2.692  -3.989  -2.390  0.00  0.00     0.071 C 
ENDBRANCH   9  10
ENDBRANCH   3   9
BRANCH   1  19
ATOM     19  C   UNL d   1      -1.262  -6.716   3.037  0.00  0.00     0.450 C 
ATOM     20  F   UNL d   1      -1.431  -7.616   2.032  0.00  0.00    -0.163 F 
ATOM     21  F   UNL d   1      -0.494  -7.330   3.973  0.00  0.00    -0.163 F 
ATOM     22  F   UNL d   1      -2.492  -6.540   3.586  0.00  0.00    -0.163 F 
ENDBRANCH   1  19
TORSDOF 3
