REMARK  4 active torsions:
REMARK  status: ('A' for Active; 'I' for Inactive)
REMARK    1  A    between atoms: C_2  and  C_1 
REMARK       I    between atoms: C_3  and  N_5 
REMARK       I    between atoms: N_4  and  C_3 
REMARK    2  A    between atoms: C_7  and  N_4 
REMARK    3  A    between atoms: N_5  and  C_9 
REMARK    4  A    between atoms: O_18  and  C_11 
ROOT
ATOM      1  C   UNL d   1       4.912  -1.242   1.104  0.00  0.00     0.325 C 
ATOM      2  N   UNL d   1       4.504  -2.340   0.405  0.00  0.00    -0.306 N 
ATOM      3  N   UNL d   1       4.194  -0.094   0.948  0.00  0.00    -0.309 N 
ATOM      4  O   UNL d   1       5.936  -1.179   1.783  0.00  0.00    -0.247 OA
ATOM      5  H   UNL d   1       3.980  -2.141  -0.432  0.00  0.00     0.171 HD
ATOM      6  H   UNL d   1       4.726   0.694   1.300  0.00  0.00     0.170 HD
ENDROOT
BRANCH   3   7
ATOM      7  C   UNL d   1       2.901   0.183   0.475  0.00  0.00     0.037 A 
ATOM      8  C   UNL d   1       1.900  -0.770   0.285  0.00  0.00     0.047 A 
ATOM      9  C   UNL d   1       0.605  -0.411  -0.174  0.00  0.00     0.067 A 
ATOM     10  C   UNL d   1       0.335   0.943  -0.407  0.00  0.00     0.026 A 
ATOM     11  C   UNL d   1       1.331   1.903  -0.200  0.00  0.00     0.022 A 
ATOM     12 BR   UNL d   1      -1.349   1.608  -0.979  0.00  0.00    -0.050 Br
ATOM     13  C   UNL d   1       2.600   1.526   0.243  0.00  0.00     0.031 A 
BRANCH   9  14
ATOM     14  C   UNL d   1      -0.392  -1.534  -0.333  0.00  0.00     0.418 C 
ATOM     15  F   UNL d   1      -1.544  -1.233  -0.983  0.00  0.00    -0.166 F 
ATOM     16  F   UNL d   1       0.144  -2.580  -1.028  0.00  0.00    -0.166 F 
ATOM     17  F   UNL d   1      -0.767  -2.052   0.870  0.00  0.00    -0.166 F 
ENDBRANCH   9  14
ENDBRANCH   3   7
BRANCH   2  18
ATOM     18  C   UNL d   1       5.177  -3.577   0.425  0.00  0.00     0.069 A 
ATOM     19  C   UNL d   1       5.268  -4.357  -0.746  0.00  0.00     0.095 A 
ATOM     20  C   UNL d   1       5.855  -5.628  -0.693  0.00  0.00     0.039 A 
ATOM     21  C   UNL d   1       6.359  -6.126   0.512  0.00  0.00     0.003 A 
ATOM     22  C   UNL d   1       6.280  -5.356   1.667  0.00  0.00     0.002 A 
ATOM     23  C   UNL d   1       5.698  -4.090   1.623  0.00  0.00     0.032 A 
BRANCH  19  24
ATOM     24  O   UNL d   1       4.775  -3.987  -1.971  0.00  0.00    -0.354 OA
ATOM     25  C   UNL d   1       5.239  -2.728  -2.460  0.00  0.00     0.210 C 
ENDBRANCH  19  24
ENDBRANCH   2  18
TORSDOF 4
