REMARK  3 active torsions:
REMARK  status: ('A' for Active; 'I' for Inactive)
REMARK    1  A    between atoms: N_9  and  C_1 
REMARK    2  A    between atoms: C_5  and  C_7 
REMARK    3  A    between atoms: C_13  and  C_6 
REMARK       I    between atoms: C_7  and  N_9 
ROOT
ATOM      1  C   UNL d   1       3.294  -1.118   0.092  0.00  0.00     0.255 C 
ATOM      2  N   UNL d   1       1.914  -1.562   0.118  0.00  0.00    -0.310 N 
ATOM      3  O   UNL d   1       3.564   0.070   0.223  0.00  0.00    -0.270 OA
ATOM      4  H   UNL d   1       1.734  -2.555   0.087  0.00  0.00     0.170 HD
ENDROOT
BRANCH   2   5
ATOM      5  C   UNL d   1       0.837  -0.668   0.119  0.00  0.00     0.124 A 
ATOM      6  C   UNL d   1       0.841   0.703  -0.005  0.00  0.00     0.077 A 
ATOM      7  C   UNL d   1      -0.519   1.119   0.018  0.00  0.00     0.037 A 
ATOM      8  N   UNL d   1      -1.327   0.060   0.153  0.00  0.00    -0.302 N 
ATOM      9  N   UNL d   1      -0.493  -0.999   0.207  0.00  0.00    -0.285 N 
ATOM     10  HN  UNL d   1      -2.345   0.055   0.203  1.00  0.00     0.186 HD
ATOM     11  H   UNL d   1      -0.911  -1.912   0.305  0.00  0.00     0.188 HD
BRANCH   7  12
ATOM     12  C   UNL d   1      -1.054   2.546  -0.101  0.00  0.00    -0.007 C 
ATOM     13  C   UNL d   1      -0.631   3.156  -1.454  0.00  0.00     0.021 C 
ATOM     14  C   UNL d   1      -2.593   2.612  -0.013  0.00  0.00     0.021 C 
ATOM     15  C   UNL d   1      -0.481   3.424   1.033  0.00  0.00     0.021 C 
ENDBRANCH   7  12
ENDBRANCH   2   5
BRANCH   1  16
ATOM     16  C   UNL d   1       4.389  -2.155  -0.187  0.00  0.00     0.245 C 
ATOM     17  O   UNL d   1       4.145  -3.524   0.122  0.00  0.00    -0.331 OA
ATOM     18  C   UNL d   1       3.723  -4.272  -0.946  0.00  0.00     0.103 C 
ATOM     19  C   UNL d   1       3.621  -5.649  -0.780  0.00  0.00     0.040 C 
ATOM     20  C   UNL d   1       3.362  -3.693  -2.166  0.00  0.00     0.102 C 
ATOM     21  C   UNL d   1       3.034  -6.422  -1.785  0.00  0.00     0.003 C 
ATOM     22  C   UNL d   1       2.516  -5.808  -2.928  0.00  0.00     0.003 C 
ATOM     23  C   UNL d   1       2.691  -4.439  -3.126  0.00  0.00     0.039 C 
ATOM     24  O   UNL d   1       3.668  -2.391  -2.465  0.00  0.00    -0.345 OA
ATOM     25  C   UNL d   1       4.770  -1.964  -1.651  0.00  0.00     0.218 C 
ENDBRANCH   1  16
TORSDOF 3
