REMARK  5 active torsions:
REMARK  status: ('A' for Active; 'I' for Inactive)
REMARK    1  A    between atoms: C_2  and  C_1 
REMARK    2  A    between atoms: N_3  and  C_2 
REMARK    3  A    between atoms: N_4  and  N_3 
REMARK    4  A    between atoms: C_14  and  N_3 
REMARK    5  A    between atoms: C_6  and  C_9 
ROOT
ATOM      1  N   UNL d   1      -1.316   2.952   0.374  0.00  0.00    -0.288 N 
ENDROOT
BRANCH   1   2
ATOM      2  C   UNL d   1      -0.204   2.158  -0.214  0.00  0.00     0.192 C 
BRANCH   2   3
ATOM      3  C   UNL d   1       0.902   1.827   0.768  0.00  0.00     0.022 A 
ATOM      4  C   UNL d   1       2.250   1.765   0.374  0.00  0.00     0.045 A 
ATOM      5 CL   UNL d   1       2.743   2.002  -1.268  0.00  0.00    -0.084 Cl
ATOM      6  C   UNL d   1       3.267   1.484   1.299  0.00  0.00     0.024 A 
ATOM      7  C   UNL d   1       2.954   1.227   2.631  0.00  0.00     0.005 A 
ATOM      8  C   UNL d   1       1.621   1.216   3.026  0.00  0.00     0.043 A 
ATOM      9  C   UNL d   1       0.614   1.499   2.099  0.00  0.00     0.126 A 
ATOM     10  F   UNL d   1      -0.652   1.421   2.530  0.00  0.00    -0.205 F 
ENDBRANCH   2   3
ENDBRANCH   1   2
BRANCH   1  11
ATOM     11  N   UNL d   1      -2.548   2.341   0.236  0.00  0.00    -0.308 N 
ATOM     12  C   UNL d   1      -3.340   2.475   1.257  0.00  0.00     0.126 C 
ATOM     13  HN  UNL d   1      -2.814   1.825  -0.602  1.00  0.00     0.186 HD
BRANCH  12  14
ATOM     14  C   UNL d   1      -4.662   1.898   1.230  0.00  0.00     0.023 A 
ATOM     15  C   UNL d   1      -5.187   0.973   0.348  0.00  0.00     0.040 A 
ATOM     16  C   UNL d   1      -6.532   0.661   0.659  0.00  0.00     0.018 A 
ATOM     17 BR   UNL d   1      -7.522  -0.597  -0.338  0.00  0.00    -0.051 Br
ATOM     18  C   UNL d   1      -7.016   1.358   1.737  0.00  0.00     0.069 A 
ATOM     19  S   UNL d   1      -5.814   2.382   2.402  0.00  0.00    -0.099 SA
ENDBRANCH  12  14
ENDBRANCH   1  11
BRANCH   1  20
ATOM     20  C   UNL d   1      -1.234   4.370   0.216  0.00  0.00     0.051 A 
ATOM     21  C   UNL d   1      -2.382   5.163   0.032  0.00  0.00     0.031 A 
ATOM     22  C   UNL d   1      -2.315   6.559  -0.064  0.00  0.00     0.002 A 
ATOM     23  C   UNL d   1      -1.087   7.202   0.006  0.00  0.00     0.000 A 
ATOM     24  C   UNL d   1       0.069   6.448   0.181  0.00  0.00     0.002 A 
ATOM     25  C   UNL d   1      -0.007   5.056   0.297  0.00  0.00     0.031 A 
ENDBRANCH   1  20
TORSDOF 5
