REMARK  4 active torsions:
REMARK  status: ('A' for Active; 'I' for Inactive)
REMARK    1  A    between atoms: C_2  and  C_1 
REMARK    2  A    between atoms: C_5  and  C_1 
REMARK    3  A    between atoms: C_4  and  C_3 
REMARK    4  A    between atoms: O_9  and  C_4 
ROOT
ATOM      1  C   UNL d   1       0.319  -1.075  -0.791  0.00  0.00     0.032 A 
ATOM      2  C   UNL d   1       0.993  -2.292  -1.012  0.00  0.00     0.051 A 
ATOM      3  C   UNL d   1      -0.965  -0.877  -1.349  0.00  0.00     0.016 A 
ATOM      4  C   UNL d   1       0.312  -3.290  -1.751  0.00  0.00     0.019 A 
ATOM      5  C   UNL d   1      -1.619  -1.888  -2.050  0.00  0.00     0.001 A 
ATOM      6  C   UNL d   1      -0.980  -3.099  -2.249  0.00  0.00     0.001 A 
ENDROOT
BRANCH   1   7
ATOM      7  C   UNL d   1       0.911   0.074  -0.052  0.00  0.00     0.193 C 
ATOM      8  O   UNL d   1       2.111   0.295  -0.183  0.00  0.00    -0.287 OA
BRANCH   7   9
ATOM      9  C   UNL d   1       0.082   0.988   0.789  0.00  0.00     0.015 A 
ATOM     10  C   UNL d   1       0.498   2.321   0.902  0.00  0.00     0.022 A 
ATOM     11  C   UNL d   1      -0.279   3.248   1.606  0.00  0.00    -0.061 A 
ATOM     12  C   UNL d   1       0.143   4.684   1.705  0.00  0.00     0.048 C 
ATOM     13  C   UNL d   1      -1.477   2.825   2.196  0.00  0.00     0.007 A 
ATOM     14  C   UNL d   1      -1.871   1.489   2.120  0.00  0.00     0.002 A 
ATOM     15  C   UNL d   1      -1.084   0.565   1.433  0.00  0.00     0.015 A 
ENDBRANCH   7   9
ENDBRANCH   1   7
BRANCH   2  16
ATOM     16  C   UNL d   1       2.347  -2.728  -0.518  0.00  0.00     0.177 C 
ATOM     17  O   UNL d   1       2.750  -3.864  -0.735  0.00  0.00    -0.646 OA
BRANCH  16  18
ATOM     18  O   UNL d   1       3.091  -1.886   0.215  0.00  0.00    -0.773 OA
ATOM     19  H   UNL d   1       2.889  -0.927   0.114  0.00  0.00     0.167 HD
ENDBRANCH  16  18
ENDBRANCH   2  16
TORSDOF 4
