REMARK  3 active torsions:
REMARK  status: ('A' for Active; 'I' for Inactive)
REMARK    1  A    between atoms: C_10  and  N_3 
REMARK    2  A    between atoms: N_16  and  C_7 
REMARK    3  A    between atoms: C_14  and  C_10 
ROOT
ATOM      1  S   UNL d   1      -1.064  -1.475   0.099  0.00  0.00     0.270 S 
ATOM      2  C   UNL d   1      -2.255  -0.296   0.492  0.00  0.00     0.145 C 
ATOM      3  N   UNL d   1      -1.652  -1.942  -1.431  0.00  0.00    -0.266 N 
ATOM      4  C   UNL d   1      -2.280   0.815  -0.460  0.00  0.00     0.209 C 
ATOM      5  C   UNL d   1      -1.890  -0.848  -2.362  0.00  0.00     0.059 A 
ATOM      6  C   UNL d   1      -2.212   0.454  -1.905  0.00  0.00     0.043 A 
ATOM      7  C   UNL d   1      -3.223  -0.598   1.373  0.00  0.00     0.114 C 
ATOM      8  O   UNL d   1       0.226  -0.844  -0.125  0.00  0.00    -0.200 OA
ATOM      9  O   UNL d   1      -1.156  -2.628   0.975  0.00  0.00    -0.200 OA
ATOM     10  O   UNL d   1      -2.378   1.984  -0.100  0.00  0.00    -0.286 OA
ATOM     11  C   UNL d   1      -2.533   1.476  -2.814  0.00  0.00     0.018 A 
ATOM     12  C   UNL d   1      -1.943  -1.082  -3.744  0.00  0.00     0.031 A 
ATOM     13  C   UNL d   1      -2.553   1.222  -4.180  0.00  0.00     0.001 A 
ATOM     14  C   UNL d   1      -2.255  -0.054  -4.643  0.00  0.00     0.002 A 
ENDROOT
BRANCH   3  15
ATOM     15  C   UNL d   1      -1.324  -3.316  -1.855  0.00  0.00     0.180 C 
BRANCH  15  16
ATOM     16  C   UNL d   1      -2.553  -4.187  -2.064  0.00  0.00    -0.037 A 
ATOM     17  C   UNL d   1      -3.704  -4.041  -1.267  0.00  0.00     0.034 A 
ATOM     18  C   UNL d   1      -4.796  -4.908  -1.406  0.00  0.00     0.056 A 
ATOM     19 CL   UNL d   1      -6.163  -4.652  -0.379  0.00  0.00    -0.083 Cl
ATOM     20  C   UNL d   1      -4.746  -5.942  -2.342  0.00  0.00     0.055 A 
ATOM     21  C   UNL d   1      -3.608  -6.099  -3.138  0.00  0.00     0.026 A 
ATOM     22 CL   UNL d   1      -6.037  -7.072  -2.551  0.00  0.00    -0.083 Cl
ATOM     23  C   UNL d   1      -2.519  -5.233  -2.997  0.00  0.00     0.011 A 
ENDBRANCH  15  16
ENDBRANCH   3  15
BRANCH   7  24
ATOM     24  N   UNL d   1      -4.463  -0.031   1.665  0.00  0.00    -0.397 N 
ATOM     25  C   UNL d   1      -5.009   1.158   1.007  0.00  0.00     0.148 C 
ATOM     26  C   UNL d   1      -5.238  -0.467   2.830  0.00  0.00     0.148 C 
ENDBRANCH   7  24
TORSDOF 3
