REMARK  7 active torsions:
REMARK  status: ('A' for Active; 'I' for Inactive)
REMARK    1  A    between atoms: C_12  and  C_3 
REMARK    2  A    between atoms: C_26  and  C_4 
REMARK    3  A    between atoms: C_7  and  C_23 
REMARK       I    between atoms: N_14  and  C_7 
REMARK    4  A    between atoms: C_8  and  C_13 
REMARK    5  A    between atoms: N_9  and  N_14 
REMARK    6  A    between atoms: S_21  and  C_26 
REMARK    7  A    between atoms: C_23  and  S_21 
ROOT
ATOM      1  S   UNL d   1       1.717  -3.325   0.008  0.00  0.00    -0.153 SA
ENDROOT
BRANCH   1   2
ATOM      2  C   UNL d   1       0.062  -2.538  -0.034  0.00  0.00     0.139 C 
BRANCH   2   3
ATOM      3  C   UNL d   1       0.123  -1.040  -0.117  0.00  0.00     0.060 A 
ATOM      4  N   UNL d   1       0.035  -0.227   0.918  0.00  0.00    -0.352 N 
ATOM      5  C   UNL d   1       0.085   1.097   0.497  0.00  0.00     0.049 A 
ATOM      6  HN  UNL d   1      -0.056  -0.527   1.889  1.00  0.00     0.166 HD
ATOM      7  C   UNL d   1       0.246   1.258  -0.866  0.00  0.00     0.081 A 
ATOM      8  S   UNL d   1       0.296  -0.266  -1.644  0.00  0.00    -0.086 SA
BRANCH   5   9
ATOM      9  C   UNL d   1       0.001   2.209   1.442  0.00  0.00    -0.009 A 
ATOM     10  C   UNL d   1       0.440   2.038   2.763  0.00  0.00     0.015 A 
ATOM     11  C   UNL d   1       0.393   3.100   3.675  0.00  0.00     0.024 A 
ATOM     12  C   UNL d   1      -0.104   4.336   3.276  0.00  0.00     0.034 A 
ATOM     13  C   UNL d   1      -0.564   4.520   1.974  0.00  0.00     0.024 A 
ATOM     14 CL   UNL d   1      -0.153   5.645   4.391  0.00  0.00    -0.084 Cl
ATOM     15  C   UNL d   1      -0.513   3.460   1.062  0.00  0.00     0.015 A 
ENDBRANCH   5   9
ENDBRANCH   2   3
ENDBRANCH   1   2
BRANCH   1  16
ATOM     16  C   UNL d   1       2.283  -2.670   1.609  0.00  0.00     0.178 C 
BRANCH  16  17
ATOM     17  C   UNL d   1       3.657  -3.136   2.061  0.00  0.00     0.245 C 
ATOM     18  N   UNL d   1       4.330  -4.019   1.233  0.00  0.00    -0.270 N 
ATOM     19  H   UNL d   1       3.904  -4.331   0.365  0.00  0.00     0.190 HD
ATOM     20  O   UNL d   1       4.112  -2.717   3.127  0.00  0.00    -0.271 OA
BRANCH  18  21
ATOM     21  N   UNL d   1       5.597  -4.391   1.575  0.00  0.00    -0.308 N 
ATOM     22  C   UNL d   1       6.222  -5.220   0.803  0.00  0.00     0.126 C 
ATOM     23  HN  UNL d   1       6.039  -4.025   2.419  1.00  0.00     0.186 HD
BRANCH  22  24
ATOM     24  C   UNL d   1       7.575  -5.602   1.140  0.00  0.00     0.021 A 
ATOM     25  S   UNL d   1       8.419  -6.726   0.168  0.00  0.00    -0.101 SA
ATOM     26  C   UNL d   1       9.813  -6.632   1.159  0.00  0.00     0.050 A 
ATOM     27  C   UNL d   1       9.642  -5.760   2.210  0.00  0.00     0.008 A 
ATOM     28  C   UNL d   1       8.348  -5.166   2.200  0.00  0.00     0.021 A 
ENDBRANCH  22  24
ENDBRANCH  18  21
ENDBRANCH  16  17
ENDBRANCH   1  16
TORSDOF 7
