REMARK  6 active torsions:
REMARK  status: ('A' for Active; 'I' for Inactive)
REMARK    1  A    between atoms: C_4  and  S_1 
REMARK    2  A    between atoms: C_7  and  S_1 
REMARK    3  A    between atoms: C_12  and  C_2 
REMARK    4  A    between atoms: C_3  and  N_8 
REMARK    5  A    between atoms: N_8  and  N_9 
REMARK    6  A    between atoms: O_24  and  C_12 
ROOT
ATOM      1  C   UNL d   1       0.776   0.529   2.068  0.00  0.00     0.229 C 
ATOM      2  N   UNL d   1      -0.373   1.135   2.191  0.00  0.00    -0.281 N 
ATOM      3  HN  UNL d   1      -1.013   0.880   2.943  1.00  0.00     0.188 HD
ATOM      4  C   UNL d   1       1.706   0.942   1.055  0.00  0.00     0.132 C 
ATOM      5  N   UNL d   1       2.442   1.289   0.224  0.00  0.00    -0.189 NA
ENDROOT
BRANCH   1   6
ATOM      6  S   UNL d   1       1.292  -0.768   3.106  0.00  0.00     0.240 S 
ATOM      7  O   UNL d   1       2.406  -0.269   3.894  0.00  0.00    -0.214 OA
ATOM      8  O   UNL d   1       1.416  -1.956   2.283  0.00  0.00    -0.214 OA
BRANCH   6   9
ATOM      9  C   UNL d   1       0.019  -1.134   4.288  0.00  0.00     0.106 A 
ATOM     10  S   UNL d   1      -1.498  -1.631   3.668  0.00  0.00    -0.090 SA
ATOM     11  C   UNL d   1      -2.133  -1.885   5.237  0.00  0.00     0.051 A 
ATOM     12  C   UNL d   1      -1.210  -1.600   6.219  0.00  0.00     0.009 A 
ATOM     13  C   UNL d   1       0.029  -1.160   5.671  0.00  0.00     0.032 A 
ENDBRANCH   6   9
ENDBRANCH   1   6
BRANCH   2  14
ATOM     14  N   UNL d   1      -0.713   2.118   1.298  0.00  0.00    -0.296 N 
ATOM     15  H   UNL d   1      -0.754   1.836   0.300  0.00  0.00     0.187 HD
BRANCH  14  16
ATOM     16  C   UNL d   1      -1.545   3.141   1.668  0.00  0.00     0.092 A 
ATOM     17  C   UNL d   1      -2.397   3.776   0.775  0.00  0.00     0.109 A 
ATOM     18  S   UNL d   1      -3.287   5.022   1.546  0.00  0.00    -0.092 SA
ATOM     19  C   UNL d   1      -2.540   4.725   3.054  0.00  0.00     0.075 A 
ATOM     20  C   UNL d   1      -1.630   3.692   2.987  0.00  0.00     0.080 A 
ATOM     21  C   UNL d   1      -0.865   3.273   4.124  0.00  0.00     0.102 C 
ATOM     22  N   UNL d   1      -0.236   2.930   5.039  0.00  0.00    -0.191 NA
BRANCH  17  23
ATOM     23  C   UNL d   1      -2.566   3.448  -0.631  0.00  0.00     0.302 C 
ATOM     24  O   UNL d   1      -1.949   2.548  -1.195  0.00  0.00    -0.259 OA
BRANCH  23  25
ATOM     25  O   UNL d   1      -3.488   4.242  -1.245  0.00  0.00    -0.322 OA
ATOM     26  C   UNL d   1      -3.690   3.935  -2.626  0.00  0.00     0.213 C 
ENDBRANCH  23  25
ENDBRANCH  17  23
ENDBRANCH  14  16
ENDBRANCH   2  14
TORSDOF 6
