REMARK  3 active torsions:
REMARK  status: ('A' for Active; 'I' for Inactive)
REMARK    1  A    between atoms: C_9  and  C_1 
REMARK    2  A    between atoms: C_7  and  C_3 
REMARK    3  A    between atoms: O_15  and  C_9 
ROOT
ATOM      1  C   UNL d   1       0.296  -1.177   0.974  0.00  0.00     0.102 A 
ATOM      2  S   UNL d   1       1.504   0.008   1.252  0.00  0.00    -0.065 SA
ATOM      3  C   UNL d   1       0.786   1.035   0.077  0.00  0.00     0.084 A 
ATOM      4  N   UNL d   1      -0.345   0.578  -0.426  0.00  0.00    -0.354 N 
ATOM      5  HN  UNL d   1      -0.935   1.089  -1.083  1.00  0.00     0.166 HD
ATOM      6  C   UNL d   1      -0.624  -0.690   0.060  0.00  0.00     0.030 A 
ATOM      7  C   UNL d   1      -1.823  -1.393  -0.471  0.00  0.00     0.070 C 
ENDROOT
BRANCH   3   8
ATOM      8  C   UNL d   1       1.426   2.315  -0.417  0.00  0.00     0.210 C 
ATOM      9  O   UNL d   1       2.350   2.864   0.539  0.00  0.00    -0.334 OA
ATOM     10  C   UNL d   1       3.663   2.545   0.297  0.00  0.00     0.103 A 
ATOM     11  C   UNL d   1       4.600   3.025   1.208  0.00  0.00     0.040 A 
ATOM     12  C   UNL d   1       4.076   1.748  -0.773  0.00  0.00     0.102 A 
ATOM     13  C   UNL d   1       5.948   2.680   1.066  0.00  0.00     0.003 A 
ATOM     14  C   UNL d   1       6.350   1.841   0.028  0.00  0.00     0.003 A 
ATOM     15  C   UNL d   1       5.413   1.369  -0.892  0.00  0.00     0.039 A 
ATOM     16  O   UNL d   1       3.219   1.288  -1.737  0.00  0.00    -0.345 OA
ATOM     17  C   UNL d   1       2.049   2.115  -1.797  0.00  0.00     0.215 C 
ENDBRANCH   3   8
BRANCH   1  18
ATOM     18  C   UNL d   1       0.312  -2.472   1.621  0.00  0.00     0.185 C 
ATOM     19  O   UNL d   1      -0.520  -3.354   1.465  0.00  0.00    -0.646 OA
BRANCH  18  20
ATOM     20  O   UNL d   1       1.379  -2.648   2.445  0.00  0.00    -0.772 OA
ATOM     21  H   UNL d   1       1.965  -1.866   2.456  0.00  0.00     0.167 HD
ENDBRANCH  18  20
ENDBRANCH   1  18
TORSDOF 3
