REMARK  22 active torsions:
REMARK  status: ('A' for Active; 'I' for Inactive)
REMARK    1  A    between atoms: C_8  and  S_1 
REMARK    2  A    between atoms: N_18  and  S_1 
REMARK    3  A    between atoms: S_2  and  C_9 
REMARK    4  A    between atoms: N_19  and  S_2 
REMARK    5  A    between atoms: C_23  and  N_18 
REMARK    6  A    between atoms: C_24  and  N_19 
REMARK    7  A    between atoms: C_25  and  C_23 
REMARK    8  A    between atoms: C_26  and  C_24 
REMARK    9  A    between atoms: C_37  and  C_25 
REMARK   10  A    between atoms: C_38  and  C_26 
REMARK   11  A    between atoms: C_27  and  C_29 
REMARK   12  A    between atoms: C_28  and  C_30 
REMARK   13  A    between atoms: C_29  and  C_35 
REMARK   14  A    between atoms: C_30  and  C_36 
REMARK   15  A    between atoms: C_31  and  C_39 
REMARK   16  A    between atoms: C_33  and  C_31 
REMARK   17  A    between atoms: C_32  and  C_40 
REMARK   18  A    between atoms: C_34  and  C_32 
REMARK   19  A    between atoms: C_35  and  C_33 
REMARK   20  A    between atoms: C_36  and  C_34 
REMARK   21  A    between atoms: C_39  and  C_37 
REMARK   22  A    between atoms: C_40  and  C_38 
ROOT
ATOM      1  C   UNL d   1      -0.540   2.977  -2.343  0.00  0.00     0.027 A 
ATOM      2  C   UNL d   1      -1.113   4.856  -3.711  0.00  0.00     0.027 A 
ATOM      3  C   UNL d   1      -1.141   3.374  -3.629  0.00  0.00     0.194 A 
ATOM      4  C   UNL d   1      -0.551   5.304  -2.502  0.00  0.00    -0.011 A 
ATOM      5  C   UNL d   1      -0.206   4.165  -1.658  0.00  0.00    -0.011 A 
ATOM      6  C   UNL d   1       0.356   1.634  -0.592  0.00  0.00     0.075 A 
ATOM      7  C   UNL d   1      -1.311   7.062  -4.554  0.00  0.00     0.075 A 
ATOM      8  C   UNL d   1      -0.282   1.706  -1.837  0.00  0.00     0.041 A 
ATOM      9  C   UNL d   1      -1.512   5.691  -4.746  0.00  0.00     0.041 A 
ATOM     10  C   UNL d   1      -0.380   6.666  -2.312  0.00  0.00     0.015 A 
ATOM     11  C   UNL d   1       0.383   4.085  -0.416  0.00  0.00     0.015 A 
ATOM     12  O   UNL d   1      -1.565   2.618  -4.477  0.00  0.00    -0.287 OA
ATOM     13  C   UNL d   1      -0.762   7.542  -3.343  0.00  0.00     0.026 A 
ATOM     14  C   UNL d   1       0.672   2.816   0.122  0.00  0.00     0.026 A 
ENDROOT
BRANCH   6  15
ATOM     15  S   UNL d   1       0.880   0.060   0.063  0.00  0.00     0.241 S 
ATOM     16  O   UNL d   1       1.429   0.274   1.384  0.00  0.00    -0.206 OA
ATOM     17  O   UNL d   1       1.640  -0.607  -0.970  0.00  0.00    -0.206 OA
BRANCH  15  18
ATOM     18  N   UNL d   1      -0.552  -0.825   0.248  0.00  0.00    -0.216 NA
ATOM     19  H   UNL d   1      -0.386  -1.792  -0.042  0.00  0.00     0.139 HD
BRANCH  18  20
ATOM     20  C   UNL d   1      -1.231  -0.655   1.540  0.00  0.00     0.104 C 
BRANCH  20  21
ATOM     21  C   UNL d   1      -2.513  -1.474   1.598  0.00  0.00     0.015 C 
BRANCH  21  22
ATOM     22  C   UNL d   1      -3.161  -1.284   2.967  0.00  0.00     0.001 C 
BRANCH  22  23
ATOM     23  C   UNL d   1      -4.452  -2.077   3.086  0.00  0.00     0.000 C 
BRANCH  23  24
ATOM     24  C   UNL d   1      -5.074  -1.866   4.459  0.00  0.00     0.000 C 
BRANCH  24  25
ATOM     25  C   UNL d   1      -6.365  -2.659   4.578  0.00  0.00     0.000 C 
BRANCH  25  26
ATOM     26  C   UNL d   1      -6.990  -2.447   5.949  0.00  0.00     0.000 C 
BRANCH  26  27
ATOM     27  C   UNL d   1      -8.280  -3.244   6.067  0.00  0.00    -0.000 C 
BRANCH  27  28
ATOM     28  C   UNL d   1      -8.913  -3.038   7.436  0.00  0.00    -0.005 C 
ATOM     29  C   UNL d   1     -10.199  -3.833   7.550  0.00  0.00     0.005 C 
ENDBRANCH  27  28
ENDBRANCH  26  27
ENDBRANCH  25  26
ENDBRANCH  24  25
ENDBRANCH  23  24
ENDBRANCH  22  23
ENDBRANCH  21  22
ENDBRANCH  20  21
ENDBRANCH  18  20
ENDBRANCH  15  18
ENDBRANCH   6  15
BRANCH   7  30
ATOM     30  S   UNL d   1      -1.812   8.261  -5.780  0.00  0.00     0.241 S 
ATOM     31  O   UNL d   1      -3.177   7.967  -6.147  0.00  0.00    -0.206 OA
ATOM     32  O   UNL d   1      -1.427   9.573  -5.303  0.00  0.00    -0.206 OA
BRANCH  30  33
ATOM     33  N   UNL d   1      -0.857   7.934  -7.146  0.00  0.00    -0.216 NA
ATOM     34  H   UNL d   1      -1.428   8.069  -7.984  0.00  0.00     0.139 HD
BRANCH  33  35
ATOM     35  C   UNL d   1       0.444   8.622  -7.165  0.00  0.00     0.104 C 
BRANCH  35  36
ATOM     36  C   UNL d   1       1.233   8.276  -8.420  0.00  0.00     0.015 C 
BRANCH  36  37
ATOM     37  C   UNL d   1       2.565   9.025  -8.395  0.00  0.00     0.001 C 
BRANCH  37  38
ATOM     38  C   UNL d   1       3.392   8.715  -9.632  0.00  0.00     0.000 C 
BRANCH  38  39
ATOM     39  C   UNL d   1       4.715   9.466  -9.584  0.00  0.00     0.000 C 
BRANCH  39  40
ATOM     40  C   UNL d   1       5.541   9.152 -10.822  0.00  0.00     0.000 C 
BRANCH  40  41
ATOM     41  C   UNL d   1       6.864   9.902 -10.776  0.00  0.00     0.000 C 
BRANCH  41  42
ATOM     42  C   UNL d   1       7.689   9.587 -12.015  0.00  0.00    -0.000 C 
BRANCH  42  43
ATOM     43  C   UNL d   1       9.015  10.334 -11.979  0.00  0.00    -0.005 C 
ATOM     44  C   UNL d   1       9.834  10.020 -13.216  0.00  0.00     0.005 C 
ENDBRANCH  42  43
ENDBRANCH  41  42
ENDBRANCH  40  41
ENDBRANCH  39  40
ENDBRANCH  38  39
ENDBRANCH  37  38
ENDBRANCH  36  37
ENDBRANCH  35  36
ENDBRANCH  33  35
ENDBRANCH  30  33
ENDBRANCH   7  30
TORSDOF 22
