REMARK  5 active torsions:
REMARK  status: ('A' for Active; 'I' for Inactive)
REMARK    1  A    between atoms: C_2  and  C_1 
REMARK    2  A    between atoms: O_9  and  C_2 
REMARK    3  A    between atoms: N_6  and  C_3 
REMARK    4  A    between atoms: C_10  and  N_6 
REMARK    5  A    between atoms: C_14  and  O_9 
ROOT
ATOM      1  C   UNL d   1       1.025  -0.076  -0.017  0.00  0.00     0.134 C 
ATOM      2  C   UNL d   1       0.324   0.752  -0.813  0.00  0.00     0.112 C 
ATOM      3  C   UNL d   1       0.371  -0.976   0.871  0.00  0.00     0.107 C 
ATOM      4  N   UNL d   1      -0.214  -1.698   1.566  0.00  0.00    -0.191 NA
ENDROOT
BRANCH   1   5
ATOM      5  C   UNL d   1       2.500  -0.102  -0.159  0.00  0.00     0.305 C 
ATOM      6  O   UNL d   1       3.128   0.573  -0.962  0.00  0.00    -0.258 OA
BRANCH   5   7
ATOM      7  O   UNL d   1       3.032  -1.041   0.665  0.00  0.00    -0.317 OA
BRANCH   7   8
ATOM      8  C   UNL d   1       4.372  -1.453   0.362  0.00  0.00     0.174 C 
ATOM      9  C   UNL d   1       4.299  -2.576  -0.657  0.00  0.00     0.034 C 
ENDBRANCH   7   8
ENDBRANCH   5   7
ENDBRANCH   1   5
BRANCH   2  10
ATOM     10  N   UNL d   1      -1.044   0.883  -0.889  0.00  0.00    -0.392 N 
ATOM     11  H   UNL d   1      -1.603   0.331  -0.234  0.00  0.00     0.159 HD
BRANCH  10  12
ATOM     12  C   UNL d   1      -1.813   1.725  -1.801  0.00  0.00     0.091 C 
ATOM     13  C   UNL d   1      -2.088   3.087  -1.168  0.00  0.00     0.036 C 
ATOM     14  C   UNL d   1      -3.084   2.869  -0.038  0.00  0.00     0.076 C 
ATOM     15  S   UNL d   1      -4.231   1.602  -0.650  0.00  0.00    -0.167 SA
ATOM     16  C   UNL d   1      -3.191   1.101  -2.060  0.00  0.00     0.098 C 
ENDBRANCH  10  12
ENDBRANCH   2  10
TORSDOF 5
