REMARK  3 active torsions:
REMARK  status: ('A' for Active; 'I' for Inactive)
REMARK    1  A    between atoms: C_2  and  C_1 
REMARK    2  A    between atoms: C_10  and  C_6 
REMARK    3  A    between atoms: O_16  and  N_11 
ROOT
ATOM      1  C   UNL d   1      -0.050   1.109   0.001  0.00  0.00     0.089 A 
ATOM      2  O   UNL d   1      -0.909   0.042  -0.030  0.00  0.00    -0.308 OA
ATOM      3  C   UNL d   1       1.252   0.648  -0.009  0.00  0.00     0.041 A 
ATOM      4  C   UNL d   1      -0.151  -1.097  -0.039  0.00  0.00     0.093 A 
ATOM      5  C   UNL d   1       1.187  -0.763  -0.039  0.00  0.00     0.041 A 
ENDROOT
BRANCH   1   6
ATOM      6  C   UNL d   1      -0.656   2.435   0.056  0.00  0.00     0.036 A 
ATOM      7  C   UNL d   1       0.059   3.533   0.559  0.00  0.00     0.132 A 
ATOM      8  C   UNL d   1      -0.498   4.807   0.617  0.00  0.00     0.085 A 
ATOM      9  F   UNL d   1       1.312   3.380   1.016  0.00  0.00    -0.205 F 
ATOM     10  C   UNL d   1      -1.792   4.996   0.158  0.00  0.00     0.119 A 
ATOM     11  C   UNL d   1      -2.532   3.934  -0.351  0.00  0.00     0.043 A 
ATOM     12  F   UNL d   1      -2.337   6.218   0.206  0.00  0.00    -0.206 F 
ATOM     13  C   UNL d   1      -1.966   2.656  -0.400  0.00  0.00     0.020 A 
ENDBRANCH   1   6
BRANCH   4  14
ATOM     14  C   UNL d   1      -0.819  -2.366  -0.037  0.00  0.00     0.151 C 
ATOM     15  N   UNL d   1      -0.141  -3.471  -0.040  0.00  0.00    -0.278 N 
ATOM     16  HN  UNL d   1       0.877  -3.539  -0.048  1.00  0.00     0.193 HD
BRANCH  15  17
ATOM     17  O   UNL d   1      -1.025  -4.558  -0.028  0.00  0.00    -0.290 OA
ATOM     18  H   UNL d   1      -0.417  -5.321  -0.020  0.00  0.00     0.244 HD
ENDBRANCH  15  17
ENDBRANCH   4  14
TORSDOF 3
