REMARK  6 active torsions:
REMARK  status: ('A' for Active; 'I' for Inactive)
REMARK    1  A    between atoms: C_3  and  S_1 
REMARK    2  A    between atoms: C_7  and  S_1 
REMARK    3  A    between atoms: S_2  and  C_4 
REMARK    4  A    between atoms: O_11  and  S_2 
REMARK    5  A    between atoms: C_6  and  C_8 
REMARK    6  A    between atoms: C_14  and  O_11 
ROOT
ATOM      1  C   UNL d   1       0.545  -1.793  -0.257  0.00  0.00     0.107 A 
ATOM      2  C   UNL d   1      -0.602  -3.874  -0.988  0.00  0.00     0.128 A 
ATOM      3  S   UNL d   1      -0.851  -2.190  -1.179  0.00  0.00    -0.064 SA
ATOM      4  C   UNL d   1       1.214  -2.937   0.136  0.00  0.00     0.033 A 
ATOM      5  C   UNL d   1       0.560  -4.129  -0.286  0.00  0.00     0.035 A 
ENDROOT
BRANCH   1   6
ATOM      6  S   UNL d   1       0.839  -0.045  -0.023  0.00  0.00     0.228 S 
ATOM      7  O   UNL d   1      -0.288   0.456   0.740  0.00  0.00    -0.215 OA
ATOM      8  O   UNL d   1       1.142   0.446  -1.357  0.00  0.00    -0.215 OA
BRANCH   6   9
ATOM      9  C   UNL d   1       2.311   0.176   0.965  0.00  0.00     0.134 A 
ATOM     10  N   UNL d   1       2.548  -0.791   1.889  0.00  0.00    -0.356 N 
ATOM     11  C   UNL d   1       3.697  -0.680   2.597  0.00  0.00     0.105 A 
ATOM     12  HN  UNL d   1       1.896  -1.561   2.041  1.00  0.00     0.166 HD
ATOM     13  C   UNL d   1       4.621   0.342   2.422  0.00  0.00     0.063 A 
ATOM     14  C   UNL d   1       4.331   1.327   1.467  0.00  0.00     0.020 A 
ATOM     15  C   UNL d   1       3.157   1.247   0.719  0.00  0.00     0.043 A 
BRANCH  13  16
ATOM     16  C   UNL d   1       5.889   0.372   3.224  0.00  0.00     0.418 C 
ATOM     17  F   UNL d   1       6.015  -0.679   4.080  0.00  0.00    -0.166 F 
ATOM     18  F   UNL d   1       6.998   0.344   2.434  0.00  0.00    -0.166 F 
ATOM     19  F   UNL d   1       6.000   1.493   3.986  0.00  0.00    -0.166 F 
ENDBRANCH  13  16
ENDBRANCH   6   9
ENDBRANCH   1   6
BRANCH   2  20
ATOM     20  S   UNL d   1      -1.855  -4.975  -1.624  0.00  0.00     0.309 S 
ATOM     21  O   UNL d   1      -1.686  -6.195  -0.861  0.00  0.00    -0.192 OA
ATOM     22  O   UNL d   1      -3.093  -4.224  -1.621  0.00  0.00    -0.192 OA
BRANCH  20  23
ATOM     23  O   UNL d   1      -1.343  -5.229  -3.159  0.00  0.00    -0.229 OA
BRANCH  23  24
ATOM     24  C   UNL d   1      -2.059  -6.036  -4.020  0.00  0.00     0.092 A 
ATOM     25  C   UNL d   1      -3.435  -6.273  -3.915  0.00  0.00     0.062 A 
ATOM     26  C   UNL d   1      -4.086  -7.066  -4.862  0.00  0.00     0.038 A 
ATOM     27 CL   UNL d   1      -5.781  -7.331  -4.718  0.00  0.00    -0.084 Cl
ATOM     28  C   UNL d   1      -3.387  -7.626  -5.924  0.00  0.00     0.048 A 
ATOM     29  C   UNL d   1      -2.021  -7.391  -6.029  0.00  0.00     0.038 A 
ATOM     30  C   UNL d   1      -1.352  -6.600  -5.089  0.00  0.00     0.062 A 
ATOM     31 CL   UNL d   1      -1.149  -8.074  -7.348  0.00  0.00    -0.084 Cl
ENDBRANCH  23  24
ENDBRANCH  20  23
ENDBRANCH   2  20
TORSDOF 6
