REMARK  4 active torsions:
REMARK  status: ('A' for Active; 'I' for Inactive)
REMARK    1  A    between atoms: C_2  and  C_1 
REMARK    2  A    between atoms: C_3  and  N_5 
REMARK    3  A    between atoms: N_10  and  C_3 
REMARK    4  A    between atoms: N_5  and  C_4 
ROOT
ATOM      1  C   UNL d   1       0.495  -1.181   0.774  0.00  0.00     0.074 A 
ATOM      2  C   UNL d   1       0.841  -2.254  -0.082  0.00  0.00     0.049 A 
ATOM      3  C   UNL d   1      -0.061  -1.449   2.047  0.00  0.00     0.018 A 
ATOM      4  C   UNL d   1       0.605  -3.555   0.377  0.00  0.00     0.030 A 
ATOM      5  C   UNL d   1      -0.275  -2.752   2.479  0.00  0.00     0.001 A 
ATOM      6  C   UNL d   1       0.061  -3.804   1.643  0.00  0.00     0.002 A 
ENDROOT
BRANCH   2   7
ATOM      7  N   UNL d   1       1.373  -1.972  -1.369  0.00  0.00    -0.333 N 
ATOM      8  H   UNL d   1       1.476  -0.986  -1.584  0.00  0.00     0.168 HD
BRANCH   7   9
ATOM      9  C   UNL d   1       1.877  -2.759  -2.380  0.00  0.00     0.170 C 
ATOM     10  S   UNL d   1       2.244  -4.375  -2.456  0.00  0.00    -0.041 SA
BRANCH   9  11
ATOM     11  N   UNL d   1       2.144  -2.014  -3.499  0.00  0.00    -0.376 N 
ATOM     12  H   UNL d   1       1.616  -1.174  -3.695  0.00  0.00     0.158 HD
ATOM     13  H   UNL d   1       2.443  -2.537  -4.314  0.00  0.00     0.158 HD
ENDBRANCH   9  11
ENDBRANCH   7   9
ENDBRANCH   2   7
BRANCH   1  14
ATOM     14  C   UNL d   1       0.673   0.275   0.420  0.00  0.00     0.419 C 
ATOM     15  F   UNL d   1       1.215   0.495  -0.814  0.00  0.00    -0.166 F 
ATOM     16  F   UNL d   1       1.483   0.932   1.298  0.00  0.00    -0.166 F 
ATOM     17  F   UNL d   1      -0.506   0.959   0.423  0.00  0.00    -0.166 F 
ENDBRANCH   1  14
TORSDOF 4
