REMARK  4 active torsions:
REMARK  status: ('A' for Active; 'I' for Inactive)
REMARK       I    between atoms: N_2  and  C_1 
REMARK    1  A    between atoms: C_4  and  C_1 
REMARK       I    between atoms: C_5  and  N_2 
REMARK    2  A    between atoms: C_3  and  C_6 
REMARK       I    between atoms: N_10  and  C_5 
REMARK    3  A    between atoms: C_9  and  N_12 
REMARK    4  A    between atoms: N_12  and  N_10 
ROOT
ATOM      1  C   UNL d   1       0.655   3.196  -3.453  0.00  0.00     0.261 C 
ATOM      2  N   UNL d   1       0.335   2.346  -2.405  0.00  0.00    -0.274 N 
ATOM      3  C   UNL d   1       1.155   1.649  -1.559  0.00  0.00     0.337 C 
ATOM      4  N   UNL d   1       2.502   1.697  -1.829  0.00  0.00    -0.267 N 
ATOM      5  O   UNL d   1       1.791   3.420  -3.852  0.00  0.00    -0.267 OA
ATOM      6  O   UNL d   1       0.666   1.014  -0.624  0.00  0.00    -0.246 OA
ATOM      7  H   UNL d   1      -0.633   2.262  -2.130  0.00  0.00     0.173 HD
ATOM      8  H   UNL d   1       2.815   2.507  -2.363  0.00  0.00     0.186 HD
ENDROOT
BRANCH   4   9
ATOM      9  N   UNL d   1       3.341   1.280  -0.769  0.00  0.00    -0.186 NA
ATOM     10  H   UNL d   1       2.909   0.540  -0.202  0.00  0.00     0.154 HD
BRANCH   9  11
ATOM     11  C   UNL d   1       4.615   0.822  -1.147  0.00  0.00     0.099 A 
ATOM     12  N   UNL d   1       5.079  -0.277  -0.515  0.00  0.00    -0.350 N 
ATOM     13  C   UNL d   1       6.348  -0.684  -0.756  0.00  0.00     0.007 A 
ATOM     14  HN  UNL d   1       4.483  -0.792   0.133  1.00  0.00     0.167 HD
ATOM     15  C   UNL d   1       6.845  -1.885  -0.007  0.00  0.00     0.068 C 
ATOM     16  C   UNL d   1       7.193  -0.012  -1.630  0.00  0.00     0.041 A 
ATOM     17  C   UNL d   1       6.719   1.127  -2.283  0.00  0.00     0.052 A 
ATOM     18  C   UNL d   1       5.408   1.543  -2.030  0.00  0.00     0.060 A 
BRANCH  17  19
ATOM     19  C   UNL d   1       7.613   1.911  -3.201  0.00  0.00     0.417 C 
ATOM     20  F   UNL d   1       7.002   2.984  -3.775  0.00  0.00    -0.166 F 
ATOM     21  F   UNL d   1       8.707   2.406  -2.559  0.00  0.00    -0.166 F 
ATOM     22  F   UNL d   1       8.092   1.159  -4.230  0.00  0.00    -0.166 F 
ENDBRANCH  17  19
ENDBRANCH   9  11
ENDBRANCH   4   9
BRANCH   1  23
ATOM     23  C   UNL d   1      -0.529   3.767  -4.153  0.00  0.00     0.054 A 
ATOM     24  C   UNL d   1      -1.609   4.351  -3.476  0.00  0.00     0.049 A 
ATOM     25 CL   UNL d   1      -1.589   4.663  -1.776  0.00  0.00    -0.083 Cl
ATOM     26  C   UNL d   1      -2.758   4.721  -4.181  0.00  0.00     0.025 A 
ATOM     27  C   UNL d   1      -2.827   4.530  -5.561  0.00  0.00     0.002 A 
ATOM     28  C   UNL d   1      -1.735   3.997  -6.245  0.00  0.00     0.001 A 
ATOM     29  C   UNL d   1      -0.585   3.620  -5.546  0.00  0.00     0.019 A 
ENDBRANCH   1  23
TORSDOF 4
