REMARK  2 active torsions:
REMARK  status: ('A' for Active; 'I' for Inactive)
REMARK    1  A    between atoms: C_6  and  N_1 
REMARK    2  A    between atoms: N_13  and  C_2 
ROOT
ATOM      1  N   UNL d   1       1.003  -0.555  -0.036  0.00  0.00    -0.239 N 
ATOM      2  C   UNL d   1       0.916   0.761   0.447  0.00  0.00     0.143 C 
ATOM      3  N   UNL d   1      -0.155  -0.938  -0.643  0.00  0.00    -0.302 N 
ATOM      4  HN  UNL d   1      -0.331  -1.795  -1.168  1.00  0.00     0.186 HD
ATOM      5  C   UNL d   1      -0.399   1.135   0.258  0.00  0.00     0.106 C 
ATOM      6  C   UNL d   1      -1.007   0.059  -0.400  0.00  0.00     0.134 C 
ATOM      7  C   UNL d   1      -0.994   2.387   0.585  0.00  0.00     0.104 C 
ATOM      8  N   UNL d   1      -1.469   3.414   0.836  0.00  0.00    -0.191 NA
ENDROOT
BRANCH   2   9
ATOM      9  N   UNL d   1       1.969   1.484   0.924  0.00  0.00    -0.383 N 
ATOM     10  H   UNL d   1       2.922   1.251   0.642  0.00  0.00     0.157 HD
ATOM     11  H   UNL d   1       1.871   2.490   1.065  0.00  0.00     0.157 HD
ENDBRANCH   2   9
BRANCH   1  12
ATOM     12  C   UNL d   1       2.108  -1.451   0.005  0.00  0.00     0.060 A 
ATOM     13  C   UNL d   1       3.077  -1.360   1.015  0.00  0.00     0.058 A 
ATOM     14  C   UNL d   1       4.179  -2.218   0.997  0.00  0.00     0.074 A 
ATOM     15 CL   UNL d   1       5.363  -2.092   2.241  0.00  0.00    -0.081 Cl
ATOM     16  C   UNL d   1       4.315  -3.160  -0.020  0.00  0.00     0.138 A 
ATOM     17  C   UNL d   1       3.340  -3.281  -1.006  0.00  0.00     0.046 A 
ATOM     18  F   UNL d   1       5.384  -3.967  -0.068  0.00  0.00    -0.204 F 
ATOM     19  C   UNL d   1       2.225  -2.441  -0.985  0.00  0.00     0.034 A 
ENDBRANCH   1  12
TORSDOF 2
