REMARK  2 active torsions:
REMARK  status: ('A' for Active; 'I' for Inactive)
REMARK    1  A    between atoms: S_2  and  C_1 
REMARK    2  A    between atoms: O_10  and  S_2 
ROOT
ATOM      1  C   UNL d   1      -1.930  -0.945  -0.008  0.00  0.00     0.219 A 
ATOM      2  N   UNL d   1      -0.863  -1.738   0.010  0.00  0.00    -0.329 N 
ATOM      3  HN  UNL d   1      -0.854  -2.758   0.025  1.00  0.00     0.168 HD
ATOM      4  N   UNL d   1      -1.550   0.378   0.008  0.00  0.00    -0.325 N 
ATOM      5  C   UNL d   1      -0.174   0.432   0.004  0.00  0.00     0.063 A 
ATOM      6  C   UNL d   1       0.223  -0.900   0.003  0.00  0.00     0.061 A 
ATOM      7  C   UNL d   1      -2.400   1.544   0.026  0.00  0.00     0.159 C 
ATOM      8  C   UNL d   1       0.739   1.495   0.002  0.00  0.00     0.032 A 
ATOM      9  C   UNL d   1       1.592  -1.210   0.001  0.00  0.00     0.032 A 
ATOM     10  C   UNL d   1       2.098   1.167  -0.002  0.00  0.00     0.002 A 
ATOM     11  C   UNL d   1       2.523  -0.162  -0.003  0.00  0.00     0.002 A 
ENDROOT
BRANCH   1  12
ATOM     12  S   UNL d   1      -3.608  -1.524   0.003  0.00  0.00     0.164 S 
ATOM     13  O   UNL d   1      -3.981  -1.608   1.393  0.00  0.00    -0.596 OA
ATOM     14  O   UNL d   1      -4.319  -0.729  -0.970  0.00  0.00    -0.596 OA
BRANCH  12  15
ATOM     15  O   UNL d   1      -3.453  -3.027  -0.560  0.00  0.00    -0.290 OA
ATOM     16  H   UNL d   1      -3.075  -3.586   0.151  0.00  0.00     0.232 HD
ENDBRANCH  12  15
ENDBRANCH   1  12
TORSDOF 2
