REMARK  6 active torsions:
REMARK  status: ('A' for Active; 'I' for Inactive)
REMARK    1  A    between atoms: C_3  and  C_1 
REMARK    2  A    between atoms: C_4  and  C_2 
REMARK    3  A    between atoms: C_8  and  C_3 
REMARK    4  A    between atoms: O_17  and  C_7 
REMARK    5  A    between atoms: C_9  and  C_10 
REMARK    6  A    between atoms: O_18  and  C_12 
ROOT
ATOM      1  C   UNL d   1      -0.294   0.708   1.600  0.00  0.00     0.096 C 
ATOM      2  C   UNL d   1      -0.625  -0.603   1.513  0.00  0.00     0.041 C 
ATOM      3  C   UNL d   1      -0.510   1.429   2.814  0.00  0.00     0.103 C 
ATOM      4  N   UNL d   1      -0.687   2.009   3.804  0.00  0.00    -0.191 NA
ENDROOT
BRANCH   1   5
ATOM      5  C   UNL d   1       0.290   1.328   0.356  0.00  0.00     0.202 C 
ATOM      6  O   UNL d   1       0.305   0.710  -0.708  0.00  0.00    -0.286 OA
BRANCH   5   7
ATOM      7  C   UNL d   1       0.920   2.679   0.392  0.00  0.00     0.015 C 
ATOM      8  C   UNL d   1       2.022   2.936  -0.434  0.00  0.00     0.016 C 
ATOM      9  C   UNL d   1       2.711   4.158  -0.342  0.00  0.00     0.009 C 
ATOM     10  C   UNL d   1       2.330   5.140   0.592  0.00  0.00    -0.051 C 
ATOM     11  C   UNL d   1       1.178   4.887   1.346  0.00  0.00     0.009 C 
ATOM     12  C   UNL d   1       0.458   3.701   1.210  0.00  0.00     0.016 C 
BRANCH  10  13
ATOM     13  C   UNL d   1       3.131   6.439   0.775  0.00  0.00    -0.024 C 
ATOM     14  C   UNL d   1       2.585   7.335   1.915  0.00  0.00     0.019 C 
ATOM     15  C   UNL d   1       4.596   6.107   1.126  0.00  0.00     0.019 C 
ATOM     16  C   UNL d   1       3.086   7.269  -0.521  0.00  0.00     0.019 C 
ENDBRANCH  10  13
ENDBRANCH   5   7
ENDBRANCH   1   5
BRANCH   2  17
ATOM     17  C   UNL d   1      -1.315  -1.303   2.610  0.00  0.00     0.001 A 
ATOM     18  C   UNL d   1      -2.725  -1.306   2.698  0.00  0.00     0.109 A 
ATOM     19  C   UNL d   1      -3.360  -1.816   3.837  0.00  0.00     0.102 A 
ATOM     20  C   UNL d   1      -2.572  -2.358   4.862  0.00  0.00     0.039 A 
ATOM     21  C   UNL d   1      -1.180  -2.388   4.767  0.00  0.00     0.004 A 
ATOM     22  C   UNL d   1      -0.551  -1.857   3.645  0.00  0.00     0.014 A 
BRANCH  18  23
ATOM     23  O   UNL d   1      -3.463  -0.778   1.670  0.00  0.00    -0.357 OA
ATOM     24  H   UNL d   1      -2.922  -0.747   0.864  0.00  0.00     0.217 HD
ENDBRANCH  18  23
BRANCH  19  25
ATOM     25  O   UNL d   1      -4.699  -1.865   4.117  0.00  0.00    -0.353 OA
ATOM     26  C   UNL d   1      -5.604  -1.291   3.184  0.00  0.00     0.210 C 
ENDBRANCH  19  25
ENDBRANCH   2  17
TORSDOF 6
