REMARK  2 active torsions:
REMARK  status: ('A' for Active; 'I' for Inactive)
REMARK    1  A    between atoms: C_10  and  C_1 
REMARK    2  A    between atoms: O_18  and  C_11 
ROOT
ATOM      1  C   UNL d   1       1.578   1.078   0.013  0.00  0.00     0.080 A 
ATOM      2  C   UNL d   1       0.173  -0.646   0.071  0.00  0.00     0.137 A 
ATOM      3  C   UNL d   1       0.180   0.750   0.044  0.00  0.00     0.045 A 
ATOM      4  N   UNL d   1       2.352  -0.020  -0.070  0.00  0.00    -0.295 N 
ATOM      5  HN  UNL d   1       3.366  -0.068  -0.171  1.00  0.00     0.187 HD
ATOM      6  N   UNL d   1       1.480  -1.038   0.010  0.00  0.00    -0.280 N 
ATOM      7  N   UNL d   1      -0.889  -1.471   0.114  0.00  0.00    -0.321 N 
ATOM      8  HN  UNL d   1      -0.807  -2.487   0.146  1.00  0.00     0.169 HD
ATOM      9  C   UNL d   1      -1.087   1.390  -0.006  0.00  0.00    -0.042 A 
ATOM     10  C   UNL d   1      -2.062  -0.827   0.111  0.00  0.00     0.141 A 
ATOM     11  C   UNL d   1      -2.217   0.550   0.058  0.00  0.00     0.063 A 
ATOM     12  C   UNL d   1       1.944  -2.402  -0.016  0.00  0.00     0.179 C 
ATOM     13  C   UNL d   1      -1.337   2.864  -0.157  0.00  0.00     0.049 C 
ENDROOT
BRANCH   1  14
ATOM     14  C   UNL d   1       2.223   2.436   0.024  0.00  0.00     0.034 C 
ATOM     15  S   UNL d   1       3.717   2.773  -0.749  0.00  0.00    -0.100 SA
ATOM     16  C   UNL d   1       3.595   4.443  -0.401  0.00  0.00     0.050 C 
ATOM     17  C   UNL d   1       2.503   4.725   0.388  0.00  0.00     0.008 C 
ATOM     18  C   UNL d   1       1.736   3.555   0.669  0.00  0.00     0.021 C 
ENDBRANCH   1  14
BRANCH  10  19
ATOM     19  O   UNL d   1      -3.154  -1.644   0.135  0.00  0.00    -0.346 OA
ATOM     20  H   UNL d   1      -3.947  -1.094   0.064  0.00  0.00     0.219 HD
ENDBRANCH  10  19
TORSDOF 2
