REMARK  2 active torsions:
REMARK  status: ('A' for Active; 'I' for Inactive)
REMARK    1  A    between atoms: C_9  and  C_2 
REMARK    2  A    between atoms: C_12  and  C_6 
ROOT
ATOM      1  N   UNL d   1       0.381   0.627  -0.572  0.00  0.00    -0.270 N 
ATOM      2  C   UNL d   1      -0.607   1.216  -1.323  0.00  0.00     0.214 A 
ATOM      3  C   UNL d   1      -0.077  -0.642  -0.344  0.00  0.00     0.172 A 
ATOM      4  N   UNL d   1      -1.576   0.321  -1.517  0.00  0.00    -0.279 N 
ATOM      5  HN  UNL d   1      -2.434   0.484  -2.045  1.00  0.00     0.188 HD
ATOM      6  C   UNL d   1       1.622   0.883   0.001  0.00  0.00     0.060 A 
ATOM      7  N   UNL d   1      -1.235  -0.860  -0.892  0.00  0.00    -0.278 N 
ATOM      8  HN  UNL d   1      -1.777  -1.723  -0.865  1.00  0.00     0.189 HD
ATOM      9  S   UNL d   1       1.016  -1.588   0.603  0.00  0.00    -0.062 SA
ATOM     10  C   UNL d   1       2.095  -0.196   0.661  0.00  0.00     0.084 A 
ENDROOT
BRANCH   6  11
ATOM     11  C   UNL d   1       2.410   2.109  -0.048  0.00  0.00    -0.008 A 
ATOM     12  C   UNL d   1       3.320   2.321  -1.091  0.00  0.00     0.014 A 
ATOM     13  C   UNL d   1       4.143   3.450  -1.088  0.00  0.00     0.007 A 
ATOM     14  C   UNL d   1       4.076   4.378  -0.042  0.00  0.00    -0.062 A 
ATOM     15  C   UNL d   1       3.166   4.163   1.000  0.00  0.00     0.007 A 
ATOM     16  C   UNL d   1       4.978   5.577  -0.045  0.00  0.00     0.048 C 
ATOM     17  C   UNL d   1       2.341   3.035   1.000  0.00  0.00     0.014 A 
ENDBRANCH   6  11
BRANCH   2  18
ATOM     18  C   UNL d   1      -0.617   2.601  -1.831  0.00  0.00     0.451 C 
ATOM     19  F   UNL d   1       0.477   3.326  -1.506  0.00  0.00    -0.163 F 
ATOM     20  F   UNL d   1      -0.701   2.635  -3.188  0.00  0.00    -0.163 F 
ATOM     21  F   UNL d   1      -1.684   3.300  -1.359  0.00  0.00    -0.163 F 
ENDBRANCH   2  18
TORSDOF 2
