REMARK  5 active torsions:
REMARK  status: ('A' for Active; 'I' for Inactive)
REMARK    1  A    between atoms: C_4  and  C_1 
REMARK    2  A    between atoms: O_10  and  C_3 
REMARK    3  A    between atoms: O_11  and  C_4 
REMARK    4  A    between atoms: O_12  and  C_6 
REMARK    5  A    between atoms: C_13  and  O_11 
ROOT
ATOM      1  C   UNL d   1       0.197   1.277  -0.014  0.00  0.00     0.064 A 
ATOM      2  C   UNL d   1      -0.510   0.055   0.057  0.00  0.00     0.086 A 
ATOM      3  C   UNL d   1       0.210  -1.163   0.025  0.00  0.00     0.124 A 
ATOM      4  C   UNL d   1       1.600   1.281  -0.053  0.00  0.00     0.022 A 
ATOM      5  C   UNL d   1       1.633  -1.127  -0.026  0.00  0.00     0.103 A 
ATOM      6  C   UNL d   1       2.314   0.089  -0.053  0.00  0.00     0.041 A 
ATOM      7 CL   UNL d   1      -2.231   0.103   0.302  0.00  0.00    -0.080 Cl
ENDROOT
BRANCH   1   8
ATOM      8  C   UNL d   1      -0.420   2.630   0.010  0.00  0.00     0.295 C 
ATOM      9  O   UNL d   1       0.117   3.583   0.550  0.00  0.00    -0.259 OA
BRANCH   8  10
ATOM     10  O   UNL d   1      -1.563   2.674  -0.714  0.00  0.00    -0.318 OA
BRANCH  10  11
ATOM     11  C   UNL d   1      -2.255   3.932  -0.719  0.00  0.00     0.174 C 
ATOM     12  C   UNL d   1      -2.978   4.169   0.597  0.00  0.00     0.034 C 
ENDBRANCH  10  11
ENDBRANCH   8  10
ENDBRANCH   1   8
BRANCH   3  13
ATOM     13  O   UNL d   1      -0.257  -2.454   0.064  0.00  0.00    -0.351 OA
ATOM     14  C   UNL d   1      -1.630  -2.785   0.034  0.00  0.00     0.210 C 
ENDBRANCH   3  13
BRANCH   5  15
ATOM     15  O   UNL d   1       2.266  -2.350  -0.034  0.00  0.00    -0.353 OA
ATOM     16  C   UNL d   1       3.686  -2.371  -0.024  0.00  0.00     0.210 C 
ENDBRANCH   5  15
TORSDOF 5
