REMARK  7 active torsions:
REMARK  status: ('A' for Active; 'I' for Inactive)
REMARK    1  A    between atoms: S_10  and  C_3 
REMARK    2  A    between atoms: C_11  and  C_4 
REMARK    3  A    between atoms: C_5  and  N_7 
REMARK    4  A    between atoms: C_6  and  C_18 
REMARK       I    between atoms: N_7  and  C_6 
REMARK    5  A    between atoms: C_18  and  S_10 
REMARK    6  A    between atoms: O_23  and  C_11 
REMARK    7  A    between atoms: O_24  and  C_11 
ROOT
ATOM      1  S   UNL d   1      -0.299   2.892   1.040  0.00  0.00    -0.085 SA
ENDROOT
BRANCH   1   2
ATOM      2  C   UNL d   1      -0.294   1.178   0.553  0.00  0.00     0.144 A 
ATOM      3  N   UNL d   1       0.901   0.581   0.521  0.00  0.00    -0.336 N 
ATOM      4  C   UNL d   1       0.940  -0.735   0.187  0.00  0.00     0.067 A 
ATOM      5  HN  UNL d   1       1.754   1.096   0.740  1.00  0.00     0.168 HD
ATOM      6  C   UNL d   1      -0.204  -1.438  -0.138  0.00  0.00     0.047 A 
ATOM      7  C   UNL d   1      -1.383  -0.727  -0.085  0.00  0.00     0.092 A 
ATOM      8  N   UNL d   1      -1.454   0.571   0.256  0.00  0.00    -0.347 N 
ATOM      9  HN  UNL d   1      -2.343   1.070   0.287  1.00  0.00     0.167 HD
BRANCH   4  10
ATOM     10  C   UNL d   1       2.306  -1.421   0.110  0.00  0.00     0.309 C 
BRANCH  10  11
ATOM     11  O   UNL d   1       2.768  -1.516  -1.244  0.00  0.00    -0.360 OA
ATOM     12  C   UNL d   1       3.128  -0.259  -1.808  0.00  0.00     0.205 C 
ENDBRANCH  10  11
BRANCH  10  13
ATOM     13  O   UNL d   1       3.237  -0.779   0.985  0.00  0.00    -0.360 OA
ATOM     14  C   UNL d   1       4.451  -1.494   1.125  0.00  0.00     0.205 C 
ENDBRANCH  10  13
ENDBRANCH   4  10
ENDBRANCH   1   2
BRANCH   1  15
ATOM     15  C   UNL d   1      -2.085   3.165   1.071  0.00  0.00     0.185 C 
BRANCH  15  16
ATOM     16  C   UNL d   1      -2.533   4.510   1.612  0.00  0.00     0.231 C 
ATOM     17  N   UNL d   1      -1.572   5.329   2.171  0.00  0.00    -0.326 N 
ATOM     18  H   UNL d   1      -0.609   5.069   1.992  0.00  0.00     0.169 HD
ATOM     19  O   UNL d   1      -3.731   4.789   1.545  0.00  0.00    -0.272 OA
BRANCH  17  20
ATOM     20  C   UNL d   1      -1.808   6.517   2.906  0.00  0.00     0.037 A 
ATOM     21  C   UNL d   1      -3.073   6.885   3.378  0.00  0.00     0.053 A 
ATOM     22  C   UNL d   1      -3.241   8.046   4.134  0.00  0.00     0.037 A 
ATOM     23 CL   UNL d   1      -4.805   8.458   4.726  0.00  0.00    -0.084 Cl
ATOM     24  C   UNL d   1      -2.159   8.866   4.428  0.00  0.00     0.048 A 
ATOM     25  C   UNL d   1      -0.900   8.507   3.958  0.00  0.00     0.037 A 
ATOM     26  C   UNL d   1      -0.715   7.338   3.209  0.00  0.00     0.053 A 
ATOM     27 CL   UNL d   1       0.450   9.518   4.309  0.00  0.00    -0.084 Cl
ENDBRANCH  17  20
ENDBRANCH  15  16
ENDBRANCH   1  15
TORSDOF 7
