REMARK  3 active torsions:
REMARK  status: ('A' for Active; 'I' for Inactive)
REMARK    1  A    between atoms: C_2  and  C_1 
REMARK       I    between atoms: N_11  and  C_2 
REMARK    2  A    between atoms: C_3  and  C_14 
REMARK    3  A    between atoms: N_9  and  N_11 
ROOT
ATOM      1  C   UNL d   1       0.231  -2.649  -0.080  0.00  0.00     0.288 C 
ATOM      2  N   UNL d   1      -0.800  -3.575  -0.043  0.00  0.00    -0.265 N 
ATOM      3  O   UNL d   1       0.070  -1.438  -0.208  0.00  0.00    -0.264 OA
ATOM      4  H   UNL d   1      -0.594  -4.563  -0.090  0.00  0.00     0.190 HD
ENDROOT
BRANCH   2   5
ATOM      5  N   UNL d   1      -2.097  -3.158  -0.052  0.00  0.00    -0.308 N 
ATOM      6  C   UNL d   1      -2.990  -4.091   0.020  0.00  0.00     0.122 C 
ATOM      7  HN  UNL d   1      -2.348  -2.171  -0.111  1.00  0.00     0.186 HD
BRANCH   6   8
ATOM      8  C   UNL d   1      -4.441  -3.798   0.035  0.00  0.00     0.024 A 
ATOM      9  C   UNL d   1      -5.326  -4.735  -0.526  0.00  0.00     0.047 A 
ATOM     10 CL   UNL d   1      -4.791  -6.201  -1.277  0.00  0.00    -0.083 Cl
ATOM     11  C   UNL d   1      -6.707  -4.503  -0.521  0.00  0.00     0.025 A 
ATOM     12  C   UNL d   1      -7.221  -3.340   0.044  0.00  0.00     0.003 A 
ATOM     13  C   UNL d   1      -6.353  -2.407   0.607  0.00  0.00     0.025 A 
ATOM     14  C   UNL d   1      -4.969  -2.629   0.610  0.00  0.00     0.047 A 
ATOM     15 CL   UNL d   1      -4.021  -1.431   1.421  0.00  0.00    -0.083 Cl
ENDBRANCH   6   8
ENDBRANCH   2   5
BRANCH   1  16
ATOM     16  C   UNL d   1       1.555  -3.219  -0.028  0.00  0.00     0.125 A 
ATOM     17  C   UNL d   1       2.103  -4.370   0.521  0.00  0.00     0.038 A 
ATOM     18  N   UNL d   1       3.455  -4.434   0.251  0.00  0.00    -0.354 N 
ATOM     19  C   UNL d   1       1.503  -5.451   1.339  0.00  0.00     0.071 C 
ATOM     20  C   UNL d   1       3.743  -3.331  -0.396  0.00  0.00     0.181 A 
ATOM     21  HN  UNL d   1       4.097  -5.185   0.503  1.00  0.00     0.166 HD
ATOM     22  N   UNL d   1       2.638  -2.555  -0.559  0.00  0.00    -0.346 N 
ATOM     23  H   UNL d   1       2.594  -1.647  -1.006  0.00  0.00     0.167 HD
ENDBRANCH   1  16
TORSDOF 3
