REMARK  9 active torsions:
REMARK  status: ('A' for Active; 'I' for Inactive)
REMARK    1  A    between atoms: C_7  and  S_1 
REMARK    2  A    between atoms: C_12  and  S_1 
REMARK    3  A    between atoms: C_2  and  C_3 
REMARK    4  A    between atoms: S_5  and  C_2 
REMARK    5  A    between atoms: C_4  and  C_9 
REMARK    6  A    between atoms: C_8  and  S_5 
REMARK    7  A    between atoms: C_6  and  S_23 
REMARK    8  A    between atoms: C_26  and  C_12 
REMARK    9  A    between atoms: S_23  and  C_26 
ROOT
ATOM      1  C   UNL d   1       0.245   5.622   4.981  0.00  0.00     0.055 A 
ATOM      2  C   UNL d   1       0.368   4.489   4.165  0.00  0.00     0.084 A 
ATOM      3  N   UNL d   1       1.322   3.539   4.386  0.00  0.00    -0.360 N 
ATOM      4  HN  UNL d   1       1.386   2.720   3.781  1.00  0.00     0.166 HD
ATOM      5  C   UNL d   1       1.202   5.773   6.006  0.00  0.00     0.020 A 
ATOM      6  C   UNL d   1       2.178   3.697   5.413  0.00  0.00     0.089 A 
ATOM      7  C   UNL d   1       2.169   4.799   6.235  0.00  0.00     0.018 A 
ENDROOT
BRANCH   2   8
ATOM      8  S   UNL d   1      -0.685   4.107   2.767  0.00  0.00    -0.110 SA
BRANCH   8   9
ATOM      9  C   UNL d   1       0.478   3.211   1.672  0.00  0.00     0.096 C 
BRANCH   9  10
ATOM     10  C   UNL d   1       1.553   4.087   1.045  0.00  0.00     0.156 C 
BRANCH  10  11
ATOM     11  S   UNL d   1       1.077   4.882  -0.470  0.00  0.00     0.176 S 
ATOM     12  O   UNL d   1       2.256   4.861  -1.322  0.00  0.00    -0.223 OA
ATOM     13  O   UNL d   1      -0.167   4.309  -0.946  0.00  0.00    -0.223 OA
BRANCH  11  14
ATOM     14  C   UNL d   1       0.752   6.612  -0.194  0.00  0.00     0.060 A 
ATOM     15  C   UNL d   1       0.704   7.197   1.072  0.00  0.00     0.039 A 
ATOM     16  C   UNL d   1       0.478   8.583   1.200  0.00  0.00     0.049 A 
ATOM     17  C   UNL d   1       0.289   9.357   0.044  0.00  0.00     0.016 A 
ATOM     18  C   UNL d   1       0.343   8.770  -1.218  0.00  0.00     0.002 A 
ATOM     19  C   UNL d   1       0.577   7.402  -1.338  0.00  0.00     0.023 A 
BRANCH  16  20
ATOM     20  C   UNL d   1       0.420   9.245   2.557  0.00  0.00     0.417 C 
ATOM     21  F   UNL d   1       1.010   8.502   3.538  0.00  0.00    -0.166 F 
ATOM     22  F   UNL d   1       1.067  10.445   2.578  0.00  0.00    -0.166 F 
ATOM     23  F   UNL d   1      -0.847   9.499   2.970  0.00  0.00    -0.166 F 
ENDBRANCH  16  20
ENDBRANCH  11  14
ENDBRANCH  10  11
ENDBRANCH   9  10
ENDBRANCH   8   9
ENDBRANCH   2   8
BRANCH   1  24
ATOM     24  C   UNL d   1      -0.818   6.662   4.778  0.00  0.00     0.226 C 
ATOM     25  O   UNL d   1      -1.395   6.816   3.715  0.00  0.00    -0.279 OA
BRANCH  24  26
ATOM     26  S   UNL d   1      -1.162   7.725   6.151  0.00  0.00    -0.046 SA
BRANCH  26  27
ATOM     27  C   UNL d   1      -2.809   8.331   5.824  0.00  0.00     0.030 A 
ATOM     28  C   UNL d   1      -3.111   9.703   5.744  0.00  0.00     0.052 A 
ATOM     29  C   UNL d   1      -4.439  10.137   5.662  0.00  0.00     0.049 A 
ATOM     30 CL   UNL d   1      -1.887  10.928   5.785  0.00  0.00    -0.083 Cl
ATOM     31  C   UNL d   1      -5.471   9.203   5.663  0.00  0.00     0.035 A 
ATOM     32  C   UNL d   1      -5.191   7.841   5.719  0.00  0.00     0.025 A 
ATOM     33 CL   UNL d   1      -7.107   9.736   5.625  0.00  0.00    -0.084 Cl
ATOM     34  C   UNL d   1      -3.865   7.407   5.798  0.00  0.00     0.022 A 
ENDBRANCH  26  27
ENDBRANCH  24  26
ENDBRANCH   1  24
TORSDOF 9
