REMARK  8 active torsions:
REMARK  status: ('A' for Active; 'I' for Inactive)
REMARK    1  A    between atoms: S_2  and  C_1 
REMARK    2  A    between atoms: C_17  and  S_2 
REMARK    3  A    between atoms: C_3  and  N_11 
REMARK    4  A    between atoms: C_14  and  C_4 
REMARK    5  A    between atoms: S_19  and  C_5 
REMARK    6  A    between atoms: C_13  and  C_7 
REMARK       I    between atoms: N_11  and  C_13 
REMARK    7  A    between atoms: O_21  and  C_14 
REMARK    8  A    between atoms: C_27  and  O_21 
ROOT
ATOM      1  N   UNL d   1      -1.510  -2.835   0.122  0.00  0.00    -0.316 N 
ATOM      2  C   UNL d   1      -0.213  -2.539   0.521  0.00  0.00     0.263 C 
ATOM      3  O   UNL d   1       0.579  -3.386   0.933  0.00  0.00    -0.267 OA
ATOM      4  H   UNL d   1      -1.929  -2.198  -0.542  0.00  0.00     0.169 HD
ENDROOT
BRANCH   2   5
ATOM      5  C   UNL d   1       0.198  -1.148   0.348  0.00  0.00     0.075 A 
ATOM      6  C   UNL d   1       1.477  -0.654   0.507  0.00  0.00     0.050 A 
ATOM      7  C   UNL d   1       1.555   0.772   0.382  0.00  0.00     0.084 A 
ATOM      8  C   UNL d   1       0.329   1.331   0.077  0.00  0.00     0.063 A 
ATOM      9  S   UNL d   1      -0.883   0.108  -0.057  0.00  0.00    -0.076 SA
BRANCH   7  10
ATOM     10  S   UNL d   1       3.061   1.605   0.655  0.00  0.00     0.180 S 
ATOM     11  O   UNL d   1       3.978   0.573   1.091  0.00  0.00    -0.222 OA
ATOM     12  O   UNL d   1       3.287   2.334  -0.575  0.00  0.00    -0.222 OA
BRANCH  10  13
ATOM     13  C   UNL d   1       2.773   2.740   2.014  0.00  0.00     0.105 C 
ATOM     14  C   UNL d   1       2.316   2.015   3.275  0.00  0.00     0.026 C 
ATOM     15  C   UNL d   1       4.042   3.544   2.290  0.00  0.00     0.026 C 
ENDBRANCH  10  13
ENDBRANCH   7  10
BRANCH   8  16
ATOM     16  S   UNL d   1      -0.186   3.010  -0.070  0.00  0.00    -0.126 SA
ATOM     17  C   UNL d   1       0.739   3.624  -1.493  0.00  0.00     0.096 C 
ENDBRANCH   8  16
ENDBRANCH   2   5
BRANCH   1  18
ATOM     18  C   UNL d   1      -1.936  -4.147   0.079  0.00  0.00     0.094 C 
ATOM     19  C   UNL d   1      -1.851  -5.225   0.946  0.00  0.00     0.080 C 
ATOM     20  C   UNL d   1      -2.215  -6.449   0.232  0.00  0.00    -0.030 C 
ATOM     21  C   UNL d   1      -2.120  -7.850   0.763  0.00  0.00     0.050 C 
ATOM     22  C   UNL d   1      -2.697  -6.171  -1.042  0.00  0.00    -0.012 C 
ATOM     23  S   UNL d   1      -2.753  -4.499  -1.361  0.00  0.00    -0.076 SA
ATOM     24  C   UNL d   1      -3.159  -7.137  -2.084  0.00  0.00     0.057 C 
BRANCH  19  25
ATOM     25  C   UNL d   1      -1.508  -5.134   2.377  0.00  0.00     0.296 C 
ATOM     26  O   UNL d   1      -1.422  -6.108   3.113  0.00  0.00    -0.259 OA
BRANCH  25  27
ATOM     27  O   UNL d   1      -1.465  -3.847   2.834  0.00  0.00    -0.318 OA
BRANCH  27  28
ATOM     28  C   UNL d   1      -1.503  -3.659   4.254  0.00  0.00     0.174 C 
ATOM     29  C   UNL d   1      -2.925  -3.268   4.612  0.00  0.00     0.034 C 
ENDBRANCH  27  28
ENDBRANCH  25  27
ENDBRANCH  19  25
ENDBRANCH   1  18
TORSDOF 8
