REMARK  8 active torsions:
REMARK  status: ('A' for Active; 'I' for Inactive)
REMARK    1  A    between atoms: N_3  and  C_1 
REMARK    2  A    between atoms: C_7  and  C_2 
REMARK    3  A    between atoms: C_5  and  N_3 
REMARK    4  A    between atoms: N_9  and  C_5 
REMARK    5  A    between atoms: O_14  and  C_7 
REMARK    6  A    between atoms: C_16  and  C_8 
REMARK    7  A    between atoms: C_10  and  N_9 
REMARK    8  A    between atoms: C_19  and  O_14 
ROOT
ATOM      1  N   UNL d   1       0.057   2.139  -0.156  0.00  0.00    -0.327 N 
ATOM      2  H   UNL d   1       0.848   2.773  -0.264  0.00  0.00     0.169 HD
ENDROOT
BRANCH   1   3
ATOM      3  C   UNL d   1       0.425   0.813  -0.003  0.00  0.00     0.093 A 
ATOM      4  C   UNL d   1       1.720   0.307  -0.045  0.00  0.00     0.074 A 
ATOM      5  C   UNL d   1       1.712  -1.124   0.095  0.00  0.00     0.035 A 
ATOM      6  C   UNL d   1       0.444  -1.653   0.135  0.00  0.00    -0.015 A 
ATOM      7  S   UNL d   1      -0.733  -0.426   0.114  0.00  0.00    -0.076 SA
BRANCH   4   8
ATOM      8  C   UNL d   1       2.922   1.113  -0.265  0.00  0.00     0.296 C 
ATOM      9  O   UNL d   1       2.931   2.336  -0.288  0.00  0.00    -0.259 OA
BRANCH   8  10
ATOM     10  O   UNL d   1       4.013   0.321  -0.486  0.00  0.00    -0.318 OA
BRANCH  10  11
ATOM     11  C   UNL d   1       5.280   0.955  -0.695  0.00  0.00     0.174 C 
ATOM     12  C   UNL d   1       5.467   1.342  -2.150  0.00  0.00     0.034 C 
ENDBRANCH  10  11
ENDBRANCH   8  10
ENDBRANCH   4   8
BRANCH   6  13
ATOM     13  C   UNL d   1       0.043  -3.094   0.131  0.00  0.00     0.042 C 
ATOM     14  C   UNL d   1       0.052  -3.641  -1.290  0.00  0.00     0.010 C 
ENDBRANCH   6  13
ENDBRANCH   1   3
BRANCH   1  15
ATOM     15  C   UNL d   1      -1.168   2.765  -0.178  0.00  0.00     0.177 C 
ATOM     16  S   UNL d   1      -2.587   2.346   0.605  0.00  0.00    -0.040 SA
BRANCH  15  17
ATOM     17  N   UNL d   1      -1.194   3.968  -0.850  0.00  0.00    -0.331 N 
ATOM     18  H   UNL d   1      -1.989   4.557  -0.611  0.00  0.00     0.168 HD
BRANCH  17  19
ATOM     19  C   UNL d   1      -0.290   4.518  -1.785  0.00  0.00     0.073 A 
ATOM     20  C   UNL d   1      -0.317   5.904  -1.978  0.00  0.00     0.143 A 
ATOM     21  F   UNL d   1      -1.207   6.652  -1.308  0.00  0.00    -0.204 F 
ATOM     22  C   UNL d   1       0.592   6.533  -2.823  0.00  0.00     0.044 A 
ATOM     23  C   UNL d   1       1.529   5.769  -3.517  0.00  0.00     0.003 A 
ATOM     24  C   UNL d   1       1.525   4.383  -3.388  0.00  0.00     0.002 A 
ATOM     25  C   UNL d   1       0.609   3.758  -2.537  0.00  0.00     0.033 A 
ENDBRANCH  17  19
ENDBRANCH  15  17
ENDBRANCH   1  15
TORSDOF 8
