REMARK  2 active torsions:
REMARK  status: ('A' for Active; 'I' for Inactive)
REMARK    1  A    between atoms: C_2  and  C_1 
REMARK       I    between atoms: N_5  and  C_1 
REMARK    2  A    between atoms: C_12  and  N_5 
ROOT
ATOM      1  C   UNL d   1       0.912   0.127  -0.011  0.00  0.00     0.261 C 
ATOM      2  N   UNL d   1       0.181   0.013  -1.183  0.00  0.00    -0.323 N 
ATOM      3  O   UNL d   1       0.450   0.335   1.107  0.00  0.00    -0.267 OA
ATOM      4  H   UNL d   1       0.687  -0.208  -2.032  0.00  0.00     0.169 HD
ENDROOT
BRANCH   2   5
ATOM      5  C   UNL d   1      -1.226   0.105  -1.296  0.00  0.00     0.036 A 
ATOM      6  C   UNL d   1      -2.054   0.546  -0.260  0.00  0.00     0.048 A 
ATOM      7  C   UNL d   1      -3.422   0.516  -0.459  0.00  0.00     0.050 A 
ATOM      8  C   UNL d   1      -4.480   0.905   0.467  0.00  0.00     0.294 A 
ATOM      9  C   UNL d   1      -3.996   0.076  -1.632  0.00  0.00    -0.018 A 
ATOM     10  O   UNL d   1      -5.662   0.656  -0.173  0.00  0.00    -0.313 OA
ATOM     11  O   UNL d   1      -4.346   1.369   1.580  0.00  0.00    -0.259 OA
ATOM     12  C   UNL d   1      -5.465   0.104  -1.491  0.00  0.00     0.218 A 
ATOM     13  C   UNL d   1      -3.200  -0.318  -2.691  0.00  0.00     0.012 A 
ATOM     14  C   UNL d   1      -1.808  -0.290  -2.520  0.00  0.00     0.030 A 
ENDBRANCH   2   5
BRANCH   1  15
ATOM     15  C   UNL d   1       2.382  -0.012  -0.132  0.00  0.00     0.092 A 
ATOM     16  C   UNL d   1       3.141  -0.704   0.823  0.00  0.00     0.052 A 
ATOM     17 CL   UNL d   1       2.444  -1.671   2.076  0.00  0.00    -0.083 Cl
ATOM     18  C   UNL d   1       4.541  -0.683   0.756  0.00  0.00     0.025 A 
ATOM     19  C   UNL d   1       5.191   0.010  -0.265  0.00  0.00     0.005 A 
ATOM     20  C   UNL d   1       4.441   0.666  -1.237  0.00  0.00     0.043 A 
ATOM     21  C   UNL d   1       3.049   0.652  -1.165  0.00  0.00     0.133 A 
ATOM     22  F   UNL d   1       2.364   1.301  -2.118  0.00  0.00    -0.205 F 
ENDBRANCH   1  15
TORSDOF 2
