REMARK  3 active torsions:
REMARK  status: ('A' for Active; 'I' for Inactive)
REMARK    1  A    between atoms: S_4  and  C_1 
REMARK    2  A    between atoms: C_8  and  C_3 
REMARK    3  A    between atoms: C_7  and  S_4 
ROOT
ATOM      1  C   UNL d   1       0.169   1.260  -0.029  0.00  0.00     0.047 A 
ATOM      2  S   UNL d   1      -1.008   0.025  -0.095  0.00  0.00    -0.081 SA
ATOM      3  C   UNL d   1       0.168  -1.224   0.010  0.00  0.00     0.033 A 
ATOM      4  C   UNL d   1       1.443  -0.688   0.046  0.00  0.00     0.023 A 
ATOM      5  C   UNL d   1       1.441   0.740   0.072  0.00  0.00     0.028 A 
ENDROOT
BRANCH   1   6
ATOM      6  S   UNL d   1      -0.270   2.963   0.003  0.00  0.00    -0.081 SA
BRANCH   6   7
ATOM      7  C   UNL d   1      -0.290   3.287  -1.762  0.00  0.00     0.028 A 
ATOM      8  C   UNL d   1       0.804   3.833  -2.455  0.00  0.00     0.051 A 
ATOM      9 CL   UNL d   1       2.317   4.172  -1.687  0.00  0.00    -0.083 Cl
ATOM     10  C   UNL d   1       0.706   4.117  -3.824  0.00  0.00     0.025 A 
ATOM     11  C   UNL d   1      -0.474   3.852  -4.517  0.00  0.00     0.002 A 
ATOM     12  C   UNL d   1      -1.564   3.310  -3.842  0.00  0.00     0.001 A 
ATOM     13  C   UNL d   1      -1.478   3.043  -2.471  0.00  0.00     0.021 A 
ENDBRANCH   6   7
ENDBRANCH   1   6
BRANCH   3  14
ATOM     14  C   UNL d   1      -0.225  -2.639   0.072  0.00  0.00     0.049 A 
ATOM     15  N   UNL d   1       0.665  -3.510  -0.463  0.00  0.00    -0.365 N 
ATOM     16  C   UNL d   1       0.382  -4.830  -0.354  0.00  0.00     0.088 A 
ATOM     17  HN  UNL d   1       1.513  -3.186  -0.928  1.00  0.00     0.165 HD
ATOM     18  C   UNL d   1      -0.743  -5.328   0.287  0.00  0.00     0.017 A 
ATOM     19  C   UNL d   1      -1.641  -4.423   0.831  0.00  0.00     0.004 A 
ATOM     20  C   UNL d   1      -1.386  -3.059   0.719  0.00  0.00     0.031 A 
ENDBRANCH   3  14
TORSDOF 3
