REMARK  5 active torsions:
REMARK  status: ('A' for Active; 'I' for Inactive)
REMARK    1  A    between atoms: N_3  and  C_1 
REMARK    2  A    between atoms: O_9  and  C_2 
REMARK    3  A    between atoms: O_11  and  C_5 
REMARK    4  A    between atoms: C_14  and  O_9 
REMARK    5  A    between atoms: C_15  and  O_11 
ROOT
ATOM      1  C   UNL d   1       1.454   1.163  -0.006  0.00  0.00     0.138 C 
ATOM      2  C   UNL d   1       0.062   1.196   0.161  0.00  0.00     0.132 C 
ATOM      3  C   UNL d   1      -0.620  -0.026   0.288  0.00  0.00     0.114 C 
ATOM      4  C   UNL d   1       0.066  -1.230   0.023  0.00  0.00     0.099 C 
ATOM      5  C   UNL d   1      -1.974  -0.068   0.760  0.00  0.00     0.105 C 
ATOM      6  N   UNL d   1      -3.065  -0.100   1.156  0.00  0.00    -0.191 NA
ATOM      7  C   UNL d   1       2.164  -0.036  -0.134  0.00  0.00     0.042 C 
ATOM      8  C   UNL d   1       1.456  -1.235  -0.150  0.00  0.00     0.041 C 
ENDROOT
BRANCH   2   9
ATOM      9  O   UNL d   1      -0.547   2.420   0.322  0.00  0.00    -0.307 OA
BRANCH   9  10
ATOM     10  C   UNL d   1      -1.664   2.741  -0.425  0.00  0.00     0.076 A 
ATOM     11  C   UNL d   1      -2.463   3.752   0.119  0.00  0.00     0.039 A 
ATOM     12  C   UNL d   1      -3.633   4.158  -0.527  0.00  0.00     0.026 A 
ATOM     13  C   UNL d   1      -4.008   3.550  -1.722  0.00  0.00     0.034 A 
ATOM     14  C   UNL d   1      -3.211   2.554  -2.284  0.00  0.00     0.026 A 
ATOM     15 CL   UNL d   1      -5.452   4.044  -2.517  0.00  0.00    -0.084 Cl
ATOM     16  C   UNL d   1      -2.024   2.165  -1.648  0.00  0.00     0.039 A 
ENDBRANCH   9  10
ENDBRANCH   2   9
BRANCH   4  17
ATOM     17  O   UNL d   1      -0.535  -2.470   0.015  0.00  0.00    -0.309 OA
BRANCH  17  18
ATOM     18  C   UNL d   1      -1.589  -2.709  -0.846  0.00  0.00     0.076 A 
ATOM     19  C   UNL d   1      -1.914  -1.943  -1.971  0.00  0.00     0.039 A 
ATOM     20  C   UNL d   1      -3.042  -2.261  -2.735  0.00  0.00     0.026 A 
ATOM     21  C   UNL d   1      -3.814  -3.373  -2.406  0.00  0.00     0.034 A 
ATOM     22  C   UNL d   1      -3.471  -4.168  -1.315  0.00  0.00     0.026 A 
ATOM     23 CL   UNL d   1      -5.186  -3.775  -3.363  0.00  0.00    -0.084 Cl
ATOM     24  C   UNL d   1      -2.362  -3.833  -0.535  0.00  0.00     0.039 A 
ENDBRANCH  17  18
ENDBRANCH   4  17
BRANCH   1  25
ATOM     25  N   UNL d   1       2.213   2.398  -0.004  0.00  0.00    -0.113 N 
ATOM     26  O   UNL d   1       2.005   3.190  -0.930  0.00  0.00    -0.532 OA
ATOM     27  O   UNL d   1       3.047   2.537   0.900  0.00  0.00    -0.532 OA
ENDBRANCH   1  25
TORSDOF 5
