REMARK  3 active torsions:
REMARK  status: ('A' for Active; 'I' for Inactive)
REMARK    1  A    between atoms: C_4  and  C_1 
REMARK       I    between atoms: N_9  and  C_4 
REMARK       I    between atoms: C_6  and  N_10 
REMARK    2  A    between atoms: C_8  and  C_6 
REMARK    3  A    between atoms: N_10  and  N_9 
ROOT
ATOM      1  C   UNL d   1       2.174  -1.324   0.093  0.00  0.00     0.278 C 
ATOM      2  N   UNL d   1       3.495  -0.924   0.205  0.00  0.00    -0.262 N 
ATOM      3  O   UNL d   1       1.372  -0.570  -0.470  0.00  0.00    -0.265 OA
ATOM      4  H   UNL d   1       4.221  -1.454   0.683  0.00  0.00     0.190 HD
ENDROOT
BRANCH   2   5
ATOM      5  N   UNL d   1       3.857   0.299  -0.379  0.00  0.00    -0.263 N 
ATOM      6  C   UNL d   1       4.972   0.985   0.066  0.00  0.00     0.277 C 
ATOM      7  O   UNL d   1       5.752   0.477   0.873  0.00  0.00    -0.265 OA
ATOM      8  H   UNL d   1       3.129   0.777  -0.909  0.00  0.00     0.190 HD
BRANCH   6   9
ATOM      9  C   UNL d   1       5.145   2.324  -0.487  0.00  0.00     0.074 A 
ATOM     10  S   UNL d   1       4.090   2.960  -1.685  0.00  0.00    -0.097 SA
ATOM     11  C   UNL d   1       4.954   4.431  -1.772  0.00  0.00     0.050 A 
ATOM     12  C   UNL d   1       6.021   4.454  -0.903  0.00  0.00     0.009 A 
ATOM     13  C   UNL d   1       6.131   3.240  -0.163  0.00  0.00     0.025 A 
ENDBRANCH   6   9
ENDBRANCH   2   5
BRANCH   1  14
ATOM     14  C   UNL d   1       1.821  -2.629   0.638  0.00  0.00     0.096 A 
ATOM     15  C   UNL d   1       2.562  -3.611   1.276  0.00  0.00     0.063 A 
ATOM     16  C   UNL d   1       1.779  -4.771   1.630  0.00  0.00    -0.032 A 
ATOM     17 CL   UNL d   1       4.244  -3.523   1.630  0.00  0.00    -0.082 Cl
ATOM     18  C   UNL d   1       2.260  -6.008   2.322  0.00  0.00     0.050 C 
ATOM     19  C   UNL d   1       0.466  -4.613   1.233  0.00  0.00     0.059 A 
ATOM     20  S   UNL d   1       0.177  -3.120   0.476  0.00  0.00    -0.094 SA
ENDBRANCH   1  14
TORSDOF 3
