REMARK  4 active torsions:
REMARK  status: ('A' for Active; 'I' for Inactive)
REMARK    1  A    between atoms: C_6  and  C_1 
REMARK    2  A    between atoms: N_7  and  C_2 
REMARK    3  A    between atoms: O_9  and  C_6 
REMARK    4  A    between atoms: C_12  and  O_9 
ROOT
ATOM      1  C   UNL d   1      -0.088  -1.174  -0.011  0.00  0.00     0.079 A 
ATOM      2  C   UNL d   1       1.217  -0.705  -0.128  0.00  0.00     0.085 A 
ATOM      3  S   UNL d   1       1.298   0.996  -0.182  0.00  0.00    -0.076 SA
ATOM      4  C   UNL d   1      -1.041  -0.063  -0.042  0.00  0.00    -0.030 A 
ATOM      5  C   UNL d   1      -0.392   1.163  -0.085  0.00  0.00    -0.012 A 
ATOM      6  C   UNL d   1      -2.537  -0.177  -0.000  0.00  0.00     0.050 C 
ATOM      7  C   UNL d   1      -0.969   2.541  -0.054  0.00  0.00     0.057 C 
ENDROOT
BRANCH   1   8
ATOM      8  C   UNL d   1      -0.436  -2.597   0.162  0.00  0.00     0.296 C 
ATOM      9  O   UNL d   1      -1.577  -3.000   0.350  0.00  0.00    -0.259 OA
BRANCH   8  10
ATOM     10  O   UNL d   1       0.656  -3.427   0.179  0.00  0.00    -0.318 OA
BRANCH  10  11
ATOM     11  C   UNL d   1       0.426  -4.759   0.656  0.00  0.00     0.174 C 
ATOM     12  C   UNL d   1       0.580  -4.764   2.166  0.00  0.00     0.034 C 
ENDBRANCH  10  11
ENDBRANCH   8  10
ENDBRANCH   1   8
BRANCH   2  13
ATOM     13  N   UNL d   1       2.371  -1.405  -0.179  0.00  0.00    -0.393 N 
ATOM     14  H   UNL d   1       2.375  -2.401   0.032  0.00  0.00     0.156 HD
ATOM     15  H   UNL d   1       3.256  -0.931  -0.035  0.00  0.00     0.156 HD
ENDBRANCH   2  13
TORSDOF 4
