REMARK  5 active torsions:
REMARK  status: ('A' for Active; 'I' for Inactive)
REMARK    1  A    between atoms: S_11  and  C_2 
REMARK    2  A    between atoms: C_6  and  C_4 
REMARK       I    between atoms: N_10  and  C_6 
REMARK    3  A    between atoms: N_7  and  N_10 
REMARK    4  A    between atoms: O_18  and  C_9 
REMARK    5  A    between atoms: C_15  and  C_14 
ROOT
ATOM      1  C   UNL d   1       2.521   2.112  -0.052  0.00  0.00     0.277 C 
ATOM      2  N   UNL d   1       3.922   2.066  -0.079  0.00  0.00    -0.266 N 
ATOM      3  O   UNL d   1       1.904   3.178  -0.095  0.00  0.00    -0.265 OA
ATOM      4  H   UNL d   1       4.401   1.176  -0.038  0.00  0.00     0.190 HD
ENDROOT
BRANCH   1   5
ATOM      5  C   UNL d   1       1.824   0.817   0.012  0.00  0.00     0.082 A 
ATOM      6  C   UNL d   1       0.453   0.580   0.031  0.00  0.00    -0.025 A 
ATOM      7  C   UNL d   1       0.129  -0.839  -0.041  0.00  0.00     0.002 A 
ATOM      8  C   UNL d   1      -0.623   1.640   0.051  0.00  0.00     0.041 C 
ATOM      9  C   UNL d   1       1.272  -1.618   0.045  0.00  0.00     0.051 A 
ATOM     10  C   UNL d   1      -1.305  -1.306  -0.159  0.00  0.00     0.153 C 
ATOM     11  S   UNL d   1       2.691  -0.652   0.071  0.00  0.00    -0.076 SA
ATOM     12  C   UNL d   1      -2.289  -0.171  -0.473  0.00  0.00     0.037 C 
ATOM     13  C   UNL d   1      -2.008   1.068   0.368  0.00  0.00     0.007 C 
BRANCH   9  14
ATOM     14  S   UNL d   1       1.479  -3.369   0.045  0.00  0.00    -0.126 SA
ATOM     15  C   UNL d   1       0.101  -3.997   1.023  0.00  0.00     0.096 C 
ENDBRANCH   9  14
BRANCH  10  16
ATOM     16  O   UNL d   1      -1.467  -2.288  -1.181  0.00  0.00    -0.391 OA
ATOM     17  H   UNL d   1      -0.966  -1.976  -1.954  0.00  0.00     0.210 HD
ENDBRANCH  10  16
ENDBRANCH   1   5
BRANCH   2  18
ATOM     18  N   UNL d   1       4.632   3.233  -0.134  0.00  0.00    -0.308 N 
ATOM     19  C   UNL d   1       5.926   3.167  -0.121  0.00  0.00     0.118 C 
ATOM     20  HN  UNL d   1       4.155   4.134  -0.185  1.00  0.00     0.186 HD
BRANCH  19  21
ATOM     21  C   UNL d   1       6.730   4.416  -0.140  0.00  0.00    -0.019 A 
ATOM     22  C   UNL d   1       6.088   5.655  -0.271  0.00  0.00     0.014 A 
ATOM     23  C   UNL d   1       6.822   6.842  -0.218  0.00  0.00     0.024 A 
ATOM     24  C   UNL d   1       8.201   6.790  -0.036  0.00  0.00     0.034 A 
ATOM     25  C   UNL d   1       8.855   5.561   0.071  0.00  0.00     0.024 A 
ATOM     26 CL   UNL d   1       9.101   8.253   0.073  0.00  0.00    -0.084 Cl
ATOM     27  C   UNL d   1       8.119   4.367   0.016  0.00  0.00     0.014 A 
ENDBRANCH  19  21
ENDBRANCH   2  18
TORSDOF 5
