REMARK  6 active torsions:
REMARK  status: ('A' for Active; 'I' for Inactive)
REMARK    1  A    between atoms: C_3  and  C_1 
REMARK    2  A    between atoms: C_4  and  C_2 
REMARK    3  A    between atoms: O_10  and  C_3 
REMARK    4  A    between atoms: O_11  and  C_7 
REMARK    5  A    between atoms: O_12  and  C_9 
REMARK    6  A    between atoms: C_16  and  O_10 
ROOT
ATOM      1  C   UNL d   1       0.881   0.003   0.831  0.00  0.00     0.120 C 
ATOM      2  C   UNL d   1       0.367   1.014   0.105  0.00  0.00     0.043 C 
ATOM      3  C   UNL d   1       2.055   0.133   1.620  0.00  0.00     0.105 C 
ATOM      4  N   UNL d   1       3.004   0.248   2.284  0.00  0.00    -0.191 NA
ENDROOT
BRANCH   1   5
ATOM      5  C   UNL d   1       0.116  -1.266   0.855  0.00  0.00     0.303 C 
ATOM      6  O   UNL d   1      -0.905  -1.468   0.211  0.00  0.00    -0.258 OA
BRANCH   5   7
ATOM      7  O   UNL d   1       0.661  -2.112   1.760  0.00  0.00    -0.317 OA
BRANCH   7   8
ATOM      8  C   UNL d   1      -0.176  -3.189   2.196  0.00  0.00     0.174 C 
ATOM      9  C   UNL d   1      -1.042  -2.682   3.335  0.00  0.00     0.034 C 
ENDBRANCH   7   8
ENDBRANCH   5   7
ENDBRANCH   1   5
BRANCH   2  10
ATOM     10  C   UNL d   1       0.990   2.343   0.045  0.00  0.00     0.002 A 
ATOM     11  C   UNL d   1       2.048   2.678  -0.832  0.00  0.00     0.111 A 
ATOM     12  C   UNL d   1       2.699   3.917  -0.660  0.00  0.00     0.102 A 
ATOM     13  C   UNL d   1       2.267   4.797   0.346  0.00  0.00     0.040 A 
ATOM     14  C   UNL d   1       1.206   4.475   1.184  0.00  0.00     0.004 A 
ATOM     15  C   UNL d   1       0.566   3.253   1.030  0.00  0.00     0.014 A 
BRANCH  11  16
ATOM     16  O   UNL d   1       2.562   1.809  -1.759  0.00  0.00    -0.352 OA
ATOM     17  C   UNL d   1       1.659   1.029  -2.533  0.00  0.00     0.210 C 
ENDBRANCH  11  16
BRANCH  12  18
ATOM     18  O   UNL d   1       3.764   4.435  -1.352  0.00  0.00    -0.353 OA
ATOM     19  C   UNL d   1       4.344   3.680  -2.402  0.00  0.00     0.210 C 
ENDBRANCH  12  18
ENDBRANCH   2  10
TORSDOF 6
