REMARK  4 active torsions:
REMARK  status: ('A' for Active; 'I' for Inactive)
REMARK    1  A    between atoms: S_8  and  C_1 
REMARK    2  A    between atoms: C_11  and  S_8 
REMARK    3  A    between atoms: C_12  and  C_11 
REMARK    4  A    between atoms: C_15  and  C_13 
ROOT
ATOM      1  C   UNL d   1       0.120   1.335   0.166  0.00  0.00     0.091 A 
ATOM      2  C   UNL d   1       0.864   0.155   0.325  0.00  0.00     0.084 A 
ATOM      3  N   UNL d   1      -1.236   1.345   0.102  0.00  0.00    -0.353 N 
ATOM      4  HN  UNL d   1      -1.751   2.218  -0.014  1.00  0.00     0.166 HD
ATOM      5  C   UNL d   1       0.180  -1.070   0.419  0.00  0.00    -0.037 A 
ATOM      6  C   UNL d   1       2.299   0.192   0.393  0.00  0.00     0.103 C 
ATOM      7  N   UNL d   1       3.457   0.180   0.453  0.00  0.00    -0.191 NA
ATOM      8  C   UNL d   1      -1.883   0.159   0.198  0.00  0.00     0.006 A 
ATOM      9  C   UNL d   1      -1.216  -1.054   0.354  0.00  0.00     0.033 A 
ATOM     10  C   UNL d   1       0.869  -2.398   0.588  0.00  0.00     0.050 C 
ATOM     11  C   UNL d   1      -3.382   0.171   0.132  0.00  0.00     0.068 C 
ENDROOT
BRANCH   1  12
ATOM     12  S   UNL d   1       0.963   2.908   0.025  0.00  0.00    -0.106 SA
BRANCH  12  13
ATOM     13  C   UNL d   1      -0.387   4.139  -0.081  0.00  0.00     0.120 C 
BRANCH  13  14
ATOM     14  C   UNL d   1       0.070   5.603  -0.094  0.00  0.00    -0.042 A 
ATOM     15  C   UNL d   1      -0.865   6.654  -0.276  0.00  0.00    -0.051 A 
ATOM     16  C   UNL d   1      -0.424   7.996  -0.231  0.00  0.00     0.007 A 
ATOM     17  C   UNL d   1       0.917   8.315  -0.041  0.00  0.00     0.001 A 
ATOM     18  C   UNL d   1       1.842   7.297   0.114  0.00  0.00     0.001 A 
ATOM     19  C   UNL d   1       1.422   5.965   0.096  0.00  0.00     0.008 A 
BRANCH  15  20
ATOM     20  C   UNL d   1      -2.342   6.427  -0.516  0.00  0.00     0.034 C 
ATOM     21  C   UNL d   1      -3.162   6.495   0.763  0.00  0.00     0.010 C 
ENDBRANCH  15  20
ENDBRANCH  13  14
ENDBRANCH  12  13
ENDBRANCH   1  12
TORSDOF 4
