REMARK  4 active torsions:
REMARK  status: ('A' for Active; 'I' for Inactive)
REMARK    1  A    between atoms: N_2  and  S_1 
REMARK    2  A    between atoms: C_9  and  S_1 
REMARK    3  A    between atoms: N_5  and  C_10 
REMARK    4  A    between atoms: C_13  and  C_6 
ROOT
ATOM      1  N   UNL d   1       0.534   1.695  -0.321  0.00  0.00    -0.188 N 
ATOM      2  N   UNL d   1       1.278   2.813  -0.103  0.00  0.00    -0.284 N 
ATOM      3  HN  UNL d   1       2.243   2.866   0.220  1.00  0.00     0.188 HD
ATOM      4  C   UNL d   1       0.461   3.831  -0.409  0.00  0.00     0.061 A 
ATOM      5  C   UNL d   1      -0.733   1.985  -0.763  0.00  0.00     0.131 A 
ATOM      6  C   UNL d   1      -0.798   3.354  -0.861  0.00  0.00     0.052 A 
ENDROOT
BRANCH   1   7
ATOM      7  S   UNL d   1       1.049   0.073   0.002  0.00  0.00     0.282 S 
ATOM      8  O   UNL d   1       2.368  -0.050  -0.589  0.00  0.00    -0.198 OA
ATOM      9  O   UNL d   1      -0.060  -0.773  -0.403  0.00  0.00    -0.198 OA
BRANCH   7  10
ATOM     10  C   UNL d   1       1.225  -0.075   1.763  0.00  0.00     0.081 A 
ATOM     11  C   UNL d   1       0.973  -1.331   2.333  0.00  0.00     0.027 A 
ATOM     12  C   UNL d   1       1.136  -1.520   3.706  0.00  0.00     0.025 A 
ATOM     13  C   UNL d   1       1.554  -0.458   4.506  0.00  0.00     0.034 A 
ATOM     14  C   UNL d   1       1.806   0.793   3.943  0.00  0.00     0.025 A 
ATOM     15 CL   UNL d   1       1.770  -0.697   6.196  0.00  0.00    -0.084 Cl
ATOM     16  C   UNL d   1       1.645   0.990   2.567  0.00  0.00     0.027 A 
ENDBRANCH   7  10
ENDBRANCH   1   7
BRANCH   4  17
ATOM     17  C   UNL d   1       0.879   5.220  -0.226  0.00  0.00    -0.006 A 
ATOM     18  C   UNL d   1      -0.064   6.201   0.105  0.00  0.00     0.049 A 
ATOM     19  C   UNL d   1       0.349   7.524   0.314  0.00  0.00     0.103 A 
ATOM     20  C   UNL d   1       1.699   7.880   0.196  0.00  0.00     0.036 A 
ATOM     21  C   UNL d   1       2.638   6.904  -0.134  0.00  0.00     0.003 A 
ATOM     22  C   UNL d   1       2.231   5.582  -0.339  0.00  0.00     0.014 A 
BRANCH  19  23
ATOM     23  N   UNL d   1      -0.647   8.541   0.670  0.00  0.00    -0.116 N 
ATOM     24  O   UNL d   1      -1.828   8.179   0.765  0.00  0.00    -0.532 OA
ATOM     25  O   UNL d   1      -0.249   9.699   0.853  0.00  0.00    -0.532 OA
ENDBRANCH  19  23
ENDBRANCH   4  17
TORSDOF 4
