REMARK  2 active torsions:
REMARK  status: ('A' for Active; 'I' for Inactive)
REMARK    1  A    between atoms: C_7  and  N_2 
REMARK    2  A    between atoms: O_9  and  C_3 
ROOT
ATOM      1  C   UNL d   1       0.704   1.191   0.451  0.00  0.00     0.328 C 
ATOM      2  N   UNL d   1       1.415  -0.004   0.342  0.00  0.00    -0.267 N 
ATOM      3  C   UNL d   1       0.824  -1.256  -0.133  0.00  0.00     0.141 C 
ATOM      4  N   UNL d   1      -0.674   1.135   0.338  0.00  0.00    -0.329 N 
ATOM      5  C   UNL d   1      -0.676  -1.300   0.158  0.00  0.00     0.091 C 
ATOM      6  C   UNL d   1      -1.392  -0.009  -0.253  0.00  0.00     0.033 C 
ATOM      7  O   UNL d   1       1.272   2.261   0.711  0.00  0.00    -0.247 OA
ATOM      8  C   UNL d   1       1.431  -2.543   0.463  0.00  0.00     0.071 C 
ATOM      9  C   UNL d   1      -1.424   2.341   0.685  0.00  0.00     0.155 C 
ATOM     10  C   UNL d   1      -1.467   0.166  -1.783  0.00  0.00     0.038 C 
ATOM     11  C   UNL d   1      -2.846  -0.121   0.268  0.00  0.00     0.038 C 
ENDROOT
BRANCH   2  12
ATOM     12  C   UNL d   1       2.709  -0.025   0.950  0.00  0.00     0.042 A 
ATOM     13  C   UNL d   1       2.824   0.379   2.291  0.00  0.00     0.031 A 
ATOM     14  C   UNL d   1       4.059   0.373   2.937  0.00  0.00     0.026 A 
ATOM     15  C   UNL d   1       5.194  -0.023   2.236  0.00  0.00     0.034 A 
ATOM     16  C   UNL d   1       5.096  -0.419   0.902  0.00  0.00     0.026 A 
ATOM     17 CL   UNL d   1       6.722  -0.011   3.021  0.00  0.00    -0.084 Cl
ATOM     18  C   UNL d   1       3.853  -0.432   0.257  0.00  0.00     0.031 A 
ENDBRANCH   2  12
BRANCH   3  19
ATOM     19  O   UNL d   1       1.044  -1.334  -1.536  0.00  0.00    -0.371 OA
ATOM     20  H   UNL d   1       1.679  -0.623  -1.725  0.00  0.00     0.212 HD
ENDBRANCH   3  19
TORSDOF 2
