REMARK  6 active torsions:
REMARK  status: ('A' for Active; 'I' for Inactive)
REMARK    1  A    between atoms: C_15  and  C_1 
REMARK    2  A    between atoms: C_13  and  N_2 
REMARK    3  A    between atoms: S_12  and  C_5 
REMARK    4  A    between atoms: C_7  and  S_12 
REMARK    5  A    between atoms: O_28  and  C_15 
REMARK    6  A    between atoms: C_33  and  O_28 
ROOT
ATOM      1  C   UNL d   1       3.616   0.108   1.809  0.00  0.00     0.096 A 
ATOM      2  C   UNL d   1       4.793   0.700   2.268  0.00  0.00     0.085 A 
ATOM      3  N   UNL d   1       2.696  -0.411   2.659  0.00  0.00    -0.353 N 
ATOM      4  HN  UNL d   1       1.842  -0.833   2.294  1.00  0.00     0.166 HD
ATOM      5  C   UNL d   1       5.042   0.727   3.658  0.00  0.00    -0.031 A 
ATOM      6  C   UNL d   1       4.077   0.184   4.550  0.00  0.00    -0.032 A 
ATOM      7  C   UNL d   1       2.915  -0.369   3.999  0.00  0.00     0.012 A 
ATOM      8  C   UNL d   1       5.735   1.257   1.332  0.00  0.00     0.103 C 
ATOM      9  N   UNL d   1       6.520   1.704   0.598  0.00  0.00    -0.191 NA
ATOM     10  C   UNL d   1       6.325   1.311   4.218  0.00  0.00     0.050 C 
ATOM     11  C   UNL d   1       4.350   0.214   6.034  0.00  0.00     0.050 C 
ATOM     12  C   UNL d   1       1.791  -0.975   4.788  0.00  0.00     0.068 C 
ENDROOT
BRANCH   1  13
ATOM     13  S   UNL d   1       3.268  -0.132   0.068  0.00  0.00    -0.065 SA
BRANCH  13  14
ATOM     14  C   UNL d   1       1.550  -0.068   0.064  0.00  0.00     0.077 A 
ATOM     15  C   UNL d   1       0.864   1.227  -0.085  0.00  0.00     0.224 A 
ATOM     16  C   UNL d   1      -0.644   1.197  -0.024  0.00  0.00     0.176 A 
ATOM     17  O   UNL d   1       1.448   2.285  -0.274  0.00  0.00    -0.284 OA
ATOM     18  N   UNL d   1      -1.316   0.074   0.003  0.00  0.00    -0.285 N 
ATOM     19  N   UNL d   1      -0.634  -1.110   0.050  0.00  0.00    -0.264 N 
ATOM     20  HN  UNL d   1      -2.336   0.083  -0.012  1.00  0.00     0.188 HD
ATOM     21  C   UNL d   1       0.753  -1.138   0.117  0.00  0.00     0.139 A 
BRANCH  16  22
ATOM     22  C   UNL d   1      -1.431   2.490   0.093  0.00  0.00     0.315 C 
ATOM     23  O   UNL d   1      -1.007   3.444   0.722  0.00  0.00    -0.257 OA
BRANCH  22  24
ATOM     24  O   UNL d   1      -2.667   2.357  -0.435  0.00  0.00    -0.317 OA
BRANCH  24  25
ATOM     25  C   UNL d   1      -3.620   3.319   0.044  0.00  0.00     0.175 C 
ATOM     26  C   UNL d   1      -4.199   2.822   1.359  0.00  0.00     0.034 C 
ENDBRANCH  24  25
ENDBRANCH  22  24
ENDBRANCH  16  22
BRANCH  19  27
ATOM     27  C   UNL d   1      -1.435  -2.306   0.049  0.00  0.00     0.077 A 
ATOM     28  C   UNL d   1      -2.728  -2.408   0.622  0.00  0.00     0.064 A 
ATOM     29  C   UNL d   1      -3.439  -3.621   0.604  0.00  0.00     0.050 A 
ATOM     30 CL   UNL d   1      -3.516  -1.117   1.472  0.00  0.00    -0.082 Cl
ATOM     31  C   UNL d   1      -2.881  -4.754   0.026  0.00  0.00     0.035 A 
ATOM     32  C   UNL d   1      -1.624  -4.690  -0.557  0.00  0.00     0.026 A 
ATOM     33 CL   UNL d   1      -3.742  -6.243   0.043  0.00  0.00    -0.084 Cl
ATOM     34  C   UNL d   1      -0.919  -3.482  -0.552  0.00  0.00     0.035 A 
ENDBRANCH  19  27
ENDBRANCH  13  14
ENDBRANCH   1  13
TORSDOF 6
