REMARK  2 active torsions:
REMARK  status: ('A' for Active; 'I' for Inactive)
REMARK    1  A    between atoms: C_5  and  C_1 
REMARK    2  A    between atoms: O_15  and  C_12 
ROOT
ATOM      1  C   UNL d   1       0.676   1.176  -0.329  0.00  0.00     0.032 C 
ATOM      2  C   UNL d   1      -1.462   2.392   0.169  0.00  0.00     0.134 C 
ATOM      3  C   UNL d   1      -1.421  -0.120   0.183  0.00  0.00     0.134 C 
ATOM      4  C   UNL d   1      -2.182   1.127   0.541  0.00  0.00     0.156 C 
ATOM      5  C   UNL d   1       0.086  -0.085   0.320  0.00  0.00     0.088 C 
ATOM      6  C   UNL d   1       0.039   2.407   0.335  0.00  0.00     0.088 C 
ATOM      7  O   UNL d   1      -2.081   3.424  -0.101  0.00  0.00    -0.298 OA
ATOM      8  O   UNL d   1      -2.004  -1.171  -0.081  0.00  0.00    -0.298 OA
ENDROOT
BRANCH   1   9
ATOM      9  C   UNL d   1       0.629   1.231  -1.855  0.00  0.00    -0.053 A 
ATOM     10  C   UNL d   1       0.119   0.191  -2.647  0.00  0.00     0.010 A 
ATOM     11  C   UNL d   1       0.106   0.279  -4.046  0.00  0.00     0.037 A 
ATOM     12  C   UNL d   1       0.615   1.405  -4.686  0.00  0.00     0.068 A 
ATOM     13  C   UNL d   1       1.127   2.445  -3.916  0.00  0.00     0.037 A 
ATOM     14  C   UNL d   1       1.152   2.353  -2.521  0.00  0.00     0.010 A 
BRANCH  12  15
ATOM     15  O   UNL d   1       0.636   1.606  -6.037  0.00  0.00    -0.356 OA
ATOM     16  C   UNL d   1       0.650   0.428  -6.835  0.00  0.00     0.210 C 
ENDBRANCH  12  15
ENDBRANCH   1   9
TORSDOF 2
