REMARK  4 active torsions:
REMARK  status: ('A' for Active; 'I' for Inactive)
REMARK    1  A    between atoms: N_6  and  C_4 
REMARK    2  A    between atoms: C_15  and  N_6 
REMARK    3  A    between atoms: C_9  and  C_19 
REMARK    4  A    between atoms: C_19  and  C_15 
ROOT
ATOM      1  C   UNL d   1      -0.018   0.628  -0.108  0.00  0.00     0.092 A 
ATOM      2  C   UNL d   1      -1.350   1.124   0.099  0.00  0.00     0.103 C 
ATOM      3  N   UNL d   1      -2.425   1.523   0.280  0.00  0.00    -0.191 NA
ATOM      4  C   UNL d   1       1.116   1.476  -0.158  0.00  0.00     0.050 A 
ATOM      5  C   UNL d   1       0.141  -0.771  -0.224  0.00  0.00     0.057 A 
ATOM      6 CL   UNL d   1      -1.202  -1.867  -0.144  0.00  0.00    -0.083 Cl
ATOM      7  C   UNL d   1       2.517  -0.524  -0.488  0.00  0.00     0.004 A 
ATOM      8  C   UNL d   1       2.371   0.860  -0.371  0.00  0.00     0.031 A 
ATOM      9  C   UNL d   1       1.400  -1.341  -0.411  0.00  0.00     0.025 A 
ENDROOT
BRANCH   4  10
ATOM     10  N   UNL d   1       1.144   2.878  -0.152  0.00  0.00    -0.388 N 
ATOM     11  H   UNL d   1       1.996   3.255   0.261  0.00  0.00     0.159 HD
BRANCH  10  12
ATOM     12  C   UNL d   1      -0.033   3.717   0.054  0.00  0.00     0.124 C 
BRANCH  12  13
ATOM     13  C   UNL d   1       0.323   5.209   0.021  0.00  0.00     0.058 C 
BRANCH  13  14
ATOM     14  C   UNL d   1      -0.933   6.044   0.123  0.00  0.00    -0.057 A 
ATOM     15  C   UNL d   1      -1.468   6.375   1.376  0.00  0.00     0.009 A 
ATOM     16  C   UNL d   1      -2.676   7.070   1.466  0.00  0.00     0.024 A 
ATOM     17  C   UNL d   1      -3.355   7.434   0.306  0.00  0.00     0.034 A 
ATOM     18  C   UNL d   1      -2.835   7.112  -0.945  0.00  0.00     0.024 A 
ATOM     19 CL   UNL d   1      -4.851   8.278   0.419  0.00  0.00    -0.084 Cl
ATOM     20  C   UNL d   1      -1.627   6.418  -1.037  0.00  0.00     0.009 A 
ENDBRANCH  13  14
ENDBRANCH  12  13
ENDBRANCH  10  12
ENDBRANCH   4  10
TORSDOF 4
