REMARK  5 active torsions:
REMARK  status: ('A' for Active; 'I' for Inactive)
REMARK       I    between atoms: N_2  and  C_1 
REMARK    1  A    between atoms: C_3  and  C_1 
REMARK    2  A    between atoms: C_7  and  N_2 
REMARK    3  A    between atoms: O_13  and  C_4 
REMARK    4  A    between atoms: O_14  and  C_5 
REMARK    5  A    between atoms: O_15  and  C_6 
ROOT
ATOM      1  C   UNL d   1       1.106  -0.162  -0.315  0.00  0.00     0.256 C 
ATOM      2  N   UNL d   1       2.407  -0.423  -0.681  0.00  0.00    -0.322 N 
ATOM      3  O   UNL d   1       0.497   0.896  -0.451  0.00  0.00    -0.267 OA
ATOM      4  H   UNL d   1       2.696  -1.389  -0.725  0.00  0.00     0.169 HD
ENDROOT
BRANCH   1   5
ATOM      5  C   UNL d   1       0.377  -1.316   0.257  0.00  0.00     0.037 A 
ATOM      6  C   UNL d   1       0.852  -1.953   1.404  0.00  0.00     0.057 A 
ATOM      7  C   UNL d   1       0.118  -2.998   1.991  0.00  0.00     0.105 A 
ATOM      8  C   UNL d   1      -1.098  -3.421   1.397  0.00  0.00     0.135 A 
ATOM      9  C   UNL d   1      -1.574  -2.740   0.252  0.00  0.00     0.105 A 
ATOM     10  C   UNL d   1      -0.833  -1.699  -0.314  0.00  0.00     0.057 A 
BRANCH   7  11
ATOM     11  O   UNL d   1       0.527  -3.623   3.140  0.00  0.00    -0.353 OA
ATOM     12  C   UNL d   1       1.712  -3.178   3.785  0.00  0.00     0.210 C 
ENDBRANCH   7  11
BRANCH   8  13
ATOM     13  O   UNL d   1      -1.887  -4.460   1.820  0.00  0.00    -0.351 OA
ATOM     14  C   UNL d   1      -1.452  -5.332   2.850  0.00  0.00     0.210 C 
ENDBRANCH   8  13
BRANCH   9  15
ATOM     15  O   UNL d   1      -2.716  -3.018  -0.461  0.00  0.00    -0.353 OA
ATOM     16  C   UNL d   1      -3.845  -3.471   0.276  0.00  0.00     0.210 C 
ENDBRANCH   9  15
ENDBRANCH   1   5
BRANCH   2  17
ATOM     17  C   UNL d   1       3.356   0.546  -1.110  0.00  0.00     0.046 A 
ATOM     18  C   UNL d   1       4.467   0.135  -1.895  0.00  0.00     0.001 A 
ATOM     19  C   UNL d   1       5.519   1.057  -2.126  0.00  0.00    -0.024 A 
ATOM     20  C   UNL d   1       4.576  -1.143  -2.497  0.00  0.00     0.014 A 
ATOM     21  C   UNL d   1       6.678   0.642  -2.804  0.00  0.00     0.012 A 
ATOM     22  C   UNL d   1       5.394   2.381  -1.684  0.00  0.00     0.012 A 
ATOM     23  C   UNL d   1       6.787  -0.650  -3.316  0.00  0.00     0.001 A 
ATOM     24  C   UNL d   1       5.718  -1.529  -3.200  0.00  0.00     0.001 A 
ATOM     25  C   UNL d   1       4.265   2.794  -0.983  0.00  0.00     0.003 A 
ATOM     26  C   UNL d   1       3.261   1.876  -0.680  0.00  0.00     0.030 A 
ENDBRANCH   2  17
TORSDOF 5
