REMARK  4 active torsions:
REMARK  status: ('A' for Active; 'I' for Inactive)
REMARK    1  A    between atoms: C_3  and  C_1 
REMARK    2  A    between atoms: C_12  and  N_2 
REMARK    3  A    between atoms: S_7  and  C_3 
REMARK    4  A    between atoms: C_9  and  S_7 
ROOT
ATOM      1  C   UNL d   1      -0.530  -2.615   0.708  0.00  0.00     0.242 C 
ATOM      2  O   UNL d   1       0.457  -3.304   0.916  0.00  0.00    -0.278 OA
ENDROOT
BRANCH   1   3
ATOM      3  C   UNL d   1      -0.480  -1.202   0.389  0.00  0.00     0.110 A 
ATOM      4  N   UNL d   1       0.584  -0.589  -0.240  0.00  0.00    -0.288 N 
ATOM      5  N   UNL d   1       0.456   0.749  -0.337  0.00  0.00    -0.303 N 
ATOM      6  C   UNL d   1      -0.762   1.004   0.140  0.00  0.00     0.024 A 
ATOM      7  HN  UNL d   1       1.139   1.417  -0.695  1.00  0.00     0.186 HD
ATOM      8  C   UNL d   1      -1.394  -0.177   0.591  0.00  0.00     0.061 A 
ATOM      9  C   UNL d   1      -1.265   2.398   0.142  0.00  0.00     0.070 C 
BRANCH   4  10
ATOM     10  C   UNL d   1       1.685  -1.200  -0.968  0.00  0.00     0.145 C 
ATOM     11  C   UNL d   1       1.405  -1.220  -2.464  0.00  0.00     0.028 C 
ENDBRANCH   4  10
ENDBRANCH   1   3
BRANCH   1  12
ATOM     12  S   UNL d   1      -2.098  -3.375   0.511  0.00  0.00    -0.044 SA
BRANCH  12  13
ATOM     13  C   UNL d   1      -2.978  -3.277   2.066  0.00  0.00     0.030 A 
ATOM     14  C   UNL d   1      -2.474  -3.265   3.377  0.00  0.00     0.051 A 
ATOM     15 CL   UNL d   1      -0.797  -3.345   3.765  0.00  0.00    -0.083 Cl
ATOM     16  C   UNL d   1      -3.353  -3.227   4.477  0.00  0.00     0.025 A 
ATOM     17  C   UNL d   1      -4.734  -3.220   4.294  0.00  0.00     0.002 A 
ATOM     18  C   UNL d   1      -5.250  -3.265   3.007  0.00  0.00     0.001 A 
ATOM     19  C   UNL d   1      -4.381  -3.295   1.911  0.00  0.00     0.021 A 
ENDBRANCH  12  13
ENDBRANCH   1  12
TORSDOF 4
