REMARK  3 active torsions:
REMARK  status: ('A' for Active; 'I' for Inactive)
REMARK    1  A    between atoms: N_3  and  C_1 
REMARK       I    between atoms: C_5  and  N_3 
REMARK    2  A    between atoms: C_8  and  C_5 
REMARK    3  A    between atoms: C_10  and  C_11 
ROOT
ATOM      1  N   UNL d   1       3.056  -0.895  -2.017  0.00  0.00    -0.351 N 
ATOM      2  C   UNL d   1       2.546  -1.749  -2.981  0.00  0.00     0.252 C 
ATOM      3  O   UNL d   1       2.526  -2.975  -2.866  0.00  0.00    -0.268 OA
ATOM      4  H   UNL d   1       3.231   0.053  -2.320  0.00  0.00     0.163 HD
ENDROOT
BRANCH   1   5
ATOM      5  C   UNL d   1       3.605  -1.314  -0.722  0.00  0.00     0.101 C 
ATOM      6  C   UNL d   1       3.341  -0.235   0.395  0.00  0.00    -0.022 C 
ATOM      7  C   UNL d   1       4.434  -0.526   1.433  0.00  0.00     0.016 C 
ATOM      8  C   UNL d   1       3.803   1.170  -0.058  0.00  0.00     0.011 C 
ATOM      9  C   UNL d   1       1.936  -0.276   0.962  0.00  0.00     0.017 C 
ATOM     10  C   UNL d   1       5.567  -0.412   0.405  0.00  0.00    -0.004 C 
ATOM     11  C   UNL d   1       5.167  -1.501  -0.645  0.00  0.00    -0.023 C 
ATOM     12  C   UNL d   1       5.331   1.021  -0.114  0.00  0.00     0.006 C 
ATOM     13  C   UNL d   1       5.537  -2.896  -0.072  0.00  0.00     0.017 C 
ATOM     14  C   UNL d   1       5.915  -1.383  -1.978  0.00  0.00     0.017 C 
ENDBRANCH   1   5
BRANCH   2  15
ATOM     15  C   UNL d   1       2.052  -1.091  -4.237  0.00  0.00     0.032 C 
ATOM     16  C   UNL d   1       2.234  -1.719  -5.473  0.00  0.00     0.017 C 
ATOM     17  C   UNL d   1       1.941  -1.041  -6.670  0.00  0.00     0.009 C 
ATOM     18  C   UNL d   1       1.468   0.286  -6.667  0.00  0.00    -0.051 C 
ATOM     19  C   UNL d   1       1.138   0.834  -5.414  0.00  0.00     0.009 C 
ATOM     20  C   UNL d   1       1.433   0.162  -4.215  0.00  0.00     0.017 C 
BRANCH  18  21
ATOM     21  C   UNL d   1       1.469   1.129  -7.965  0.00  0.00    -0.024 C 
ATOM     22  C   UNL d   1       1.093   2.612  -7.734  0.00  0.00     0.019 C 
ATOM     23  C   UNL d   1       2.906   1.122  -8.542  0.00  0.00     0.019 C 
ATOM     24  C   UNL d   1       0.512   0.577  -9.040  0.00  0.00     0.019 C 
ENDBRANCH  18  21
ENDBRANCH   2  15
TORSDOF 3
