REMARK  4 active torsions:
REMARK  status: ('A' for Active; 'I' for Inactive)
REMARK    1  A    between atoms: O_5  and  N_1 
REMARK    2  A    between atoms: C_3  and  O_5 
REMARK    3  A    between atoms: C_9  and  C_3 
REMARK    4  A    between atoms: C_4  and  C_8 
ROOT
ATOM      1  N   UNL d   1       0.872   0.077  -0.032  0.00  0.00    -0.261 N 
ATOM      2  HN  UNL d   1       0.343  -0.482  -0.701  1.00  0.00     0.194 HD
ATOM      3  C   UNL d   1       2.171   0.100   0.013  0.00  0.00     0.039 C 
ATOM      4  C   UNL d   1       2.930   0.968   0.991  0.00  0.00     0.071 C 
ENDROOT
BRANCH   1   5
ATOM      5  O   UNL d   1       0.261   0.911   0.947  0.00  0.00    -0.195 OA
BRANCH   5   6
ATOM      6  C   UNL d   1      -1.101   0.824   0.821  0.00  0.00     0.315 C 
ATOM      7  O   UNL d   1      -1.711   0.152  -0.008  0.00  0.00    -0.257 OA
BRANCH   6   8
ATOM      8  C   UNL d   1      -1.852   1.651   1.817  0.00  0.00     0.041 A 
ATOM      9  C   UNL d   1      -3.260   1.597   1.760  0.00  0.00     0.021 A 
ATOM     10  C   UNL d   1      -4.051   2.352   2.629  0.00  0.00     0.043 A 
ATOM     11  C   UNL d   1      -3.438   3.162   3.571  0.00  0.00     0.116 A 
ATOM     12  C   UNL d   1      -2.049   3.228   3.656  0.00  0.00     0.043 A 
ATOM     13  F   UNL d   1      -4.190   3.893   4.404  0.00  0.00    -0.206 F 
ATOM     14  C   UNL d   1      -1.249   2.474   2.779  0.00  0.00     0.021 A 
ENDBRANCH   6   8
ENDBRANCH   5   6
ENDBRANCH   1   5
BRANCH   3  15
ATOM     15  C   UNL d   1       2.958  -0.739  -0.951  0.00  0.00    -0.009 A 
ATOM     16  C   UNL d   1       2.439  -0.995  -2.228  0.00  0.00     0.059 A 
ATOM     17  C   UNL d   1       3.183  -1.741  -3.142  0.00  0.00     0.155 A 
ATOM     18  F   UNL d   1       2.691  -1.962  -4.369  0.00  0.00    -0.203 F 
ATOM     19  C   UNL d   1       4.430  -2.247  -2.795  0.00  0.00     0.154 A 
ATOM     20  C   UNL d   1       4.947  -2.023  -1.525  0.00  0.00     0.046 A 
ATOM     21  F   UNL d   1       5.144  -2.958  -3.679  0.00  0.00    -0.203 F 
ATOM     22  C   UNL d   1       4.210  -1.273  -0.601  0.00  0.00     0.017 A 
ENDBRANCH   3  15
TORSDOF 4
