REMARK  6 active torsions:
REMARK  status: ('A' for Active; 'I' for Inactive)
REMARK    1  A    between atoms: C_15  and  N_1 
REMARK    2  A    between atoms: C_11  and  C_2 
REMARK    3  A    between atoms: N_7  and  C_6 
REMARK    4  A    between atoms: O_20  and  C_11 
REMARK    5  A    between atoms: N_18  and  C_14 
REMARK    6  A    between atoms: C_25  and  O_20 
ROOT
ATOM      1  N   UNL d   1       3.924  -2.667  -0.025  0.00  0.00    -0.291 N 
ATOM      2  C   UNL d   1       3.340  -1.397  -0.034  0.00  0.00     0.124 A 
ATOM      3  C   UNL d   1       2.912  -3.619   0.055  0.00  0.00     0.128 A 
ATOM      4  C   UNL d   1       1.685  -2.976   0.085  0.00  0.00     0.061 A 
ATOM      5  C   UNL d   1       1.948  -1.572   0.010  0.00  0.00    -0.011 A 
ATOM      6  C   UNL d   1       0.560  -3.811   0.202  0.00  0.00     0.121 A 
ATOM      7  N   UNL d   1       3.097  -4.951   0.174  0.00  0.00    -0.337 N 
ATOM      8  HN  UNL d   1       4.011  -5.400   0.121  1.00  0.00     0.168 HD
ATOM      9  N   UNL d   1       0.717  -5.128   0.411  0.00  0.00    -0.338 N 
ATOM     10  HN  UNL d   1      -0.084  -5.732   0.596  1.00  0.00     0.168 HD
ATOM     11  C   UNL d   1       1.959  -5.621   0.369  0.00  0.00     0.183 A 
ATOM     12  C   UNL d   1       0.885  -0.522  -0.025  0.00  0.00     0.052 C 
ENDROOT
BRANCH   1  13
ATOM     13  C   UNL d   1       5.317  -2.999   0.009  0.00  0.00     0.041 A 
ATOM     14  C   UNL d   1       6.220  -2.253   0.774  0.00  0.00     0.030 A 
ATOM     15  C   UNL d   1       7.561  -2.645   0.848  0.00  0.00     0.002 A 
ATOM     16  C   UNL d   1       8.006  -3.772   0.159  0.00  0.00     0.000 A 
ATOM     17  C   UNL d   1       7.116  -4.512  -0.609  0.00  0.00     0.002 A 
ATOM     18  C   UNL d   1       5.775  -4.133  -0.684  0.00  0.00     0.030 A 
ENDBRANCH   1  13
BRANCH   2  19
ATOM     19  C   UNL d   1       4.087  -0.162  -0.164  0.00  0.00     0.311 C 
ATOM     20  O   UNL d   1       5.100  -0.004  -0.832  0.00  0.00    -0.258 OA
BRANCH  19  21
ATOM     21  O   UNL d   1       3.518   0.810   0.605  0.00  0.00    -0.317 OA
BRANCH  21  22
ATOM     22  C   UNL d   1       4.203   2.071   0.641  0.00  0.00     0.175 C 
ATOM     23  C   UNL d   1       3.922   2.890  -0.607  0.00  0.00     0.034 C 
ENDBRANCH  21  22
ENDBRANCH  19  21
ENDBRANCH   2  19
BRANCH   6  24
ATOM     24  N   UNL d   1      -0.695  -3.229   0.309  0.00  0.00    -0.338 N 
ATOM     25  C   UNL d   1      -1.798  -3.741  -0.118  0.00  0.00     0.179 C 
ATOM     26  HN  UNL d   1      -0.750  -2.318   0.765  1.00  0.00     0.168 HD
BRANCH  25  27
ATOM     27  N   UNL d   1      -2.248  -4.849  -0.822  0.00  0.00    -0.386 N 
ATOM     28  C   UNL d   1      -1.395  -5.948  -1.241  0.00  0.00     0.149 C 
ATOM     29  C   UNL d   1      -3.671  -5.183  -0.799  0.00  0.00     0.149 C 
ENDBRANCH  25  27
ENDBRANCH   6  24
TORSDOF 6
