REMARK  3 active torsions:
REMARK  status: ('A' for Active; 'I' for Inactive)
REMARK    1  A    between atoms: C_2  and  S_1 
REMARK    2  A    between atoms: N_7  and  S_1 
REMARK    3  A    between atoms: C_10  and  N_7 
ROOT
ATOM      1  S   UNL d   1       0.960  -0.062  -0.110  0.00  0.00     0.265 S 
ATOM      2  O   UNL d   1       0.479   0.878   0.878  0.00  0.00    -0.200 OA
ATOM      3  O   UNL d   1       2.366  -0.184  -0.432  0.00  0.00    -0.200 OA
ENDROOT
BRANCH   1   4
ATOM      4  C   UNL d   1       0.223   0.497  -1.568  0.00  0.00     0.110 A 
ATOM      5  C   UNL d   1      -1.132   0.570  -1.780  0.00  0.00     0.099 A 
ATOM      6  S   UNL d   1      -1.532   1.194  -3.310  0.00  0.00    -0.064 SA
ATOM      7 CL   UNL d   1      -2.417   0.113  -0.730  0.00  0.00    -0.075 Cl
ATOM      8  C   UNL d   1       0.104   1.393  -3.697  0.00  0.00     0.077 A 
ATOM      9  C   UNL d   1       0.954   0.985  -2.700  0.00  0.00     0.059 A 
ATOM     10 CL   UNL d   1       0.547   2.055  -5.215  0.00  0.00    -0.076 Cl
ENDBRANCH   1   4
BRANCH   1  11
ATOM     11  N   UNL d   1       0.332  -1.575   0.290  0.00  0.00    -0.279 N 
ATOM     12  H   UNL d   1      -0.647  -1.511   0.571  0.00  0.00     0.179 HD
BRANCH  11  13
ATOM     13  C   UNL d   1       0.678  -2.680  -0.542  0.00  0.00     0.058 A 
ATOM     14  C   UNL d   1       1.915  -3.308  -0.439  0.00  0.00     0.117 A 
ATOM     15  N   UNL d   1       2.278  -4.382  -1.180  0.00  0.00    -0.373 N 
ATOM     16  C   UNL d   1       1.378  -4.833  -2.079  0.00  0.00     0.088 A 
ATOM     17  HN  UNL d   1       3.188  -4.829  -1.064  1.00  0.00     0.164 HD
ATOM     18  C   UNL d   1       0.139  -4.247  -2.284  0.00  0.00     0.019 A 
ATOM     19  C   UNL d   1      -0.215  -3.149  -1.501  0.00  0.00     0.033 A 
ENDBRANCH  11  13
ENDBRANCH   1  11
TORSDOF 3
