REMARK  4 active torsions:
REMARK  status: ('A' for Active; 'I' for Inactive)
REMARK    1  A    between atoms: C_14  and  C_1 
REMARK    2  A    between atoms: S_5  and  N_8 
REMARK    3  A    between atoms: C_18  and  S_5 
REMARK       I    between atoms: N_8  and  C_11 
REMARK    4  A    between atoms: C_11  and  C_13 
ROOT
ATOM      1  C   UNL d   1       1.308   0.665  -0.131  0.00  0.00     0.134 A 
ATOM      2  C   UNL d   1       0.151  -1.248  -0.282  0.00  0.00     0.069 A 
ATOM      3  N   UNL d   1       0.010   1.023  -0.149  0.00  0.00    -0.294 N 
ATOM      4  HN  UNL d   1      -0.377   1.966  -0.119  1.00  0.00     0.187 HD
ATOM      5  C   UNL d   1       1.436  -0.746  -0.207  0.00  0.00     0.068 A 
ATOM      6  N   UNL d   1      -0.664  -0.143  -0.214  0.00  0.00    -0.295 N 
ATOM      7  C   UNL d   1      -0.292  -2.612  -0.322  0.00  0.00     0.034 C 
ATOM      8  S   UNL d   1       0.537  -3.821   0.558  0.00  0.00    -0.083 SA
ATOM      9  C   UNL d   1      -0.722  -4.956   0.352  0.00  0.00     0.074 C 
ATOM     10  C   UNL d   1      -1.343  -3.167  -1.023  0.00  0.00     0.023 C 
ATOM     11  C   UNL d   1      -1.586  -4.522  -0.641  0.00  0.00     0.026 C 
ATOM     12  C   UNL d   1      -2.106  -0.106  -0.125  0.00  0.00     0.178 C 
ENDROOT
BRANCH   9  13
ATOM     13  C   UNL d   1      -0.773  -6.236   1.071  0.00  0.00     0.269 C 
ATOM     14  N   UNL d   1      -0.130  -6.468   2.304  0.00  0.00    -0.279 N 
ATOM     15  HN  UNL d   1       0.352  -7.361   2.406  1.00  0.00     0.179 HD
ATOM     16  O   UNL d   1      -1.456  -7.142   0.604  0.00  0.00    -0.266 OA
BRANCH  14  17
ATOM     17  S   UNL d   1      -0.080  -5.520   3.505  0.00  0.00     0.055 S 
ATOM     18  O   UNL d   1       0.651  -4.267   3.561  0.00  0.00    -0.245 OA
ATOM     19  C   UNL d   1       0.532  -6.450   4.884  0.00  0.00     0.142 C 
BRANCH  17  20
ATOM     20  C   UNL d   1      -1.762  -5.129   3.952  0.00  0.00     0.038 A 
ATOM     21  C   UNL d   1      -2.630  -6.135   4.384  0.00  0.00     0.022 A 
ATOM     22  C   UNL d   1      -3.927  -5.800   4.776  0.00  0.00     0.001 A 
ATOM     23  C   UNL d   1      -4.355  -4.472   4.726  0.00  0.00     0.000 A 
ATOM     24  C   UNL d   1      -3.489  -3.472   4.282  0.00  0.00     0.001 A 
ATOM     25  C   UNL d   1      -2.189  -3.797   3.894  0.00  0.00     0.022 A 
ENDBRANCH  17  20
ENDBRANCH  14  17
ENDBRANCH   9  13
BRANCH   1  26
ATOM     26  C   UNL d   1       2.442   1.651  -0.042  0.00  0.00     0.434 C 
ATOM     27  F   UNL d   1       2.038   2.947   0.029  0.00  0.00    -0.165 F 
ATOM     28  F   UNL d   1       3.220   1.425   1.052  0.00  0.00    -0.165 F 
ATOM     29  F   UNL d   1       3.267   1.558  -1.121  0.00  0.00    -0.165 F 
ENDBRANCH   1  26
TORSDOF 4
