REMARK  6 active torsions:
REMARK  status: ('A' for Active; 'I' for Inactive)
REMARK    1  A    between atoms: N_3  and  S_1 
REMARK    2  A    between atoms: C_7  and  S_1 
REMARK    3  A    between atoms: S_2  and  N_4 
REMARK    4  A    between atoms: C_8  and  S_2 
REMARK    5  A    between atoms: C_5  and  N_3 
REMARK    6  A    between atoms: N_4  and  C_6 
ROOT
ATOM      1  C   UNL d   1       0.976  -1.523   1.913  0.00  0.00     0.050 A 
ATOM      2  C   UNL d   1      -0.058  -1.972   2.747  0.00  0.00     0.064 A 
ATOM      3  C   UNL d   1       2.229  -2.141   1.953  0.00  0.00     0.033 A 
ATOM      4  C   UNL d   1       0.154  -3.075   3.575  0.00  0.00     0.032 A 
ATOM      5  C   UNL d   1       2.452  -3.234   2.800  0.00  0.00    -0.060 A 
ATOM      6  C   UNL d   1       1.399  -3.712   3.590  0.00  0.00     0.009 A 
ATOM      7  C   UNL d   1       3.804  -3.879   2.881  0.00  0.00     0.048 C 
ENDROOT
BRANCH   1   8
ATOM      8  N   UNL d   1       0.790  -0.382   1.056  0.00  0.00    -0.179 NA
ATOM      9  H   UNL d   1       1.326  -0.461   0.192  0.00  0.00     0.146 HD
BRANCH   8  10
ATOM     10  S   UNL d   1       1.161   1.102   1.795  0.00  0.00     0.245 S 
ATOM     11  O   UNL d   1       2.602   1.158   1.914  0.00  0.00    -0.206 OA
ATOM     12  O   UNL d   1       0.283   1.312   2.928  0.00  0.00    -0.206 OA
BRANCH  10  13
ATOM     13  C   UNL d   1       0.675   2.233   0.515  0.00  0.00     0.074 A 
ATOM     14  C   UNL d   1      -0.666   2.282   0.132  0.00  0.00     0.025 A 
ATOM     15  C   UNL d   1      -1.064   3.173  -0.865  0.00  0.00     0.008 A 
ATOM     16  C   UNL d   1      -0.129   4.022  -1.473  0.00  0.00    -0.062 A 
ATOM     17  C   UNL d   1       1.217   3.952  -1.087  0.00  0.00     0.008 A 
ATOM     18  C   UNL d   1      -0.583   5.010  -2.509  0.00  0.00     0.048 C 
ATOM     19  C   UNL d   1       1.623   3.057  -0.094  0.00  0.00     0.025 A 
ENDBRANCH  10  13
ENDBRANCH   8  10
ENDBRANCH   1   8
BRANCH   2  20
ATOM     20  N   UNL d   1      -1.277  -1.249   2.845  0.00  0.00    -0.279 N 
ATOM     21  H   UNL d   1      -1.310  -0.431   3.455  0.00  0.00     0.179 HD
BRANCH  20  22
ATOM     22  S   UNL d   1      -2.710  -1.840   2.239  0.00  0.00     0.263 S 
ATOM     23  O   UNL d   1      -2.717  -3.288   2.302  0.00  0.00    -0.200 OA
ATOM     24  O   UNL d   1      -3.759  -1.061   2.861  0.00  0.00    -0.200 OA
BRANCH  22  25
ATOM     25  C   UNL d   1      -2.659  -1.382   0.519  0.00  0.00     0.079 A 
ATOM     26  C   UNL d   1      -1.777  -2.033  -0.345  0.00  0.00     0.026 A 
ATOM     27  C   UNL d   1      -1.766  -1.700  -1.701  0.00  0.00     0.008 A 
ATOM     28  C   UNL d   1      -2.654  -0.740  -2.206  0.00  0.00    -0.062 A 
ATOM     29  C   UNL d   1      -3.550  -0.109  -1.333  0.00  0.00     0.008 A 
ATOM     30  C   UNL d   1      -2.673  -0.442  -3.677  0.00  0.00     0.048 C 
ATOM     31  C   UNL d   1      -3.552  -0.424   0.028  0.00  0.00     0.026 A 
ENDBRANCH  22  25
ENDBRANCH  20  22
ENDBRANCH   2  20
TORSDOF 6
