REMARK  2 active torsions:
REMARK  status: ('A' for Active; 'I' for Inactive)
REMARK    1  A    between atoms: N_8  and  C_4 
REMARK    2  A    between atoms: C_7  and  C_6 
ROOT
ATOM      1  N   UNL d   1       1.308   0.669   0.057  0.00  0.00    -0.296 N 
ATOM      2  HN  UNL d   1       1.935   1.469   0.145  1.00  0.00     0.187 HD
ATOM      3  C   UNL d   1       0.475  -1.440  -0.096  0.00  0.00     0.081 A 
ATOM      4  C   UNL d   1      -0.593  -0.576  -0.062  0.00  0.00     0.117 A 
ATOM      5  N   UNL d   1      -0.041   0.679   0.005  0.00  0.00    -0.281 N 
ATOM      6  C   UNL d   1       1.640  -0.628  -0.034  0.00  0.00     0.062 A 
ATOM      7  C   UNL d   1      -0.710   1.957  -0.004  0.00  0.00     0.179 C 
ENDROOT
BRANCH   6   8
ATOM      8  C   UNL d   1       3.037  -1.065  -0.061  0.00  0.00    -0.008 A 
ATOM      9  C   UNL d   1       3.408  -2.238  -0.735  0.00  0.00     0.015 A 
ATOM     10  C   UNL d   1       4.743  -2.652  -0.761  0.00  0.00     0.024 A 
ATOM     11  C   UNL d   1       5.716  -1.896  -0.110  0.00  0.00     0.034 A 
ATOM     12  C   UNL d   1       5.366  -0.728   0.563  0.00  0.00     0.024 A 
ATOM     13 CL   UNL d   1       7.358  -2.409  -0.141  0.00  0.00    -0.084 Cl
ATOM     14  C   UNL d   1       4.031  -0.312   0.583  0.00  0.00     0.015 A 
ENDBRANCH   6   8
BRANCH   4  15
ATOM     15  N   UNL d   1      -1.915  -0.839  -0.099  0.00  0.00    -0.384 N 
ATOM     16  H   UNL d   1      -2.626  -0.149   0.124  0.00  0.00     0.157 HD
ATOM     17  H   UNL d   1      -2.248  -1.796  -0.010  0.00  0.00     0.157 HD
ENDBRANCH   4  15
TORSDOF 2
