REMARK  2 active torsions:
REMARK  status: ('A' for Active; 'I' for Inactive)
REMARK    1  A    between atoms: C_8  and  N_1 
REMARK    2  A    between atoms: C_9  and  C_8 
ROOT
ATOM      1  N   UNL d   1      -2.043  -0.585  -0.088  0.00  0.00    -0.265 N 
ATOM      2  C   UNL d   1      -1.857   0.760  -0.027  0.00  0.00     0.326 A 
ATOM      3  C   UNL d   1      -0.843  -1.240  -0.055  0.00  0.00     0.256 A 
ATOM      4  N   UNL d   1      -0.506   1.015   0.014  0.00  0.00    -0.324 N 
ATOM      5  C   UNL d   1       0.290  -0.192  -0.022  0.00  0.00     0.116 A 
ATOM      6  O   UNL d   1      -2.708   1.633   0.006  0.00  0.00    -0.247 OA
ATOM      7  O   UNL d   1      -0.674  -2.452  -0.036  0.00  0.00    -0.270 OA
ATOM      8  C   UNL d   1       1.137  -0.354   1.245  0.00  0.00     0.041 C 
ATOM      9  C   UNL d   1       1.134  -0.265  -1.297  0.00  0.00     0.041 C 
ATOM     10  C   UNL d   1       2.319   0.700  -1.255  0.00  0.00     0.003 C 
ATOM     11  C   UNL d   1       2.324   0.609   1.272  0.00  0.00     0.003 C 
ATOM     12  C   UNL d   1       3.164   0.506   0.002  0.00  0.00     0.000 C 
ATOM     13  H   UNL d   1      -0.158   1.963   0.070  0.00  0.00     0.165 HD
ENDROOT
BRANCH   1  14
ATOM     14  C   UNL d   1      -3.337  -1.226  -0.056  0.00  0.00     0.163 C 
BRANCH  14  15
ATOM     15  C   UNL d   1      -3.860  -1.396  -1.453  0.00  0.00    -0.017 C 
ATOM     16  C   UNL d   1      -4.236  -2.570  -1.981  0.00  0.00     0.008 C 
ENDBRANCH  14  15
ENDBRANCH   1  14
TORSDOF 2
