REMARK  5 active torsions:
REMARK  status: ('A' for Active; 'I' for Inactive)
REMARK    1  A    between atoms: S_2  and  C_1 
REMARK    2  A    between atoms: C_12  and  S_2 
REMARK    3  A    between atoms: S_14  and  C_3 
REMARK    4  A    between atoms: N_7  and  C_4 
REMARK       I    between atoms: C_8  and  N_7 
REMARK       I    between atoms: N_11  and  C_8 
REMARK    5  A    between atoms: C_15  and  N_11 
ROOT
ATOM      1  C   UNL d   1       1.058   1.352  -0.340  0.00  0.00     0.086 C 
ATOM      2  C   UNL d   1      -0.291   1.670  -0.284  0.00  0.00     0.064 C 
ATOM      3  C   UNL d   1       0.096  -0.762  -0.181  0.00  0.00     0.080 C 
ATOM      4  C   UNL d   1       1.244  -0.060  -0.478  0.00  0.00     0.062 C 
ATOM      5  S   UNL d   1      -1.246   0.257  -0.071  0.00  0.00    -0.064 SA
ENDROOT
BRANCH   3   6
ATOM      6  N   UNL d   1       0.004  -2.132  -0.058  0.00  0.00    -0.303 N 
ATOM      7  C   UNL d   1      -0.873  -2.928   0.633  0.00  0.00     0.325 C 
ATOM      8  N   UNL d   1      -1.867  -2.322   1.341  0.00  0.00    -0.309 N 
ATOM      9  O   UNL d   1      -0.640  -4.137   0.620  0.00  0.00    -0.247 OA
ATOM     10  H   UNL d   1      -2.061  -1.366   1.084  0.00  0.00     0.170 HD
ATOM     11  H   UNL d   1       0.802  -2.676  -0.362  0.00  0.00     0.171 HD
BRANCH   8  12
ATOM     12  C   UNL d   1      -2.713  -2.896   2.313  0.00  0.00     0.036 A 
ATOM     13  C   UNL d   1      -2.530  -4.177   2.842  0.00  0.00     0.031 A 
ATOM     14  C   UNL d   1      -3.394  -4.672   3.826  0.00  0.00     0.026 A 
ATOM     15  C   UNL d   1      -4.447  -3.886   4.284  0.00  0.00     0.034 A 
ATOM     16  C   UNL d   1      -4.638  -2.606   3.773  0.00  0.00     0.026 A 
ATOM     17 CL   UNL d   1      -5.512  -4.498   5.489  0.00  0.00    -0.084 Cl
ATOM     18  C   UNL d   1      -3.770  -2.112   2.794  0.00  0.00     0.031 A 
ENDBRANCH   8  12
ENDBRANCH   3   6
BRANCH   1  19
ATOM     19  S   UNL d   1       2.333   2.526  -0.245  0.00  0.00     0.180 S 
ATOM     20  O   UNL d   1       2.095   3.378  -1.391  0.00  0.00    -0.222 OA
ATOM     21  O   UNL d   1       2.232   3.008   1.116  0.00  0.00    -0.222 OA
BRANCH  19  22
ATOM     22  C   UNL d   1       3.940   1.765  -0.449  0.00  0.00     0.105 C 
ATOM     23  C   UNL d   1       5.003   2.873  -0.444  0.00  0.00     0.026 C 
ATOM     24  C   UNL d   1       4.308   0.765   0.645  0.00  0.00     0.026 C 
ENDBRANCH  19  22
ENDBRANCH   1  19
BRANCH   2  25
ATOM     25  S   UNL d   1      -1.111   3.219  -0.457  0.00  0.00    -0.126 SA
ATOM     26  C   UNL d   1      -0.812   4.000   1.137  0.00  0.00     0.096 C 
ENDBRANCH   2  25
TORSDOF 5
