REMARK  4 active torsions:
REMARK  status: ('A' for Active; 'I' for Inactive)
REMARK    1  A    between atoms: S_6  and  C_1 
REMARK    2  A    between atoms: N_2  and  C_7 
REMARK    3  A    between atoms: C_5  and  S_6 
REMARK    4  A    between atoms: C_13  and  C_8 
ROOT
ATOM      1  S   UNL d   1       0.015  -2.958  -0.265  0.00  0.00    -0.045 SA
ENDROOT
BRANCH   1   2
ATOM      2  C   UNL d   1      -0.178  -3.164  -2.025  0.00  0.00     0.109 A 
ATOM      3  C   UNL d   1       0.632  -3.969  -2.815  0.00  0.00     0.136 A 
ATOM      4  C   UNL d   1       0.395  -4.089  -4.192  0.00  0.00     0.040 A 
ATOM      5  C   UNL d   1      -0.679  -3.405  -4.746  0.00  0.00     0.020 A 
ATOM      6  C   UNL d   1      -1.464  -2.637  -3.903  0.00  0.00     0.089 A 
ATOM      7  N   UNL d   1      -1.239  -2.507  -2.574  0.00  0.00    -0.358 N 
ATOM      8  HN  UNL d   1      -1.850  -1.930  -1.997  1.00  0.00     0.166 HD
BRANCH   3   9
ATOM      9  N   UNL d   1       1.716  -4.732  -2.252  0.00  0.00    -0.113 N 
ATOM     10  O   UNL d   1       1.429  -5.603  -1.421  0.00  0.00    -0.532 OA
ATOM     11  O   UNL d   1       2.847  -4.517  -2.708  0.00  0.00    -0.532 OA
ENDBRANCH   3   9
ENDBRANCH   1   2
BRANCH   1  12
ATOM     12  C   UNL d   1       0.178  -1.217  -0.219  0.00  0.00     0.118 A 
ATOM     13  N   UNL d   1       1.363  -0.648  -0.224  0.00  0.00    -0.347 N 
ATOM     14  C   UNL d   1       1.242   0.732  -0.086  0.00  0.00     0.024 A 
ATOM     15  HN  UNL d   1       2.248  -1.148  -0.316  1.00  0.00     0.167 HD
ATOM     16  C   UNL d   1      -0.068   1.173  -0.000  0.00  0.00     0.078 A 
ATOM     17  S   UNL d   1      -1.153  -0.151  -0.048  0.00  0.00    -0.075 SA
BRANCH  14  18
ATOM     18  C   UNL d   1       2.496   1.599  -0.054  0.00  0.00    -0.008 C 
ATOM     19  C   UNL d   1       3.775   0.741  -0.139  0.00  0.00     0.021 C 
ATOM     20  C   UNL d   1       2.491   2.576  -1.245  0.00  0.00     0.021 C 
ATOM     21  C   UNL d   1       2.560   2.413   1.256  0.00  0.00     0.021 C 
ENDBRANCH  14  18
ENDBRANCH   1  12
TORSDOF 4
