REMARK  3 active torsions:
REMARK  status: ('A' for Active; 'I' for Inactive)
REMARK    1  A    between atoms: C_3  and  C_1 
REMARK    2  A    between atoms: C_6  and  C_1 
REMARK    3  A    between atoms: C_5  and  C_3 
ROOT
ATOM      1  N   UNL d   1       4.240  -1.397   2.483  0.00  0.00    -0.191 NA
ATOM      2  C   UNL d   1       3.247  -1.609   1.916  0.00  0.00     0.107 C 
ATOM      3  C   UNL d   1       2.058  -1.892   1.150  0.00  0.00     0.096 C 
ATOM      4  S   UNL d   1       0.980  -3.014   1.760  0.00  0.00    -0.073 SA
ENDROOT
BRANCH   3   5
ATOM      5  C   UNL d   1       1.875  -1.199  -0.169  0.00  0.00     0.146 C 
BRANCH   5   6
ATOM      6  C   UNL d   1       1.081   0.080  -0.052  0.00  0.00     0.165 C 
ATOM      7  O   UNL d   1       1.049   0.728   0.990  0.00  0.00    -0.292 OA
BRANCH   6   8
ATOM      8  C   UNL d   1       0.318   0.550  -1.241  0.00  0.00     0.010 A 
ATOM      9  C   UNL d   1      -0.818   1.347  -1.041  0.00  0.00     0.017 A 
ATOM     10  C   UNL d   1      -1.574   1.780  -2.135  0.00  0.00     0.025 A 
ATOM     11  C   UNL d   1      -1.187   1.428  -3.427  0.00  0.00     0.034 A 
ATOM     12  C   UNL d   1      -0.050   0.649  -3.635  0.00  0.00     0.025 A 
ATOM     13 CL   UNL d   1      -2.114   1.958  -4.774  0.00  0.00    -0.084 Cl
ATOM     14  C   UNL d   1       0.706   0.210  -2.543  0.00  0.00     0.017 A 
ENDBRANCH   6   8
ENDBRANCH   5   6
ENDBRANCH   3   5
TORSDOF 3
