REMARK  8 active torsions:
REMARK  status: ('A' for Active; 'I' for Inactive)
REMARK    1  A    between atoms: N_2  and  S_1 
REMARK    2  A    between atoms: C_10  and  S_1 
REMARK    3  A    between atoms: C_4  and  C_7 
REMARK    4  A    between atoms: N_11  and  C_5 
REMARK    5  A    between atoms: S_14  and  C_5 
REMARK    6  A    between atoms: O_12  and  C_6 
REMARK    7  A    between atoms: C_7  and  N_11 
REMARK    8  A    between atoms: C_15  and  O_12 
ROOT
ATOM      1  N   UNL d   1       1.341   0.744  -3.069  0.00  0.00    -0.366 N 
ATOM      2  H   UNL d   1       1.924   0.343  -3.805  0.00  0.00     0.162 HD
ENDROOT
BRANCH   1   3
ATOM      3  C   UNL d   1       2.082   1.483  -2.056  0.00  0.00     0.165 C 
BRANCH   3   4
ATOM      4  C   UNL d   1       2.804   2.750  -2.505  0.00  0.00     0.015 A 
ATOM      5  C   UNL d   1       3.767   3.323  -1.621  0.00  0.00     0.085 A 
ATOM      6  C   UNL d   1       4.357   4.574  -1.894  0.00  0.00     0.038 A 
ATOM      7  C   UNL d   1       4.117   5.224  -3.091  0.00  0.00     0.004 A 
ATOM      8  C   UNL d   1       3.230   4.662  -3.993  0.00  0.00     0.024 A 
ATOM      9  C   UNL d   1       2.556   3.465  -3.698  0.00  0.00     0.044 A 
ATOM     10 CL   UNL d   1       1.435   3.012  -4.928  0.00  0.00    -0.084 Cl
BRANCH   5  11
ATOM     11  O   UNL d   1       4.106   2.649  -0.446  0.00  0.00    -0.310 OA
BRANCH  11  12
ATOM     12  C   UNL d   1       5.409   2.789   0.016  0.00  0.00     0.076 A 
ATOM     13  C   UNL d   1       5.604   3.062   1.374  0.00  0.00     0.037 A 
ATOM     14  C   UNL d   1       6.901   3.278   1.862  0.00  0.00     0.003 A 
ATOM     15  C   UNL d   1       7.998   3.217   1.000  0.00  0.00     0.000 A 
ATOM     16  C   UNL d   1       7.806   2.912  -0.345  0.00  0.00     0.003 A 
ATOM     17  C   UNL d   1       6.518   2.672  -0.832  0.00  0.00     0.037 A 
ENDBRANCH  11  12
ENDBRANCH   5  11
ENDBRANCH   3   4
ENDBRANCH   1   3
BRANCH   1  18
ATOM     18  C   UNL d   1      -0.007   0.752  -3.336  0.00  0.00     0.149 C 
ATOM     19  N   UNL d   1      -0.654   0.328  -4.362  0.00  0.00    -0.260 N 
ATOM     20  HN  UNL d   1      -1.671   0.392  -4.336  1.00  0.00     0.181 HD
BRANCH  19  21
ATOM     21  S   UNL d   1       0.015  -0.294  -5.684  0.00  0.00     0.264 S 
ATOM     22  O   UNL d   1       1.352  -0.786  -5.379  0.00  0.00    -0.200 OA
ATOM     23  O   UNL d   1      -0.206   0.599  -6.799  0.00  0.00    -0.200 OA
BRANCH  21  24
ATOM     24  C   UNL d   1      -0.976  -1.743  -6.028  0.00  0.00     0.079 A 
ATOM     25  C   UNL d   1      -2.076  -2.054  -5.221  0.00  0.00     0.025 A 
ATOM     26  C   UNL d   1      -2.798  -3.223  -5.461  0.00  0.00     0.002 A 
ATOM     27  C   UNL d   1      -2.430  -4.068  -6.508  0.00  0.00     0.000 A 
ATOM     28  C   UNL d   1      -1.353  -3.736  -7.334  0.00  0.00     0.002 A 
ATOM     29  C   UNL d   1      -0.622  -2.570  -7.099  0.00  0.00     0.025 A 
ENDBRANCH  21  24
ENDBRANCH  19  21
BRANCH  18  30
ATOM     30  S   UNL d   1      -1.078   1.408  -2.080  0.00  0.00    -0.098 SA
ATOM     31  C   UNL d   1      -2.284   2.269  -3.122  0.00  0.00     0.099 C 
ENDBRANCH  18  30
ENDBRANCH   1  18
TORSDOF 8
