REMARK  5 active torsions:
REMARK  status: ('A' for Active; 'I' for Inactive)
REMARK    1  A    between atoms: C_4  and  C_1 
REMARK    2  A    between atoms: N_7  and  C_2 
REMARK       I    between atoms: C_3  and  N_6 
REMARK    3  A    between atoms: C_5  and  C_3 
REMARK    4  A    between atoms: C_9  and  C_8 
REMARK    5  A    between atoms: O_20  and  C_9 
ROOT
ATOM      1  C   UNL d   1      -3.278   5.893  -0.712  0.00  0.00     0.254 C 
ATOM      2  N   UNL d   1      -3.458   4.511  -0.695  0.00  0.00    -0.347 N 
ATOM      3  N   UNL d   1      -1.674   2.063  -0.347  0.00  0.00    -0.267 NA
ATOM      4  O   UNL d   1      -3.177   6.549  -1.754  0.00  0.00    -0.267 OA
ATOM      5  C   UNL d   1      -3.467   3.640   0.491  0.00  0.00     0.141 C 
ATOM      6  C   UNL d   1      -2.117   2.945   0.767  0.00  0.00     0.117 C 
ATOM      7  C   UNL d   1      -2.305   3.214  -2.513  0.00  0.00     0.035 C 
ATOM      8  C   UNL d   1      -3.595   3.799  -1.958  0.00  0.00     0.127 C 
ATOM      9  C   UNL d   1      -1.202   2.854  -1.523  0.00  0.00     0.098 C 
ENDROOT
BRANCH   1  10
ATOM     10  C   UNL d   1      -3.219   6.677   0.541  0.00  0.00     0.049 A 
ATOM     11  C   UNL d   1      -4.072   7.763   0.801  0.00  0.00     0.053 A 
ATOM     12  C   UNL d   1      -3.975   8.413   2.051  0.00  0.00     0.019 A 
ATOM     13  C   UNL d   1      -3.041   8.014   3.009  0.00  0.00     0.001 A 
ATOM     14  C   UNL d   1      -2.152   6.992   2.714  0.00  0.00     0.001 A 
ATOM     15  C   UNL d   1      -2.218   6.359   1.474  0.00  0.00     0.018 A 
BRANCH  11  16
ATOM     16  C   UNL d   1      -5.126   8.306  -0.102  0.00  0.00     0.177 C 
ATOM     17  O   UNL d   1      -6.131   8.832   0.358  0.00  0.00    -0.646 OA
BRANCH  16  18
ATOM     18  O   UNL d   1      -4.873   8.315  -1.422  0.00  0.00    -0.773 OA
ATOM     19  H   UNL d   1      -4.072   7.825  -1.727  0.00  0.00     0.167 HD
ENDBRANCH  16  18
ENDBRANCH  11  16
ENDBRANCH   1  10
BRANCH   3  20
ATOM     20  C   UNL d   1      -0.689   1.137   0.101  0.00  0.00     0.097 A 
ATOM     21  C   UNL d   1      -0.954   0.131   1.038  0.00  0.00     0.086 A 
ATOM     22  C   UNL d   1       0.108  -0.714   1.442  0.00  0.00     0.021 A 
ATOM     23  C   UNL d   1       1.365  -0.599   0.876  0.00  0.00     0.018 A 
ATOM     24  C   UNL d   1       1.534   0.383  -0.069  0.00  0.00     0.089 A 
ATOM     25  N   UNL d   1       0.557   1.240  -0.433  0.00  0.00    -0.356 N 
ATOM     26  HN  UNL d   1       0.756   1.973  -1.115  1.00  0.00     0.166 HD
BRANCH  21  27
ATOM     27  C   UNL d   1      -2.288  -0.108   1.682  0.00  0.00     0.420 C 
ATOM     28  F   UNL d   1      -3.377   0.334   0.996  0.00  0.00    -0.166 F 
ATOM     29  F   UNL d   1      -2.528  -1.433   1.916  0.00  0.00    -0.166 F 
ATOM     30  F   UNL d   1      -2.364   0.480   2.914  0.00  0.00    -0.166 F 
ENDBRANCH  21  27
ENDBRANCH   3  20
TORSDOF 5
