REMARK  2 active torsions:
REMARK  status: ('A' for Active; 'I' for Inactive)
REMARK    1  A    between atoms: S_6  and  C_2 
REMARK    2  A    between atoms: C_9  and  C_3 
ROOT
ATOM      1  C   UNL d   1       1.222  -0.962   0.646  0.00  0.00     0.082 A 
ATOM      2  C   UNL d   1       1.495   0.394   0.558  0.00  0.00     0.093 A 
ATOM      3  C   UNL d   1      -0.044  -1.304   0.016  0.00  0.00     0.003 A 
ATOM      4  S   UNL d   1       0.281   1.245  -0.284  0.00  0.00    -0.090 SA
ATOM      5  C   UNL d   1      -0.622  -0.175  -0.547  0.00  0.00     0.065 A 
ATOM      6  C   UNL d   1       2.085  -1.917   1.302  0.00  0.00     0.102 C 
ATOM      7  N   UNL d   1       2.694  -2.750   1.834  0.00  0.00    -0.191 NA
ENDROOT
BRANCH   2   8
ATOM      8  S   UNL d   1       2.843   1.244   1.284  0.00  0.00     0.054 S 
ATOM      9  O   UNL d   1       3.820   0.230   1.787  0.00  0.00    -0.253 OA
ATOM     10  C   UNL d   1       3.536   2.044  -0.177  0.00  0.00     0.133 C 
ENDBRANCH   2   8
BRANCH   3  11
ATOM     11  C   UNL d   1      -0.742  -2.602  -0.035  0.00  0.00    -0.024 A 
ATOM     12  C   UNL d   1      -0.640  -3.521   1.017  0.00  0.00     0.013 A 
ATOM     13  C   UNL d   1      -1.333  -4.736   0.989  0.00  0.00     0.007 A 
ATOM     14  C   UNL d   1      -2.176  -5.049  -0.078  0.00  0.00    -0.062 A 
ATOM     15  C   UNL d   1      -2.287  -4.143  -1.135  0.00  0.00     0.007 A 
ATOM     16  C   UNL d   1      -2.954  -6.330  -0.062  0.00  0.00     0.048 C 
ATOM     17  C   UNL d   1      -1.570  -2.940  -1.119  0.00  0.00     0.013 A 
ENDBRANCH   3  11
TORSDOF 2
