REMARK  7 active torsions:
REMARK  status: ('A' for Active; 'I' for Inactive)
REMARK    1  A    between atoms: C_4  and  S_1 
REMARK    2  A    between atoms: O_6  and  S_1 
REMARK    3  A    between atoms: C_3  and  C_7 
REMARK    4  A    between atoms: C_19  and  C_3 
REMARK    5  A    between atoms: C_15  and  O_6 
REMARK    6  A    between atoms: O_18  and  C_9 
REMARK    7  A    between atoms: O_21  and  C_14 
ROOT
ATOM      1  C   UNL d   1       2.333   0.590  -4.317  0.00  0.00    -0.038 A 
ATOM      2  C   UNL d   1       2.091   0.163  -2.990  0.00  0.00     0.046 A 
ATOM      3  C   UNL d   1       0.826  -0.272  -2.575  0.00  0.00     0.090 A 
ATOM      4  C   UNL d   1       1.238   0.547  -5.200  0.00  0.00     0.008 A 
ATOM      5  C   UNL d   1      -0.013   0.071  -4.805  0.00  0.00     0.003 A 
ATOM      6  C   UNL d   1      -0.223  -0.324  -3.491  0.00  0.00     0.038 A 
ENDROOT
BRANCH   3   7
ATOM      7  O   UNL d   1       0.493  -0.637  -1.295  0.00  0.00    -0.229 OA
BRANCH   7   8
ATOM      8  S   UNL d   1       1.598  -0.756  -0.108  0.00  0.00     0.303 S 
ATOM      9  O   UNL d   1       2.518  -1.829  -0.406  0.00  0.00    -0.193 OA
ATOM     10  O   UNL d   1       2.078   0.579   0.227  0.00  0.00    -0.193 OA
BRANCH   8  11
ATOM     11  C   UNL d   1       0.658  -1.303   1.303  0.00  0.00     0.089 A 
ATOM     12  C   UNL d   1       1.087  -0.908   2.575  0.00  0.00     0.065 A 
ATOM     13  C   UNL d   1       0.342  -1.250   3.711  0.00  0.00     0.102 A 
ATOM     14  C   UNL d   1      -0.831  -2.015   3.550  0.00  0.00     0.101 A 
ATOM     15  C   UNL d   1      -1.232  -2.409   2.260  0.00  0.00     0.041 A 
ATOM     16  C   UNL d   1      -0.499  -2.052   1.130  0.00  0.00     0.029 A 
BRANCH  13  17
ATOM     17  O   UNL d   1       0.701  -0.864   4.971  0.00  0.00    -0.353 OA
ATOM     18  C   UNL d   1       1.879  -0.077   5.133  0.00  0.00     0.210 C 
ENDBRANCH  13  17
BRANCH  14  19
ATOM     19  O   UNL d   1      -1.696  -2.464   4.515  0.00  0.00    -0.353 OA
ATOM     20  C   UNL d   1      -1.454  -2.115   5.870  0.00  0.00     0.210 C 
ENDBRANCH  14  19
ENDBRANCH   8  11
ENDBRANCH   7   8
ENDBRANCH   3   7
BRANCH   1  21
ATOM     21  C   UNL d   1       3.752   1.175  -4.705  0.00  0.00     0.068 C 
ATOM     22  C   UNL d   1       3.961   2.486  -3.846  0.00  0.00     0.232 C 
ATOM     23  N   UNL d   1       5.217   3.063  -3.655  0.00  0.00    -0.356 N 
ATOM     24  O   UNL d   1       2.969   3.046  -3.356  0.00  0.00    -0.272 OA
ATOM     25  C   UNL d   1       5.230   4.348  -2.951  0.00  0.00     0.152 C 
ATOM     26  C   UNL d   1       6.444   2.772  -4.392  0.00  0.00     0.125 C 
ATOM     27  C   UNL d   1       7.021   1.378  -4.219  0.00  0.00     0.020 C 
ATOM     28  C   UNL d   1       6.225   0.245  -4.839  0.00  0.00     0.003 C 
ATOM     29  C   UNL d   1       4.802   0.097  -4.312  0.00  0.00     0.024 C 
BRANCH  21  30
ATOM     30  C   UNL d   1       3.806   1.599  -6.209  0.00  0.00     0.020 C 
ATOM     31  C   UNL d   1       3.664   0.523  -7.291  0.00  0.00     0.006 C 
ENDBRANCH  21  30
ENDBRANCH   1  21
TORSDOF 7
