REMARK  11 active torsions:
REMARK  status: ('A' for Active; 'I' for Inactive)
REMARK    1  A    between atoms: O_4  and  S_1 
REMARK    2  A    between atoms: C_6  and  O_4 
REMARK    3  A    between atoms: C_7  and  C_6 
REMARK    4  A    between atoms: C_15  and  C_7 
REMARK    5  A    between atoms: C_8  and  C_9 
REMARK    6  A    between atoms: C_9  and  C_13 
REMARK    7  A    between atoms: C_10  and  C_11 
REMARK    8  A    between atoms: C_14  and  C_10 
REMARK    9  A    between atoms: C_11  and  C_15 
REMARK   10  A    between atoms: C_12  and  C_14 
REMARK   11  A    between atoms: C_13  and  C_12 
ROOT
ATOM      1  C   UNL d   1      -3.512   0.345  -4.398  0.00  0.00     0.000 C 
ENDROOT
BRANCH   1   2
ATOM      2  C   UNL d   1      -5.042   0.346  -4.407  0.00  0.00     0.000 C 
BRANCH   2   3
ATOM      3  C   UNL d   1      -5.585   0.478  -5.827  0.00  0.00     0.000 C 
BRANCH   3   4
ATOM      4  C   UNL d   1      -7.112   0.479  -5.836  0.00  0.00     0.000 C 
BRANCH   4   5
ATOM      5  C   UNL d   1      -7.648   0.613  -7.260  0.00  0.00     0.000 C 
BRANCH   5   6
ATOM      6  C   UNL d   1      -9.175   0.615  -7.272  0.00  0.00    -0.000 C 
BRANCH   6   7
ATOM      7  C   UNL d   1      -9.716   0.750  -8.694  0.00  0.00    -0.005 C 
ATOM      8  C   UNL d   1     -11.236   0.750  -8.704  0.00  0.00     0.005 C 
ENDBRANCH   6   7
ENDBRANCH   5   6
ENDBRANCH   4   5
ENDBRANCH   3   4
ENDBRANCH   2   3
ENDBRANCH   1   2
BRANCH   1   9
ATOM      9  C   UNL d   1      -2.987   0.212  -2.973  0.00  0.00     0.002 C 
BRANCH   9  10
ATOM     10  C   UNL d   1      -1.458   0.207  -2.898  0.00  0.00     0.028 C 
BRANCH  10  11
ATOM     11  C   UNL d   1      -1.033   0.072  -1.441  0.00  0.00     0.190 C 
BRANCH  11  12
ATOM     12  O   UNL d   1       0.382   0.057  -1.298  0.00  0.00    -0.276 OA
BRANCH  12  13
ATOM     13  S   UNL d   1       0.914  -0.086   0.242  0.00  0.00     0.261 S 
ATOM     14  O   UNL d   1       0.421  -1.333   0.784  0.00  0.00    -0.199 OA
ATOM     15  O   UNL d   1       0.700   1.179   0.919  0.00  0.00    -0.199 OA
ATOM     16  C   UNL d   1       2.650  -0.262  -0.086  0.00  0.00     0.194 C 
ENDBRANCH  12  13
ENDBRANCH  11  12
ENDBRANCH  10  11
ENDBRANCH   9  10
ENDBRANCH   1   9
TORSDOF 11
