REMARK  4 active torsions:
REMARK  status: ('A' for Active; 'I' for Inactive)
REMARK    1  A    between atoms: C_10  and  N_1 
REMARK    2  A    between atoms: C_9  and  N_2 
REMARK    3  A    between atoms: C_11  and  C_9 
REMARK    4  A    between atoms: C_12  and  C_10 
ROOT
ATOM      1  N   UNL d   1       0.734   1.259  -0.306  0.00  0.00     0.122 N 
ATOM      2  N   UNL d   1       0.802  -1.158  -0.089  0.00  0.00     0.122 N 
ATOM      3  C   UNL d   1       1.430   0.111   0.298  0.00  0.00     0.543 C 
ATOM      4  C   UNL d   1      -1.413  -0.009  -0.226  0.00  0.00     0.149 C 
ATOM      5  N   UNL d   1      -3.895  -0.008   0.684  0.00  0.00    -0.197 NA
ATOM      6  C   UNL d   1      -2.801   0.003   0.288  0.00  0.00     0.067 C 
ATOM      7  C   UNL d   1      -0.672   1.281   0.129  0.00  0.00     0.295 C 
ATOM      8  C   UNL d   1      -0.616  -1.193   0.338  0.00  0.00     0.295 C 
ENDROOT
BRANCH   1   9
ATOM      9  C   UNL d   1       0.917   1.272  -1.772  0.00  0.00     0.313 C 
BRANCH   9  10
ATOM     10  C   UNL d   1       0.258   2.444  -2.477  0.00  0.00    -0.030 A 
ATOM     11  C   UNL d   1       0.622   3.762  -2.168  0.00  0.00     0.009 A 
ATOM     12  C   UNL d   1       0.016   4.838  -2.823  0.00  0.00     0.001 A 
ATOM     13  C   UNL d   1      -0.953   4.608  -3.796  0.00  0.00     0.000 A 
ATOM     14  C   UNL d   1      -1.323   3.304  -4.116  0.00  0.00     0.001 A 
ATOM     15  C   UNL d   1      -0.719   2.226  -3.462  0.00  0.00     0.009 A 
ENDBRANCH   9  10
ENDBRANCH   1   9
BRANCH   2  16
ATOM     16  C   UNL d   1       1.504  -2.323   0.495  0.00  0.00     0.313 C 
BRANCH  16  17
ATOM     17  C   UNL d   1       2.970  -2.441   0.139  0.00  0.00    -0.030 A 
ATOM     18  C   UNL d   1       3.941  -2.442   1.153  0.00  0.00     0.009 A 
ATOM     19  C   UNL d   1       5.297  -2.551   0.840  0.00  0.00     0.001 A 
ATOM     20  C   UNL d   1       5.698  -2.667  -0.489  0.00  0.00     0.000 A 
ATOM     21  C   UNL d   1       4.744  -2.680  -1.506  0.00  0.00     0.001 A 
ATOM     22  C   UNL d   1       3.385  -2.571  -1.194  0.00  0.00     0.009 A 
ENDBRANCH  16  17
ENDBRANCH   2  16
TORSDOF 4
