REMARK  5 active torsions:
REMARK  status: ('A' for Active; 'I' for Inactive)
REMARK    1  A    between atoms: C_12  and  C_1 
REMARK    2  A    between atoms: C_7  and  C_2 
REMARK    3  A    between atoms: O_11  and  C_3 
REMARK    4  A    between atoms: N_6  and  C_7 
REMARK    5  A    between atoms: O_15  and  C_12 
ROOT
ATOM      1  C   UNL d   1       0.152   1.278  -0.067  0.00  0.00     0.010 A 
ATOM      2  C   UNL d   1       1.497   0.841  -0.020  0.00  0.00    -0.004 A 
ATOM      3  C   UNL d   1      -0.845   0.285  -0.035  0.00  0.00     0.096 A 
ATOM      4  N   UNL d   1       0.785  -1.488   0.009  0.00  0.00    -0.367 N 
ATOM      5  HN  UNL d   1       1.020  -2.480   0.018  1.00  0.00     0.165 HD
ATOM      6  C   UNL d   1      -0.501  -1.065  -0.001  0.00  0.00     0.039 A 
ATOM      7  C   UNL d   1       1.740  -0.535   0.008  0.00  0.00     0.097 A 
ATOM      8  C   UNL d   1      -1.556  -2.130   0.032  0.00  0.00     0.071 C 
ENDROOT
BRANCH   2   9
ATOM      9  C   UNL d   1       2.689   1.762   0.114  0.00  0.00     0.313 C 
BRANCH   9  10
ATOM     10  N   UNL d   1       3.720   1.583  -0.937  0.00  0.00     0.094 N 
ATOM     11  C   UNL d   1       3.272   2.214  -2.199  0.00  0.00     0.283 C 
ATOM     12  C   UNL d   1       4.297   2.264  -3.340  0.00  0.00     0.104 C 
ATOM     13  S   UNL d   1       5.780   3.192  -2.863  0.00  0.00    -0.166 SA
ATOM     14  C   UNL d   1       6.176   2.176  -1.416  0.00  0.00     0.104 C 
ATOM     15  C   UNL d   1       5.003   2.124  -0.431  0.00  0.00     0.283 C 
ENDBRANCH   9  10
ENDBRANCH   2   9
BRANCH   1  16
ATOM     16  C   UNL d   1      -0.166   2.752  -0.158  0.00  0.00     0.206 C 
BRANCH  16  17
ATOM     17  O   UNL d   1      -1.569   3.002  -0.253  0.00  0.00    -0.396 OA
ATOM     18  H   UNL d   1      -1.670   3.850  -0.724  0.00  0.00     0.209 HD
ENDBRANCH  16  17
ENDBRANCH   1  16
BRANCH   3  19
ATOM     19  O   UNL d   1      -2.182   0.602  -0.016  0.00  0.00    -0.358 OA
ATOM     20  H   UNL d   1      -2.246   1.581  -0.011  0.00  0.00     0.217 HD
ENDBRANCH   3  19
TORSDOF 5
