REMARK  5 active torsions:
REMARK  status: ('A' for Active; 'I' for Inactive)
REMARK    1  A    between atoms: C_3  and  C_1 
REMARK    2  A    between atoms: C_13  and  C_2 
REMARK    3  A    between atoms: C_14  and  C_7 
REMARK    4  A    between atoms: O_16  and  C_13 
REMARK    5  A    between atoms: C_20  and  O_16 
ROOT
ATOM      1  C   UNL d   1      -1.268  -0.879  -0.219  0.00  0.00     0.144 A 
ATOM      2  C   UNL d   1       0.021  -1.347  -0.069  0.00  0.00     0.101 A 
ATOM      3  O   UNL d   1      -1.222   0.467  -0.442  0.00  0.00    -0.234 OA
ATOM      4  N   UNL d   1       0.077   0.917  -0.339  0.00  0.00    -0.264 N 
ATOM      5  HN  UNL d   1       0.402   1.881  -0.418  1.00  0.00     0.194 HD
ATOM      6  C   UNL d   1       0.824  -0.172  -0.115  0.00  0.00     0.048 A 
ATOM      7  C   UNL d   1       2.294  -0.015  -0.001  0.00  0.00     0.071 C 
ENDROOT
BRANCH   1   8
ATOM      8  C   UNL d   1      -2.544  -1.642  -0.119  0.00  0.00     0.077 A 
ATOM      9  N   UNL d   1      -2.644  -2.846   0.559  0.00  0.00    -0.347 N 
ATOM     10  C   UNL d   1      -3.886  -3.293   0.517  0.00  0.00     0.084 A 
ATOM     11  HN  UNL d   1      -1.869  -3.319   1.024  1.00  0.00     0.167 HD
ATOM     12  S   UNL d   1      -4.988  -2.277  -0.343  0.00  0.00    -0.081 SA
ATOM     13  C   UNL d   1      -3.727  -1.159  -0.634  0.00  0.00     0.084 A 
BRANCH  10  14
ATOM     14  C   UNL d   1      -4.376  -4.490   1.219  0.00  0.00    -0.002 A 
ATOM     15  C   UNL d   1      -3.871  -4.796   2.493  0.00  0.00     0.014 A 
ATOM     16  C   UNL d   1      -4.361  -5.887   3.216  0.00  0.00     0.001 A 
ATOM     17  C   UNL d   1      -5.351  -6.699   2.668  0.00  0.00     0.000 A 
ATOM     18  C   UNL d   1      -5.842  -6.429   1.393  0.00  0.00     0.001 A 
ATOM     19  C   UNL d   1      -5.357  -5.333   0.672  0.00  0.00     0.014 A 
ENDBRANCH  10  14
ENDBRANCH   1   8
BRANCH   2  20
ATOM     20  C   UNL d   1       0.411  -2.729   0.051  0.00  0.00     0.298 C 
ATOM     21  O   UNL d   1      -0.127  -3.642  -0.559  0.00  0.00    -0.259 OA
BRANCH  20  22
ATOM     22  O   UNL d   1       1.463  -2.892   0.906  0.00  0.00    -0.318 OA
BRANCH  22  23
ATOM     23  C   UNL d   1       1.742  -4.247   1.281  0.00  0.00     0.174 C 
ATOM     24  C   UNL d   1       1.013  -4.533   2.580  0.00  0.00     0.034 C 
ENDBRANCH  22  23
ENDBRANCH  20  22
ENDBRANCH   2  20
TORSDOF 5
