REMARK  5 active torsions:
REMARK  status: ('A' for Active; 'I' for Inactive)
REMARK    1  A    between atoms: C_2  and  S_1 
REMARK    2  A    between atoms: N_9  and  S_1 
REMARK    3  A    between atoms: C_7  and  C_10 
REMARK    4  A    between atoms: C_11  and  N_9 
REMARK    5  A    between atoms: O_26  and  C_17 
ROOT
ATOM      1  S   UNL d   1       1.065   0.069   0.172  0.00  0.00     0.264 S 
ATOM      2  O   UNL d   1       2.507  -0.023   0.290  0.00  0.00    -0.200 OA
ATOM      3  O   UNL d   1       0.355   1.054   0.956  0.00  0.00    -0.200 OA
ENDROOT
BRANCH   1   4
ATOM      4  C   UNL d   1       0.400  -1.606   0.466  0.00  0.00     0.092 C 
ATOM      5  C   UNL d   1       1.056  -2.720  -0.131  0.00  0.00    -0.032 C 
ATOM      6  C   UNL d   1       0.698  -4.035   0.278  0.00  0.00    -0.048 C 
ATOM      7  C   UNL d   1       2.111  -2.587  -1.206  0.00  0.00     0.050 C 
ATOM      8  C   UNL d   1       1.348  -5.262  -0.338  0.00  0.00     0.049 C 
ATOM      9  C   UNL d   1      -0.253  -4.230   1.312  0.00  0.00    -0.049 C 
ATOM     10  C   UNL d   1      -0.917  -3.116   1.885  0.00  0.00    -0.048 C 
ATOM     11  C   UNL d   1      -0.534  -5.644   1.788  0.00  0.00     0.049 C 
ATOM     12  C   UNL d   1      -0.662  -1.805   1.393  0.00  0.00    -0.032 C 
ATOM     13  C   UNL d   1      -1.877  -3.349   3.035  0.00  0.00     0.049 C 
ATOM     14  C   UNL d   1      -1.530  -0.669   1.885  0.00  0.00     0.050 C 
ENDBRANCH   1   4
BRANCH   1  15
ATOM     15  N   UNL d   1       0.748   0.386  -1.447  0.00  0.00    -0.280 N 
ATOM     16  H   UNL d   1       1.546   0.353  -2.076  0.00  0.00     0.179 HD
BRANCH  15  17
ATOM     17  C   UNL d   1      -0.565   0.346  -1.961  0.00  0.00     0.046 A 
ATOM     18  C   UNL d   1      -1.307   1.521  -2.038  0.00  0.00     0.046 A 
ATOM     19  C   UNL d   1      -2.588   1.502  -2.608  0.00  0.00     0.052 A 
ATOM     20  C   UNL d   1      -3.111   0.280  -3.064  0.00  0.00     0.053 A 
ATOM     21  C   UNL d   1      -2.370  -0.899  -2.962  0.00  0.00     0.071 A 
ATOM     22  C   UNL d   1      -1.078  -0.853  -2.449  0.00  0.00     0.066 A 
BRANCH  19  23
ATOM     23  C   UNL d   1      -3.407   2.760  -2.735  0.00  0.00     0.417 C 
ATOM     24  F   UNL d   1      -2.755   3.881  -2.318  0.00  0.00    -0.166 F 
ATOM     25  F   UNL d   1      -3.783   3.007  -4.020  0.00  0.00    -0.166 F 
ATOM     26  F   UNL d   1      -4.559   2.705  -2.012  0.00  0.00    -0.166 F 
ENDBRANCH  19  23
BRANCH  21  27
ATOM     27  O   UNL d   1      -2.990  -2.032  -3.411  0.00  0.00    -0.356 OA
ATOM     28  C   UNL d   1      -2.526  -3.251  -2.832  0.00  0.00     0.210 C 
ENDBRANCH  21  27
ENDBRANCH  15  17
ENDBRANCH   1  15
TORSDOF 5
