REMARK  21 active torsions:
REMARK  status: ('A' for Active; 'I' for Inactive)
REMARK    1  A    between atoms: N_8  and  CA_3 
REMARK    2  A    between atoms: C_14  and  CA_5 
REMARK    3  A    between atoms: C_6  and  O_15 
REMARK    4  A    between atoms: C_6  and  C_7 
REMARK    5  A    between atoms: C_6  and  C_9 
REMARK    6  A    between atoms: C_11  and  C_7 
REMARK    7  A    between atoms: C_7  and  O_16 
REMARK       I    between atoms: C_9  and  N_8 
REMARK    8  A    between atoms: C_13  and  C_11 
REMARK    9  A    between atoms: C_11  and  O_17 
REMARK   10  A    between atoms: C_25  and  C_12 
REMARK   11  A    between atoms: C_13  and  O_19 
REMARK   12  A    between atoms: C_29  and  C_13 
REMARK   13  A    between atoms: OXT_39  and  C_14 
REMARK   14  A    between atoms: C_22  and  O_15 
REMARK   15  A    between atoms: C_21  and  O_16 
REMARK   16  A    between atoms: C_23  and  O_17 
REMARK   17  A    between atoms: C_24  and  O_19 
REMARK   18  A    between atoms: O_31  and  C_25 
REMARK   19  A    between atoms: C_26  and  O_31 
REMARK   20  A    between atoms: C_27  and  O_32 
REMARK   21  A    between atoms: O_32  and  C_29 
ROOT
ATOM      1  C   UNL d   1       1.623   2.183   2.736  0.00  0.00     0.255 C 
ENDROOT
BRANCH   1   2
ATOM      2  O   UNL d   1       1.808   1.306   1.612  0.00  0.00    -0.304 OA
BRANCH   2   3
ATOM      3  C   UNL d   1       2.495   1.845   0.567  0.00  0.00     0.255 C 
ATOM      4  O   UNL d   1       2.520   3.034   0.277  0.00  0.00    -0.266 OA
ATOM      5  C   UNL d   1       3.330   0.801  -0.119  0.00  0.00     0.126 C 
ENDBRANCH   2   3
ENDBRANCH   1   2
BRANCH   1   6
ATOM      6  C   UNL d   1       0.158   2.504   3.125  0.00  0.00     0.202 C 
BRANCH   6   7
ATOM      7  C   UNL d   1      -0.827   1.339   3.432  0.00  0.00     0.196 C 
BRANCH   7   8
ATOM      8  C   UNL d   1      -1.387   0.547   2.220  0.00  0.00     0.188 C 
BRANCH   8   9
ATOM      9  O   UNL d   1      -0.395  -0.167   1.438  0.00  0.00    -0.311 OA
BRANCH   9  10
ATOM     10  C   UNL d   1       0.182  -1.301   1.912  0.00  0.00     0.255 C 
ATOM     11  O   UNL d   1       0.042  -1.776   3.028  0.00  0.00    -0.266 OA
ATOM     12  C   UNL d   1       1.042  -1.927   0.858  0.00  0.00     0.126 C 
ENDBRANCH   9  10
ENDBRANCH   8   9
BRANCH   8  13
ATOM     13  C   UNL d   1      -2.562  -0.383   2.607  0.00  0.00     0.213 C 
BRANCH  13  14
ATOM     14  O   UNL d   1      -3.095  -1.037   1.432  0.00  0.00    -0.319 OA
BRANCH  14  15
ATOM     15  C   UNL d   1      -4.011  -0.326   0.723  0.00  0.00     0.254 C 
ATOM     16  O   UNL d   1      -4.412   0.791   1.015  0.00  0.00    -0.266 OA
ATOM     17  C   UNL d   1      -4.458  -1.085  -0.491  0.00  0.00     0.126 C 
ENDBRANCH  14  15
ENDBRANCH  13  14
ENDBRANCH   8  13
ENDBRANCH   7   8
BRANCH   7  18
ATOM     18  O   UNL d   1      -0.245   0.445   4.399  0.00  0.00    -0.311 OA
BRANCH  18  19
ATOM     19  C   UNL d   1      -0.403   0.769   5.713  0.00  0.00     0.255 C 
ATOM     20  O   UNL d   1      -0.989   1.753   6.134  0.00  0.00    -0.266 OA
ATOM     21  C   UNL d   1       0.222  -0.282   6.576  0.00  0.00     0.126 C 
ENDBRANCH  18  19
ENDBRANCH   7  18
ENDBRANCH   6   7
BRANCH   6  22
ATOM     22  O   UNL d   1      -0.387   3.416   2.132  0.00  0.00    -0.310 OA
BRANCH  22  23
ATOM     23  C   UNL d   1      -1.312   4.305   2.599  0.00  0.00     0.255 C 
ATOM     24  O   UNL d   1      -1.806   4.276   3.717  0.00  0.00    -0.266 OA
ATOM     25  C   UNL d   1      -1.597   5.381   1.601  0.00  0.00     0.126 C 
ENDBRANCH  22  23
ENDBRANCH   6  22
ENDBRANCH   1   6
BRANCH   1  26
ATOM     26  C   UNL d   1       2.421   1.585   3.909  0.00  0.00     0.250 C 
ATOM     27  N   UNL d   1       3.274   0.553   3.564  0.00  0.00    -0.344 N 
ATOM     28  H   UNL d   1       3.079   0.133   2.662  0.00  0.00     0.163 HD
ATOM     29  O   UNL d   1       2.341   1.999   5.063  0.00  0.00    -0.271 OA
BRANCH  27  30
ATOM     30  CA  UNL d   1       3.885  -0.288   4.616  0.00  0.00     0.200 C 
ATOM     31  C   UNL d   1       5.424  -0.308   4.755  0.00  0.00     0.164 C 
ATOM     32  N   UNL d   1       5.321  -1.783   4.938  0.00  0.00    -0.195 NA
ATOM     33  S   UNL d   1       6.176   0.606   6.082  0.00  0.00    -0.141 SA
ATOM     34  C   UNL d   1       4.133  -1.778   4.233  0.00  0.00     0.230 C 
ATOM     35  CA  UNL d   1       5.296  -2.384   6.206  0.00  0.00     0.098 C 
ATOM     36  O   UNL d   1       3.591  -2.678   3.639  0.00  0.00    -0.277 OA
ATOM     37  C   UNL d   1       5.244  -1.665   7.365  0.00  0.00    -0.018 C 
ATOM     38  C   UNL d   1       5.307  -0.158   7.437  0.00  0.00     0.114 C 
BRANCH  35  39
ATOM     39  C   UNL d   1       5.187  -3.909   6.210  0.00  0.00     0.188 C 
ATOM     40  O   UNL d   1       5.197  -4.613   7.207  0.00  0.00    -0.645 OA
BRANCH  39  41
ATOM     41  OXT UNL d   1       5.090  -4.484   4.990  0.00  0.00    -0.772 OA
ATOM     42  HXT UNL d   1       4.827  -3.896   4.255  0.00  0.00     0.167 HD
ENDBRANCH  39  41
ENDBRANCH  35  39
BRANCH  37  43
ATOM     43  C   UNL d   1       4.960  -2.262   8.745  0.00  0.00     0.215 C 
BRANCH  43  44
ATOM     44  O   UNL d   1       5.670  -1.597   9.808  0.00  0.00    -0.317 OA
BRANCH  44  45
ATOM     45  C   UNL d   1       6.953  -2.004   9.997  0.00  0.00     0.255 C 
ATOM     46  O   UNL d   1       7.564  -2.784   9.284  0.00  0.00    -0.266 OA
ATOM     47  C   UNL d   1       7.501  -1.390  11.248  0.00  0.00     0.126 C 
ENDBRANCH  44  45
ENDBRANCH  43  44
ENDBRANCH  37  43
ENDBRANCH  27  30
ENDBRANCH   1  26
TORSDOF 21
