REMARK  8 active torsions:
REMARK  status: ('A' for Active; 'I' for Inactive)
REMARK    1  A    between atoms: C_8  and  C_1 
REMARK    2  A    between atoms: S_14  and  C_5 
REMARK    3  A    between atoms: C_11  and  C_20 
REMARK    4  A    between atoms: C_27  and  C_12 
REMARK    5  A    between atoms: C_20  and  S_14 
REMARK    6  A    between atoms: C_15  and  C_19 
REMARK    7  A    between atoms: O_28  and  C_27 
REMARK    8  A    between atoms: C_29  and  O_28 
ROOT
ATOM      1  N   UNL d   1       3.575  -5.444  -1.283  0.00  0.00    -0.354 N 
ATOM      2  HN  UNL d   1       3.781  -5.487  -2.281  1.00  0.00     0.166 HD
ATOM      3  C   UNL d   1       2.387  -4.938  -0.740  0.00  0.00     0.026 A 
ATOM      4  C   UNL d   1       4.393  -5.860  -0.333  0.00  0.00     0.075 A 
ATOM      5  S   UNL d   1       3.777  -5.708   1.268  0.00  0.00    -0.084 SA
ATOM      6  C   UNL d   1       2.329  -5.043   0.639  0.00  0.00     0.077 A 
ENDROOT
BRANCH   3   7
ATOM      7  C   UNL d   1       1.326  -4.406  -1.690  0.00  0.00     0.140 C 
BRANCH   7   8
ATOM      8  S   UNL d   1       0.279  -3.069  -0.954  0.00  0.00    -0.086 SA
BRANCH   8   9
ATOM      9  C   UNL d   1      -0.822  -2.660  -2.239  0.00  0.00     0.162 A 
ATOM     10  N   UNL d   1      -1.811  -1.688  -2.165  0.00  0.00    -0.312 N 
ATOM     11  C   UNL d   1      -2.425  -1.700  -3.406  0.00  0.00     0.209 A 
ATOM     12  C   UNL d   1      -2.129  -0.858  -1.031  0.00  0.00     0.160 C 
ATOM     13  N   UNL d   1      -1.848  -2.636  -4.145  0.00  0.00    -0.279 N 
ATOM     14  N   UNL d   1      -0.852  -3.226  -3.411  0.00  0.00    -0.278 N 
ATOM     15  HN  UNL d   1      -2.102  -2.878  -5.102  1.00  0.00     0.188 HD
ATOM     16  HN  UNL d   1      -0.240  -3.978  -3.728  1.00  0.00     0.189 HD
BRANCH  11  17
ATOM     17  C   UNL d   1      -3.541  -0.824  -3.880  0.00  0.00     0.450 C 
ATOM     18  F   UNL d   1      -3.977   0.076  -2.961  0.00  0.00    -0.163 F 
ATOM     19  F   UNL d   1      -3.179  -0.091  -4.967  0.00  0.00    -0.163 F 
ATOM     20  F   UNL d   1      -4.637  -1.543  -4.240  0.00  0.00    -0.163 F 
ENDBRANCH  11  17
ENDBRANCH   8   9
ENDBRANCH   7   8
ENDBRANCH   3   7
BRANCH   4  21
ATOM     21  C   UNL d   1       5.740  -6.498  -0.545  0.00  0.00     0.240 C 
BRANCH  21  22
ATOM     22  O   UNL d   1       6.727  -5.461  -0.559  0.00  0.00    -0.345 OA
BRANCH  22  23
ATOM     23  C   UNL d   1       8.013  -5.887  -0.766  0.00  0.00     0.069 A 
ATOM     24  C   UNL d   1       8.868  -4.959  -1.361  0.00  0.00     0.037 A 
ATOM     25  C   UNL d   1      10.205  -5.284  -1.619  0.00  0.00     0.012 A 
ATOM     26  C   UNL d   1      10.723  -6.538  -1.259  0.00  0.00    -0.035 A 
ATOM     27  C   UNL d   1       9.853  -7.459  -0.651  0.00  0.00     0.012 A 
ATOM     28  C   UNL d   1       8.515  -7.137  -0.405  0.00  0.00     0.037 A 
BRANCH  26  29
ATOM     29  C   UNL d   1      12.186  -6.855  -1.499  0.00  0.00     0.141 C 
ATOM     30  S   UNL d   1      12.424  -8.317  -2.566  0.00  0.00    -0.148 SA
ATOM     31  C   UNL d   1      13.773  -9.057  -1.612  0.00  0.00     0.085 C 
ATOM     32  C   UNL d   1      13.475  -8.832  -0.144  0.00  0.00     0.085 C 
ATOM     33  S   UNL d   1      13.097  -7.075   0.071  0.00  0.00    -0.148 SA
ENDBRANCH  26  29
ENDBRANCH  22  23
ENDBRANCH  21  22
ENDBRANCH   4  21
TORSDOF 8
