REMARK  2 active torsions:
REMARK  status: ('A' for Active; 'I' for Inactive)
REMARK    1  A    between atoms: C_2  and  C_1 
REMARK    2  A    between atoms: C_4  and  C_2 
ROOT
ATOM      1  C   UNL d   1      -1.643   3.148  -0.016  0.00  0.00     0.015 A 
ATOM      2  C   UNL d   1      -2.099   3.946  -1.078  0.00  0.00     0.018 A 
ATOM      3  C   UNL d   1      -2.503   2.871   1.057  0.00  0.00     0.018 A 
ATOM      4  C   UNL d   1      -4.263   4.103  -0.035  0.00  0.00     0.116 A 
ATOM      5  C   UNL d   1      -3.820   3.337   1.037  0.00  0.00     0.043 A 
ATOM      6  C   UNL d   1      -3.413   4.420  -1.088  0.00  0.00     0.043 A 
ATOM      7  F   UNL d   1      -5.525   4.552  -0.047  0.00  0.00    -0.206 F 
ENDROOT
BRANCH   1   8
ATOM      8  C   UNL d   1      -0.224   2.684  -0.036  0.00  0.00     0.199 C 
ATOM      9  O   UNL d   1       0.600   3.465  -0.519  0.00  0.00    -0.286 OA
BRANCH   8  10
ATOM     10  C   UNL d   1       0.171   1.395   0.518  0.00  0.00     0.055 A 
ATOM     11  S   UNL d   1      -0.866   0.030   0.535  0.00  0.00    -0.098 SA
ATOM     12  C   UNL d   1       0.313  -0.948   1.293  0.00  0.00     0.050 A 
ATOM     13  C   UNL d   1       1.502  -0.278   1.468  0.00  0.00     0.009 A 
ATOM     14  C   UNL d   1       1.425   1.065   1.000  0.00  0.00     0.023 A 
ENDBRANCH   8  10
ENDBRANCH   1   8
TORSDOF 2
