REMARK  6 active torsions:
REMARK  status: ('A' for Active; 'I' for Inactive)
REMARK    1  A    between atoms: S_2  and  C_1 
REMARK    2  A    between atoms: O_8  and  S_2 
REMARK    3  A    between atoms: S_3  and  C_4 
REMARK    4  A    between atoms: O_9  and  S_3 
REMARK    5  A    between atoms: C_10  and  O_8 
REMARK    6  A    between atoms: C_11  and  O_9 
ROOT
ATOM      1  C   UNL d   1      -0.297   1.466   0.200  0.00  0.00     0.117 A 
ATOM      2  C   UNL d   1      -2.167   0.046   0.105  0.00  0.00     0.130 A 
ATOM      3  C   UNL d   1      -1.730   1.358   0.169  0.00  0.00     0.061 A 
ATOM      4  C   UNL d   1       0.285   0.223   0.169  0.00  0.00     0.100 A 
ATOM      5  S   UNL d   1      -0.851  -1.042   0.085  0.00  0.00    -0.062 SA
ATOM      6 CL   UNL d   1       1.944  -0.230   0.167  0.00  0.00    -0.074 Cl
ENDROOT
BRANCH   1   7
ATOM      7  S   UNL d   1       0.505   3.000   0.143  0.00  0.00     0.305 S 
ATOM      8  O   UNL d   1       1.911   2.754   0.361  0.00  0.00    -0.193 OA
ATOM      9  O   UNL d   1      -0.018   3.577  -1.079  0.00  0.00    -0.193 OA
BRANCH   7  10
ATOM     10  O   UNL d   1      -0.125   3.765   1.441  0.00  0.00    -0.229 OA
BRANCH  10  11
ATOM     11  C   UNL d   1       0.241   5.059   1.743  0.00  0.00     0.092 A 
ATOM     12  C   UNL d   1       0.639   6.005   0.795  0.00  0.00     0.062 A 
ATOM     13  C   UNL d   1       0.958   7.305   1.194  0.00  0.00     0.038 A 
ATOM     14 CL   UNL d   1       1.443   8.459   0.013  0.00  0.00    -0.084 Cl
ATOM     15  C   UNL d   1       0.878   7.681   2.531  0.00  0.00     0.048 A 
ATOM     16  C   UNL d   1       0.474   6.739   3.472  0.00  0.00     0.038 A 
ATOM     17  C   UNL d   1       0.150   5.434   3.087  0.00  0.00     0.062 A 
ATOM     18 CL   UNL d   1       0.365   7.193   5.129  0.00  0.00    -0.084 Cl
ENDBRANCH  10  11
ENDBRANCH   7  10
ENDBRANCH   1   7
BRANCH   2  19
ATOM     19  S   UNL d   1      -3.808  -0.654   0.046  0.00  0.00     0.309 S 
ATOM     20  O   UNL d   1      -3.741  -1.938   0.709  0.00  0.00    -0.192 OA
ATOM     21  O   UNL d   1      -4.646   0.427   0.525  0.00  0.00    -0.192 OA
BRANCH  19  22
ATOM     22  O   UNL d   1      -4.016  -0.851  -1.559  0.00  0.00    -0.229 OA
BRANCH  22  23
ATOM     23  C   UNL d   1      -5.191  -1.357  -2.071  0.00  0.00     0.092 A 
ATOM     24  C   UNL d   1      -6.428  -1.292  -1.425  0.00  0.00     0.062 A 
ATOM     25  C   UNL d   1      -7.565  -1.827  -2.038  0.00  0.00     0.038 A 
ATOM     26 CL   UNL d   1      -9.082  -1.745  -1.228  0.00  0.00    -0.084 Cl
ATOM     27  C   UNL d   1      -7.487  -2.419  -3.293  0.00  0.00     0.048 A 
ATOM     28  C   UNL d   1      -6.256  -2.468  -3.941  0.00  0.00     0.038 A 
ATOM     29  C   UNL d   1      -5.112  -1.937  -3.341  0.00  0.00     0.062 A 
ATOM     30 CL   UNL d   1      -6.147  -3.189  -5.499  0.00  0.00    -0.084 Cl
ENDBRANCH  22  23
ENDBRANCH  19  22
ENDBRANCH   2  19
TORSDOF 6
