REMARK  8 active torsions:
REMARK  status: ('A' for Active; 'I' for Inactive)
REMARK    1  A    between atoms: C_2  and  S_1 
REMARK    2  A    between atoms: N_4  and  S_1 
REMARK    3  A    between atoms: C_9  and  N_4 
REMARK    4  A    between atoms: C_10  and  N_4 
REMARK    5  A    between atoms: C_8  and  C_5 
REMARK    6  A    between atoms: O_21  and  C_8 
REMARK    7  A    between atoms: C_18  and  C_9 
REMARK    8  A    between atoms: C_19  and  C_10 
ROOT
ATOM      1  N   UNL d   1       0.354  -1.273  -0.718  0.00  0.00    -0.294 N 
ENDROOT
BRANCH   1   2
ATOM      2  S   UNL d   1       0.900   0.238  -0.183  0.00  0.00     0.277 S 
ATOM      3  O   UNL d   1       2.128   0.574  -0.871  0.00  0.00    -0.199 OA
ATOM      4  O   UNL d   1      -0.201   1.172  -0.097  0.00  0.00    -0.199 OA
BRANCH   2   5
ATOM      5  C   UNL d   1       1.490   0.030   1.502  0.00  0.00     0.151 A 
ATOM      6  N   UNL d   1       0.794   0.280   2.675  0.00  0.00    -0.336 N 
ATOM      7  C   UNL d   1       1.654   0.199   3.773  0.00  0.00     0.111 A 
ATOM      8  C   UNL d   1      -0.610   0.619   2.805  0.00  0.00     0.157 C 
ATOM      9  C   UNL d   1       2.884  -0.206   3.280  0.00  0.00     0.039 A 
ATOM     10  C   UNL d   1       2.777  -0.329   1.887  0.00  0.00     0.046 A 
BRANCH   7  11
ATOM     11  C   UNL d   1       1.307   0.497   5.152  0.00  0.00     0.309 C 
ATOM     12  O   UNL d   1       0.202   0.833   5.560  0.00  0.00    -0.258 OA
BRANCH  11  13
ATOM     13  O   UNL d   1       2.411   0.359   5.942  0.00  0.00    -0.321 OA
ATOM     14  C   UNL d   1       2.194   0.640   7.324  0.00  0.00     0.213 C 
ENDBRANCH  11  13
ENDBRANCH   7  11
ENDBRANCH   2   5
ENDBRANCH   1   2
BRANCH   1  15
ATOM     15  C   UNL d   1      -1.116  -1.486  -0.611  0.00  0.00     0.192 C 
BRANCH  15  16
ATOM     16  C   UNL d   1      -1.653  -2.834  -1.078  0.00  0.00     0.027 A 
ATOM     17  N   UNL d   1      -1.137  -3.960  -0.515  0.00  0.00    -0.368 N 
ATOM     18  C   UNL d   1      -1.607  -5.148  -0.958  0.00  0.00     0.088 A 
ATOM     19  HN  UNL d   1      -0.424  -3.911   0.212  1.00  0.00     0.165 HD
ATOM     20  C   UNL d   1      -2.582  -5.283  -1.933  0.00  0.00     0.017 A 
ATOM     21  C   UNL d   1      -3.110  -4.127  -2.491  0.00  0.00     0.003 A 
ATOM     22  C   UNL d   1      -2.642  -2.887  -2.062  0.00  0.00     0.027 A 
ENDBRANCH  15  16
ENDBRANCH   1  15
BRANCH   1  23
ATOM     23  C   UNL d   1       0.972  -1.760  -1.983  0.00  0.00     0.192 C 
BRANCH  23  24
ATOM     24  C   UNL d   1       0.853  -0.838  -3.186  0.00  0.00     0.027 A 
ATOM     25  N   UNL d   1      -0.393  -0.522  -3.627  0.00  0.00    -0.368 N 
ATOM     26  C   UNL d   1      -0.475   0.343  -4.664  0.00  0.00     0.088 A 
ATOM     27  HN  UNL d   1      -1.228  -0.920  -3.197  1.00  0.00     0.165 HD
ATOM     28  C   UNL d   1       0.622   0.910  -5.292  0.00  0.00     0.017 A 
ATOM     29  C   UNL d   1       1.888   0.566  -4.839  0.00  0.00     0.003 A 
ATOM     30  C   UNL d   1       2.008  -0.325  -3.779  0.00  0.00     0.027 A 
ENDBRANCH  23  24
ENDBRANCH   1  23
TORSDOF 8
