REMARK  2 active torsions:
REMARK  status: ('A' for Active; 'I' for Inactive)
REMARK    1  A    between atoms: C_9  and  C_1 
REMARK    2  A    between atoms: C_12  and  C_10 
REMARK       I    between atoms: N_18  and  C_12 
ROOT
ATOM      1  C   UNL d   1       0.356   0.973  -0.059  0.00  0.00     0.134 A 
ATOM      2  C   UNL d   1       0.138  -1.253   0.114  0.00  0.00     0.069 A 
ATOM      3  N   UNL d   1       1.460   0.546   0.580  0.00  0.00    -0.294 N 
ATOM      4  HN  UNL d   1       2.233   1.111   0.932  1.00  0.00     0.187 HD
ATOM      5  C   UNL d   1      -0.485  -0.123  -0.384  0.00  0.00     0.068 A 
ATOM      6  N   UNL d   1       1.319  -0.793   0.653  0.00  0.00    -0.295 N 
ATOM      7  C   UNL d   1      -0.326  -2.615   0.070  0.00  0.00     0.034 A 
ATOM      8  S   UNL d   1      -0.029  -3.730   1.333  0.00  0.00    -0.083 SA
ATOM      9  C   UNL d   1      -0.823  -5.011   0.527  0.00  0.00     0.073 A 
ATOM     10  C   UNL d   1      -1.106  -3.194  -0.914  0.00  0.00     0.023 A 
ATOM     11  C   UNL d   1      -1.386  -4.571  -0.656  0.00  0.00     0.026 A 
ATOM     12  C   UNL d   1       2.410  -1.550   1.226  0.00  0.00     0.178 C 
ENDROOT
BRANCH   1  13
ATOM     13  C   UNL d   1       0.089   2.423  -0.362  0.00  0.00     0.434 C 
ATOM     14  F   UNL d   1       1.070   3.263   0.061  0.00  0.00    -0.165 F 
ATOM     15  F   UNL d   1      -0.055   2.635  -1.700  0.00  0.00    -0.165 F 
ATOM     16  F   UNL d   1      -1.066   2.849   0.218  0.00  0.00    -0.165 F 
ENDBRANCH   1  13
BRANCH   9  17
ATOM     17  C   UNL d   1      -0.866  -6.360   1.081  0.00  0.00     0.258 C 
ATOM     18  O   UNL d   1      -1.480  -7.280   0.545  0.00  0.00    -0.267 OA
ATOM     19  N   UNL d   1      -0.149  -6.540   2.247  0.00  0.00    -0.361 N 
ATOM     20  C   UNL d   1      -0.043  -7.799   2.935  0.00  0.00     0.149 C 
ATOM     21  H   UNL d   1       0.339  -5.738   2.626  0.00  0.00     0.162 HD
ENDBRANCH   9  17
TORSDOF 2
