REMARK  6 active torsions:
REMARK  status: ('A' for Active; 'I' for Inactive)
REMARK    1  A    between atoms: N_3  and  S_1 
REMARK    2  A    between atoms: C_2  and  N_3 
REMARK    3  A    between atoms: C_10  and  N_3 
REMARK    4  A    between atoms: C_5  and  C_4 
REMARK    5  A    between atoms: O_15  and  C_5 
REMARK    6  A    between atoms: C_16  and  C_10 
ROOT
ATOM      1  N   UNL d   1       0.482  -1.520   0.323  0.00  0.00    -0.271 N 
ENDROOT
BRANCH   1   2
ATOM      2  C   UNL d   1      -0.162  -1.662   1.612  0.00  0.00     0.063 A 
ATOM      3  C   UNL d   1      -1.551  -1.550   1.871  0.00  0.00     0.067 A 
ATOM      4  C   UNL d   1      -1.987  -1.528   3.215  0.00  0.00     0.022 A 
ATOM      5  C   UNL d   1      -1.083  -1.617   4.275  0.00  0.00     0.025 A 
ATOM      6  C   UNL d   1       0.273  -1.750   4.011  0.00  0.00     0.036 A 
ATOM      7  C   UNL d   1       0.730  -1.777   2.696  0.00  0.00     0.055 A 
ATOM      8 CL   UNL d   1       1.388  -1.847   5.315  0.00  0.00    -0.084 Cl
BRANCH   3   9
ATOM      9  C   UNL d   1      -2.584  -1.424   0.791  0.00  0.00     0.295 C 
ATOM     10  O   UNL d   1      -2.345  -1.320  -0.401  0.00  0.00    -0.259 OA
BRANCH   9  11
ATOM     11  O   UNL d   1      -3.837  -1.430   1.315  0.00  0.00    -0.322 OA
ATOM     12  C   UNL d   1      -4.890  -1.281   0.358  0.00  0.00     0.213 C 
ENDBRANCH   9  11
ENDBRANCH   3   9
ENDBRANCH   1   2
BRANCH   1  13
ATOM     13  S   UNL d   1       1.005   0.042  -0.095  0.00  0.00     0.229 S 
ATOM     14  O   UNL d   1       1.919  -0.062  -1.215  0.00  0.00    -0.206 OA
ATOM     15  O   UNL d   1       1.405   0.742   1.107  0.00  0.00    -0.206 OA
ATOM     16  C   UNL d   1      -0.460   0.848  -0.705  0.00  0.00     0.186 C 
ENDBRANCH   1  13
BRANCH   1  17
ATOM     17  C   UNL d   1       0.220  -2.496  -0.758  0.00  0.00     0.180 C 
BRANCH  17  18
ATOM     18  C   UNL d   1       1.259  -3.593  -0.926  0.00  0.00    -0.039 A 
ATOM     19  C   UNL d   1       0.865  -4.942  -0.883  0.00  0.00     0.009 A 
ATOM     20  C   UNL d   1       1.767  -5.964  -1.189  0.00  0.00     0.001 A 
ATOM     21  C   UNL d   1       3.079  -5.655  -1.536  0.00  0.00     0.000 A 
ATOM     22  C   UNL d   1       3.494  -4.327  -1.558  0.00  0.00     0.001 A 
ATOM     23  C   UNL d   1       2.591  -3.302  -1.252  0.00  0.00     0.009 A 
ENDBRANCH  17  18
ENDBRANCH   1  17
TORSDOF 6
