REMARK  4 active torsions:
REMARK  status: ('A' for Active; 'I' for Inactive)
REMARK    1  A    between atoms: C_2  and  S_1 
REMARK    2  A    between atoms: C_3  and  S_1 
REMARK    3  A    between atoms: N_11  and  N_4 
REMARK    4  A    between atoms: C_15  and  N_11 
ROOT
ATOM      1  C   UNL d   1       0.416   1.599   0.419  0.00  0.00     0.229 C 
ATOM      2  N   UNL d   1      -0.229   2.339  -0.439  0.00  0.00    -0.281 N 
ATOM      3  HN  UNL d   1      -0.512   3.285  -0.184  1.00  0.00     0.188 HD
ATOM      4  C   UNL d   1       0.817   0.267   0.061  0.00  0.00     0.132 C 
ATOM      5  N   UNL d   1       1.101  -0.807  -0.278  0.00  0.00    -0.189 NA
ENDROOT
BRANCH   1   6
ATOM      6  S   UNL d   1       0.860   2.127   2.016  0.00  0.00     0.240 S 
ATOM      7  O   UNL d   1       2.311   2.183   2.049  0.00  0.00    -0.214 OA
ATOM      8  O   UNL d   1       0.108   1.328   2.966  0.00  0.00    -0.214 OA
BRANCH   6   9
ATOM      9  C   UNL d   1       0.345   3.806   2.280  0.00  0.00     0.106 A 
ATOM     10  S   UNL d   1      -1.329   4.139   2.163  0.00  0.00    -0.090 SA
ATOM     11  C   UNL d   1      -1.100   5.781   2.594  0.00  0.00     0.051 A 
ATOM     12  C   UNL d   1       0.224   6.072   2.834  0.00  0.00     0.009 A 
ATOM     13  C   UNL d   1       1.058   4.933   2.650  0.00  0.00     0.032 A 
ENDBRANCH   6   9
ENDBRANCH   1   6
BRANCH   2  14
ATOM     14  N   UNL d   1      -0.526   1.847  -1.681  0.00  0.00    -0.299 N 
ATOM     15  H   UNL d   1      -0.637   0.845  -1.858  0.00  0.00     0.187 HD
BRANCH  14  16
ATOM     16  C   UNL d   1      -1.305   2.648  -2.544  0.00  0.00     0.048 A 
ATOM     17  C   UNL d   1      -1.613   3.985  -2.246  0.00  0.00     0.034 A 
ATOM     18  C   UNL d   1      -2.329   4.777  -3.147  0.00  0.00     0.044 A 
ATOM     19  C   UNL d   1      -2.721   4.242  -4.365  0.00  0.00     0.116 A 
ATOM     20  C   UNL d   1      -2.405   2.932  -4.702  0.00  0.00     0.044 A 
ATOM     21  F   UNL d   1      -3.401   5.003  -5.232  0.00  0.00    -0.206 F 
ATOM     22  C   UNL d   1      -1.692   2.140  -3.798  0.00  0.00     0.034 A 
ENDBRANCH  14  16
ENDBRANCH   2  14
TORSDOF 4
