REMARK  7 active torsions:
REMARK  status: ('A' for Active; 'I' for Inactive)
REMARK    1  A    between atoms: C_7  and  C_3 
REMARK       I    between atoms: C_8  and  N_9 
REMARK    2  A    between atoms: C_20  and  C_8 
REMARK    3  A    between atoms: N_9  and  C_15 
REMARK    4  A    between atoms: C_10  and  C_21 
REMARK    5  A    between atoms: O_17  and  C_10 
REMARK    6  A    between atoms: O_16  and  C_20 
REMARK    7  A    between atoms: C_21  and  O_16 
ROOT
ATOM      1  C   UNL d   1       2.069  -2.352  -0.065  0.00  0.00    -0.009 A 
ATOM      2  C   UNL d   1       1.970  -3.252  -1.133  0.00  0.00     0.016 A 
ATOM      3  C   UNL d   1       3.034  -2.586   0.920  0.00  0.00     0.016 A 
ATOM      4  C   UNL d   1       3.787  -4.586  -0.230  0.00  0.00     0.034 A 
ATOM      5  C   UNL d   1       3.884  -3.694   0.837  0.00  0.00     0.030 A 
ATOM      6  C   UNL d   1       2.835  -4.349  -1.227  0.00  0.00     0.030 A 
ENDROOT
BRANCH   4   7
ATOM      7  N   UNL d   1       4.622  -5.713  -0.369  0.00  0.00    -0.325 N 
ATOM      8  C   UNL d   1       5.431  -6.258   0.617  0.00  0.00     0.245 C 
ATOM      9  O   UNL d   1       5.469  -5.924   1.798  0.00  0.00    -0.271 OA
ATOM     10  H   UNL d   1       4.584  -6.203  -1.249  0.00  0.00     0.169 HD
BRANCH   8  11
ATOM     11  C   UNL d   1       6.270  -7.428   0.114  0.00  0.00     0.271 C 
BRANCH  11  12
ATOM     12  O   UNL d   1       7.072  -7.052  -1.011  0.00  0.00    -0.372 OA
BRANCH  12  13
ATOM     13  C   UNL d   1       8.065  -8.043  -1.286  0.00  0.00     0.277 C 
BRANCH  13  14
ATOM     14  C   UNL d   1       7.441  -9.209  -2.035  0.00  0.00     0.164 C 
ATOM     15  O   UNL d   1       7.630 -10.387  -1.777  0.00  0.00    -0.648 OA
BRANCH  14  16
ATOM     16  O   UNL d   1       6.618  -8.785  -3.029  0.00  0.00    -0.775 OA
ATOM     17  H   UNL d   1       6.594  -7.805  -3.052  0.00  0.00     0.167 HD
ENDBRANCH  14  16
ENDBRANCH  13  14
ENDBRANCH  12  13
ENDBRANCH  11  12
ENDBRANCH   8  11
ENDBRANCH   4   7
BRANCH   1  18
ATOM     18  C   UNL d   1       1.178  -1.201   0.002  0.00  0.00     0.049 A 
ATOM     19  N   UNL d   1      -0.105  -1.250  -0.520  0.00  0.00    -0.353 N 
ATOM     20  C   UNL d   1      -0.709  -0.096  -0.335  0.00  0.00     0.047 A 
ATOM     21  HN  UNL d   1      -0.519  -2.060  -0.981  1.00  0.00     0.166 HD
ATOM     22  S   UNL d   1       0.229   1.118   0.440  0.00  0.00    -0.087 SA
ATOM     23  C   UNL d   1      -2.104   0.204  -0.757  0.00  0.00     0.076 C 
ATOM     24  C   UNL d   1       1.535   0.016   0.551  0.00  0.00     0.081 A 
ENDBRANCH   1  18
TORSDOF 7
