REMARK  2 active torsions:
REMARK  status: ('A' for Active; 'I' for Inactive)
REMARK    1  A    between atoms: C_4  and  N_1 
REMARK    2  A    between atoms: N_2  and  C_3 
ROOT
ATOM      1  C   UNL d   1      -9.548   4.263   7.733  0.00  0.00     0.105 A 
ATOM      2  C   UNL d   1       0.147   1.097   0.642  0.00  0.00     0.105 A 
ATOM      3  C   UNL d   1      -0.984   0.726   1.379  0.00  0.00     0.075 A 
ATOM      4  C   UNL d   1      -8.779   3.280   7.097  0.00  0.00     0.075 A 
ATOM      5  C   UNL d   1      -7.640   3.659   6.386  0.00  0.00     0.104 A 
ATOM      6  C   UNL d   1      -1.719   1.715   2.033  0.00  0.00     0.104 A 
ATOM      7  C   UNL d   1      -1.368   3.064   1.899  0.00  0.00     0.102 A 
ATOM      8  C   UNL d   1      -7.311   5.014   6.257  0.00  0.00     0.102 A 
ATOM      9  O   UNL d   1      -6.870   2.739   5.728  0.00  0.00    -0.346 OA
ATOM     10  O   UNL d   1      -2.841   1.388   2.748  0.00  0.00    -0.346 OA
ATOM     11  O   UNL d   1      -6.183   5.362   5.562  0.00  0.00    -0.346 OA
ATOM     12  O   UNL d   1      -2.116   4.001   2.558  0.00  0.00    -0.346 OA
ATOM     13  C   UNL d   1      -9.196   5.618   7.646  0.00  0.00     0.039 A 
ATOM     14  C   UNL d   1       0.540   2.440   0.550  0.00  0.00     0.039 A 
ATOM     15  C   UNL d   1      -8.072   5.990   6.907  0.00  0.00     0.042 A 
ATOM     16  C   UNL d   1      -0.220   3.423   1.185  0.00  0.00     0.042 A 
ATOM     17  O   UNL d   1      -4.590   5.613   2.987  0.00  0.00    -0.387 OA
ATOM     18  O   UNL d   1      -4.423   1.094   5.294  0.00  0.00    -0.387 OA
ATOM     19  C   UNL d   1      -6.397   1.671   6.566  0.00  0.00     0.201 C 
ATOM     20  C   UNL d   1      -2.553   0.532   3.867  0.00  0.00     0.201 C 
ATOM     21  C   UNL d   1      -6.473   6.171   4.410  0.00  0.00     0.201 C 
ATOM     22  C   UNL d   1      -2.614   5.043   1.703  0.00  0.00     0.201 C 
ATOM     23  C   UNL d   1      -4.141   5.048   1.751  0.00  0.00     0.194 C 
ATOM     24  C   UNL d   1      -4.870   1.650   6.534  0.00  0.00     0.194 C 
ATOM     25  C   UNL d   1      -6.005   5.455   3.143  0.00  0.00     0.194 C 
ATOM     26  C   UNL d   1      -3.003   1.212   5.158  0.00  0.00     0.194 C 
ENDROOT
BRANCH   1  27
ATOM     27  N   UNL d   1     -10.729   3.866   8.508  0.00  0.00    -0.116 N 
ATOM     28  O   UNL d   1     -10.996   2.657   8.574  0.00  0.00    -0.532 OA
ATOM     29  O   UNL d   1     -11.387   4.762   9.055  0.00  0.00    -0.532 OA
ENDBRANCH   1  27
BRANCH   2  30
ATOM     30  N   UNL d   1       0.933   0.064  -0.038  0.00  0.00    -0.116 N 
ATOM     31  O   UNL d   1       0.560  -1.110   0.069  0.00  0.00    -0.532 OA
ATOM     32  O   UNL d   1       1.929   0.425  -0.679  0.00  0.00    -0.532 OA
ENDBRANCH   2  30
TORSDOF 2
