REMARK  2 active torsions:
REMARK  status: ('A' for Active; 'I' for Inactive)
REMARK    1  A    between atoms: C_9  and  C_3 
REMARK    2  A    between atoms: C_11  and  C_4 
ROOT
ATOM      1  N   UNL d   1      -0.830  -0.485   0.494  0.00  0.00    -0.321 N 
ATOM      2  HN  UNL d   1      -0.641  -0.061   1.403  1.00  0.00     0.169 HD
ATOM      3  C   UNL d   1      -0.069  -1.296  -0.208  0.00  0.00     0.178 A 
ATOM      4  C   UNL d   1      -1.944  -0.352  -0.301  0.00  0.00     0.138 A 
ATOM      5  N   UNL d   1      -1.857  -0.992  -1.478  0.00  0.00    -0.242 N 
ATOM      6  HN  UNL d   1      -2.540  -1.014  -2.236  1.00  0.00     0.196 HD
ATOM      7  O   UNL d   1      -0.611  -1.621  -1.419  0.00  0.00    -0.220 OA
ENDROOT
BRANCH   3   8
ATOM      8  C   UNL d   1       1.176  -2.003   0.215  0.00  0.00     0.206 C 
ATOM      9  O   UNL d   1       2.040  -2.201  -0.910  0.00  0.00    -0.337 OA
ATOM     10  C   UNL d   1       2.989  -1.244  -1.138  0.00  0.00     0.076 A 
ATOM     11  C   UNL d   1       3.738  -1.403  -2.301  0.00  0.00     0.037 A 
ATOM     12  C   UNL d   1       3.239  -0.168  -0.279  0.00  0.00    -0.025 A 
ATOM     13  C   UNL d   1       4.727  -0.476  -2.635  0.00  0.00     0.003 A 
ATOM     14  C   UNL d   1       4.955   0.619  -1.806  0.00  0.00     0.001 A 
ATOM     15  C   UNL d   1       4.213   0.774  -0.634  0.00  0.00     0.010 A 
ATOM     16  C   UNL d   1       2.470  -0.006   0.996  0.00  0.00     0.044 C 
ATOM     17  C   UNL d   1       1.865  -1.340   1.406  0.00  0.00     0.046 C 
ENDBRANCH   3   8
BRANCH   4  18
ATOM     18  C   UNL d   1      -3.144   0.294   0.209  0.00  0.00     0.010 A 
ATOM     19  C   UNL d   1      -3.041   1.263   1.220  0.00  0.00     0.017 A 
ATOM     20  C   UNL d   1      -4.187   1.780   1.828  0.00  0.00     0.025 A 
ATOM     21  C   UNL d   1      -5.443   1.327   1.430  0.00  0.00     0.034 A 
ATOM     22  C   UNL d   1      -5.564   0.388   0.408  0.00  0.00     0.025 A 
ATOM     23 CL   UNL d   1      -6.852   1.910   2.227  0.00  0.00    -0.084 Cl
ATOM     24  C   UNL d   1      -4.417  -0.122  -0.209  0.00  0.00     0.017 A 
ENDBRANCH   4  18
TORSDOF 2
