REMARK  5 active torsions:
REMARK  status: ('A' for Active; 'I' for Inactive)
REMARK    1  A    between atoms: N_2  and  S_1 
REMARK    2  A    between atoms: C_3  and  S_1 
REMARK    3  A    between atoms: C_4  and  N_2 
REMARK    4  A    between atoms: C_13  and  C_4 
REMARK    5  A    between atoms: C_8  and  C_16 
REMARK       I    between atoms: N_22  and  C_8 
ROOT
ATOM      1  C   UNL d   1       1.461  -1.790   1.908  0.00  0.00     0.118 C 
ATOM      2  N   UNL d   1       2.737  -1.643   1.858  0.00  0.00    -0.384 N 
ATOM      3  HN  UNL d   1       3.396  -2.014   2.542  1.00  0.00     0.157 HD
ATOM      4  H   UNL d   1       2.996  -1.094   1.022  0.00  0.00     0.157 HD
ENDROOT
BRANCH   1   5
ATOM      5  N   UNL d   1       0.592  -1.227   0.966  0.00  0.00    -0.265 N 
ATOM      6  H   UNL d   1      -0.294  -1.687   0.771  0.00  0.00     0.180 HD
BRANCH   5   7
ATOM      7  S   UNL d   1       0.914  -0.016  -0.134  0.00  0.00     0.264 S 
ATOM      8  O   UNL d   1       0.020  -0.250  -1.247  0.00  0.00    -0.200 OA
ATOM      9  O   UNL d   1       2.342   0.113  -0.300  0.00  0.00    -0.200 OA
BRANCH   7  10
ATOM     10  C   UNL d   1       0.329   1.413   0.751  0.00  0.00     0.081 A 
ATOM     11  C   UNL d   1       0.866   1.698   2.012  0.00  0.00     0.035 A 
ATOM     12  C   UNL d   1       0.364   2.771   2.755  0.00  0.00    -0.021 A 
ATOM     13  C   UNL d   1       0.893   3.082   4.122  0.00  0.00     0.051 C 
ATOM     14  C   UNL d   1      -0.659   3.557   2.207  0.00  0.00     0.128 A 
ATOM     15  C   UNL d   1      -1.192   3.292   0.940  0.00  0.00    -0.021 A 
ATOM     16  F   UNL d   1      -1.139   4.585   2.922  0.00  0.00    -0.205 F 
ATOM     17  C   UNL d   1      -0.692   2.204   0.210  0.00  0.00     0.035 A 
ATOM     18  C   UNL d   1      -2.280   4.151   0.367  0.00  0.00     0.051 C 
ENDBRANCH   7  10
ENDBRANCH   5   7
ENDBRANCH   1   5
BRANCH   1  19
ATOM     19  C   UNL d   1       0.815  -2.567   2.995  0.00  0.00     0.008 A 
ATOM     20  C   UNL d   1       1.538  -3.583   3.631  0.00  0.00     0.016 A 
ATOM     21  C   UNL d   1       0.959  -4.329   4.665  0.00  0.00     0.018 A 
ATOM     22  C   UNL d   1      -0.351  -4.059   5.082  0.00  0.00     0.031 A 
ATOM     23  C   UNL d   1      -1.063  -3.024   4.457  0.00  0.00     0.018 A 
ATOM     24  C   UNL d   1      -0.489  -2.283   3.418  0.00  0.00     0.016 A 
BRANCH  22  25
ATOM     25  C   UNL d   1      -1.043  -4.820   6.163  0.00  0.00     0.249 C 
ATOM     26  O   UNL d   1      -2.184  -4.534   6.511  0.00  0.00    -0.268 OA
ATOM     27  N   UNL d   1      -0.391  -5.863   6.757  0.00  0.00    -0.366 N 
ATOM     28  H   UNL d   1       0.534  -6.188   6.523  0.00  0.00     0.159 HD
ATOM     29  H   UNL d   1      -0.903  -6.372   7.467  0.00  0.00     0.159 HD
ENDBRANCH  22  25
ENDBRANCH   1  19
TORSDOF 5
