REMARK  9 active torsions:
REMARK  status: ('A' for Active; 'I' for Inactive)
REMARK    1  A    between atoms: C_8  and  C_1 
REMARK    2  A    between atoms: C_24  and  C_3 
REMARK    3  A    between atoms: S_25  and  C_5 
REMARK    4  A    between atoms: S_6  and  C_18 
REMARK    5  A    between atoms: C_11  and  S_6 
REMARK    6  A    between atoms: C_7  and  C_12 
REMARK    7  A    between atoms: S_28  and  C_14 
REMARK    8  A    between atoms: C_18  and  C_33 
REMARK    9  A    between atoms: C_33  and  S_28 
ROOT
ATOM      1  C   UNL d   1       1.239  -1.302   0.017  0.00  0.00     0.045 A 
ATOM      2  C   UNL d   1      -0.256   0.378  -0.701  0.00  0.00     0.080 A 
ATOM      3  C   UNL d   1       0.684  -0.662  -1.104  0.00  0.00     0.016 A 
ATOM      4  S   UNL d   1       0.650  -0.594   1.476  0.00  0.00    -0.079 SA
ATOM      5  C   UNL d   1      -0.357   0.512   0.668  0.00  0.00     0.063 A 
ATOM      6  C   UNL d   1      -1.012   1.212  -1.602  0.00  0.00     0.102 C 
ATOM      7  N   UNL d   1      -1.667   1.849  -2.314  0.00  0.00    -0.191 NA
ENDROOT
BRANCH   3   8
ATOM      8  C   UNL d   1       1.033  -1.028  -2.498  0.00  0.00    -0.023 A 
ATOM      9  C   UNL d   1       2.352  -1.339  -2.866  0.00  0.00     0.012 A 
ATOM     10  C   UNL d   1       2.656  -1.793  -4.153  0.00  0.00     0.001 A 
ATOM     11  C   UNL d   1       1.663  -1.854  -5.123  0.00  0.00     0.000 A 
ATOM     12  C   UNL d   1       0.365  -1.470  -4.803  0.00  0.00     0.001 A 
ATOM     13  C   UNL d   1       0.049  -1.083  -3.496  0.00  0.00     0.012 A 
ENDBRANCH   3   8
BRANCH   5  14
ATOM     14  S   UNL d   1      -1.284   1.691   1.603  0.00  0.00    -0.126 SA
ATOM     15  C   UNL d   1      -2.991   1.191   1.277  0.00  0.00     0.096 C 
ENDBRANCH   5  14
BRANCH   1  16
ATOM     16  C   UNL d   1       2.182  -2.446   0.144  0.00  0.00     0.053 A 
ATOM     17  N   UNL d   1       2.055  -3.394  -0.804  0.00  0.00    -0.336 N 
ATOM     18  C   UNL d   1       2.932  -4.411  -0.796  0.00  0.00     0.144 A 
ATOM     19  HN  UNL d   1       1.316  -3.342  -1.505  1.00  0.00     0.168 HD
ATOM     20  N   UNL d   1       3.896  -4.578   0.120  0.00  0.00    -0.347 N 
ATOM     21  C   UNL d   1       3.973  -3.636   1.076  0.00  0.00     0.092 A 
ATOM     22  HN  UNL d   1       4.534  -5.374   0.093  1.00  0.00     0.167 HD
ATOM     23  C   UNL d   1       3.148  -2.533   1.129  0.00  0.00     0.048 A 
BRANCH  18  24
ATOM     24  S   UNL d   1       2.872  -5.512  -2.190  0.00  0.00    -0.093 SA
BRANCH  24  25
ATOM     25  C   UNL d   1       3.326  -7.097  -1.403  0.00  0.00     0.098 C 
BRANCH  25  26
ATOM     26  C   UNL d   1       3.209  -8.211  -2.438  0.00  0.00     0.158 C 
BRANCH  26  27
ATOM     27  S   UNL d   1       3.616  -9.785  -1.715  0.00  0.00     0.191 S 
ATOM     28  O   UNL d   1       5.016  -9.756  -1.327  0.00  0.00    -0.221 OA
ATOM     29  O   UNL d   1       2.585 -10.118  -0.747  0.00  0.00    -0.221 OA
BRANCH  27  30
ATOM     30  C   UNL d   1       3.483 -10.981  -3.035  0.00  0.00     0.128 A 
ATOM     31  N   UNL d   1       3.132 -10.479  -4.245  0.00  0.00    -0.356 N 
ATOM     32  C   UNL d   1       3.068 -11.376  -5.262  0.00  0.00     0.105 A 
ATOM     33  HN  UNL d   1       2.929  -9.489  -4.382  1.00  0.00     0.166 HD
ATOM     34  C   UNL d   1       3.339 -12.734  -5.126  0.00  0.00     0.063 A 
ATOM     35  C   UNL d   1       3.688 -13.203  -3.853  0.00  0.00     0.020 A 
ATOM     36  C   UNL d   1       3.765 -12.316  -2.781  0.00  0.00     0.042 A 
BRANCH  34  37
ATOM     37  C   UNL d   1       3.269 -13.654  -6.310  0.00  0.00     0.418 C 
ATOM     38  F   UNL d   1       2.917 -13.027  -7.466  0.00  0.00    -0.166 F 
ATOM     39  F   UNL d   1       4.460 -14.263  -6.564  0.00  0.00    -0.166 F 
ATOM     40  F   UNL d   1       2.365 -14.657  -6.140  0.00  0.00    -0.166 F 
ENDBRANCH  34  37
ENDBRANCH  27  30
ENDBRANCH  26  27
ENDBRANCH  25  26
ENDBRANCH  24  25
ENDBRANCH  18  24
ENDBRANCH   1  16
TORSDOF 9
