REMARK  8 active torsions:
REMARK  status: ('A' for Active; 'I' for Inactive)
REMARK    1  A    between atoms: N_3  and  S_1 
REMARK    2  A    between atoms: C_4  and  S_1 
REMARK    3  A    between atoms: S_2  and  C_11 
REMARK    4  A    between atoms: C_8  and  S_2 
REMARK    5  A    between atoms: C_5  and  N_3 
REMARK    6  A    between atoms: C_11  and  C_22 
REMARK    7  A    between atoms: S_20  and  C_15 
REMARK    8  A    between atoms: C_22  and  S_20 
ROOT
ATOM      1  C   UNL d   1       1.073   2.525   0.924  0.00  0.00     0.039 A 
ATOM      2  C   UNL d   1       2.387   2.524   1.430  0.00  0.00     0.022 A 
ATOM      3  C   UNL d   1       0.028   3.065   1.690  0.00  0.00     0.026 A 
ATOM      4  C   UNL d   1       2.623   3.102   2.690  0.00  0.00     0.020 A 
ATOM      5  C   UNL d   1       0.285   3.640   2.936  0.00  0.00     0.002 A 
ATOM      6  C   UNL d   1       1.583   3.666   3.433  0.00  0.00     0.001 A 
ENDROOT
BRANCH   1   7
ATOM      7  N   UNL d   1       0.742   1.917  -0.346  0.00  0.00    -0.180 NA
ATOM      8  H   UNL d   1      -0.029   2.434  -0.777  0.00  0.00     0.146 HD
BRANCH   7   9
ATOM      9  S   UNL d   1       0.163   0.312  -0.201  0.00  0.00     0.246 S 
ATOM     10  O   UNL d   1      -1.273   0.422  -0.061  0.00  0.00    -0.206 OA
ATOM     11  O   UNL d   1       0.972  -0.441   0.730  0.00  0.00    -0.206 OA
BRANCH   9  12
ATOM     12  C   UNL d   1       0.499  -0.315  -1.834  0.00  0.00     0.076 A 
ATOM     13  C   UNL d   1      -0.518  -0.334  -2.794  0.00  0.00     0.050 A 
ATOM     14  C   UNL d   1      -0.273  -0.899  -4.050  0.00  0.00     0.057 A 
ATOM     15 CL   UNL d   1      -1.569  -0.910  -5.192  0.00  0.00    -0.083 Cl
ATOM     16  C   UNL d   1       0.984  -1.445  -4.341  0.00  0.00     0.055 A 
ATOM     17  C   UNL d   1       1.994  -1.425  -3.372  0.00  0.00     0.027 A 
ATOM     18 CL   UNL d   1       1.349  -2.169  -5.866  0.00  0.00    -0.083 Cl
ATOM     19  C   UNL d   1       1.753  -0.865  -2.115  0.00  0.00     0.026 A 
ENDBRANCH   9  12
ENDBRANCH   7   9
ENDBRANCH   1   7
BRANCH   2  20
ATOM     20  S   UNL d   1       3.819   1.799   0.634  0.00  0.00    -0.127 SA
BRANCH  20  21
ATOM     21  C   UNL d   1       3.797   2.532  -1.037  0.00  0.00     0.095 C 
BRANCH  21  22
ATOM     22  C   UNL d   1       3.822   4.046  -1.038  0.00  0.00     0.156 C 
BRANCH  22  23
ATOM     23  S   UNL d   1       4.018   4.686  -2.689  0.00  0.00     0.176 S 
ATOM     24  O   UNL d   1       3.943   6.132  -2.623  0.00  0.00    -0.223 OA
ATOM     25  O   UNL d   1       5.160   4.032  -3.300  0.00  0.00    -0.223 OA
BRANCH  23  26
ATOM     26  C   UNL d   1       2.563   4.146  -3.565  0.00  0.00     0.059 A 
ATOM     27  C   UNL d   1       1.344   4.788  -3.318  0.00  0.00     0.025 A 
ATOM     28  C   UNL d   1       0.209   4.402  -4.035  0.00  0.00     0.025 A 
ATOM     29  C   UNL d   1       0.300   3.391  -4.993  0.00  0.00     0.034 A 
ATOM     30  C   UNL d   1       1.519   2.761  -5.246  0.00  0.00     0.025 A 
ATOM     31 CL   UNL d   1      -1.101   2.929  -5.875  0.00  0.00    -0.084 Cl
ATOM     32  C   UNL d   1       2.659   3.142  -4.535  0.00  0.00     0.025 A 
ENDBRANCH  23  26
ENDBRANCH  22  23
ENDBRANCH  21  22
ENDBRANCH  20  21
ENDBRANCH   2  20
TORSDOF 8
