REMARK  3 active torsions:
REMARK  status: ('A' for Active; 'I' for Inactive)
REMARK    1  A    between atoms: C_9  and  C_3 
REMARK    2  A    between atoms: C_10  and  C_6 
REMARK    3  A    between atoms: O_11  and  C_10 
ROOT
ATOM      1  N   UNL d   1      -0.407   1.120  -0.078  0.00  0.00    -0.345 N 
ATOM      2  HN  UNL d   1      -0.948   1.984  -0.098  1.00  0.00     0.167 HD
ATOM      3  C   UNL d   1       0.940   1.150  -0.056  0.00  0.00     0.115 A 
ATOM      4  N   UNL d   1       1.711   0.052  -0.031  0.00  0.00    -0.351 N 
ATOM      5  HN  UNL d   1       2.729   0.108  -0.022  1.00  0.00     0.166 HD
ATOM      6  C   UNL d   1      -0.318  -1.273  -0.030  0.00  0.00     0.003 A 
ATOM      7  C   UNL d   1      -1.026  -0.083  -0.071  0.00  0.00     0.016 A 
ATOM      8  C   UNL d   1       1.061  -1.128  -0.018  0.00  0.00     0.101 A 
ATOM      9  C   UNL d   1      -2.522   0.018  -0.077  0.00  0.00     0.069 C 
ENDROOT
BRANCH   3  10
ATOM     10  C   UNL d   1       1.592   2.475  -0.054  0.00  0.00     0.008 A 
ATOM     11  C   UNL d   1       0.833   3.662  -0.085  0.00  0.00     0.015 A 
ATOM     12  C   UNL d   1       1.438   4.920  -0.078  0.00  0.00     0.001 A 
ATOM     13  C   UNL d   1       2.828   5.024  -0.041  0.00  0.00     0.000 A 
ATOM     14  C   UNL d   1       3.604   3.868  -0.016  0.00  0.00     0.001 A 
ATOM     15  C   UNL d   1       2.992   2.611  -0.019  0.00  0.00     0.015 A 
ENDBRANCH   3  10
BRANCH   6  16
ATOM     16  C   UNL d   1      -0.906  -2.645   0.034  0.00  0.00     0.206 C 
BRANCH  16  17
ATOM     17  O   UNL d   1      -0.454  -3.429  -1.063  0.00  0.00    -0.396 OA
ATOM     18  H   UNL d   1      -0.776  -3.004  -1.877  0.00  0.00     0.209 HD
ENDBRANCH  16  17
ENDBRANCH   6  16
TORSDOF 3
