REMARK  2 active torsions:
REMARK  status: ('A' for Active; 'I' for Inactive)
REMARK    1  A    between atoms: C_2  and  C_1 
REMARK    2  A    between atoms: N_4  and  C_3 
REMARK       I    between atoms: C_9  and  N_4 
ROOT
ATOM      1  C   UNL d   1       0.543  -1.309  -0.603  0.00  0.00     0.065 A 
ATOM      2  C   UNL d   1      -0.220  -3.608  -1.948  0.00  0.00     0.129 A 
ATOM      3  N   UNL d   1       0.585  -3.709  -0.871  0.00  0.00    -0.350 N 
ATOM      4  HN  UNL d   1       0.913  -4.620  -0.551  1.00  0.00     0.166 HD
ATOM      5  C   UNL d   1      -0.683  -2.365  -2.395  0.00  0.00     0.079 A 
ATOM      6  C   UNL d   1      -0.297  -1.208  -1.715  0.00  0.00     0.045 A 
ATOM      7  C   UNL d   1       0.949  -2.578  -0.225  0.00  0.00     0.106 A 
ATOM      8 CL   UNL d   1      -1.719  -2.214  -3.769  0.00  0.00    -0.080 Cl
ENDROOT
BRANCH   2   9
ATOM      9  N   UNL d   1      -0.604  -4.765  -2.649  0.00  0.00    -0.312 N 
ATOM     10  C   UNL d   1      -0.221  -6.054  -2.341  0.00  0.00     0.219 C 
ATOM     11  O   UNL d   1       0.502  -6.414  -1.419  0.00  0.00    -0.274 OA
ATOM     12  C   UNL d   1      -0.779  -7.077  -3.299  0.00  0.00     0.117 C 
ATOM     13  H   UNL d   1      -1.205  -4.612  -3.448  0.00  0.00     0.170 HD
ENDBRANCH   2   9
BRANCH   1  14
ATOM     14  C   UNL d   1       1.013  -0.122   0.178  0.00  0.00     0.418 C 
ATOM     15  F   UNL d   1       0.552   1.062  -0.313  0.00  0.00    -0.166 F 
ATOM     16  F   UNL d   1       2.369  -0.015   0.198  0.00  0.00    -0.166 F 
ATOM     17  F   UNL d   1       0.619  -0.165   1.479  0.00  0.00    -0.166 F 
ENDBRANCH   1  14
TORSDOF 2
