REMARK  5 active torsions:
REMARK  status: ('A' for Active; 'I' for Inactive)
REMARK    1  A    between atoms: C_7  and  C_1 
REMARK    2  A    between atoms: O_10  and  C_4 
REMARK    3  A    between atoms: C_8  and  C_6 
REMARK    4  A    between atoms: O_11  and  C_7 
REMARK    5  A    between atoms: C_14  and  O_11 
ROOT
ATOM      1  C   UNL d   1      -0.154   1.112  -0.045  0.00  0.00     0.133 A 
ATOM      2  N   UNL d   1      -0.609  -1.181  -0.138  0.00  0.00    -0.329 N 
ATOM      3  HN  UNL d   1      -1.183  -2.020  -0.215  1.00  0.00     0.168 HD
ATOM      4  C   UNL d   1      -1.089   0.102  -0.115  0.00  0.00     0.164 A 
ATOM      5  S   UNL d   1       1.411   0.402  -0.042  0.00  0.00    -0.061 SA
ATOM      6  C   UNL d   1       0.707  -1.169  -0.045  0.00  0.00     0.087 A 
ENDROOT
BRANCH   6   7
ATOM      7  C   UNL d   1       1.532  -2.385   0.035  0.00  0.00    -0.002 A 
ATOM      8  C   UNL d   1       2.774  -2.423   0.688  0.00  0.00     0.014 A 
ATOM      9  C   UNL d   1       3.500  -3.613   0.778  0.00  0.00     0.001 A 
ATOM     10  C   UNL d   1       2.994  -4.785   0.217  0.00  0.00     0.000 A 
ATOM     11  C   UNL d   1       1.764  -4.767  -0.434  0.00  0.00     0.001 A 
ATOM     12  C   UNL d   1       1.037  -3.578  -0.520  0.00  0.00     0.014 A 
ENDBRANCH   6   7
BRANCH   1  13
ATOM     13  C   UNL d   1      -0.283   2.541   0.088  0.00  0.00     0.304 C 
ATOM     14  O   UNL d   1       0.641   3.336   0.225  0.00  0.00    -0.259 OA
BRANCH  13  15
ATOM     15  O   UNL d   1      -1.598   2.895   0.135  0.00  0.00    -0.317 OA
BRANCH  15  16
ATOM     16  C   UNL d   1      -1.885   4.169   0.722  0.00  0.00     0.174 C 
ATOM     17  C   UNL d   1      -2.005   3.978   2.225  0.00  0.00     0.034 C 
ENDBRANCH  15  16
ENDBRANCH  13  15
ENDBRANCH   1  13
BRANCH   4  18
ATOM     18  O   UNL d   1      -2.411   0.311  -0.120  0.00  0.00    -0.345 OA
ATOM     19  H   UNL d   1      -2.824  -0.570  -0.127  0.00  0.00     0.219 HD
ENDBRANCH   4  18
TORSDOF 5
