REMARK  7 active torsions:
REMARK  status: ('A' for Active; 'I' for Inactive)
REMARK    1  A    between atoms: N_6  and  S_1 
REMARK    2  A    between atoms: C_12  and  S_1 
REMARK    3  A    between atoms: C_2  and  C_8 
REMARK    4  A    between atoms: C_10  and  N_6 
REMARK    5  A    between atoms: C_21  and  N_6 
REMARK    6  A    between atoms: C_18  and  C_11 
REMARK    7  A    between atoms: C_19  and  C_21 
ROOT
ATOM      1  C   UNL d   1      -1.694  -1.661   0.197  0.00  0.00     0.043 A 
ATOM      2  C   UNL d   1      -2.893  -1.890   0.888  0.00  0.00     0.060 A 
ATOM      3  C   UNL d   1      -0.849  -2.738  -0.121  0.00  0.00     0.018 A 
ATOM      4  C   UNL d   1      -3.235  -3.202   1.236  0.00  0.00     0.031 A 
ATOM      5  C   UNL d   1      -1.202  -4.039   0.230  0.00  0.00     0.001 A 
ATOM      6  C   UNL d   1      -2.400  -4.271   0.898  0.00  0.00     0.002 A 
ENDROOT
BRANCH   1   7
ATOM      7  C   UNL d   1      -1.371  -0.385  -0.447  0.00  0.00     0.165 A 
ATOM      8  N   UNL d   1      -0.913  -0.308  -1.652  0.00  0.00    -0.331 N 
ATOM      9  C   UNL d   1      -0.880   1.034  -1.893  0.00  0.00     0.111 A 
ATOM     10  HN  UNL d   1      -0.640  -1.069  -2.274  1.00  0.00     0.168 HD
ATOM     11  C   UNL d   1      -0.645   1.625  -3.073  0.00  0.00     0.047 C 
ATOM     12  C   UNL d   1      -1.291   1.779  -0.668  0.00  0.00     0.316 A 
ATOM     13  O   UNL d   1      -1.603   0.773   0.208  0.00  0.00    -0.255 OA
ATOM     14  O   UNL d   1      -1.383   2.976  -0.493  0.00  0.00    -0.257 OA
BRANCH  11  15
ATOM     15  C   UNL d   1      -0.357   0.941  -4.353  0.00  0.00    -0.034 A 
ATOM     16  C   UNL d   1       0.162  -0.358  -4.440  0.00  0.00     0.012 A 
ATOM     17  C   UNL d   1       0.417  -0.959  -5.677  0.00  0.00     0.007 A 
ATOM     18  C   UNL d   1       0.177  -0.264  -6.864  0.00  0.00    -0.062 A 
ATOM     19  C   UNL d   1      -0.323   1.039  -6.790  0.00  0.00     0.007 A 
ATOM     20  C   UNL d   1       0.512  -0.896  -8.181  0.00  0.00     0.048 C 
ATOM     21  C   UNL d   1      -0.589   1.633  -5.549  0.00  0.00     0.012 A 
ENDBRANCH  11  15
ENDBRANCH   1   7
BRANCH   2  22
ATOM     22  N   UNL d   1      -3.825  -0.854   1.219  0.00  0.00    -0.267 N 
BRANCH  22  23
ATOM     23  S   UNL d   1      -3.687  -0.121   2.732  0.00  0.00     0.265 S 
ATOM     24  O   UNL d   1      -3.831   1.310   2.578  0.00  0.00    -0.200 OA
ATOM     25  O   UNL d   1      -2.552  -0.676   3.441  0.00  0.00    -0.200 OA
BRANCH  23  26
ATOM     26  C   UNL d   1      -5.152  -0.693   3.589  0.00  0.00     0.080 A 
ATOM     27  C   UNL d   1      -5.087  -1.836   4.396  0.00  0.00     0.027 A 
ATOM     28  C   UNL d   1      -6.202  -2.215   5.151  0.00  0.00     0.025 A 
ATOM     29  C   UNL d   1      -7.368  -1.448   5.103  0.00  0.00     0.034 A 
ATOM     30  C   UNL d   1      -7.433  -0.308   4.303  0.00  0.00     0.025 A 
ATOM     31 CL   UNL d   1      -8.727  -1.899   6.058  0.00  0.00    -0.084 Cl
ATOM     32  C   UNL d   1      -6.320   0.079   3.551  0.00  0.00     0.027 A 
ENDBRANCH  23  26
ENDBRANCH  22  23
BRANCH  22  33
ATOM     33  C   UNL d   1      -4.634  -0.229   0.166  0.00  0.00     0.168 C 
BRANCH  33  34
ATOM     34  C   UNL d   1      -5.999  -0.841   0.154  0.00  0.00    -0.016 C 
ATOM     35  C   UNL d   1      -7.129  -0.140  -0.008  0.00  0.00     0.008 C 
ENDBRANCH  33  34
ENDBRANCH  22  33
ENDBRANCH   2  22
TORSDOF 7
