REMARK  4 active torsions:
REMARK  status: ('A' for Active; 'I' for Inactive)
REMARK    1  A    between atoms: C_15  and  C_1 
REMARK    2  A    between atoms: C_5  and  N_9 
REMARK       I    between atoms: C_6  and  N_16 
REMARK       I    between atoms: N_9  and  C_6 
REMARK    3  A    between atoms: C_25  and  C_12 
REMARK    4  A    between atoms: N_16  and  C_22 
ROOT
ATOM      1  C   UNL d   1      -4.501   0.009   1.739  0.00  0.00    -0.002 A 
ATOM      2  C   UNL d   1      -5.178  -1.133   2.196  0.00  0.00     0.016 A 
ATOM      3  C   UNL d   1      -4.947   0.572   0.535  0.00  0.00     0.016 A 
ATOM      4  C   UNL d   1      -6.780  -1.015   0.358  0.00  0.00     0.036 A 
ATOM      5  C   UNL d   1      -6.297  -1.646   1.510  0.00  0.00     0.030 A 
ATOM      6  C   UNL d   1      -6.061   0.068  -0.143  0.00  0.00     0.030 A 
ENDROOT
BRANCH   4   7
ATOM      7  N   UNL d   1      -7.992  -1.469  -0.215  0.00  0.00    -0.309 N 
ATOM      8  C   UNL d   1      -8.680  -0.864  -1.265  0.00  0.00     0.325 C 
ATOM      9  N   UNL d   1      -9.900  -1.494  -1.475  0.00  0.00    -0.306 N 
ATOM     10  O   UNL d   1      -8.328   0.116  -1.898  0.00  0.00    -0.247 OA
ATOM     11  H   UNL d   1     -10.412  -1.626  -0.611  0.00  0.00     0.171 HD
ATOM     12  H   UNL d   1      -8.399  -2.300   0.172  0.00  0.00     0.170 HD
BRANCH   9  13
ATOM     13  C   UNL d   1     -10.724  -1.201  -2.604  0.00  0.00     0.071 A 
ATOM     14  C   UNL d   1     -10.278  -1.302  -3.933  0.00  0.00     0.039 A 
ATOM     15  C   UNL d   1     -11.190  -1.191  -4.997  0.00  0.00     0.029 A 
ATOM     16 BR   UNL d   1      -8.505  -1.796  -4.427  0.00  0.00    -0.049 Br
ATOM     17  C   UNL d   1     -12.561  -0.999  -4.772  0.00  0.00    -0.052 A 
ATOM     18  C   UNL d   1     -12.992  -0.815  -3.454  0.00  0.00     0.029 A 
ATOM     19  C   UNL d   1     -12.087  -0.920  -2.388  0.00  0.00     0.039 A 
ATOM     20 BR   UNL d   1     -12.769  -0.653  -0.629  0.00  0.00    -0.049 Br
BRANCH  17  21
ATOM     21  C   UNL d   1     -13.571  -1.110  -5.905  0.00  0.00     0.010 C 
ATOM     22  C   UNL d   1     -13.334  -0.101  -7.030  0.00  0.00     0.015 C 
ATOM     23  C   UNL d   1     -13.588  -2.542  -6.457  0.00  0.00     0.015 C 
ENDBRANCH  17  21
ENDBRANCH   9  13
ENDBRANCH   4   7
BRANCH   1  24
ATOM     24  C   UNL d   1      -3.383   0.592   2.519  0.00  0.00     0.085 A 
ATOM     25  N   UNL d   1      -3.025   0.209   3.732  0.00  0.00    -0.349 N 
ATOM     26  C   UNL d   1      -1.923   0.938   4.170  0.00  0.00     0.050 A 
ATOM     27  HN  UNL d   1      -3.492  -0.520   4.272  1.00  0.00     0.166 HD
ATOM     28  C   UNL d   1      -1.254   0.791   5.403  0.00  0.00     0.031 A 
ATOM     29  C   UNL d   1      -1.447   1.891   3.274  0.00  0.00     0.034 A 
ATOM     30  C   UNL d   1      -0.115   1.564   5.678  0.00  0.00     0.009 A 
ATOM     31  C   UNL d   1       0.368   2.490   4.750  0.00  0.00    -0.061 A 
ATOM     32  C   UNL d   1      -0.319   2.685   3.544  0.00  0.00     0.028 A 
ATOM     33  C   UNL d   1       1.603   3.291   5.049  0.00  0.00     0.048 C 
ATOM     34  S   UNL d   1      -2.437   1.888   1.879  0.00  0.00    -0.070 SA
ENDBRANCH   1  24
TORSDOF 4
