REMARK  5 active torsions:
REMARK  status: ('A' for Active; 'I' for Inactive)
REMARK    1  A    between atoms: N_2  and  S_1 
REMARK    2  A    between atoms: C_8  and  S_1 
REMARK       I    between atoms: C_4  and  N_2 
REMARK       I    between atoms: N_6  and  C_4 
REMARK    3  A    between atoms: C_5  and  O_9 
REMARK    4  A    between atoms: C_14  and  N_6 
REMARK    5  A    between atoms: O_9  and  C_16 
ROOT
ATOM      1  N   UNL d   1       1.194  -1.075   1.365  0.00  0.00    -0.265 N 
ATOM      2  HN  UNL d   1       2.167  -0.770   1.335  1.00  0.00     0.180 HD
ATOM      3  C   UNL d   1       0.957  -2.418   1.164  0.00  0.00     0.332 C 
ATOM      4  N   UNL d   1       2.078  -3.109   0.781  0.00  0.00    -0.308 N 
ATOM      5  O   UNL d   1      -0.127  -2.961   1.369  0.00  0.00    -0.246 OA
ATOM      6  H   UNL d   1       2.908  -2.547   0.895  0.00  0.00     0.170 HD
ENDROOT
BRANCH   1   7
ATOM      7  S   UNL d   1       0.135   0.009   1.629  0.00  0.00     0.056 S 
ATOM      8  O   UNL d   1       0.322   1.090   2.586  0.00  0.00    -0.245 OA
ATOM      9  C   UNL d   1      -0.151   0.825   0.075  0.00  0.00     0.142 C 
BRANCH   7  10
ATOM     10  C   UNL d   1      -1.442  -0.714   2.077  0.00  0.00     0.038 A 
ATOM     11  C   UNL d   1      -1.638  -1.069   3.417  0.00  0.00     0.022 A 
ATOM     12  C   UNL d   1      -2.845  -1.648   3.809  0.00  0.00     0.001 A 
ATOM     13  C   UNL d   1      -3.856  -1.859   2.871  0.00  0.00     0.000 A 
ATOM     14  C   UNL d   1      -3.661  -1.500   1.536  0.00  0.00     0.001 A 
ATOM     15  C   UNL d   1      -2.453  -0.929   1.132  0.00  0.00     0.022 A 
ENDBRANCH   7  10
ENDBRANCH   1   7
BRANCH   4  16
ATOM     16  C   UNL d   1       2.164  -4.513   0.769  0.00  0.00     0.036 C 
ATOM     17  C   UNL d   1       1.061  -5.321   0.480  0.00  0.00     0.032 C 
ATOM     18  C   UNL d   1       1.115  -6.696   0.693  0.00  0.00     0.039 C 
ATOM     19  C   UNL d   1       2.265  -7.263   1.229  0.00  0.00     0.078 C 
ATOM     20  C   UNL d   1       3.415  -6.486   1.377  0.00  0.00     0.039 C 
ATOM     21  C   UNL d   1       3.373  -5.110   1.133  0.00  0.00     0.032 C 
BRANCH  19  22
ATOM     22  O   UNL d   1       2.351  -8.580   1.567  0.00  0.00    -0.255 OA
BRANCH  22  23
ATOM     23  C   UNL d   1       1.317  -9.070   2.429  0.00  0.00     0.530 C 
ATOM     24  F   UNL d   1       0.324  -8.192   2.669  0.00  0.00    -0.144 F 
ATOM     25  F   UNL d   1       0.781 -10.177   1.873  0.00  0.00    -0.144 F 
ATOM     26  F   UNL d   1       1.867  -9.416   3.611  0.00  0.00    -0.144 F 
ENDBRANCH  22  23
ENDBRANCH  19  22
ENDBRANCH   4  16
TORSDOF 5
