REMARK  6 active torsions:
REMARK  status: ('A' for Active; 'I' for Inactive)
REMARK       I    between atoms: N_9  and  C_1 
REMARK       I    between atoms: N_10  and  C_1 
REMARK    1  A    between atoms: C_2  and  S_12 
REMARK    2  A    between atoms: C_3  and  O_7 
REMARK    3  A    between atoms: O_7  and  C_8 
REMARK    4  A    between atoms: C_19  and  N_9 
REMARK    5  A    between atoms: C_20  and  N_10 
REMARK    6  A    between atoms: S_12  and  C_21 
ROOT
ATOM      1  C   UNL d   1       1.132   0.117  -0.030  0.00  0.00     0.325 C 
ATOM      2  N   UNL d   1       0.569  -1.150  -0.015  0.00  0.00    -0.307 N 
ATOM      3  N   UNL d   1       0.273   1.076  -0.534  0.00  0.00    -0.309 N 
ATOM      4  O   UNL d   1       2.274   0.352   0.339  0.00  0.00    -0.247 OA
ATOM      5  H   UNL d   1      -0.326  -1.277  -0.463  0.00  0.00     0.170 HD
ATOM      6  H   UNL d   1      -0.695   0.824  -0.643  0.00  0.00     0.170 HD
ENDROOT
BRANCH   2   7
ATOM      7  C   UNL d   1       1.260  -2.318   0.395  0.00  0.00     0.051 A 
ATOM      8  C   UNL d   1       2.498  -2.305   1.031  0.00  0.00     0.119 A 
ATOM      9  N   UNL d   1       3.183  -3.406   1.403  0.00  0.00    -0.344 N 
ATOM     10  C   UNL d   1       2.600  -4.597   1.178  0.00  0.00     0.148 A 
ATOM     11  HN  UNL d   1       4.104  -3.338   1.836  1.00  0.00     0.167 HD
ATOM     12  C   UNL d   1       1.381  -4.734   0.540  0.00  0.00     0.059 A 
ATOM     13  C   UNL d   1       0.696  -3.575   0.150  0.00  0.00     0.035 A 
BRANCH  10  14
ATOM     14  O   UNL d   1       3.228  -5.738   1.658  0.00  0.00    -0.292 OA
BRANCH  14  15
ATOM     15  C   UNL d   1       4.029  -5.574   2.776  0.00  0.00     0.099 A 
ATOM     16  C   UNL d   1       5.247  -6.257   2.852  0.00  0.00     0.069 A 
ATOM     17  C   UNL d   1       6.064  -6.118   3.979  0.00  0.00     0.050 A 
ATOM     18 CL   UNL d   1       5.788  -7.281   1.571  0.00  0.00    -0.081 Cl
ATOM     19  C   UNL d   1       5.663  -5.290   5.028  0.00  0.00     0.035 A 
ATOM     20  C   UNL d   1       4.448  -4.615   4.971  0.00  0.00     0.026 A 
ATOM     21 CL   UNL d   1       6.667  -5.108   6.412  0.00  0.00    -0.084 Cl
ATOM     22  C   UNL d   1       3.622  -4.779   3.860  0.00  0.00     0.041 A 
ENDBRANCH  14  15
ENDBRANCH  10  14
ENDBRANCH   2   7
BRANCH   3  23
ATOM     23  C   UNL d   1       0.617   2.424  -0.801  0.00  0.00     0.036 A 
ATOM     24  C   UNL d   1       1.910   2.943  -0.681  0.00  0.00     0.031 A 
ATOM     25  C   UNL d   1       2.188   4.283  -0.968  0.00  0.00     0.021 A 
ATOM     26  C   UNL d   1       1.168   5.139  -1.373  0.00  0.00     0.009 A 
ATOM     27  C   UNL d   1      -0.124   4.628  -1.525  0.00  0.00     0.021 A 
ATOM     28  C   UNL d   1      -0.400   3.283  -1.234  0.00  0.00     0.031 A 
BRANCH  26  29
ATOM     29  S   UNL d   1       1.498   6.839  -1.777  0.00  0.00    -0.016 SA
BRANCH  29  30
ATOM     30  C   UNL d   1       2.033   7.481  -0.182  0.00  0.00     0.448 C 
ATOM     31  F   UNL d   1       2.107   6.548   0.793  0.00  0.00    -0.160 F 
ATOM     32  F   UNL d   1       3.258   8.052  -0.282  0.00  0.00    -0.160 F 
ATOM     33  F   UNL d   1       1.180   8.443   0.252  0.00  0.00    -0.160 F 
ENDBRANCH  29  30
ENDBRANCH  26  29
ENDBRANCH   3  23
TORSDOF 6
