REMARK  5 active torsions:
REMARK  status: ('A' for Active; 'I' for Inactive)
REMARK    1  A    between atoms: N_3  and  S_1 
REMARK    2  A    between atoms: C_6  and  S_1 
REMARK    3  A    between atoms: C_2  and  N_5 
REMARK    4  A    between atoms: N_4  and  C_2 
REMARK    5  A    between atoms: N_5  and  C_13 
ROOT
ATOM      1  C   UNL d   1       0.888   1.415  -1.034  0.00  0.00     0.074 A 
ATOM      2  C   UNL d   1       0.200   1.077  -2.196  0.00  0.00     0.027 A 
ATOM      3  C   UNL d   1       1.171   2.751  -0.731  0.00  0.00     0.027 A 
ATOM      4  C   UNL d   1       0.014   3.438  -2.744  0.00  0.00     0.034 A 
ATOM      5  C   UNL d   1       0.712   3.761  -1.578  0.00  0.00     0.031 A 
ATOM      6  C   UNL d   1      -0.228   2.093  -3.055  0.00  0.00     0.031 A 
ENDROOT
BRANCH   4   7
ATOM      7  N   UNL d   1      -0.492   4.510  -3.514  0.00  0.00    -0.333 N 
ATOM      8  H   UNL d   1      -0.819   5.300  -2.966  0.00  0.00     0.168 HD
BRANCH   7   9
ATOM      9  C   UNL d   1      -1.017   4.452  -4.776  0.00  0.00     0.174 C 
ATOM     10  S   UNL d   1      -2.377   5.380  -5.093  0.00  0.00    -0.041 SA
BRANCH   9  11
ATOM     11  N   UNL d   1      -0.325   3.734  -5.729  0.00  0.00    -0.354 N 
ATOM     12  C   UNL d   1       1.134   3.544  -5.678  0.00  0.00     0.151 C 
ATOM     13  C   UNL d   1       1.772   3.677  -7.066  0.00  0.00     0.187 C 
ATOM     14  O   UNL d   1       1.120   2.837  -8.029  0.00  0.00    -0.388 OA
ATOM     15  C   UNL d   1      -0.268   3.189  -8.141  0.00  0.00     0.187 C 
ATOM     16  C   UNL d   1      -0.986   2.989  -6.808  0.00  0.00     0.151 C 
ENDBRANCH   9  11
ENDBRANCH   7   9
ENDBRANCH   4   7
BRANCH   1  17
ATOM     17  S   UNL d   1       1.357   0.166   0.137  0.00  0.00     0.243 S 
ATOM     18  O   UNL d   1       0.747   0.535   1.398  0.00  0.00    -0.206 OA
ATOM     19  O   UNL d   1       1.136  -1.140  -0.458  0.00  0.00    -0.206 OA
BRANCH  17  20
ATOM     20  N   UNL d   1       3.039   0.410   0.246  0.00  0.00    -0.206 NA
ATOM     21  C   UNL d   1       3.820  -0.079  -0.923  0.00  0.00     0.107 C 
ATOM     22  C   UNL d   1       5.223   0.516  -0.867  0.00  0.00     0.015 C 
ATOM     23  C   UNL d   1       5.914   0.162   0.448  0.00  0.00     0.002 C 
ATOM     24  C   UNL d   1       5.053   0.578   1.637  0.00  0.00     0.015 C 
ATOM     25  C   UNL d   1       3.645  -0.007   1.538  0.00  0.00     0.107 C 
ENDBRANCH  17  20
ENDBRANCH   1  17
TORSDOF 5
