REMARK  4 active torsions:
REMARK  status: ('A' for Active; 'I' for Inactive)
REMARK    1  A    between atoms: C_4  and  C_1 
REMARK    2  A    between atoms: O_10  and  C_3 
REMARK    3  A    between atoms: O_11  and  C_4 
REMARK    4  A    between atoms: O_12  and  C_6 
ROOT
ATOM      1  C   UNL d   1       0.238   1.284   0.008  0.00  0.00     0.062 A 
ATOM      2  C   UNL d   1      -0.484   0.070   0.036  0.00  0.00     0.087 A 
ATOM      3  C   UNL d   1       0.217  -1.158   0.012  0.00  0.00     0.124 A 
ATOM      4  C   UNL d   1       1.641   1.266  -0.011  0.00  0.00     0.023 A 
ATOM      5  C   UNL d   1       1.640  -1.143  -0.014  0.00  0.00     0.103 A 
ATOM      6  C   UNL d   1       2.338   0.065  -0.021  0.00  0.00     0.041 A 
ATOM      7 CL   UNL d   1      -2.215   0.157   0.143  0.00  0.00    -0.080 Cl
ENDROOT
BRANCH   1   8
ATOM      8  C   UNL d   1      -0.360   2.649   0.030  0.00  0.00     0.177 C 
ATOM      9  O   UNL d   1       0.201   3.587   0.572  0.00  0.00    -0.646 OA
BRANCH   8  10
ATOM     10  O   UNL d   1      -1.488   2.806  -0.689  0.00  0.00    -0.773 OA
ATOM     11  H   UNL d   1      -1.896   1.979  -1.008  0.00  0.00     0.167 HD
ENDBRANCH   8  10
ENDBRANCH   1   8
BRANCH   3  12
ATOM     12  O   UNL d   1      -0.272  -2.440   0.017  0.00  0.00    -0.351 OA
ATOM     13  C   UNL d   1      -1.649  -2.753   0.007  0.00  0.00     0.210 C 
ENDBRANCH   3  12
BRANCH   5  14
ATOM     14  O   UNL d   1       2.256  -2.373  -0.028  0.00  0.00    -0.353 OA
ATOM     15  C   UNL d   1       3.677  -2.412  -0.007  0.00  0.00     0.210 C 
ENDBRANCH   5  14
TORSDOF 4
