REMARK  14 active torsions:
REMARK  status: ('A' for Active; 'I' for Inactive)
REMARK    1  A    between atoms: C_7  and  C_1 
REMARK    2  A    between atoms: C_8  and  C_2 
REMARK    3  A    between atoms: S_10  and  C_5 
REMARK    4  A    between atoms: C_9  and  C_13 
REMARK       I    between atoms: N_12  and  C_9 
REMARK    5  A    between atoms: C_18  and  S_10 
REMARK    6  A    between atoms: C_19  and  N_12 
REMARK    7  A    between atoms: C_13  and  C_20 
REMARK    8  A    between atoms: C_22  and  C_18 
REMARK    9  A    between atoms: C_21  and  C_19 
REMARK   10  A    between atoms: C_20  and  C_22 
REMARK   11  A    between atoms: C_25  and  C_21 
REMARK   12  A    between atoms: C_23  and  C_24 
REMARK   13  A    between atoms: C_24  and  C_26 
REMARK   14  A    between atoms: C_26  and  C_25 
ROOT
ATOM      1  C   UNL d   1      -0.466  -1.085   0.031  0.00  0.00     0.072 A 
ATOM      2  C   UNL d   1       0.888  -0.764  -0.114  0.00  0.00     0.072 A 
ATOM      3  N   UNL d   1      -1.252   0.062   0.048  0.00  0.00    -0.334 N 
ATOM      4  HN  UNL d   1      -2.270   0.116   0.097  1.00  0.00     0.168 HD
ATOM      5  C   UNL d   1      -0.404   1.056  -0.011  0.00  0.00     0.145 A 
ATOM      6  N   UNL d   1       0.886   0.616  -0.086  0.00  0.00    -0.334 N 
ATOM      7  H   UNL d   1       1.693   1.216  -0.146  0.00  0.00     0.168 HD
ENDROOT
BRANCH   5   8
ATOM      8  S   UNL d   1      -0.706   2.759   0.010  0.00  0.00    -0.094 SA
BRANCH   8   9
ATOM      9  C   UNL d   1      -2.526   2.859   0.027  0.00  0.00     0.082 C 
BRANCH   9  10
ATOM     10  C   UNL d   1      -2.978   4.332   0.049  0.00  0.00     0.011 C 
BRANCH  10  11
ATOM     11  C   UNL d   1      -4.508   4.449   0.060  0.00  0.00     0.010 C 
BRANCH  11  12
ATOM     12  C   UNL d   1      -5.012   5.900   0.083  0.00  0.00     0.103 C 
BRANCH  12  13
ATOM     13  C   UNL d   1      -6.532   5.956   0.098  0.00  0.00     0.217 C 
ATOM     14  O   UNL d   1      -7.239   4.951   0.137  0.00  0.00    -0.274 OA
ATOM     15  N   UNL d   1      -7.054   7.229   0.047  0.00  0.00    -0.361 N 
ATOM     16  H   UNL d   1      -6.431   8.023   0.106  0.00  0.00     0.162 HD
BRANCH  15  17
ATOM     17  C   UNL d   1      -8.488   7.468   0.069  0.00  0.00     0.122 C 
BRANCH  17  18
ATOM     18  C   UNL d   1      -9.062   7.505   1.489  0.00  0.00     0.020 C 
BRANCH  18  19
ATOM     19  C   UNL d   1      -8.517   8.681   2.302  0.00  0.00     0.002 C 
BRANCH  19  20
ATOM     20  C   UNL d   1      -9.118   8.723   3.707  0.00  0.00     0.000 C 
BRANCH  20  21
ATOM     21  C   UNL d   1      -8.545   9.893   4.508  0.00  0.00    -0.000 C 
BRANCH  21  22
ATOM     22  C   UNL d   1      -9.124   9.947   5.920  0.00  0.00    -0.005 C 
ATOM     23  C   UNL d   1      -8.545  11.112   6.706  0.00  0.00     0.005 C 
ENDBRANCH  21  22
ENDBRANCH  20  21
ENDBRANCH  19  20
ENDBRANCH  18  19
ENDBRANCH  17  18
ENDBRANCH  15  17
ENDBRANCH  12  13
ENDBRANCH  11  12
ENDBRANCH  10  11
ENDBRANCH   9  10
ENDBRANCH   8   9
ENDBRANCH   5   8
BRANCH   1  24
ATOM     24  C   UNL d   1      -1.039  -2.426   0.143  0.00  0.00    -0.007 A 
ATOM     25  C   UNL d   1      -0.344  -3.474   0.770  0.00  0.00     0.014 A 
ATOM     26  C   UNL d   1      -0.856  -4.772   0.792  0.00  0.00     0.001 A 
ATOM     27  C   UNL d   1      -2.110  -5.030   0.251  0.00  0.00     0.000 A 
ATOM     28  C   UNL d   1      -2.845  -3.989  -0.321  0.00  0.00     0.001 A 
ATOM     29  C   UNL d   1      -2.307  -2.698  -0.384  0.00  0.00     0.014 A 
ENDBRANCH   1  24
BRANCH   2  30
ATOM     30  C   UNL d   1       2.112  -1.564  -0.269  0.00  0.00    -0.007 A 
ATOM     31  C   UNL d   1       2.103  -2.731  -1.050  0.00  0.00     0.014 A 
ATOM     32  C   UNL d   1       3.219  -3.571  -1.110  0.00  0.00     0.001 A 
ATOM     33  C   UNL d   1       4.386  -3.220  -0.441  0.00  0.00     0.000 A 
ATOM     34  C   UNL d   1       4.432  -2.040   0.296  0.00  0.00     0.001 A 
ATOM     35  C   UNL d   1       3.298  -1.219   0.392  0.00  0.00     0.014 A 
ENDBRANCH   2  30
TORSDOF 14
