REMARK  4 active torsions:
REMARK  status: ('A' for Active; 'I' for Inactive)
REMARK    1  A    between atoms: O_9  and  C_7 
REMARK    2  A    between atoms: O_10  and  C_8 
REMARK    3  A    between atoms: C_15  and  O_9 
REMARK    4  A    between atoms: C_16  and  O_10 
ROOT
ATOM      1  C   UNL d   1       0.180  -1.304  -0.346  0.00  0.00     0.199 C 
ATOM      2  C   UNL d   1       1.449  -0.536  -0.305  0.00  0.00     0.063 A 
ATOM      3  C   UNL d   1      -1.081  -0.608   0.006  0.00  0.00     0.063 C 
ATOM      4  C   UNL d   1       0.084   1.553  -0.330  0.00  0.00     0.194 C 
ATOM      5  C   UNL d   1       1.384   0.859  -0.232  0.00  0.00     0.032 A 
ATOM      6  C   UNL d   1      -1.152   0.775  -0.137  0.00  0.00     0.032 C 
ATOM      7  C   UNL d   1       2.707  -1.157  -0.312  0.00  0.00     0.091 A 
ATOM      8  C   UNL d   1      -2.214  -1.292   0.466  0.00  0.00     0.091 C 
ATOM      9  O   UNL d   1       0.148  -2.472  -0.704  0.00  0.00    -0.286 OA
ATOM     10  O   UNL d   1       0.036   2.764  -0.507  0.00  0.00    -0.287 OA
ATOM     11  C   UNL d   1      -2.376   1.447   0.001  0.00  0.00     0.017 C 
ATOM     12  C   UNL d   1       2.547   1.623  -0.071  0.00  0.00     0.017 A 
ATOM     13  C   UNL d   1      -3.443  -0.631   0.586  0.00  0.00     0.038 C 
ATOM     14  C   UNL d   1       3.864  -0.392  -0.090  0.00  0.00     0.038 A 
ATOM     15  C   UNL d   1      -3.529   0.735   0.328  0.00  0.00     0.004 C 
ATOM     16  C   UNL d   1       3.784   0.994   0.027  0.00  0.00     0.004 A 
ENDROOT
BRANCH   7  17
ATOM     17  O   UNL d   1       2.798  -2.523  -0.465  0.00  0.00    -0.310 OA
BRANCH  17  18
ATOM     18  C   UNL d   1       3.751  -3.034  -1.325  0.00  0.00     0.076 A 
ATOM     19  C   UNL d   1       4.239  -4.302  -1.006  0.00  0.00     0.037 A 
ATOM     20  C   UNL d   1       5.227  -4.894  -1.795  0.00  0.00     0.003 A 
ATOM     21  C   UNL d   1       5.723  -4.223  -2.913  0.00  0.00     0.000 A 
ATOM     22  C   UNL d   1       5.208  -2.973  -3.258  0.00  0.00     0.003 A 
ATOM     23  C   UNL d   1       4.209  -2.388  -2.477  0.00  0.00     0.037 A 
ENDBRANCH  17  18
ENDBRANCH   7  17
BRANCH   8  24
ATOM     24  O   UNL d   1      -2.186  -2.607   0.863  0.00  0.00    -0.310 OA
BRANCH  24  25
ATOM     25  C   UNL d   1      -1.525  -2.909   2.042  0.00  0.00     0.076 A 
ATOM     26  C   UNL d   1      -1.017  -1.979   2.958  0.00  0.00     0.037 A 
ATOM     27  C   UNL d   1      -0.330  -2.413   4.095  0.00  0.00     0.003 A 
ATOM     28  C   UNL d   1      -0.176  -3.776   4.341  0.00  0.00     0.000 A 
ATOM     29  C   UNL d   1      -0.712  -4.707   3.453  0.00  0.00     0.003 A 
ATOM     30  C   UNL d   1      -1.381  -4.274   2.306  0.00  0.00     0.037 A 
ENDBRANCH  24  25
ENDBRANCH   8  24
TORSDOF 4
