REMARK  7 active torsions:
REMARK  status: ('A' for Active; 'I' for Inactive)
REMARK    1  A    between atoms: C_7  and  C_1 
REMARK    2  A    between atoms: O_8  and  C_4 
REMARK    3  A    between atoms: C_10  and  C_6 
REMARK    4  A    between atoms: O_14  and  C_7 
REMARK    5  A    between atoms: C_11  and  O_8 
REMARK    6  A    between atoms: C_9  and  C_11 
REMARK    7  A    between atoms: C_20  and  O_14 
ROOT
ATOM      1  C   UNL d   1      -0.039   1.350   0.003  0.00  0.00     0.133 A 
ATOM      2  N   UNL d   1       1.374  -0.510  -0.136  0.00  0.00    -0.329 N 
ATOM      3  HN  UNL d   1       2.258  -1.017  -0.192  1.00  0.00     0.168 HD
ATOM      4  C   UNL d   1       1.271   0.877  -0.101  0.00  0.00     0.167 A 
ATOM      5  S   UNL d   1      -1.120   0.007  -0.114  0.00  0.00    -0.061 SA
ATOM      6  C   UNL d   1       0.193  -1.088  -0.090  0.00  0.00     0.087 A 
ENDROOT
BRANCH   4   7
ATOM      7  O   UNL d   1       2.429   1.596  -0.077  0.00  0.00    -0.330 OA
BRANCH   7   8
ATOM      8  C   UNL d   1       2.384   2.881  -0.697  0.00  0.00     0.217 C 
BRANCH   8   9
ATOM      9  C   UNL d   1       3.711   3.309  -1.284  0.00  0.00    -0.012 A 
ATOM     10  C   UNL d   1       3.779   4.164  -2.399  0.00  0.00     0.042 A 
ATOM     11 CL   UNL d   1       2.364   4.693  -3.248  0.00  0.00    -0.084 Cl
ATOM     12  C   UNL d   1       5.008   4.659  -2.849  0.00  0.00     0.024 A 
ATOM     13  C   UNL d   1       6.182   4.320  -2.179  0.00  0.00     0.002 A 
ATOM     14  C   UNL d   1       6.133   3.486  -1.067  0.00  0.00     0.001 A 
ATOM     15  C   UNL d   1       4.910   2.985  -0.621  0.00  0.00     0.011 A 
ENDBRANCH   8   9
ENDBRANCH   7   8
ENDBRANCH   4   7
BRANCH   1  16
ATOM     16  C   UNL d   1      -0.582   2.671   0.246  0.00  0.00     0.304 C 
ATOM     17  O   UNL d   1       0.058   3.660   0.575  0.00  0.00    -0.259 OA
BRANCH  16  18
ATOM     18  O   UNL d   1      -1.945   2.686   0.135  0.00  0.00    -0.317 OA
BRANCH  18  19
ATOM     19  C   UNL d   1      -2.575   3.858   0.667  0.00  0.00     0.174 C 
ATOM     20  C   UNL d   1      -2.623   3.749   2.184  0.00  0.00     0.034 C 
ENDBRANCH  18  19
ENDBRANCH  16  18
ENDBRANCH   1  16
BRANCH   6  21
ATOM     21  C   UNL d   1      -0.043  -2.543  -0.062  0.00  0.00    -0.002 A 
ATOM     22  C   UNL d   1       0.912  -3.409  -0.615  0.00  0.00     0.014 A 
ATOM     23  C   UNL d   1       0.709  -4.793  -0.621  0.00  0.00     0.001 A 
ATOM     24  C   UNL d   1      -0.448  -5.334  -0.063  0.00  0.00     0.000 A 
ATOM     25  C   UNL d   1      -1.398  -4.494   0.510  0.00  0.00     0.001 A 
ATOM     26  C   UNL d   1      -1.195  -3.110   0.514  0.00  0.00     0.014 A 
ENDBRANCH   6  21
TORSDOF 7
