REMARK  5 active torsions:
REMARK  status: ('A' for Active; 'I' for Inactive)
REMARK    1  A    between atoms: C_8  and  C_1 
REMARK    2  A    between atoms: S_15  and  C_2 
REMARK    3  A    between atoms: C_6  and  C_3 
REMARK       I    between atoms: N_7  and  C_6 
REMARK       I    between atoms: C_9  and  N_7 
REMARK       I    between atoms: N_14  and  C_9 
REMARK    4  A    between atoms: C_22  and  N_14 
REMARK    5  A    between atoms: C_23  and  C_22 
ROOT
ATOM      1  C   UNL d   1       0.583  -2.690  -0.524  0.00  0.00     0.267 C 
ATOM      2  N   UNL d   1      -0.661  -3.139  -0.110  0.00  0.00    -0.275 N 
ATOM      3  C   UNL d   1      -1.040  -4.305   0.488  0.00  0.00     0.323 C 
ATOM      4  N   UNL d   1      -0.138  -5.325   0.548  0.00  0.00    -0.339 N 
ATOM      5  O   UNL d   1       1.558  -3.440  -0.528  0.00  0.00    -0.267 OA
ATOM      6  O   UNL d   1      -2.182  -4.392   0.943  0.00  0.00    -0.247 OA
ATOM      7  H   UNL d   1      -1.403  -2.453  -0.085  0.00  0.00     0.173 HD
ATOM      8  H   UNL d   1       0.841  -5.067   0.448  0.00  0.00     0.164 HD
ENDROOT
BRANCH   1   9
ATOM      9  C   UNL d   1       0.636  -1.268  -0.925  0.00  0.00     0.081 C 
ATOM     10  C   UNL d   1       1.696  -0.535  -1.464  0.00  0.00    -0.024 C 
ATOM     11  C   UNL d   1       1.405   0.901  -1.464  0.00  0.00     0.031 C 
ATOM     12  C   UNL d   1       3.012  -1.133  -1.867  0.00  0.00     0.050 C 
ATOM     13  C   UNL d   1       0.104   1.168  -1.066  0.00  0.00     0.055 C 
ATOM     14  S   UNL d   1      -0.739  -0.272  -0.696  0.00  0.00    -0.076 SA
BRANCH  11  15
ATOM     15  C   UNL d   1       2.401   1.998  -1.764  0.00  0.00     0.112 A 
ATOM     16  O   UNL d   1       2.272   3.287  -1.315  0.00  0.00    -0.237 OA
ATOM     17  N   UNL d   1       3.367   4.043  -1.688  0.00  0.00    -0.272 N 
ATOM     18  C   UNL d   1       4.148   3.209  -2.371  0.00  0.00     0.117 A 
ATOM     19  HN  UNL d   1       3.540   5.027  -1.484  1.00  0.00     0.194 HD
ATOM     20  C   UNL d   1       3.585   1.924  -2.465  0.00  0.00     0.059 A 
ENDBRANCH  11  15
BRANCH  13  21
ATOM     21  S   UNL d   1      -0.761   2.693  -0.838  0.00  0.00    -0.126 SA
ATOM     22  C   UNL d   1      -0.678   3.472  -2.465  0.00  0.00     0.096 C 
ENDBRANCH  13  21
ENDBRANCH   1   9
BRANCH   4  23
ATOM     23  C   UNL d   1      -0.478  -6.509   1.311  0.00  0.00     0.163 C 
BRANCH  23  24
ATOM     24  C   UNL d   1       0.362  -7.726   1.033  0.00  0.00    -0.038 A 
ATOM     25  C   UNL d   1       0.505  -8.698   2.034  0.00  0.00     0.025 A 
ATOM     26  C   UNL d   1       1.170  -9.878   1.742  0.00  0.00     0.088 A 
ATOM     27  N   UNL d   1       1.698 -10.159   0.534  0.00  0.00    -0.375 N 
ATOM     28  C   UNL d   1       1.544  -9.216  -0.424  0.00  0.00     0.088 A 
ATOM     29  HN  UNL d   1       2.188 -11.034   0.353  1.00  0.00     0.164 HD
ATOM     30  C   UNL d   1       0.893  -8.008  -0.228  0.00  0.00     0.025 A 
ENDBRANCH  23  24
ENDBRANCH   4  23
TORSDOF 5
