REMARK  6 active torsions:
REMARK  status: ('A' for Active; 'I' for Inactive)
REMARK    1  A    between atoms: C_4  and  C_1 
REMARK    2  A    between atoms: O_12  and  C_4 
REMARK    3  A    between atoms: C_6  and  C_13 
REMARK    4  A    between atoms: C_8  and  C_14 
REMARK    5  A    between atoms: C_20  and  C_9 
REMARK    6  A    between atoms: C_25  and  O_12 
ROOT
ATOM      1  C   UNL d   1       1.503  -5.986   0.544  0.00  0.00     0.055 C 
ATOM      2  C   UNL d   1       2.606  -5.363   0.065  0.00  0.00     0.034 C 
ATOM      3  C   UNL d   1       1.559  -6.674   1.809  0.00  0.00     0.100 C 
ATOM      4  N   UNL d   1       1.611  -7.252   2.812  0.00  0.00    -0.191 NA
ENDROOT
BRANCH   1   5
ATOM      5  C   UNL d   1       0.285  -6.097  -0.315  0.00  0.00    -0.015 A 
ATOM      6  C   UNL d   1      -0.560  -7.218  -0.217  0.00  0.00     0.016 A 
ATOM      7  C   UNL d   1      -1.579  -7.444  -1.153  0.00  0.00     0.038 A 
ATOM      8  C   UNL d   1      -1.770  -6.548  -2.201  0.00  0.00     0.079 A 
ATOM      9  C   UNL d   1      -1.048  -5.359  -2.232  0.00  0.00     0.038 A 
ATOM     10  C   UNL d   1      -0.028  -5.140  -1.298  0.00  0.00     0.016 A 
BRANCH   8  11
ATOM     11  O   UNL d   1      -2.699  -6.920  -3.200  0.00  0.00    -0.275 OA
BRANCH  11  12
ATOM     12  C   UNL d   1      -2.364  -6.722  -4.549  0.00  0.00     0.307 C 
ATOM     13  O   UNL d   1      -1.385  -6.081  -4.921  0.00  0.00    -0.258 OA
BRANCH  12  14
ATOM     14  C   UNL d   1      -3.277  -7.418  -5.448  0.00  0.00     0.103 A 
ATOM     15  S   UNL d   1      -2.979  -7.238  -7.135  0.00  0.00    -0.082 SA
ATOM     16  C   UNL d   1      -4.210  -8.342  -7.581  0.00  0.00     0.018 A 
ATOM     17  C   UNL d   1      -4.556  -8.733  -8.892  0.00  0.00     0.020 A 
ATOM     18  C   UNL d   1      -4.862  -8.854  -6.459  0.00  0.00     0.004 A 
ATOM     19  C   UNL d   1      -5.548  -9.698  -9.074  0.00  0.00     0.001 A 
ATOM     20  C   UNL d   1      -6.180 -10.265  -7.979  0.00  0.00     0.001 A 
ATOM     21  C   UNL d   1      -5.858  -9.845  -6.683  0.00  0.00     0.014 A 
ATOM     22  C   UNL d   1      -4.370  -8.238  -5.242  0.00  0.00     0.068 A 
ATOM     23 CL   UNL d   1      -5.107  -8.585  -3.725  0.00  0.00    -0.082 Cl
ENDBRANCH  12  14
ENDBRANCH  11  12
ENDBRANCH   8  11
ENDBRANCH   1   5
BRANCH   2  24
ATOM     24  C   UNL d   1       3.908  -5.368   0.742  0.00  0.00    -0.035 A 
ATOM     25  C   UNL d   1       4.804  -6.410   0.478  0.00  0.00     0.012 A 
ATOM     26  C   UNL d   1       5.990  -6.519   1.206  0.00  0.00     0.017 A 
ATOM     27  C   UNL d   1       6.298  -5.582   2.202  0.00  0.00     0.048 A 
ATOM     28  C   UNL d   1       5.419  -4.509   2.422  0.00  0.00     0.017 A 
ATOM     29  C   UNL d   1       4.230  -4.401   1.695  0.00  0.00     0.012 A 
BRANCH  27  30
ATOM     30  C   UNL d   1       7.535  -5.732   3.054  0.00  0.00     0.417 C 
ATOM     31  F   UNL d   1       8.265  -6.846   2.765  0.00  0.00    -0.166 F 
ATOM     32  F   UNL d   1       8.389  -4.681   2.921  0.00  0.00    -0.166 F 
ATOM     33  F   UNL d   1       7.245  -5.813   4.382  0.00  0.00    -0.166 F 
ENDBRANCH  27  30
ENDBRANCH   2  24
TORSDOF 6
