REMARK  4 active torsions:
REMARK  status: ('A' for Active; 'I' for Inactive)
REMARK    1  A    between atoms: S_9  and  C_6 
REMARK    2  A    between atoms: C_13  and  S_9 
REMARK    3  A    between atoms: C_10  and  C_13 
REMARK    4  A    between atoms: O_14  and  C_10 
ROOT
ATOM      1  N   UNL d   1      -0.655   1.390   0.086  0.00  0.00    -0.301 N 
ATOM      2  HN  UNL d   1      -1.105   2.303   0.147  1.00  0.00     0.171 HD
ATOM      3  C   UNL d   1      -1.353   0.191   0.048  0.00  0.00     0.271 A 
ATOM      4  N   UNL d   1       0.683  -1.204  -0.043  0.00  0.00    -0.298 N 
ATOM      5  HN  UNL d   1       1.209  -2.077  -0.075  1.00  0.00     0.187 HD
ATOM      6  C   UNL d   1       0.626   1.225   0.035  0.00  0.00     0.162 A 
ATOM      7  C   UNL d   1      -0.619  -1.159  -0.005  0.00  0.00     0.089 A 
ATOM      8  N   UNL d   1       1.278   0.022  -0.036  0.00  0.00    -0.280 N 
ATOM      9  O   UNL d   1      -2.576   0.171   0.070  0.00  0.00    -0.266 OA
ATOM     10  C   UNL d   1      -1.417  -2.428   0.001  0.00  0.00     0.076 C 
ATOM     11  H   UNL d   1       2.297   0.054  -0.035  0.00  0.00     0.189 HD
ENDROOT
BRANCH   6  12
ATOM     12  S   UNL d   1       1.687   2.612   0.037  0.00  0.00    -0.082 SA
BRANCH  12  13
ATOM     13  C   UNL d   1       0.674   3.845   0.889  0.00  0.00     0.192 C 
BRANCH  13  14
ATOM     14  C   UNL d   1       0.350   3.417   2.301  0.00  0.00     0.149 C 
ATOM     15  O   UNL d   1       1.084   3.614   3.260  0.00  0.00    -0.649 OA
BRANCH  14  16
ATOM     16  O   UNL d   1      -0.826   2.759   2.424  0.00  0.00    -0.776 OA
ATOM     17  H   UNL d   1      -1.251   2.556   1.559  0.00  0.00     0.167 HD
ENDBRANCH  14  16
ENDBRANCH  13  14
ENDBRANCH  12  13
ENDBRANCH   6  12
TORSDOF 4
