REMARK  4 active torsions:
REMARK  status: ('A' for Active; 'I' for Inactive)
REMARK    1  A    between atoms: N_16  and  N_6 
REMARK    2  A    between atoms: C_9  and  C_11 
REMARK    3  A    between atoms: C_10  and  C_12 
REMARK    4  A    between atoms: C_18  and  N_16 
ROOT
ATOM      1  S   UNL d   1      -1.069  -1.566   0.069  0.00  0.00     0.285 S 
ATOM      2  C   UNL d   1      -2.454  -0.590   0.516  0.00  0.00     0.215 C 
ATOM      3  N   UNL d   1      -1.509  -1.946  -1.522  0.00  0.00    -0.274 N 
ATOM      4  C   UNL d   1      -2.614   0.578  -0.404  0.00  0.00     0.225 C 
ATOM      5  C   UNL d   1      -2.389   0.370  -1.858  0.00  0.00     0.045 A 
ATOM      6  N   UNL d   1      -3.306  -0.956   1.432  0.00  0.00    -0.285 N 
ATOM      7  HN  UNL d   1      -3.167  -1.798   1.990  1.00  0.00     0.188 HD
ATOM      8  C   UNL d   1      -1.902  -0.851  -2.378  0.00  0.00     0.059 A 
ATOM      9  O   UNL d   1       0.069  -0.672   0.023  0.00  0.00    -0.198 OA
ATOM     10  O   UNL d   1      -1.071  -2.771   0.874  0.00  0.00    -0.198 OA
ATOM     11  O   UNL d   1      -2.983   1.651   0.062  0.00  0.00    -0.284 OA
ATOM     12  C   UNL d   1      -1.379  -3.327  -1.993  0.00  0.00     0.170 C 
ATOM     13  C   UNL d   1      -2.729   1.426  -2.719  0.00  0.00     0.018 A 
ATOM     14  C   UNL d   1      -1.826  -0.994  -3.771  0.00  0.00     0.031 A 
ATOM     15  C   UNL d   1      -2.626   1.266  -4.098  0.00  0.00     0.001 A 
ATOM     16  C   UNL d   1      -2.188   0.055  -4.622  0.00  0.00     0.002 A 
ENDROOT
BRANCH   6  17
ATOM     17  N   UNL d   1      -4.396  -0.152   1.603  0.00  0.00    -0.300 N 
ATOM     18  H   UNL d   1      -4.278   0.860   1.464  0.00  0.00     0.187 HD
BRANCH  17  19
ATOM     19  C   UNL d   1      -5.314  -0.498   2.615  0.00  0.00     0.049 A 
ATOM     20  C   UNL d   1      -6.162   0.488   3.135  0.00  0.00     0.047 A 
ATOM     21  C   UNL d   1      -7.123   0.184   4.114  0.00  0.00     0.050 A 
ATOM     22  C   UNL d   1      -7.247  -1.141   4.556  0.00  0.00     0.032 A 
ATOM     23  C   UNL d   1      -6.429  -2.154   4.034  0.00  0.00     0.050 A 
ATOM     24  C   UNL d   1      -5.471  -1.817   3.061  0.00  0.00     0.047 A 
BRANCH  21  25
ATOM     25  C   UNL d   1      -7.999   1.279   4.669  0.00  0.00     0.417 C 
ATOM     26  F   UNL d   1      -8.910   0.837   5.580  0.00  0.00    -0.166 F 
ATOM     27  F   UNL d   1      -7.282   2.250   5.299  0.00  0.00    -0.166 F 
ATOM     28  F   UNL d   1      -8.717   1.912   3.700  0.00  0.00    -0.166 F 
ENDBRANCH  21  25
BRANCH  23  29
ATOM     29  C   UNL d   1      -6.575  -3.584   4.492  0.00  0.00     0.417 C 
ATOM     30  F   UNL d   1      -7.522  -3.743   5.462  0.00  0.00    -0.166 F 
ATOM     31  F   UNL d   1      -6.939  -4.423   3.483  0.00  0.00    -0.166 F 
ATOM     32  F   UNL d   1      -5.426  -4.094   5.012  0.00  0.00    -0.166 F 
ENDBRANCH  23  29
ENDBRANCH  17  19
ENDBRANCH   6  17
TORSDOF 4
