REMARK  4 active torsions:
REMARK  status: ('A' for Active; 'I' for Inactive)
REMARK    1  A    between atoms: C_13  and  C_8 
REMARK    2  A    between atoms: S_15  and  C_9 
REMARK    3  A    between atoms: C_12  and  C_11 
REMARK    4  A    between atoms: C_22  and  S_15 
ROOT
ATOM      1  C   UNL d   1       0.182  -0.769  -0.011  0.00  0.00     0.148 A 
ATOM      2  N   UNL d   1       0.257   0.627  -0.017  0.00  0.00    -0.232 N 
ATOM      3  C   UNL d   1       1.480  -1.213   0.004  0.00  0.00     0.081 A 
ATOM      4  N   UNL d   1       1.554   1.044  -0.005  0.00  0.00    -0.293 N 
ATOM      5  HN  UNL d   1       1.886   2.009  -0.004  1.00  0.00     0.187 HD
ATOM      6  N   UNL d   1      -1.008  -1.443  -0.014  0.00  0.00    -0.336 N 
ATOM      7  HN  UNL d   1      -1.038  -2.462  -0.018  1.00  0.00     0.167 HD
ATOM      8  C   UNL d   1       2.308  -0.067   0.005  0.00  0.00     0.055 A 
ATOM      9  C   UNL d   1      -0.929   1.391  -0.031  0.00  0.00     0.097 A 
ATOM     10  C   UNL d   1      -2.122   0.768  -0.020  0.00  0.00     0.073 A 
ATOM     11  C   UNL d   1      -2.105  -0.734  -0.012  0.00  0.00     0.120 A 
ATOM     12 BR   UNL d   1       1.988  -3.020   0.015  0.00  0.00    -0.045 Br
ENDROOT
BRANCH   8  13
ATOM     13  C   UNL d   1       3.833   0.054   0.004  0.00  0.00    -0.006 C 
ATOM     14  C   UNL d   1       4.425  -0.583  -1.270  0.00  0.00     0.021 C 
ATOM     15  C   UNL d   1       4.294   1.534   0.024  0.00  0.00     0.021 C 
ATOM     16  C   UNL d   1       4.444  -0.617   1.250  0.00  0.00     0.021 C 
ENDBRANCH   8  13
BRANCH   9  17
ATOM     17  S   UNL d   1      -0.884   3.133   0.027  0.00  0.00    -0.111 SA
BRANCH  17  18
ATOM     18  C   UNL d   1       0.008   3.539  -1.507  0.00  0.00     0.076 C 
ATOM     19  C   UNL d   1       0.133   5.048  -1.646  0.00  0.00     0.016 C 
ENDBRANCH  17  18
ENDBRANCH   9  17
BRANCH  11  20
ATOM     20  C   UNL d   1      -3.459  -1.449   0.003  0.00  0.00     0.432 C 
ATOM     21  F   UNL d   1      -4.512  -0.584  -0.000  0.00  0.00    -0.165 F 
ATOM     22  F   UNL d   1      -3.627  -2.255  -1.079  0.00  0.00    -0.165 F 
ATOM     23  F   UNL d   1      -3.615  -2.232   1.105  0.00  0.00    -0.165 F 
ENDBRANCH  11  20
TORSDOF 4
