REMARK  4 active torsions:
REMARK  status: ('A' for Active; 'I' for Inactive)
REMARK    1  A    between atoms: C_1  and  C_3 
REMARK    2  A    between atoms: C_8  and  C_2 
REMARK       I    between atoms: N_5  and  C_3 
REMARK    3  A    between atoms: C_4  and  N_5 
REMARK    4  A    between atoms: O_19  and  C_17 
ROOT
ATOM      1  C   UNL d   1       1.736   0.750  -0.175  0.00  0.00     0.121 C 
ATOM      2  C   UNL d   1       1.449  -0.746  -0.021  0.00  0.00     0.181 C 
ATOM      3  O   UNL d   1       0.053  -0.850   0.294  0.00  0.00    -0.310 OA
ATOM      4  C   UNL d   1      -0.591   0.262  -0.136  0.00  0.00     0.260 C 
ATOM      5  C   UNL d   1       0.375   1.358  -0.449  0.00  0.00     0.128 C 
ATOM      6  O   UNL d   1      -1.804   0.363  -0.217  0.00  0.00    -0.265 OA
ENDROOT
BRANCH   1   7
ATOM      7  C   UNL d   1       2.686   1.017  -1.333  0.00  0.00     0.231 C 
ATOM      8  N   UNL d   1       3.143   2.319  -1.363  0.00  0.00    -0.306 N 
ATOM      9  H   UNL d   1       2.860   2.986  -0.658  0.00  0.00     0.171 HD
ATOM     10  O   UNL d   1       2.960   0.142  -2.144  0.00  0.00    -0.273 OA
BRANCH   8  11
ATOM     11  C   UNL d   1       4.073   2.826  -2.243  0.00  0.00     0.167 A 
ATOM     12  S   UNL d   1       4.768   1.922  -3.512  0.00  0.00    -0.046 SA
ATOM     13  C   UNL d   1       5.716   3.295  -3.871  0.00  0.00     0.160 A 
ATOM     14  N   UNL d   1       5.484   4.336  -3.107  0.00  0.00    -0.303 N 
ATOM     15  N   UNL d   1       4.515   4.062  -2.157  0.00  0.00    -0.279 N 
ATOM     16  HN  UNL d   1       5.957   5.235  -3.201  1.00  0.00     0.186 HD
ATOM     17  HN  UNL d   1       4.183   4.739  -1.470  1.00  0.00     0.189 HD
ENDBRANCH   8  11
ENDBRANCH   1   7
BRANCH   2  18
ATOM     18  C   UNL d   1       2.249  -1.443   1.063  0.00  0.00     0.005 A 
ATOM     19  C   UNL d   1       3.110  -2.543   0.890  0.00  0.00     0.077 A 
ATOM     20  C   UNL d   1       3.828  -3.034   2.001  0.00  0.00     0.037 A 
ATOM     21  C   UNL d   1       3.713  -2.472   3.270  0.00  0.00     0.003 A 
ATOM     22  C   UNL d   1       2.855  -1.405   3.459  0.00  0.00     0.001 A 
ATOM     23  C   UNL d   1       2.126  -0.911   2.376  0.00  0.00     0.012 A 
BRANCH  19  24
ATOM     24  O   UNL d   1       3.452  -3.256  -0.222  0.00  0.00    -0.355 OA
ATOM     25  C   UNL d   1       2.658  -3.279  -1.390  0.00  0.00     0.210 C 
ENDBRANCH  19  24
ENDBRANCH   2  18
TORSDOF 4
