REMARK  5 active torsions:
REMARK  status: ('A' for Active; 'I' for Inactive)
REMARK    1  A    between atoms: C_9  and  C_3 
REMARK    2  A    between atoms: C_13  and  C_4 
REMARK    3  A    between atoms: C_12  and  C_11 
REMARK    4  A    between atoms: C_14  and  C_12 
REMARK    5  A    between atoms: O_25  and  C_14 
ROOT
ATOM      1  N   UNL d   1       0.368   0.666   0.001  0.00  0.00    -0.202 N 
ATOM      2  C   UNL d   1       0.314  -0.710   0.067  0.00  0.00     0.144 A 
ATOM      3  C   UNL d   1       2.413   0.025  -0.029  0.00  0.00     0.147 A 
ATOM      4  C   UNL d   1       1.617  -1.172   0.044  0.00  0.00     0.053 A 
ATOM      5  N   UNL d   1       1.637   1.131  -0.035  0.00  0.00    -0.284 N 
ATOM      6  HN  UNL d   1       1.941   2.104  -0.060  1.00  0.00     0.187 HD
ATOM      7  C   UNL d   1      -0.755   1.509  -0.040  0.00  0.00     0.270 A 
ATOM      8  N   UNL d   1      -0.912  -1.291   0.135  0.00  0.00    -0.343 N 
ATOM      9  C   UNL d   1      -2.057   0.789  -0.051  0.00  0.00     0.101 A 
ATOM     10  C   UNL d   1      -2.090  -0.557   0.032  0.00  0.00     0.025 A 
ATOM     11  O   UNL d   1      -0.663   2.729  -0.077  0.00  0.00    -0.266 OA
ATOM     12  H   UNL d   1      -1.020  -2.313   0.116  0.00  0.00     0.167 HD
ENDROOT
BRANCH   4  13
ATOM     13  C   UNL d   1       1.991  -2.582   0.099  0.00  0.00    -0.020 A 
ATOM     14  C   UNL d   1       1.295  -3.546  -0.649  0.00  0.00     0.014 A 
ATOM     15  C   UNL d   1       1.646  -4.899  -0.581  0.00  0.00     0.020 A 
ATOM     16  C   UNL d   1       2.719  -5.296   0.210  0.00  0.00     0.011 A 
ATOM     17  C   UNL d   1       3.434  -4.354   0.945  0.00  0.00     0.020 A 
ATOM     18 BR   UNL d   1       3.208  -7.119   0.291  0.00  0.00    -0.051 Br
ATOM     19  C   UNL d   1       3.056  -3.007   0.904  0.00  0.00     0.014 A 
ENDBRANCH   4  13
BRANCH   3  20
ATOM     20  C   UNL d   1       3.915   0.169  -0.101  0.00  0.00     0.434 C 
ATOM     21  F   UNL d   1       4.568  -1.009  -0.286  0.00  0.00    -0.165 F 
ATOM     22  F   UNL d   1       4.309   0.974  -1.125  0.00  0.00    -0.165 F 
ATOM     23  F   UNL d   1       4.424   0.707   1.041  0.00  0.00    -0.165 F 
ENDBRANCH   3  20
BRANCH  10  24
ATOM     24  C   UNL d   1      -3.425  -1.283   0.017  0.00  0.00     0.168 C 
BRANCH  24  25
ATOM     25  C   UNL d   1      -3.400  -2.639  -0.677  0.00  0.00     0.264 C 
ATOM     26  O   UNL d   1      -2.423  -3.384  -0.714  0.00  0.00    -0.265 OA
BRANCH  25  27
ATOM     27  O   UNL d   1      -4.628  -2.942  -1.173  0.00  0.00    -0.326 OA
ATOM     28  C   UNL d   1      -4.702  -4.228  -1.790  0.00  0.00     0.213 C 
ENDBRANCH  25  27
ENDBRANCH  24  25
ENDBRANCH  10  24
TORSDOF 5
