REMARK  4 active torsions:
REMARK  status: ('A' for Active; 'I' for Inactive)
REMARK    1  A    between atoms: C_2  and  N_1 
REMARK       I    between atoms: C_3  and  N_1 
REMARK    2  A    between atoms: N_5  and  C_2 
REMARK    3  A    between atoms: C_14  and  C_3 
REMARK    4  A    between atoms: C_4  and  N_5 
ROOT
ATOM      1  C   UNL d   1       0.111   0.107  -3.495  0.00  0.00     0.175 C 
ATOM      2  S   UNL d   1      -1.425   0.595  -3.078  0.00  0.00    -0.041 SA
ENDROOT
BRANCH   1   3
ATOM      3  N   UNL d   1       0.506  -0.393  -4.708  0.00  0.00    -0.300 N 
ATOM      4  C   UNL d   1       0.094  -0.073  -5.997  0.00  0.00     0.257 C 
ATOM      5  O   UNL d   1      -0.675   0.824  -6.317  0.00  0.00    -0.267 OA
ATOM      6  H   UNL d   1       1.301  -1.008  -4.646  0.00  0.00     0.171 HD
BRANCH   4   7
ATOM      7  C   UNL d   1       0.835  -0.825  -7.048  0.00  0.00     0.032 A 
ATOM      8  C   UNL d   1       1.114  -2.190  -6.895  0.00  0.00     0.017 A 
ATOM      9  C   UNL d   1       1.852  -2.864  -7.869  0.00  0.00     0.001 A 
ATOM     10  C   UNL d   1       2.312  -2.178  -8.993  0.00  0.00     0.000 A 
ATOM     11  C   UNL d   1       2.040  -0.818  -9.146  0.00  0.00     0.001 A 
ATOM     12  C   UNL d   1       1.300  -0.139  -8.175  0.00  0.00     0.017 A 
ENDBRANCH   4   7
ENDBRANCH   1   3
BRANCH   1  13
ATOM     13  N   UNL d   1       1.102   0.202  -2.551  0.00  0.00    -0.358 N 
ATOM     14  H   UNL d   1       0.738   0.483  -1.644  0.00  0.00     0.162 HD
BRANCH  13  15
ATOM     15  C   UNL d   1       2.577   0.224  -2.694  0.00  0.00     0.033 C 
ATOM     16  C   UNL d   1       3.060   0.926  -3.996  0.00  0.00     0.035 C 
ATOM     17  C   UNL d   1       4.590   0.964  -4.074  0.00  0.00    -0.012 C 
ATOM     18  C   UNL d   1       5.135   1.760  -2.884  0.00  0.00     0.009 C 
ATOM     19  C   UNL d   1       5.122  -0.479  -4.028  0.00  0.00     0.009 C 
ATOM     20  C   UNL d   1       4.700   1.092  -1.571  0.00  0.00    -0.012 C 
ATOM     21  C   UNL d   1       3.164   1.037  -1.504  0.00  0.00     0.035 C 
ATOM     22  C   UNL d   1       5.259  -0.338  -1.530  0.00  0.00     0.009 C 
ATOM     23  C   UNL d   1       4.706  -1.155  -2.710  0.00  0.00    -0.012 C 
ATOM     24  C   UNL d   1       3.168  -1.204  -2.628  0.00  0.00     0.035 C 
ENDBRANCH  13  15
ENDBRANCH   1  13
TORSDOF 4
