REMARK  4 active torsions:
REMARK  status: ('A' for Active; 'I' for Inactive)
REMARK    1  A    between atoms: C_10  and  N_2 
REMARK    2  A    between atoms: C_7  and  C_3 
REMARK    3  A    between atoms: C_11  and  C_4 
REMARK       I    between atoms: N_13  and  C_7 
REMARK    4  A    between atoms: C_14  and  C_10 
ROOT
ATOM      1  C   UNL d   1      -1.303   0.072  -0.265  0.00  0.00     0.103 C 
ATOM      2  N   UNL d   1      -0.436   1.178  -0.043  0.00  0.00    -0.334 N 
ATOM      3  C   UNL d   1      -2.629   0.052  -0.567  0.00  0.00     0.145 C 
ATOM      4  C   UNL d   1       0.908   0.761  -0.045  0.00  0.00     0.052 C 
ATOM      5  S   UNL d   1      -0.359  -1.482  -0.235  0.00  0.00    -0.080 SA
ATOM      6  C   UNL d   1       1.113  -0.562  -0.127  0.00  0.00     0.082 C 
ATOM      7  C   UNL d   1      -3.363   1.260  -0.761  0.00  0.00     0.108 C 
ATOM      8  N   UNL d   1      -3.965   2.246  -0.886  0.00  0.00    -0.191 NA
ENDROOT
BRANCH   3   9
ATOM      9  C   UNL d   1      -3.462  -1.166  -0.851  0.00  0.00     0.262 C 
ATOM     10  O   UNL d   1      -4.375  -1.145  -1.671  0.00  0.00    -0.267 OA
ATOM     11  N   UNL d   1      -3.234  -2.297  -0.136  0.00  0.00    -0.365 N 
ATOM     12  H   UNL d   1      -2.397  -2.432   0.416  0.00  0.00     0.159 HD
ATOM     13  H   UNL d   1      -3.762  -3.116  -0.406  0.00  0.00     0.159 HD
ENDBRANCH   3   9
BRANCH   2  14
ATOM     14  C   UNL d   1      -0.836   2.472   0.538  0.00  0.00     0.168 C 
BRANCH  14  15
ATOM     15  C   UNL d   1      -0.827   3.643  -0.419  0.00  0.00    -0.040 A 
ATOM     16  C   UNL d   1      -0.793   3.504  -1.813  0.00  0.00     0.009 A 
ATOM     17  C   UNL d   1      -0.833   4.626  -2.644  0.00  0.00     0.001 A 
ATOM     18  C   UNL d   1      -0.917   5.903  -2.095  0.00  0.00     0.000 A 
ATOM     19  C   UNL d   1      -0.961   6.061  -0.713  0.00  0.00     0.001 A 
ATOM     20  C   UNL d   1      -0.919   4.941   0.118  0.00  0.00     0.009 A 
ENDBRANCH  14  15
ENDBRANCH   2  14
BRANCH   4  21
ATOM     21  C   UNL d   1       2.032   1.700  -0.113  0.00  0.00    -0.009 A 
ATOM     22  C   UNL d   1       2.493   2.109  -1.373  0.00  0.00     0.014 A 
ATOM     23  C   UNL d   1       3.577   2.979  -1.485  0.00  0.00     0.001 A 
ATOM     24  C   UNL d   1       4.212   3.445  -0.336  0.00  0.00     0.000 A 
ATOM     25  C   UNL d   1       3.766   3.038   0.921  0.00  0.00     0.001 A 
ATOM     26  C   UNL d   1       2.682   2.163   1.035  0.00  0.00     0.014 A 
ENDBRANCH   4  21
TORSDOF 4
