REMARK  3 active torsions:
REMARK  status: ('A' for Active; 'I' for Inactive)
REMARK    1  A    between atoms: N_2  and  S_1 
REMARK    2  A    between atoms: C_7  and  S_1 
REMARK    3  A    between atoms: C_3  and  N_2 
ROOT
ATOM      1  S   UNL d   1       0.998  -0.058  -0.066  0.00  0.00     0.247 S 
ATOM      2  O   UNL d   1       0.336   1.225   0.056  0.00  0.00    -0.205 OA
ATOM      3  O   UNL d   1       0.843  -1.073   0.949  0.00  0.00    -0.205 OA
ENDROOT
BRANCH   1   4
ATOM      4  N   UNL d   1       2.642   0.292  -0.307  0.00  0.00    -0.165 NA
ATOM      5  H   UNL d   1       2.810   1.168   0.187  0.00  0.00     0.147 HD
BRANCH   4   6
ATOM      6  C   UNL d   1       3.555  -0.699   0.033  0.00  0.00     0.117 A 
ATOM      7  N   UNL d   1       4.132  -0.749   1.232  0.00  0.00    -0.249 N 
ATOM      8  O   UNL d   1       4.941  -1.876   1.203  0.00  0.00    -0.241 OA
ATOM      9  HN  UNL d   1       4.007  -0.098   2.006  1.00  0.00     0.196 HD
ATOM     10  C   UNL d   1       4.900  -2.429  -0.040  0.00  0.00     0.075 A 
ATOM     11  C   UNL d   1       4.055  -1.690  -0.833  0.00  0.00     0.079 A 
ATOM     12  C   UNL d   1       5.725  -3.629  -0.256  0.00  0.00     0.079 C 
ENDBRANCH   4   6
ENDBRANCH   1   4
BRANCH   1  13
ATOM     13  C   UNL d   1       0.516  -0.760  -1.623  0.00  0.00     0.077 A 
ATOM     14  C   UNL d   1       0.614  -2.145  -1.780  0.00  0.00     0.064 A 
ATOM     15  C   UNL d   1       0.244  -2.723  -2.990  0.00  0.00     0.103 A 
ATOM     16  O   UNL d   1       0.420  -4.078  -3.093  0.00  0.00    -0.346 OA
ATOM     17  C   UNL d   1      -0.277  -1.932  -4.018  0.00  0.00     0.102 A 
ATOM     18  C   UNL d   1       0.393  -4.497  -4.462  0.00  0.00     0.202 C 
ATOM     19  C   UNL d   1      -0.780  -3.872  -5.194  0.00  0.00     0.202 C 
ATOM     20  O   UNL d   1      -0.669  -2.442  -5.228  0.00  0.00    -0.346 OA
ATOM     21  C   UNL d   1      -0.405  -0.551  -3.843  0.00  0.00     0.041 A 
ATOM     22  C   UNL d   1      -0.011   0.041  -2.639  0.00  0.00     0.028 A 
ENDBRANCH   1  13
TORSDOF 3
