REMARK  4 active torsions:
REMARK  status: ('A' for Active; 'I' for Inactive)
REMARK    1  A    between atoms: N_5  and  C_1 
REMARK       I    between atoms: C_2  and  N_5 
REMARK       I    between atoms: N_11  and  C_2 
REMARK    2  A    between atoms: C_19  and  C_6 
REMARK    3  A    between atoms: C_9  and  C_16 
REMARK    4  A    between atoms: C_16  and  N_11 
ROOT
ATOM      1  C   UNL d   1      -1.187  -2.357   0.417  0.00  0.00     0.321 C 
ATOM      2  N   UNL d   1      -0.056  -1.837  -0.192  0.00  0.00    -0.306 N 
ATOM      3  N   UNL d   1      -1.066  -3.700   0.674  0.00  0.00    -0.337 N 
ATOM      4  O   UNL d   1      -2.190  -1.724   0.727  0.00  0.00    -0.247 OA
ATOM      5  H   UNL d   1       0.797  -2.284   0.118  0.00  0.00     0.170 HD
ATOM      6  H   UNL d   1      -0.146  -4.108   0.742  0.00  0.00     0.164 HD
ENDROOT
BRANCH   2   7
ATOM      7  C   UNL d   1       0.062  -0.437  -0.430  0.00  0.00     0.071 C 
ATOM      8  C   UNL d   1       1.190   0.237   0.065  0.00  0.00     0.039 C 
ATOM      9  C   UNL d   1       1.239   1.637   0.088  0.00  0.00     0.029 C 
ATOM     10 BR   UNL d   1       2.666  -0.710   0.806  0.00  0.00    -0.049 Br
ATOM     11  C   UNL d   1       0.170   2.395  -0.406  0.00  0.00    -0.052 C 
ATOM     12  C   UNL d   1      -0.877   1.722  -1.051  0.00  0.00     0.029 C 
ATOM     13  C   UNL d   1      -0.922   0.321  -1.084  0.00  0.00     0.039 C 
ATOM     14 BR   UNL d   1      -2.266  -0.465  -2.183  0.00  0.00    -0.049 Br
BRANCH  11  15
ATOM     15  C   UNL d   1       0.089   3.899  -0.206  0.00  0.00     0.010 C 
ATOM     16  C   UNL d   1      -0.022   4.232   1.287  0.00  0.00     0.015 C 
ATOM     17  C   UNL d   1       1.256   4.652  -0.845  0.00  0.00     0.015 C 
ENDBRANCH  11  15
ENDBRANCH   2   7
BRANCH   3  18
ATOM     18  C   UNL d   1      -2.118  -4.377   1.399  0.00  0.00     0.189 C 
BRANCH  18  19
ATOM     19  C   UNL d   1      -1.753  -5.801   1.613  0.00  0.00     0.070 A 
ATOM     20  O   UNL d   1      -0.426  -6.098   1.745  0.00  0.00    -0.325 OA
ATOM     21  C   UNL d   1      -0.336  -7.439   1.948  0.00  0.00     0.142 A 
ATOM     22  C   UNL d   1      -1.588  -8.009   1.958  0.00  0.00     0.027 A 
ATOM     23  C   UNL d   1      -2.506  -6.954   1.744  0.00  0.00     0.036 A 
ENDBRANCH  18  19
ENDBRANCH   3  18
TORSDOF 4
