REMARK  4 active torsions:
REMARK  status: ('A' for Active; 'I' for Inactive)
REMARK    1  A    between atoms: C_4  and  S_1 
REMARK    2  A    between atoms: C_13  and  S_1 
REMARK    3  A    between atoms: N_9  and  C_5 
REMARK    4  A    between atoms: N_14  and  C_6 
ROOT
ATOM      1  N   UNL d   1      -0.116  -2.097  -3.309  0.00  0.00    -0.180 N 
ATOM      2  HN  UNL d   1      -0.106  -3.062  -3.638  1.00  0.00     0.185 HD
ATOM      3  C   UNL d   1       0.395  -0.497  -1.635  0.00  0.00     0.114 A 
ATOM      4  C   UNL d   1      -0.617  -1.119  -4.086  0.00  0.00     0.681 A 
ATOM      5  C   UNL d   1       0.371  -1.789  -2.095  0.00  0.00     0.117 A 
ATOM      6  N   UNL d   1      -0.614   0.165  -3.693  0.00  0.00    -0.200 N 
ATOM      7  HN  UNL d   1      -0.971   0.901  -4.302  1.00  0.00     0.183 HD
ATOM      8  C   UNL d   1      -0.126   0.452  -2.471  0.00  0.00     0.133 A 
ENDROOT
BRANCH   3   9
ATOM      9  S   UNL d   1       0.915  -0.064  -0.026  0.00  0.00     0.183 S 
ATOM     10  O   UNL d   1       0.570  -1.176   0.844  0.00  0.00    -0.222 OA
ATOM     11  O   UNL d   1       0.377   1.256   0.257  0.00  0.00    -0.222 OA
BRANCH   9  12
ATOM     12  C   UNL d   1       2.705   0.069  -0.111  0.00  0.00     0.105 C 
ATOM     13  C   UNL d   1       3.150   1.195  -1.039  0.00  0.00     0.026 C 
ATOM     14  C   UNL d   1       3.269   0.299   1.292  0.00  0.00     0.026 C 
ENDBRANCH   9  12
ENDBRANCH   3   9
BRANCH   5  15
ATOM     15  N   UNL d   1       0.911  -2.864  -1.390  0.00  0.00    -0.287 NA
ATOM     16  H   UNL d   1       0.684  -3.715  -1.902  0.00  0.00     0.125 HD
ATOM     17  H   UNL d   1       0.563  -2.898  -0.428  0.00  0.00     0.125 HD
ENDBRANCH   5  15
BRANCH   4  18
ATOM     18  N   UNL d   1      -1.161  -1.440  -5.304  0.00  0.00    -0.218 N 
ATOM     19  C   UNL d   1      -1.664  -0.411  -6.203  0.00  0.00     0.141 C 
ATOM     20  C   UNL d   1      -3.136  -0.683  -6.520  0.00  0.00     0.020 C 
ATOM     21  C   UNL d   1      -3.348  -2.113  -7.017  0.00  0.00     0.003 C 
ATOM     22  C   UNL d   1      -2.754  -3.129  -6.042  0.00  0.00     0.020 C 
ATOM     23  C   UNL d   1      -1.286  -2.823  -5.738  0.00  0.00     0.141 C 
ENDBRANCH   4  18
TORSDOF 4
