REMARK  3 active torsions:
REMARK  status: ('A' for Active; 'I' for Inactive)
REMARK    1  A    between atoms: C_11  and  C_1 
REMARK    2  A    between atoms: C_9  and  C_6 
REMARK    3  A    between atoms: S_17  and  C_8 
ROOT
ATOM      1  C   UNL d   1       0.089   1.228   0.046  0.00  0.00     0.117 A 
ATOM      2  N   UNL d   1      -1.148   0.706   0.071  0.00  0.00    -0.336 N 
ATOM      3  HN  UNL d   1      -1.976   1.301   0.109  1.00  0.00     0.168 HD
ATOM      4  N   UNL d   1       1.216   0.500  -0.002  0.00  0.00    -0.341 N 
ATOM      5  HN  UNL d   1       2.136   0.940  -0.006  1.00  0.00     0.167 HD
ATOM      6  C   UNL d   1       1.076  -0.843  -0.046  0.00  0.00     0.053 A 
ATOM      7  C   UNL d   1      -0.155  -1.461  -0.013  0.00  0.00     0.068 A 
ATOM      8  C   UNL d   1      -1.249  -0.630   0.043  0.00  0.00     0.073 A 
ENDROOT
BRANCH   1   9
ATOM      9  C   UNL d   1       0.198   2.703   0.060  0.00  0.00     0.008 A 
ATOM     10  C   UNL d   1      -0.953   3.519   0.105  0.00  0.00     0.017 A 
ATOM     11  C   UNL d   1      -0.865   4.915   0.111  0.00  0.00     0.025 A 
ATOM     12  C   UNL d   1       0.383   5.525   0.075  0.00  0.00     0.034 A 
ATOM     13  C   UNL d   1       1.539   4.753   0.031  0.00  0.00     0.025 A 
ATOM     14 CL   UNL d   1       0.494   7.242   0.083  0.00  0.00    -0.084 Cl
ATOM     15  C   UNL d   1       1.446   3.356   0.024  0.00  0.00     0.017 A 
ENDBRANCH   1   9
BRANCH   8  16
ATOM     16  S   UNL d   1      -2.882  -1.354   0.073  0.00  0.00    -0.117 SA
ATOM     17  C   UNL d   1      -3.905   0.142   0.056  0.00  0.00     0.097 C 
ENDBRANCH   8  16
BRANCH   6  18
ATOM     18  C   UNL d   1       2.348  -1.580  -0.131  0.00  0.00     0.031 A 
ATOM     19  S   UNL d   1       2.432  -3.137  -0.861  0.00  0.00    -0.100 SA
ATOM     20  C   UNL d   1       4.115  -3.258  -0.601  0.00  0.00     0.050 A 
ATOM     21  C   UNL d   1       4.620  -2.143   0.025  0.00  0.00     0.008 A 
ATOM     22  C   UNL d   1       3.606  -1.176   0.289  0.00  0.00     0.021 A 
ENDBRANCH   6  18
TORSDOF 3
