REMARK  0 active torsions:
REMARK  status: ('A' for Active; 'I' for Inactive)
ROOT
ATOM      1  N   UNL d   1       3.322  -1.044  -0.917  0.00  0.00    -0.226 N 
ATOM      2  N   UNL d   1       4.689  -1.097  -1.178  0.00  0.00    -0.244 N 
ATOM      3  C   UNL d   1       2.483  -2.129  -1.052  0.00  0.00     0.277 C 
ATOM      4  C   UNL d   1       5.380  -2.267  -1.343  0.00  0.00     0.274 C 
ATOM      5  C   UNL d   1       4.552  -3.493  -1.405  0.00  0.00     0.049 A 
ATOM      6  C   UNL d   1       3.160  -3.424  -1.304  0.00  0.00     0.050 A 
ATOM      7  C   UNL d   1       3.003   0.182  -0.408  0.00  0.00     0.124 A 
ATOM      8  C   UNL d   1       4.097   0.944  -0.306  0.00  0.00    -0.046 A 
ATOM      9  C   UNL d   1       5.281   0.194  -0.842  0.00  0.00     0.188 A 
ATOM     10  O   UNL d   1       6.601  -2.329  -1.423  0.00  0.00    -0.266 OA
ATOM     11  O   UNL d   1       1.263  -2.087  -0.914  0.00  0.00    -0.265 OA
ATOM     12  C   UNL d   1       5.182  -4.740  -1.523  0.00  0.00     0.018 A 
ATOM     13  C   UNL d   1       2.400  -4.601  -1.337  0.00  0.00     0.018 A 
ATOM     14  C   UNL d   1       4.226   2.288   0.306  0.00  0.00     0.046 C 
ATOM     15  C   UNL d   1       4.421  -5.910  -1.535  0.00  0.00     0.001 A 
ATOM     16  C   UNL d   1       3.031  -5.840  -1.448  0.00  0.00     0.001 A 
ENDROOT
TORSDOF 0
