REMARK  4 active torsions:
REMARK  status: ('A' for Active; 'I' for Inactive)
REMARK    1  A    between atoms: S_2  and  N_1 
REMARK    2  A    between atoms: C_6  and  S_2 
REMARK    3  A    between atoms: C_16  and  C_10 
REMARK    4  A    between atoms: S_22  and  C_14 
ROOT
ATOM      1  C   UNL d   1      -1.407  -3.311   1.255  0.00  0.00     0.122 A 
ATOM      2  S   UNL d   1      -0.579  -4.392   2.285  0.00  0.00    -0.074 SA
ATOM      3  C   UNL d   1      -1.927  -4.574   3.340  0.00  0.00     0.033 A 
ATOM      4  C   UNL d   1      -2.679  -3.048   1.726  0.00  0.00     0.034 A 
ATOM      5  C   UNL d   1      -2.970  -3.761   2.928  0.00  0.00     0.023 A 
ENDROOT
BRANCH   1   6
ATOM      6  S   UNL d   1      -0.526  -2.738  -0.182  0.00  0.00     0.289 S 
ATOM      7  O   UNL d   1      -1.543  -2.257  -1.101  0.00  0.00    -0.198 OA
ATOM      8  O   UNL d   1       0.431  -3.765  -0.553  0.00  0.00    -0.198 OA
BRANCH   6   9
ATOM      9  N   UNL d   1       0.410  -1.341   0.227  0.00  0.00    -0.180 N 
ATOM     10  C   UNL d   1       1.218  -0.667  -0.677  0.00  0.00     0.062 A 
ATOM     11  C   UNL d   1       1.665   0.434   0.016  0.00  0.00     0.059 A 
ATOM     12  C   UNL d   1       1.489  -1.075  -2.080  0.00  0.00     0.072 C 
ATOM     13 BR   UNL d   1       2.781   1.803  -0.612  0.00  0.00    -0.047 Br
ATOM     14  C   UNL d   1       1.111   0.364   1.307  0.00  0.00     0.042 A 
ATOM     15  N   UNL d   1       0.342  -0.723   1.443  0.00  0.00    -0.287 N 
ATOM     16  C   UNL d   1       1.270   1.314   2.435  0.00  0.00     0.071 C 
ATOM     17  HN  UNL d   1      -0.178  -1.021   2.268  1.00  0.00     0.188 HD
ENDBRANCH   6   9
ENDBRANCH   1   6
BRANCH   3  18
ATOM     18  C   UNL d   1      -1.866  -5.474   4.506  0.00  0.00     0.052 A 
ATOM     19  N   UNL d   1      -2.659  -5.111   5.539  0.00  0.00    -0.336 N 
ATOM     20  C   UNL d   1      -2.635  -5.897   6.628  0.00  0.00     0.144 A 
ATOM     21  HN  UNL d   1      -3.247  -4.279   5.493  1.00  0.00     0.168 HD
ATOM     22  N   UNL d   1      -1.901  -7.014   6.750  0.00  0.00    -0.347 N 
ATOM     23  C   UNL d   1      -1.141  -7.349   5.696  0.00  0.00     0.092 A 
ATOM     24  HN  UNL d   1      -1.919  -7.579   7.599  1.00  0.00     0.167 HD
ATOM     25  C   UNL d   1      -1.086  -6.611   4.538  0.00  0.00     0.048 A 
BRANCH  20  26
ATOM     26  S   UNL d   1      -3.657  -5.397   7.995  0.00  0.00    -0.098 SA
ATOM     27  C   UNL d   1      -3.293  -6.719   9.180  0.00  0.00     0.099 C 
ENDBRANCH  20  26
ENDBRANCH   3  18
TORSDOF 4
