REMARK  6 active torsions:
REMARK  status: ('A' for Active; 'I' for Inactive)
REMARK    1  A    between atoms: C_4  and  N_1 
REMARK    2  A    between atoms: C_2  and  N_8 
REMARK    3  A    between atoms: N_9  and  C_2 
REMARK    4  A    between atoms: C_3  and  C_6 
REMARK       I    between atoms: N_5  and  C_3 
REMARK    5  A    between atoms: N_8  and  N_5 
REMARK    6  A    between atoms: C_14  and  N_9 
ROOT
ATOM      1  C   UNL d   1       0.179  -2.810   3.772  0.00  0.00     0.270 C 
ATOM      2  N   UNL d   1      -0.261  -3.095   5.051  0.00  0.00    -0.264 N 
ATOM      3  O   UNL d   1      -0.558  -2.438   2.866  0.00  0.00    -0.266 OA
ATOM      4  H   UNL d   1       0.379  -3.183   5.831  0.00  0.00     0.190 HD
ENDROOT
BRANCH   2   5
ATOM      5  N   UNL d   1      -1.590  -2.832   5.390  0.00  0.00    -0.273 N 
ATOM      6  H   UNL d   1      -2.120  -2.288   4.707  0.00  0.00     0.189 HD
BRANCH   5   7
ATOM      7  C   UNL d   1      -2.309  -3.715   6.166  0.00  0.00     0.191 C 
ATOM      8  S   UNL d   1      -1.844  -5.276   6.548  0.00  0.00    -0.039 SA
BRANCH   7   9
ATOM      9  N   UNL d   1      -3.506  -3.239   6.642  0.00  0.00    -0.332 N 
ATOM     10  H   UNL d   1      -4.158  -3.955   6.941  0.00  0.00     0.168 HD
BRANCH   9  11
ATOM     11  C   UNL d   1      -3.742  -1.957   7.198  0.00  0.00     0.034 A 
ATOM     12  C   UNL d   1      -2.709  -1.065   7.522  0.00  0.00     0.036 A 
ATOM     13  C   UNL d   1      -2.980   0.133   8.201  0.00  0.00    -0.060 A 
ATOM     14  C   UNL d   1      -1.862   1.042   8.623  0.00  0.00     0.048 C 
ATOM     15  C   UNL d   1      -4.302   0.458   8.512  0.00  0.00     0.007 A 
ATOM     16  C   UNL d   1      -5.337  -0.421   8.185  0.00  0.00     0.003 A 
ATOM     17  C   UNL d   1      -5.054  -1.631   7.549  0.00  0.00     0.029 A 
ENDBRANCH   9  11
ENDBRANCH   7   9
ENDBRANCH   5   7
ENDBRANCH   2   5
BRANCH   1  18
ATOM     18  C   UNL d   1       1.650  -2.915   3.566  0.00  0.00     0.036 A 
ATOM     19  C   UNL d   1       2.252  -2.107   2.595  0.00  0.00     0.053 A 
ATOM     20  C   UNL d   1       3.639  -2.170   2.410  0.00  0.00     0.103 A 
ATOM     21  C   UNL d   1       4.425  -3.043   3.177  0.00  0.00     0.036 A 
ATOM     22  C   UNL d   1       3.818  -3.858   4.132  0.00  0.00     0.003 A 
ATOM     23  C   UNL d   1       2.436  -3.797   4.326  0.00  0.00     0.017 A 
BRANCH  20  24
ATOM     24  N   UNL d   1       4.284  -1.304   1.414  0.00  0.00    -0.116 N 
ATOM     25  O   UNL d   1       3.568  -0.505   0.796  0.00  0.00    -0.532 OA
ATOM     26  O   UNL d   1       5.508  -1.418   1.259  0.00  0.00    -0.532 OA
ENDBRANCH  20  24
ENDBRANCH   1  18
TORSDOF 6
