REMARK  4 active torsions:
REMARK  status: ('A' for Active; 'I' for Inactive)
REMARK    1  A    between atoms: N_9  and  C_3 
REMARK    2  A    between atoms: O_8  and  C_4 
REMARK    3  A    between atoms: O_18  and  C_5 
REMARK    4  A    between atoms: C_11  and  O_8 
REMARK       I    between atoms: C_13  and  N_9 
ROOT
ATOM      1  N   UNL d   1      -0.708   1.317  -0.221  0.00  0.00    -0.167 N 
ATOM      2  HN  UNL d   1      -1.187   2.208  -0.356  1.00  0.00     0.186 HD
ATOM      3  C   UNL d   1      -1.380   0.198   0.023  0.00  0.00     0.687 A 
ATOM      4  C   UNL d   1       1.331   0.061  -0.037  0.00  0.00     0.150 A 
ATOM      5  C   UNL d   1       0.624   1.224  -0.280  0.00  0.00     0.191 A 
ATOM      6  N   UNL d   1      -0.811  -1.009   0.160  0.00  0.00    -0.193 N 
ATOM      7  HN  UNL d   1      -1.376  -1.851   0.268  1.00  0.00     0.184 HD
ATOM      8  C   UNL d   1       0.545  -1.067   0.149  0.00  0.00     0.061 A 
ATOM      9  C   UNL d   1       1.133  -2.439   0.303  0.00  0.00     0.072 C 
ENDROOT
BRANCH   4  10
ATOM     10  O   UNL d   1       2.698  -0.050  -0.010  0.00  0.00    -0.303 OA
BRANCH  10  11
ATOM     11  C   UNL d   1       3.427   0.936   0.630  0.00  0.00     0.098 A 
ATOM     12  C   UNL d   1       4.621   1.367   0.034  0.00  0.00     0.069 A 
ATOM     13  C   UNL d   1       5.346   2.423   0.588  0.00  0.00     0.050 A 
ATOM     14 CL   UNL d   1       5.190   0.662  -1.435  0.00  0.00    -0.081 Cl
ATOM     15  C   UNL d   1       4.881   3.044   1.745  0.00  0.00     0.035 A 
ATOM     16  C   UNL d   1       3.716   2.599   2.368  0.00  0.00     0.026 A 
ATOM     17 CL   UNL d   1       5.744   4.377   2.405  0.00  0.00    -0.084 Cl
ATOM     18  C   UNL d   1       3.000   1.529   1.825  0.00  0.00     0.041 A 
ENDBRANCH  10  11
ENDBRANCH   4  10
BRANCH   5  19
ATOM     19  O   UNL d   1       1.219   2.404  -0.619  0.00  0.00    -0.344 OA
ATOM     20  H   UNL d   1       2.102   2.208  -0.960  0.00  0.00     0.219 HD
ENDBRANCH   5  19
BRANCH   3  21
ATOM     21  N   UNL d   1      -2.764   0.205   0.121  0.00  0.00    -0.160 N 
ATOM     22  C   UNL d   1      -3.535   1.330   0.269  0.00  0.00     0.231 C 
ATOM     23  O   UNL d   1      -3.142   2.477   0.450  0.00  0.00    -0.273 OA
ATOM     24  C   UNL d   1      -5.013   1.043   0.245  0.00  0.00     0.118 C 
ATOM     25  H   UNL d   1      -3.165  -0.715   0.191  0.00  0.00     0.187 HD
ENDBRANCH   3  21
TORSDOF 4
