REMARK  4 active torsions:
REMARK  status: ('A' for Active; 'I' for Inactive)
REMARK    1  A    between atoms: C_7  and  N_1 
REMARK    2  A    between atoms: C_5  and  C_8 
REMARK    3  A    between atoms: O_15  and  C_5 
REMARK    4  A    between atoms: C_16  and  O_15 
ROOT
ATOM      1  C   UNL d   1       2.120  -1.476   0.059  0.00  0.00     0.049 A 
ATOM      2  C   UNL d   1       4.480  -3.054  -0.121  0.00  0.00     0.039 A 
ATOM      3  C   UNL d   1       2.235  -2.516  -0.876  0.00  0.00     0.031 A 
ATOM      4  C   UNL d   1       3.215  -1.262   0.917  0.00  0.00     0.031 A 
ATOM      5  C   UNL d   1       3.397  -3.294  -0.970  0.00  0.00     0.020 A 
ATOM      6  C   UNL d   1       4.381  -2.038   0.830  0.00  0.00     0.020 A 
ENDROOT
BRANCH   1   7
ATOM      7  N   UNL d   1       0.951  -0.656   0.115  0.00  0.00    -0.248 N 
ATOM      8  C   UNL d   1      -0.245  -0.895  -0.570  0.00  0.00     0.259 A 
ATOM      9  C   UNL d   1      -1.190   0.226  -0.357  0.00  0.00     0.084 A 
ATOM     10  O   UNL d   1      -0.583  -1.845  -1.262  0.00  0.00    -0.267 OA
ATOM     11  C   UNL d   1      -0.673   1.168   0.431  0.00  0.00     0.074 A 
ATOM     12  S   UNL d   1       0.914   0.821   0.996  0.00  0.00    -0.016 SA
ENDBRANCH   1   7
BRANCH   2  13
ATOM     13  C   UNL d   1       5.759  -3.800  -0.245  0.00  0.00     0.293 C 
ATOM     14  O   UNL d   1       6.806  -3.436   0.265  0.00  0.00    -0.259 OA
BRANCH  13  15
ATOM     15  O   UNL d   1       5.577  -4.887  -1.032  0.00  0.00    -0.318 OA
BRANCH  15  16
ATOM     16  C   UNL d   1       6.763  -5.569  -1.466  0.00  0.00     0.174 C 
ATOM     17  C   UNL d   1       7.084  -5.096  -2.872  0.00  0.00     0.034 C 
ENDBRANCH  15  16
ENDBRANCH  13  15
ENDBRANCH   2  13
TORSDOF 4
