REMARK  2 active torsions:
REMARK  status: ('A' for Active; 'I' for Inactive)
REMARK    1  A    between atoms: C_2  and  C_1 
REMARK       I    between atoms: N_3  and  C_1 
REMARK    2  A    between atoms: C_5  and  N_3 
ROOT
ATOM      1  C   UNL d   1       0.996   0.134   0.095  0.00  0.00     0.259 C 
ATOM      2  N   UNL d   1       0.314  -0.785   0.860  0.00  0.00    -0.321 N 
ATOM      3  O   UNL d   1       2.140   0.520   0.334  0.00  0.00    -0.267 OA
ATOM      4  H   UNL d   1      -0.445  -1.305   0.426  0.00  0.00     0.169 HD
ENDROOT
BRANCH   2   5
ATOM      5  C   UNL d   1       0.676  -1.183   2.169  0.00  0.00     0.058 A 
ATOM      6  C   UNL d   1       0.342  -2.470   2.631  0.00  0.00     0.082 A 
ATOM      7  C   UNL d   1       0.633  -2.833   3.954  0.00  0.00     0.058 A 
ATOM      8 CL   UNL d   1      -0.370  -3.606   1.524  0.00  0.00    -0.080 Cl
ATOM      9 CL   UNL d   1       0.301  -4.411   4.580  0.00  0.00    -0.082 Cl
ATOM     10  C   UNL d   1       1.216  -1.907   4.825  0.00  0.00     0.026 A 
ATOM     11  C   UNL d   1       1.539  -0.629   4.372  0.00  0.00     0.004 A 
ATOM     12  C   UNL d   1       1.287  -0.276   3.046  0.00  0.00     0.031 A 
ENDBRANCH   2   5
BRANCH   1  13
ATOM     13  C   UNL d   1       0.311   0.665  -1.109  0.00  0.00     0.070 A 
ATOM     14  C   UNL d   1      -1.081   0.649  -1.240  0.00  0.00     0.132 A 
ATOM     15  F   UNL d   1      -1.852   0.023  -0.338  0.00  0.00    -0.205 F 
ATOM     16  C   UNL d   1      -1.704   1.301  -2.299  0.00  0.00     0.043 A 
ATOM     17  C   UNL d   1      -0.940   1.972  -3.253  0.00  0.00     0.003 A 
ATOM     18  C   UNL d   1       0.451   1.966  -3.157  0.00  0.00     0.001 A 
ATOM     19  C   UNL d   1       1.075   1.317  -2.090  0.00  0.00     0.020 A 
ENDBRANCH   1  13
TORSDOF 2
