REMARK  0 active torsions:
REMARK  status: ('A' for Active; 'I' for Inactive)
ROOT
ATOM      1  C   UNL d   1       1.294  -0.762   0.067  0.00  0.00     0.082 A 
ATOM      2  C   UNL d   1       2.521  -1.502   0.149  0.00  0.00     0.102 C 
ATOM      3  N   UNL d   1       3.514  -2.097   0.230  0.00  0.00    -0.191 NA
ATOM      4  C   UNL d   1       0.064  -1.437   0.076  0.00  0.00     0.056 A 
ATOM      5  C   UNL d   1       1.288   0.641  -0.009  0.00  0.00     0.029 A 
ATOM      6  I   UNL d   1       3.049   1.789  -0.102  0.00  0.00    -0.043 I 
ATOM      7 CL   UNL d   1      -0.040  -3.164   0.133  0.00  0.00    -0.083 Cl
ATOM      8  C   UNL d   1      -1.135   0.664  -0.014  0.00  0.00     0.003 A 
ATOM      9  C   UNL d   1       0.078   1.349  -0.042  0.00  0.00     0.020 A 
ATOM     10  C   UNL d   1      -1.143  -0.728   0.035  0.00  0.00     0.025 A 
ENDROOT
TORSDOF 0
