REMARK  6 active torsions:
REMARK  status: ('A' for Active; 'I' for Inactive)
REMARK    1  A    between atoms: N_6  and  C_4 
REMARK    2  A    between atoms: S_7  and  C_4 
REMARK    3  A    between atoms: C_10  and  N_6 
REMARK    4  A    between atoms: C_8  and  S_9 
REMARK    5  A    between atoms: S_9  and  C_14 
REMARK    6  A    between atoms: C_14  and  C_10 
ROOT
ATOM      1  N   UNL d   1       0.006  -0.480  -0.677  0.00  0.00    -0.274 N 
ATOM      2  HN  UNL d   1      -0.794  -0.939  -0.241  1.00  0.00     0.180 HD
ATOM      3  C   UNL d   1       0.634   0.498  -0.035  0.00  0.00     0.183 C 
ATOM      4  C   UNL d   1       0.398  -0.855  -1.843  0.00  0.00     0.148 C 
ATOM      5  N   UNL d   1       1.175   1.359   0.523  0.00  0.00    -0.172 NA
ENDROOT
BRANCH   4   6
ATOM      6  N   UNL d   1       1.415  -0.463  -2.674  0.00  0.00    -0.369 N 
ATOM      7  H   UNL d   1       1.293  -0.774  -3.638  0.00  0.00     0.161 HD
BRANCH   6   8
ATOM      8  C   UNL d   1       2.260   0.706  -2.514  0.00  0.00     0.132 C 
BRANCH   8   9
ATOM      9  C   UNL d   1       3.193   0.930  -3.710  0.00  0.00     0.094 C 
BRANCH   9  10
ATOM     10  S   UNL d   1       2.244   1.347  -5.218  0.00  0.00    -0.159 SA
BRANCH  10  11
ATOM     11  C   UNL d   1       3.589   1.796  -6.412  0.00  0.00    -0.003 C 
ATOM     12  C   UNL d   1       4.469   0.575  -6.703  0.00  0.00     0.026 C 
ATOM     13  C   UNL d   1       2.889   2.236  -7.708  0.00  0.00     0.026 C 
ATOM     14  C   UNL d   1       4.441   2.962  -5.893  0.00  0.00     0.026 C 
ENDBRANCH  10  11
ENDBRANCH   9  10
ENDBRANCH   8   9
ENDBRANCH   6   8
ENDBRANCH   4   6
BRANCH   4  15
ATOM     15  S   UNL d   1      -0.531  -2.165  -2.596  0.00  0.00    -0.098 SA
ATOM     16  C   UNL d   1      -1.710  -2.555  -1.278  0.00  0.00     0.099 C 
ENDBRANCH   4  15
TORSDOF 6
