REMARK  5 active torsions:
REMARK  status: ('A' for Active; 'I' for Inactive)
REMARK    1  A    between atoms: C_10  and  C_1 
REMARK    2  A    between atoms: N_8  and  C_2 
REMARK    3  A    between atoms: C_13  and  C_3 
REMARK    4  A    between atoms: S_6  and  N_9 
REMARK    5  A    between atoms: C_12  and  S_6 
REMARK       I    between atoms: C_11  and  N_8 
REMARK       I    between atoms: N_9  and  C_11 
ROOT
ATOM      1  C   UNL d   1       1.532   0.825  -0.520  0.00  0.00     0.147 A 
ATOM      2  C   UNL d   1       0.142  -0.925  -0.450  0.00  0.00     0.139 A 
ATOM      3  C   UNL d   1       1.473  -0.578  -0.262  0.00  0.00     0.053 A 
ATOM      4  N   UNL d   1       0.324   1.282  -0.911  0.00  0.00    -0.292 N 
ATOM      5  HN  UNL d   1       0.072   2.243  -1.143  1.00  0.00     0.187 HD
ATOM      6  N   UNL d   1      -0.479   0.199  -0.930  0.00  0.00    -0.280 N 
ATOM      7  C   UNL d   1      -1.873   0.396  -1.257  0.00  0.00     0.179 C 
ENDROOT
BRANCH   2   8
ATOM      8  N   UNL d   1      -0.348  -2.188  -0.129  0.00  0.00    -0.292 N 
ATOM      9  C   UNL d   1      -1.087  -2.997  -1.031  0.00  0.00     0.335 C 
ATOM     10  N   UNL d   1      -1.080  -4.329  -0.676  0.00  0.00    -0.232 N 
ATOM     11  O   UNL d   1      -1.550  -2.525  -2.047  0.00  0.00    -0.246 OA
ATOM     12  H   UNL d   1      -0.634  -4.684   0.160  0.00  0.00     0.183 HD
ATOM     13  H   UNL d   1       0.111  -2.653   0.640  0.00  0.00     0.172 HD
BRANCH  10  14
ATOM     14  S   UNL d   1      -1.508  -5.559  -1.705  0.00  0.00     0.266 S 
ATOM     15  O   UNL d   1      -1.038  -6.761  -1.055  0.00  0.00    -0.200 OA
ATOM     16  O   UNL d   1      -2.894  -5.375  -2.061  0.00  0.00    -0.200 OA
BRANCH  14  17
ATOM     17  C   UNL d   1      -0.474  -5.281  -3.116  0.00  0.00     0.080 A 
ATOM     18  C   UNL d   1       0.914  -5.384  -2.985  0.00  0.00     0.026 A 
ATOM     19  C   UNL d   1       1.731  -5.032  -4.061  0.00  0.00     0.008 A 
ATOM     20  C   UNL d   1       1.165  -4.600  -5.269  0.00  0.00    -0.062 A 
ATOM     21  C   UNL d   1      -0.229  -4.572  -5.404  0.00  0.00     0.008 A 
ATOM     22  C   UNL d   1       2.050  -4.144  -6.393  0.00  0.00     0.048 C 
ATOM     23  C   UNL d   1      -1.052  -4.912  -4.330  0.00  0.00     0.026 A 
ENDBRANCH  14  17
ENDBRANCH  10  14
ENDBRANCH   2   8
BRANCH   3  24
ATOM     24  C   UNL d   1       2.514  -1.549   0.049  0.00  0.00    -0.020 A 
ATOM     25  C   UNL d   1       2.606  -2.729  -0.717  0.00  0.00     0.015 A 
ATOM     26  C   UNL d   1       3.567  -3.696  -0.429  0.00  0.00     0.043 A 
ATOM     27  C   UNL d   1       4.471  -3.469   0.599  0.00  0.00     0.116 A 
ATOM     28  C   UNL d   1       4.421  -2.296   1.345  0.00  0.00     0.043 A 
ATOM     29  F   UNL d   1       5.404  -4.389   0.866  0.00  0.00    -0.206 F 
ATOM     30  C   UNL d   1       3.436  -1.337   1.079  0.00  0.00     0.015 A 
ENDBRANCH   3  24
BRANCH   1  31
ATOM     31  C   UNL d   1       2.721   1.749  -0.384  0.00  0.00     0.434 C 
ATOM     32  F   UNL d   1       3.904   1.087  -0.485  0.00  0.00    -0.165 F 
ATOM     33  F   UNL d   1       2.747   2.727  -1.324  0.00  0.00    -0.165 F 
ATOM     34  F   UNL d   1       2.729   2.359   0.832  0.00  0.00    -0.165 F 
ENDBRANCH   1  31
TORSDOF 5
