REMARK  5 active torsions:
REMARK  status: ('A' for Active; 'I' for Inactive)
REMARK    1  A    between atoms: C_6  and  C_14 
REMARK    2  A    between atoms: S_25  and  C_7 
REMARK    3  A    between atoms: O_15  and  N_8 
REMARK    4  A    between atoms: C_12  and  O_15 
REMARK    5  A    between atoms: C_17  and  C_12 
ROOT
ATOM      1  C   UNL d   1       0.055  -0.797  -0.008  0.00  0.00     0.026 A 
ATOM      2  C   UNL d   1       0.067   0.585   0.023  0.00  0.00     0.025 A 
ATOM      3  C   UNL d   1      -1.221  -1.557  -0.021  0.00  0.00     0.047 C 
ATOM      4  N   UNL d   1       1.214   1.302   0.053  0.00  0.00    -0.339 N 
ATOM      5  HN  UNL d   1       1.199   2.321   0.094  1.00  0.00     0.168 HD
ATOM      6  C   UNL d   1       2.375   0.624   0.026  0.00  0.00     0.144 A 
ATOM      7  N   UNL d   1      -1.209  -2.834  -0.257  0.00  0.00    -0.261 N 
ATOM      8  HN  UNL d   1      -0.357  -3.366  -0.435  1.00  0.00     0.194 HD
ATOM      9  N   UNL d   1       2.466  -0.716  -0.030  0.00  0.00    -0.346 N 
ATOM     10  HN  UNL d   1       3.367  -1.192  -0.055  1.00  0.00     0.167 HD
ATOM     11  C   UNL d   1       1.294  -1.400  -0.050  0.00  0.00     0.105 A 
ATOM     12  C   UNL d   1      -2.439   0.615  -0.440  0.00  0.00    -0.037 C 
ATOM     13  C   UNL d   1      -1.202   1.393   0.051  0.00  0.00     0.067 C 
ATOM     14  C   UNL d   1      -2.479  -0.751   0.266  0.00  0.00     0.069 C 
ATOM     15  C   UNL d   1      -2.409   0.436  -1.972  0.00  0.00     0.015 C 
ATOM     16  C   UNL d   1      -3.707   1.407  -0.077  0.00  0.00     0.015 C 
ENDROOT
BRANCH   7  17
ATOM     17  O   UNL d   1      -2.501  -3.410  -0.239  0.00  0.00    -0.195 OA
BRANCH  17  18
ATOM     18  C   UNL d   1      -2.428  -4.718  -0.656  0.00  0.00     0.315 C 
ATOM     19  O   UNL d   1      -1.421  -5.312  -1.022  0.00  0.00    -0.257 OA
BRANCH  18  20
ATOM     20  C   UNL d   1      -3.762  -5.387  -0.609  0.00  0.00     0.042 A 
ATOM     21  C   UNL d   1      -4.946  -4.756  -0.196  0.00  0.00     0.034 A 
ATOM     22  C   UNL d   1      -6.164  -5.469  -0.156  0.00  0.00     0.048 A 
ATOM     23  C   UNL d   1      -6.183  -6.819  -0.543  0.00  0.00     0.016 A 
ATOM     24  C   UNL d   1      -5.015  -7.450  -0.963  0.00  0.00     0.002 A 
ATOM     25  C   UNL d   1      -3.814  -6.739  -0.995  0.00  0.00     0.018 A 
BRANCH  22  26
ATOM     26  C   UNL d   1      -7.450  -4.822   0.305  0.00  0.00     0.417 C 
ATOM     27  F   UNL d   1      -7.303  -3.513   0.652  0.00  0.00    -0.166 F 
ATOM     28  F   UNL d   1      -8.419  -4.849  -0.651  0.00  0.00    -0.166 F 
ATOM     29  F   UNL d   1      -7.981  -5.442   1.394  0.00  0.00    -0.166 F 
ENDBRANCH  22  26
ENDBRANCH  18  20
ENDBRANCH  17  18
ENDBRANCH   7  17
BRANCH   6  30
ATOM     30  S   UNL d   1       3.841   1.625   0.074  0.00  0.00    -0.098 SA
ATOM     31  C   UNL d   1       5.129   0.360   0.010  0.00  0.00     0.099 C 
ENDBRANCH   6  30
TORSDOF 5
