REMARK  4 active torsions:
REMARK  status: ('A' for Active; 'I' for Inactive)
REMARK    1  A    between atoms: C_2  and  C_1 
REMARK       I    between atoms: N_4  and  C_2 
REMARK       I    between atoms: C_3  and  N_5 
REMARK    2  A    between atoms: C_6  and  C_3 
REMARK    3  A    between atoms: N_5  and  N_4 
REMARK    4  A    between atoms: N_12  and  C_7 
ROOT
ATOM      1  C   UNL d   1       0.761   2.503   0.015  0.00  0.00     0.271 C 
ATOM      2  N   UNL d   1       0.197   3.748   0.213  0.00  0.00    -0.263 N 
ATOM      3  O   UNL d   1       0.163   1.598  -0.569  0.00  0.00    -0.266 OA
ATOM      4  H   UNL d   1       0.715   4.568   0.525  0.00  0.00     0.190 HD
ENDROOT
BRANCH   2   5
ATOM      5  N   UNL d   1      -1.070   3.984  -0.332  0.00  0.00    -0.263 N 
ATOM      6  C   UNL d   1      -1.635   5.231  -0.162  0.00  0.00     0.270 C 
ATOM      7  O   UNL d   1      -1.058   6.150   0.413  0.00  0.00    -0.266 OA
ATOM      8  H   UNL d   1      -1.576   3.162  -0.655  0.00  0.00     0.190 HD
BRANCH   6   9
ATOM      9  C   UNL d   1      -3.012   5.415  -0.695  0.00  0.00     0.033 A 
ATOM     10  C   UNL d   1      -3.835   6.376  -0.088  0.00  0.00     0.019 A 
ATOM     11  C   UNL d   1      -5.126   6.606  -0.570  0.00  0.00     0.025 A 
ATOM     12  C   UNL d   1      -5.593   5.883  -1.667  0.00  0.00     0.034 A 
ATOM     13  C   UNL d   1      -4.782   4.931  -2.282  0.00  0.00     0.025 A 
ATOM     14 CL   UNL d   1      -7.176   6.180  -2.274  0.00  0.00    -0.084 Cl
ATOM     15  C   UNL d   1      -3.490   4.695  -1.800  0.00  0.00     0.019 A 
ENDBRANCH   6   9
ENDBRANCH   2   5
BRANCH   1  16
ATOM     16  C   UNL d   1       2.141   2.297   0.543  0.00  0.00     0.054 A 
ATOM     17  C   UNL d   1       3.005   1.376  -0.090  0.00  0.00     0.021 A 
ATOM     18  C   UNL d   1       4.295   1.202   0.429  0.00  0.00     0.024 A 
ATOM     19  C   UNL d   1       4.694   1.849   1.600  0.00  0.00     0.002 A 
ATOM     20  C   UNL d   1       3.821   2.719   2.247  0.00  0.00     0.001 A 
ATOM     21  C   UNL d   1       2.549   2.949   1.720  0.00  0.00     0.019 A 
BRANCH  17  22
ATOM     22  N   UNL d   1       2.709   0.810  -1.348  0.00  0.00    -0.302 NA
ATOM     23  H   UNL d   1       1.696   0.737  -1.494  0.00  0.00     0.124 HD
ATOM     24  H   UNL d   1       3.175  -0.075  -1.519  0.00  0.00     0.124 HD
ENDBRANCH  17  22
ENDBRANCH   1  16
TORSDOF 4
