REMARK  3 active torsions:
REMARK  status: ('A' for Active; 'I' for Inactive)
REMARK       I    between atoms: N_5  and  C_1 
REMARK       I    between atoms: N_7  and  C_1 
REMARK    1  A    between atoms: C_2  and  C_9 
REMARK    2  A    between atoms: C_11  and  N_5 
REMARK    3  A    between atoms: C_9  and  N_7 
ROOT
ATOM      1  C   UNL d   1       0.892   0.115  -0.054  0.00  0.00     0.321 C 
ATOM      2  N   UNL d   1       2.175   0.032   0.445  0.00  0.00    -0.309 N 
ATOM      3  N   UNL d   1       0.172   1.074   0.624  0.00  0.00    -0.338 N 
ATOM      4  O   UNL d   1       0.400  -0.612  -0.907  0.00  0.00    -0.247 OA
ATOM      5  H   UNL d   1       2.276   0.390   1.384  0.00  0.00     0.170 HD
ATOM      6  H   UNL d   1       0.676   1.907   0.892  0.00  0.00     0.164 HD
ENDROOT
BRANCH   2   7
ATOM      7  C   UNL d   1       3.156  -0.881   0.007  0.00  0.00     0.036 A 
ATOM      8  C   UNL d   1       3.197  -1.379  -1.299  0.00  0.00     0.032 A 
ATOM      9  C   UNL d   1       4.175  -2.306  -1.669  0.00  0.00     0.044 A 
ATOM     10  C   UNL d   1       5.103  -2.737  -0.729  0.00  0.00     0.116 A 
ATOM     11  C   UNL d   1       5.088  -2.238   0.568  0.00  0.00     0.044 A 
ATOM     12  F   UNL d   1       6.024  -3.645  -1.076  0.00  0.00    -0.206 F 
ATOM     13  C   UNL d   1       4.125  -1.294   0.932  0.00  0.00     0.032 A 
ENDBRANCH   2   7
BRANCH   3  14
ATOM     14  C   UNL d   1      -1.258   1.206   0.452  0.00  0.00     0.171 C 
BRANCH  14  15
ATOM     15  C   UNL d   1      -1.561   2.388  -0.416  0.00  0.00     0.006 A 
ATOM     16  C   UNL d   1      -1.808   2.438  -1.782  0.00  0.00    -0.047 A 
ATOM     17  C   UNL d   1      -2.103   3.778  -2.203  0.00  0.00     0.015 A 
ATOM     18  C   UNL d   1      -1.788   1.280  -2.728  0.00  0.00     0.049 C 
ATOM     19  C   UNL d   1      -2.072   4.683  -1.168  0.00  0.00     0.051 A 
ATOM     20  S   UNL d   1      -1.675   3.941   0.313  0.00  0.00    -0.104 SA
ENDBRANCH  14  15
ENDBRANCH   3  14
TORSDOF 3
