REMARK  5 active torsions:
REMARK  status: ('A' for Active; 'I' for Inactive)
REMARK    1  A    between atoms: S_8  and  C_1 
REMARK    2  A    between atoms: C_6  and  C_3 
REMARK    3  A    between atoms: C_10  and  C_5 
REMARK    4  A    between atoms: O_14  and  C_6 
REMARK    5  A    between atoms: C_16  and  S_8 
ROOT
ATOM      1  C   UNL d   1       0.252   0.673   0.091  0.00  0.00     0.064 C 
ATOM      2  C   UNL d   1      -0.431  -0.482   0.425  0.00  0.00     0.081 C 
ATOM      3  C   UNL d   1       1.550  -1.401  -0.368  0.00  0.00     0.092 C 
ATOM      4  S   UNL d   1       1.779   0.287  -0.595  0.00  0.00    -0.074 SA
ATOM      5  C   UNL d   1       0.218  -1.671  -0.064  0.00  0.00     0.021 C 
ATOM      6  C   UNL d   1      -1.617  -0.492   1.240  0.00  0.00     0.102 C 
ATOM      7  N   UNL d   1      -2.517  -0.538   1.963  0.00  0.00    -0.191 NA
ENDROOT
BRANCH   1   8
ATOM      8  S   UNL d   1      -0.148   2.332   0.534  0.00  0.00    -0.116 SA
BRANCH   8   9
ATOM      9  C   UNL d   1      -1.109   3.049  -0.866  0.00  0.00     0.053 C 
ATOM     10  C   UNL d   1      -1.393   4.534  -0.549  0.00  0.00     0.015 C 
ATOM     11  C   UNL d   1      -2.364   4.728   0.622  0.00  0.00     0.001 C 
ATOM     12  C   UNL d   1      -3.664   3.945   0.449  0.00  0.00     0.000 C 
ATOM     13  C   UNL d   1      -3.463   2.506  -0.019  0.00  0.00     0.001 C 
ATOM     14  C   UNL d   1      -2.456   2.376  -1.160  0.00  0.00     0.015 C 
ENDBRANCH   8   9
ENDBRANCH   1   8
BRANCH   5  15
ATOM     15  C   UNL d   1      -0.293  -3.044  -0.077  0.00  0.00    -0.023 A 
ATOM     16  C   UNL d   1      -0.276  -3.773  -1.279  0.00  0.00     0.014 A 
ATOM     17  C   UNL d   1      -0.713  -5.100  -1.313  0.00  0.00     0.024 A 
ATOM     18  C   UNL d   1      -1.192  -5.696  -0.150  0.00  0.00     0.034 A 
ATOM     19  C   UNL d   1      -1.239  -4.975   1.042  0.00  0.00     0.024 A 
ATOM     20 CL   UNL d   1      -1.721  -7.332  -0.183  0.00  0.00    -0.084 Cl
ATOM     21  C   UNL d   1      -0.785  -3.652   1.082  0.00  0.00     0.014 A 
ENDBRANCH   5  15
BRANCH   3  22
ATOM     22  C   UNL d   1       2.658  -2.354  -0.460  0.00  0.00     0.184 C 
ATOM     23  O   UNL d   1       2.633  -3.517  -0.088  0.00  0.00    -0.646 OA
BRANCH  22  24
ATOM     24  O   UNL d   1       3.788  -1.820  -0.988  0.00  0.00    -0.772 OA
ATOM     25  H   UNL d   1       3.693  -0.875  -1.202  0.00  0.00     0.167 HD
ENDBRANCH  22  24
ENDBRANCH   3  22
TORSDOF 5
