REMARK  7 active torsions:
REMARK  status: ('A' for Active; 'I' for Inactive)
REMARK    1  A    between atoms: C_2  and  C_1 
REMARK       I    between atoms: N_3  and  C_1 
REMARK    2  A    between atoms: C_10  and  N_3 
REMARK    3  A    between atoms: O_11  and  C_5 
REMARK    4  A    between atoms: O_15  and  C_6 
REMARK    5  A    between atoms: C_18  and  C_12 
REMARK    6  A    between atoms: C_21  and  C_18 
REMARK    7  A    between atoms: C_22  and  C_21 
ROOT
ATOM      1  C   UNL d   1       1.074   0.013  -0.085  0.00  0.00     0.256 C 
ATOM      2  N   UNL d   1       0.341  -1.133  -0.351  0.00  0.00    -0.323 N 
ATOM      3  O   UNL d   1       0.646   1.159  -0.033  0.00  0.00    -0.267 OA
ATOM      4  H   UNL d   1       0.818  -2.020  -0.283  0.00  0.00     0.169 HD
ENDROOT
BRANCH   1   5
ATOM      5  C   UNL d   1       2.519  -0.200   0.225  0.00  0.00     0.035 A 
ATOM      6  C   UNL d   1       3.144   0.712   1.095  0.00  0.00     0.056 A 
ATOM      7  C   UNL d   1       4.489   0.564   1.465  0.00  0.00     0.102 A 
ATOM      8  C   UNL d   1       5.216  -0.519   0.939  0.00  0.00     0.101 A 
ATOM      9  C   UNL d   1       4.590  -1.415   0.058  0.00  0.00     0.040 A 
ATOM     10  C   UNL d   1       3.255  -1.255  -0.311  0.00  0.00     0.020 A 
BRANCH   7  11
ATOM     11  O   UNL d   1       5.123   1.407   2.337  0.00  0.00    -0.353 OA
ATOM     12  C   UNL d   1       4.382   2.489   2.888  0.00  0.00     0.210 C 
ENDBRANCH   7  11
BRANCH   8  13
ATOM     13  O   UNL d   1       6.511  -0.877   1.213  0.00  0.00    -0.353 OA
ATOM     14  C   UNL d   1       7.414   0.149   1.598  0.00  0.00     0.210 C 
ENDBRANCH   8  13
ENDBRANCH   1   5
BRANCH   2  15
ATOM     15  C   UNL d   1      -1.056  -1.217  -0.546  0.00  0.00     0.035 A 
ATOM     16  C   UNL d   1      -1.908  -0.113  -0.560  0.00  0.00     0.030 A 
ATOM     17  C   UNL d   1      -3.293  -0.281  -0.651  0.00  0.00     0.009 A 
ATOM     18  C   UNL d   1      -3.855  -1.558  -0.737  0.00  0.00    -0.058 A 
ATOM     19  C   UNL d   1      -2.998  -2.663  -0.798  0.00  0.00     0.009 A 
ATOM     20  C   UNL d   1      -1.612  -2.494  -0.696  0.00  0.00     0.030 A 
BRANCH  18  21
ATOM     21  C   UNL d   1      -5.355  -1.726  -0.735  0.00  0.00     0.038 C 
BRANCH  21  22
ATOM     22  C   UNL d   1      -5.884  -2.582   0.426  0.00  0.00     0.004 C 
BRANCH  22  23
ATOM     23  C   UNL d   1      -5.565  -2.000   1.807  0.00  0.00    -0.004 C 
ATOM     24  C   UNL d   1      -6.112  -2.883   2.917  0.00  0.00     0.005 C 
ENDBRANCH  22  23
ENDBRANCH  21  22
ENDBRANCH  18  21
ENDBRANCH   2  15
TORSDOF 7
