REMARK  4 active torsions:
REMARK  status: ('A' for Active; 'I' for Inactive)
REMARK    1  A    between atoms: C_10  and  C_1 
REMARK    2  A    between atoms: C_4  and  C_2 
REMARK       I    between atoms: N_15  and  C_10 
REMARK       I    between atoms: C_14  and  N_16 
REMARK    3  A    between atoms: C_17  and  C_14 
REMARK    4  A    between atoms: N_16  and  N_15 
ROOT
ATOM      1  C   UNL d   1      -0.259  -2.613  -0.057  0.00  0.00     0.279 C 
ATOM      2  N   UNL d   1       0.891  -3.385  -0.048  0.00  0.00    -0.262 N 
ATOM      3  O   UNL d   1      -1.364  -3.166  -0.031  0.00  0.00    -0.265 OA
ATOM      4  H   UNL d   1       1.830  -3.006  -0.154  0.00  0.00     0.190 HD
ENDROOT
BRANCH   1   5
ATOM      5  C   UNL d   1      -0.095  -1.172  -0.080  0.00  0.00     0.098 A 
ATOM      6  S   UNL d   1       1.431  -0.395   0.066  0.00  0.00    -0.063 SA
ATOM      7  C   UNL d   1       0.657   1.138   0.057  0.00  0.00     0.102 A 
ATOM      8  N   UNL d   1      -0.652   1.103  -0.082  0.00  0.00    -0.351 N 
ATOM      9  C   UNL d   1      -1.088  -0.208  -0.196  0.00  0.00     0.029 A 
ATOM     10  HN  UNL d   1      -1.258   1.923  -0.103  1.00  0.00     0.166 HD
ATOM     11  C   UNL d   1      -2.541  -0.441  -0.417  0.00  0.00     0.070 C 
BRANCH   7  12
ATOM     12  C   UNL d   1       1.401   2.441   0.190  0.00  0.00     0.073 A 
ATOM     13  N   UNL d   1       2.786   2.526   0.186  0.00  0.00    -0.352 N 
ATOM     14  C   UNL d   1       3.154   3.787   0.266  0.00  0.00     0.047 A 
ATOM     15  HN  UNL d   1       3.422   1.731   0.129  1.00  0.00     0.166 HD
ATOM     16  C   UNL d   1       4.564   4.259   0.221  0.00  0.00     0.076 C 
ATOM     17  S   UNL d   1       1.876   4.927   0.424  0.00  0.00    -0.087 SA
ATOM     18  C   UNL d   1       0.742   3.648   0.318  0.00  0.00     0.083 A 
ENDBRANCH   7  12
ENDBRANCH   1   5
BRANCH   2  19
ATOM     19  N   UNL d   1       0.757  -4.782   0.011  0.00  0.00    -0.263 N 
ATOM     20  C   UNL d   1       1.819  -5.566  -0.396  0.00  0.00     0.270 C 
ATOM     21  O   UNL d   1       2.892  -5.079  -0.746  0.00  0.00    -0.266 OA
ATOM     22  H   UNL d   1      -0.195  -5.125   0.110  0.00  0.00     0.190 HD
BRANCH  20  23
ATOM     23  C   UNL d   1       1.610  -7.048  -0.407  0.00  0.00     0.033 A 
ATOM     24  C   UNL d   1       0.525  -7.673   0.221  0.00  0.00     0.017 A 
ATOM     25  C   UNL d   1       0.397  -9.068   0.188  0.00  0.00     0.007 A 
ATOM     26  C   UNL d   1       1.351  -9.858  -0.464  0.00  0.00    -0.062 A 
ATOM     27  C   UNL d   1       2.440  -9.235  -1.080  0.00  0.00     0.007 A 
ATOM     28  C   UNL d   1       1.202 -11.352  -0.484  0.00  0.00     0.048 C 
ATOM     29  C   UNL d   1       2.568  -7.843  -1.051  0.00  0.00     0.017 A 
ENDBRANCH  20  23
ENDBRANCH   2  19
TORSDOF 4
