REMARK  7 active torsions:
REMARK  status: ('A' for Active; 'I' for Inactive)
REMARK    1  A    between atoms: C_3  and  C_1 
REMARK    2  A    between atoms: C_2  and  C_5 
REMARK    3  A    between atoms: O_10  and  C_3 
REMARK    4  A    between atoms: C_23  and  C_9 
REMARK    5  A    between atoms: N_11  and  O_10 
REMARK    6  A    between atoms: C_14  and  S_17 
REMARK    7  A    between atoms: S_17  and  C_23 
ROOT
ATOM      1  C   UNL d   1      -0.174   1.164  -0.011  0.00  0.00     0.152 A 
ATOM      2  O   UNL d   1      -1.012   0.078  -0.050  0.00  0.00    -0.308 OA
ATOM      3  C   UNL d   1       1.138   0.726  -0.035  0.00  0.00     0.046 A 
ATOM      4  C   UNL d   1      -0.230  -1.043  -0.097  0.00  0.00     0.063 A 
ATOM      5  C   UNL d   1       1.102  -0.687  -0.075  0.00  0.00     0.036 A 
ENDROOT
BRANCH   4   6
ATOM      6  C   UNL d   1      -0.920  -2.365  -0.114  0.00  0.00     0.145 C 
BRANCH   6   7
ATOM      7  S   UNL d   1      -1.856  -2.593  -1.659  0.00  0.00    -0.106 SA
BRANCH   7   8
ATOM      8  C   UNL d   1      -2.493  -4.240  -1.413  0.00  0.00     0.069 A 
ATOM      9  N   UNL d   1      -2.130  -4.925  -0.307  0.00  0.00    -0.360 N 
ATOM     10  C   UNL d   1      -2.624  -6.178  -0.155  0.00  0.00     0.105 A 
ATOM     11  HN  UNL d   1      -1.508  -4.515   0.389  1.00  0.00     0.166 HD
ATOM     12  C   UNL d   1      -3.471  -6.798  -1.062  0.00  0.00     0.063 A 
ATOM     13  C   UNL d   1      -3.832  -6.071  -2.199  0.00  0.00     0.020 A 
ATOM     14  C   UNL d   1      -3.337  -4.779  -2.378  0.00  0.00     0.038 A 
BRANCH  12  15
ATOM     15  C   UNL d   1      -3.977  -8.188  -0.824  0.00  0.00     0.418 C 
ATOM     16  F   UNL d   1      -3.521  -8.742   0.333  0.00  0.00    -0.166 F 
ATOM     17  F   UNL d   1      -5.335  -8.243  -0.755  0.00  0.00    -0.166 F 
ATOM     18  F   UNL d   1      -3.618  -9.049  -1.816  0.00  0.00    -0.166 F 
ENDBRANCH  12  15
ENDBRANCH   7   8
ENDBRANCH   6   7
ENDBRANCH   4   6
BRANCH   1  19
ATOM     19  C   UNL d   1      -0.698   2.507   0.111  0.00  0.00     0.339 C 
ATOM     20  O   UNL d   1      -0.010   3.517   0.202  0.00  0.00    -0.255 OA
BRANCH  19  21
ATOM     21  O   UNL d   1      -2.075   2.476   0.143  0.00  0.00    -0.193 OA
BRANCH  21  22
ATOM     22  N   UNL d   1      -2.543   3.462   1.034  0.00  0.00    -0.266 N 
ATOM     23  C   UNL d   1      -3.790   3.762   0.839  0.00  0.00     0.003 C 
ATOM     24  C   UNL d   1      -4.646   3.279  -0.304  0.00  0.00     0.065 C 
ATOM     25  C   UNL d   1      -4.458   4.648   1.861  0.00  0.00     0.065 C 
ATOM     26  HN  UNL d   1      -1.964   3.894   1.754  1.00  0.00     0.194 HD
ENDBRANCH  21  22
ENDBRANCH  19  21
ENDBRANCH   1  19
TORSDOF 7
