REMARK  7 active torsions:
REMARK  status: ('A' for Active; 'I' for Inactive)
REMARK    1  A    between atoms: S_14  and  C_2 
REMARK    2  A    between atoms: C_6  and  C_3 
REMARK       I    between atoms: N_9  and  C_6 
REMARK    3  A    between atoms: C_7  and  N_10 
REMARK    4  A    between atoms: N_8  and  C_7 
REMARK    5  A    between atoms: C_11  and  N_8 
REMARK    6  A    between atoms: N_10  and  N_9 
REMARK    7  A    between atoms: O_19  and  C_12 
ROOT
ATOM      1  C   UNL d   1       2.356   2.105   0.121  0.00  0.00     0.277 C 
ATOM      2  N   UNL d   1       3.732   2.077   0.318  0.00  0.00    -0.263 N 
ATOM      3  O   UNL d   1       1.742   3.149  -0.102  0.00  0.00    -0.265 OA
ATOM      4  H   UNL d   1       4.215   1.199   0.163  0.00  0.00     0.190 HD
ENDROOT
BRANCH   1   5
ATOM      5  C   UNL d   1       1.681   0.807   0.144  0.00  0.00     0.082 A 
ATOM      6  C   UNL d   1       0.315   0.559   0.125  0.00  0.00    -0.025 A 
ATOM      7  C   UNL d   1       0.008  -0.854   0.009  0.00  0.00     0.002 A 
ATOM      8  C   UNL d   1      -0.761   1.619   0.159  0.00  0.00     0.041 C 
ATOM      9  C   UNL d   1       1.158  -1.626   0.084  0.00  0.00     0.051 A 
ATOM     10  C   UNL d   1      -1.418  -1.325  -0.146  0.00  0.00     0.153 C 
ATOM     11  S   UNL d   1       2.564  -0.651   0.175  0.00  0.00    -0.076 SA
ATOM     12  C   UNL d   1      -2.410  -0.182  -0.409  0.00  0.00     0.037 C 
ATOM     13  C   UNL d   1      -2.135   1.027   0.477  0.00  0.00     0.007 C 
BRANCH   9  14
ATOM     14  S   UNL d   1       1.387  -3.373   0.014  0.00  0.00    -0.126 SA
ATOM     15  C   UNL d   1      -0.001  -4.058   0.935  0.00  0.00     0.096 C 
ENDBRANCH   9  14
BRANCH  10  16
ATOM     16  O   UNL d   1      -1.558  -2.250  -1.223  0.00  0.00    -0.391 OA
ATOM     17  H   UNL d   1      -1.001  -1.922  -1.951  0.00  0.00     0.210 HD
ENDBRANCH  10  16
ENDBRANCH   1   5
BRANCH   2  18
ATOM     18  N   UNL d   1       4.476   3.260   0.155  0.00  0.00    -0.273 N 
ATOM     19  H   UNL d   1       5.289   3.220  -0.449  0.00  0.00     0.189 HD
BRANCH  18  20
ATOM     20  C   UNL d   1       4.338   4.373   0.957  0.00  0.00     0.191 C 
ATOM     21  S   UNL d   1       3.645   4.438   2.476  0.00  0.00    -0.039 SA
BRANCH  20  22
ATOM     22  N   UNL d   1       4.910   5.514   0.440  0.00  0.00    -0.331 N 
ATOM     23  H   UNL d   1       5.086   6.262   1.101  0.00  0.00     0.168 HD
BRANCH  22  24
ATOM     24  C   UNL d   1       5.022   5.880  -0.930  0.00  0.00     0.056 A 
ATOM     25  C   UNL d   1       5.925   6.888  -1.309  0.00  0.00     0.060 A 
ATOM     26 CL   UNL d   1       7.034   7.567  -0.176  0.00  0.00    -0.082 Cl
ATOM     27  C   UNL d   1       5.983   7.325  -2.638  0.00  0.00     0.026 A 
ATOM     28  C   UNL d   1       5.132   6.773  -3.594  0.00  0.00     0.002 A 
ATOM     29  C   UNL d   1       4.239   5.776  -3.233  0.00  0.00     0.002 A 
ATOM     30  C   UNL d   1       4.183   5.327  -1.906  0.00  0.00     0.031 A 
ENDBRANCH  22  24
ENDBRANCH  20  22
ENDBRANCH  18  20
ENDBRANCH   2  18
TORSDOF 7
