REMARK  3 active torsions:
REMARK  status: ('A' for Active; 'I' for Inactive)
REMARK    1  A    between atoms: N_6  and  C_1 
REMARK    2  A    between atoms: C_11  and  C_5 
REMARK       I    between atoms: C_8  and  N_6 
REMARK    3  A    between atoms: C_10  and  C_8 
ROOT
ATOM      1  C   UNL d   1       1.159  -0.552   0.023  0.00  0.00     0.124 A 
ATOM      2  C   UNL d   1       1.041   0.816  -0.025  0.00  0.00     0.081 A 
ATOM      3  N   UNL d   1      -1.059  -0.040   0.042  0.00  0.00    -0.298 N 
ATOM      4  HN  UNL d   1      -2.073  -0.145   0.049  1.00  0.00     0.187 HD
ATOM      5  C   UNL d   1      -0.351   1.101  -0.001  0.00  0.00     0.062 A 
ATOM      6  N   UNL d   1      -0.132  -1.010   0.074  0.00  0.00    -0.285 N 
ATOM      7  H   UNL d   1      -0.460  -1.967   0.121  0.00  0.00     0.188 HD
ENDROOT
BRANCH   1   8
ATOM      8  N   UNL d   1       2.312  -1.333   0.018  0.00  0.00    -0.308 N 
ATOM      9  C   UNL d   1       3.635  -0.763  -0.027  0.00  0.00     0.257 C 
ATOM     10  O   UNL d   1       3.808   0.446  -0.015  0.00  0.00    -0.267 OA
ATOM     11  H   UNL d   1       2.207  -2.335   0.086  0.00  0.00     0.170 HD
BRANCH   9  12
ATOM     12  C   UNL d   1       4.792  -1.690  -0.048  0.00  0.00     0.032 A 
ATOM     13  C   UNL d   1       4.711  -2.993  -0.550  0.00  0.00     0.017 A 
ATOM     14  C   UNL d   1       5.854  -3.796  -0.569  0.00  0.00     0.001 A 
ATOM     15  C   UNL d   1       7.072  -3.302  -0.094  0.00  0.00     0.000 A 
ATOM     16  C   UNL d   1       7.155  -2.004   0.399  0.00  0.00     0.001 A 
ATOM     17  C   UNL d   1       6.020  -1.196   0.420  0.00  0.00     0.017 A 
ENDBRANCH   9  12
ENDBRANCH   1   8
BRANCH   5  18
ATOM     18  C   UNL d   1      -0.973   2.425  -0.043  0.00  0.00    -0.008 A 
ATOM     19  C   UNL d   1      -2.256   2.596  -0.578  0.00  0.00     0.014 A 
ATOM     20  C   UNL d   1      -2.824   3.871  -0.668  0.00  0.00     0.001 A 
ATOM     21  C   UNL d   1      -2.118   4.985  -0.215  0.00  0.00     0.000 A 
ATOM     22  C   UNL d   1      -0.848   4.827   0.334  0.00  0.00     0.001 A 
ATOM     23  C   UNL d   1      -0.279   3.555   0.420  0.00  0.00     0.014 A 
ENDBRANCH   5  18
TORSDOF 3
