REMARK  8 active torsions:
REMARK  status: ('A' for Active; 'I' for Inactive)
REMARK    1  A    between atoms: C_8  and  C_1 
REMARK    2  A    between atoms: C_11  and  C_4 
REMARK    3  A    between atoms: S_13  and  C_6 
REMARK    4  A    between atoms: O_16  and  C_8 
REMARK    5  A    between atoms: O_17  and  C_11 
REMARK    6  A    between atoms: O_18  and  C_11 
REMARK    7  A    between atoms: C_19  and  S_13 
REMARK    8  A    between atoms: C_14  and  C_19 
ROOT
ATOM      1  C   UNL d   1      -1.549   1.373   0.052  0.00  0.00     0.068 A 
ATOM      2  N   UNL d   1      -1.489  -1.020  -0.213  0.00  0.00    -0.348 N 
ATOM      3  HN  UNL d   1      -1.985  -1.903  -0.333  1.00  0.00     0.166 HD
ATOM      4  C   UNL d   1      -2.202   0.147  -0.085  0.00  0.00     0.082 A 
ATOM      5  C   UNL d   1       0.574   0.169  -0.047  0.00  0.00     0.079 A 
ATOM      6  C   UNL d   1      -0.138  -1.014  -0.183  0.00  0.00     0.091 A 
ATOM      7  C   UNL d   1      -0.143   1.367   0.066  0.00  0.00     0.045 A 
ATOM      8  C   UNL d   1       2.003   0.209  -0.000  0.00  0.00     0.102 C 
ATOM      9  N   UNL d   1       3.158   0.300   0.051  0.00  0.00    -0.191 NA
ENDROOT
BRANCH   6  10
ATOM     10  S   UNL d   1       0.651  -2.615  -0.228  0.00  0.00    -0.107 SA
BRANCH  10  11
ATOM     11  C   UNL d   1      -0.638  -3.589  -1.070  0.00  0.00     0.107 C 
BRANCH  11  12
ATOM     12  C   UNL d   1      -0.199  -5.022  -1.138  0.00  0.00    -0.026 C 
ATOM     13  C   UNL d   1       0.071  -5.682  -2.273  0.00  0.00     0.007 C 
ENDBRANCH  11  12
ENDBRANCH  10  11
ENDBRANCH   6  10
BRANCH   1  14
ATOM     14  C   UNL d   1      -2.271   2.652   0.277  0.00  0.00     0.295 C 
ATOM     15  O   UNL d   1      -3.368   2.738   0.799  0.00  0.00    -0.259 OA
BRANCH  14  16
ATOM     16  O   UNL d   1      -1.503   3.694  -0.129  0.00  0.00    -0.322 OA
ATOM     17  C   UNL d   1      -2.044   4.987   0.158  0.00  0.00     0.213 C 
ENDBRANCH  14  16
ENDBRANCH   1  14
BRANCH   4  18
ATOM     18  C   UNL d   1      -3.723  -0.008  -0.152  0.00  0.00     0.310 C 
BRANCH  18  19
ATOM     19  O   UNL d   1      -4.066  -0.002  -1.546  0.00  0.00    -0.360 OA
ATOM     20  C   UNL d   1      -5.467  -0.110  -1.754  0.00  0.00     0.205 C 
ENDBRANCH  18  19
BRANCH  18  21
ATOM     21  O   UNL d   1      -4.162  -1.237   0.455  0.00  0.00    -0.360 OA
ATOM     22  C   UNL d   1      -3.892  -1.299   1.849  0.00  0.00     0.205 C 
ENDBRANCH  18  21
ENDBRANCH   4  18
TORSDOF 8
