REMARK  6 active torsions:
REMARK  status: ('A' for Active; 'I' for Inactive)
REMARK    1  A    between atoms: S_8  and  C_1 
REMARK    2  A    between atoms: C_9  and  S_8 
REMARK    3  A    between atoms: C_10  and  C_9 
REMARK    4  A    between atoms: C_13  and  C_10 
REMARK    5  A    between atoms: C_11  and  C_12 
REMARK    6  A    between atoms: C_12  and  C_13 
ROOT
ATOM      1  C   UNL d   1      -2.616   0.348  -1.388  0.00  0.00     0.160 A 
ATOM      2  N   UNL d   1      -2.870  -0.610  -2.318  0.00  0.00    -0.331 N 
ATOM      3  N   UNL d   1      -1.881  -0.145  -0.421  0.00  0.00    -0.279 N 
ATOM      4  HN  UNL d   1      -1.551   0.354   0.405  1.00  0.00     0.189 HD
ATOM      5  N   UNL d   1      -1.637  -1.470  -0.732  0.00  0.00    -0.294 N 
ATOM      6  HN  UNL d   1      -1.091  -2.129  -0.175  1.00  0.00     0.187 HD
ATOM      7  C   UNL d   1      -2.235  -1.729  -1.877  0.00  0.00     0.199 A 
ATOM      8  H   UNL d   1      -3.413  -0.495  -3.157  0.00  0.00     0.168 HD
ENDROOT
BRANCH   1   9
ATOM      9  S   UNL d   1      -3.224   1.935  -1.604  0.00  0.00    -0.092 SA
BRANCH   9  10
ATOM     10  C   UNL d   1      -2.684   2.761  -0.072  0.00  0.00     0.082 C 
BRANCH  10  11
ATOM     11  C   UNL d   1      -3.186   4.210  -0.032  0.00  0.00     0.010 C 
BRANCH  11  12
ATOM     12  C   UNL d   1      -4.716   4.320   0.000  0.00  0.00     0.001 C 
BRANCH  12  13
ATOM     13  C   UNL d   1      -5.184   5.774  -0.002  0.00  0.00    -0.000 C 
BRANCH  13  14
ATOM     14  C   UNL d   1      -6.711   5.849  -0.009  0.00  0.00    -0.005 C 
ATOM     15  C   UNL d   1      -7.197   7.288  -0.018  0.00  0.00     0.005 C 
ENDBRANCH  13  14
ENDBRANCH  12  13
ENDBRANCH  11  12
ENDBRANCH  10  11
ENDBRANCH   9  10
ENDBRANCH   1   9
TORSDOF 6
