REMARK  6 active torsions:
REMARK  status: ('A' for Active; 'I' for Inactive)
REMARK    1  A    between atoms: N_2  and  S_1 
REMARK    2  A    between atoms: C_5  and  S_1 
REMARK       I    between atoms: C_4  and  N_2 
REMARK    3  A    between atoms: C_7  and  C_4 
REMARK    4  A    between atoms: O_13  and  C_7 
REMARK    5  A    between atoms: N_8  and  O_13 
REMARK    6  A    between atoms: C_11  and  C_10 
ROOT
ATOM      1  N   UNL d   1       0.687  -1.666  -0.162  0.00  0.00    -0.281 N 
ATOM      2  HN  UNL d   1       0.925  -0.717   0.127  1.00  0.00     0.178 HD
ATOM      3  C   UNL d   1       0.704  -2.030  -1.535  0.00  0.00     0.255 C 
ATOM      4  O   UNL d   1      -0.033  -2.917  -1.968  0.00  0.00    -0.270 OA
ENDROOT
BRANCH   3   5
ATOM      5  C   UNL d   1       1.607  -1.237  -2.497  0.00  0.00     0.304 C 
BRANCH   5   6
ATOM      6  O   UNL d   1       1.130  -1.410  -3.834  0.00  0.00    -0.271 OA
BRANCH   6   7
ATOM      7  N   UNL d   1       2.031  -0.863  -4.763  0.00  0.00    -0.270 N 
ATOM      8  C   UNL d   1       1.610  -1.031  -5.989  0.00  0.00     0.038 C 
ATOM      9  C   UNL d   1       0.292  -1.706  -6.341  0.00  0.00     0.071 C 
ATOM     10  HN  UNL d   1       2.902  -0.394  -4.514  1.00  0.00     0.194 HD
BRANCH   8  11
ATOM     11  C   UNL d   1       2.458  -0.551  -7.141  0.00  0.00    -0.012 A 
ATOM     12  C   UNL d   1       3.655   0.135  -6.885  0.00  0.00     0.015 A 
ATOM     13  C   UNL d   1       4.473   0.559  -7.940  0.00  0.00     0.024 A 
ATOM     14  C   UNL d   1       4.100   0.302  -9.258  0.00  0.00     0.034 A 
ATOM     15  C   UNL d   1       2.911  -0.367  -9.529  0.00  0.00     0.024 A 
ATOM     16 CL   UNL d   1       5.113   0.804 -10.553  0.00  0.00    -0.084 Cl
ATOM     17  C   UNL d   1       2.091  -0.790  -8.476  0.00  0.00     0.015 A 
ENDBRANCH   8  11
ENDBRANCH   6   7
ENDBRANCH   5   6
ENDBRANCH   3   5
BRANCH   1  18
ATOM     18  S   UNL d   1       0.299  -2.736   0.887  0.00  0.00     0.055 S 
ATOM     19  O   UNL d   1       0.978  -4.011   1.018  0.00  0.00    -0.245 OA
ATOM     20  C   UNL d   1      -1.453  -3.058   0.732  0.00  0.00     0.142 C 
BRANCH  18  21
ATOM     21  C   UNL d   1       0.347  -1.998   2.520  0.00  0.00     0.038 A 
ATOM     22  C   UNL d   1       0.514  -0.625   2.703  0.00  0.00     0.022 A 
ATOM     23  C   UNL d   1       0.479  -0.096   3.997  0.00  0.00     0.008 A 
ATOM     24  C   UNL d   1       0.277  -0.928   5.111  0.00  0.00    -0.062 A 
ATOM     25  C   UNL d   1       0.128  -2.307   4.915  0.00  0.00     0.008 A 
ATOM     26  C   UNL d   1       0.224  -0.345   6.494  0.00  0.00     0.048 C 
ATOM     27  C   UNL d   1       0.169  -2.841   3.626  0.00  0.00     0.022 A 
ENDBRANCH  18  21
ENDBRANCH   1  18
TORSDOF 6
