REMARK  4 active torsions:
REMARK  status: ('A' for Active; 'I' for Inactive)
REMARK    1  A    between atoms: C_2  and  S_1 
REMARK    2  A    between atoms: N_10  and  S_1 
REMARK    3  A    between atoms: O_4  and  C_3 
REMARK    4  A    between atoms: C_5  and  O_4 
ROOT
ATOM      1  C   UNL d   1       0.737   0.469  -1.498  0.00  0.00     0.108 A 
ATOM      2  C   UNL d   1       0.128  -0.626  -2.122  0.00  0.00     0.099 A 
ATOM      3  C   UNL d   1       0.614   1.751  -2.066  0.00  0.00     0.028 A 
ATOM      4  C   UNL d   1      -0.549  -0.423  -3.337  0.00  0.00     0.039 A 
ATOM      5  C   UNL d   1      -0.072   1.937  -3.266  0.00  0.00     0.002 A 
ATOM      6  C   UNL d   1      -0.651   0.847  -3.905  0.00  0.00     0.003 A 
ENDROOT
BRANCH   2   7
ATOM      7  O   UNL d   1       0.240  -1.948  -1.783  0.00  0.00    -0.308 OA
BRANCH   7   8
ATOM      8  C   UNL d   1      -0.183  -2.435  -0.567  0.00  0.00     0.098 A 
ATOM      9  C   UNL d   1       0.213  -3.749  -0.260  0.00  0.00     0.069 A 
ATOM     10  C   UNL d   1      -0.031  -4.295   1.001  0.00  0.00     0.050 A 
ATOM     11 CL   UNL d   1       1.032  -4.736  -1.423  0.00  0.00    -0.081 Cl
ATOM     12  C   UNL d   1      -0.669  -3.520   1.963  0.00  0.00     0.035 A 
ATOM     13  C   UNL d   1      -1.114  -2.234   1.657  0.00  0.00     0.026 A 
ATOM     14 CL   UNL d   1      -0.910  -4.155   3.544  0.00  0.00    -0.084 Cl
ATOM     15  C   UNL d   1      -0.906  -1.703   0.381  0.00  0.00     0.041 A 
ENDBRANCH   7   8
ENDBRANCH   2   7
BRANCH   1  16
ATOM     16  S   UNL d   1       1.706   0.360  -0.035  0.00  0.00     0.242 S 
ATOM     17  O   UNL d   1       2.098  -0.995   0.264  0.00  0.00    -0.206 OA
ATOM     18  O   UNL d   1       1.121   1.226   0.970  0.00  0.00    -0.206 OA
BRANCH  16  19
ATOM     19  N   UNL d   1       3.170   1.066  -0.497  0.00  0.00    -0.225 NA
ATOM     20  H   UNL d   1       3.677   0.401  -1.086  0.00  0.00     0.136 HD
ATOM     21  H   UNL d   1       3.703   1.253   0.358  0.00  0.00     0.136 HD
ENDBRANCH  16  19
ENDBRANCH   1  16
TORSDOF 4
