REMARK  6 active torsions:
REMARK  status: ('A' for Active; 'I' for Inactive)
REMARK    1  A    between atoms: C_8  and  N_1 
REMARK    2  A    between atoms: C_14  and  C_2 
REMARK    3  A    between atoms: S_13  and  C_5 
REMARK    4  A    between atoms: C_10  and  C_18 
REMARK       I    between atoms: N_11  and  C_10 
REMARK    5  A    between atoms: C_18  and  S_13 
REMARK    6  A    between atoms: C_19  and  C_20 
ROOT
ATOM      1  N   UNL d   1      -0.339  -1.326   0.151  0.00  0.00    -0.275 N 
ATOM      2  C   UNL d   1       0.893  -0.674  -0.035  0.00  0.00     0.139 A 
ATOM      3  N   UNL d   1       0.671   0.632  -0.082  0.00  0.00    -0.282 N 
ATOM      4  HN  UNL d   1       1.385   1.348  -0.216  1.00  0.00     0.188 HD
ATOM      5  C   UNL d   1      -1.258  -0.285   0.246  0.00  0.00     0.168 A 
ATOM      6  N   UNL d   1      -0.662   0.871   0.079  0.00  0.00    -0.278 N 
ATOM      7  HN  UNL d   1      -1.115   1.785   0.071  1.00  0.00     0.189 HD
ENDROOT
BRANCH   2   8
ATOM      8  C   UNL d   1       2.237  -1.271  -0.164  0.00  0.00     0.010 A 
ATOM      9  C   UNL d   1       2.499  -2.438  -0.890  0.00  0.00     0.016 A 
ATOM     10  C   UNL d   1       3.766  -3.042  -0.854  0.00  0.00     0.009 A 
ATOM     11  C   UNL d   1       4.843  -2.463  -0.161  0.00  0.00    -0.051 A 
ATOM     12  C   UNL d   1       4.596  -1.241   0.483  0.00  0.00     0.009 A 
ATOM     13  C   UNL d   1       3.317  -0.660   0.483  0.00  0.00     0.016 A 
BRANCH  11  14
ATOM     14  C   UNL d   1       6.215  -3.164  -0.126  0.00  0.00    -0.024 C 
ATOM     15  C   UNL d   1       7.312  -2.345   0.592  0.00  0.00     0.019 C 
ATOM     16  C   UNL d   1       6.096  -4.515   0.614  0.00  0.00     0.019 C 
ATOM     17  C   UNL d   1       6.714  -3.427  -1.564  0.00  0.00     0.019 C 
ENDBRANCH  11  14
ENDBRANCH   2   8
BRANCH   1  18
ATOM     18  C   UNL d   1      -0.592  -2.728   0.237  0.00  0.00     0.046 A 
ATOM     19  C   UNL d   1       0.319  -3.574   0.890  0.00  0.00     0.069 A 
ATOM     20  C   UNL d   1       0.107  -4.934   0.816  0.00  0.00     0.107 A 
ATOM     21  O   UNL d   1       0.934  -5.890   1.319  0.00  0.00    -0.323 OA
ATOM     22  C   UNL d   1      -0.988  -5.468   0.183  0.00  0.00     0.105 A 
ATOM     23  C   UNL d   1       0.223  -7.088   0.944  0.00  0.00     0.352 A 
ATOM     24  O   UNL d   1      -0.996  -6.826   0.217  0.00  0.00    -0.323 OA
ATOM     25  C   UNL d   1      -1.935  -4.668  -0.418  0.00  0.00     0.042 A 
ATOM     26  C   UNL d   1      -1.727  -3.283  -0.400  0.00  0.00     0.033 A 
ENDBRANCH   1  18
BRANCH   5  27
ATOM     27  S   UNL d   1      -2.902  -0.456   0.793  0.00  0.00    -0.083 SA
BRANCH  27  28
ATOM     28  C   UNL d   1      -3.586   1.198   0.468  0.00  0.00     0.185 C 
BRANCH  28  29
ATOM     29  C   UNL d   1      -5.050   1.223   0.904  0.00  0.00     0.229 C 
ATOM     30  N   UNL d   1      -5.357   1.567   2.213  0.00  0.00    -0.347 N 
ATOM     31  C   UNL d   1      -6.757   1.572   2.656  0.00  0.00     0.152 C 
ATOM     32  C   UNL d   1      -4.408   1.842   3.296  0.00  0.00     0.152 C 
ATOM     33  C   UNL d   1      -6.938   0.641   3.861  0.00  0.00     0.187 C 
ATOM     34  O   UNL d   1      -6.032   0.989   4.922  0.00  0.00    -0.388 OA
ATOM     35  C   UNL d   1      -4.668   0.899   4.479  0.00  0.00     0.187 C 
ATOM     36  O   UNL d   1      -5.927   0.918   0.091  0.00  0.00    -0.273 OA
ENDBRANCH  28  29
ENDBRANCH  27  28
ENDBRANCH   5  27
TORSDOF 6
