REMARK  7 active torsions:
REMARK  status: ('A' for Active; 'I' for Inactive)
REMARK    1  A    between atoms: C_7  and  C_1 
REMARK    2  A    between atoms: C_3  and  C_2 
REMARK    3  A    between atoms: N_13  and  C_6 
REMARK    4  A    between atoms: O_21  and  C_7 
REMARK    5  A    between atoms: N_11  and  N_13 
REMARK    6  A    between atoms: C_15  and  C_20 
REMARK    7  A    between atoms: C_22  and  C_19 
ROOT
ATOM      1  C   UNL d   1      -0.039  -1.466   0.005  0.00  0.00     0.087 A 
ATOM      2  C   UNL d   1       1.147  -0.758  -0.017  0.00  0.00     0.150 A 
ATOM      3  N   UNL d   1       1.149   0.619   0.010  0.00  0.00    -0.184 N 
ATOM      4  HN  UNL d   1       2.030   1.133   0.016  1.00  0.00     0.184 HD
ATOM      5  C   UNL d   1      -0.022   1.278   0.028  0.00  0.00     0.697 A 
ATOM      6  N   UNL d   1      -1.200   0.642   0.030  0.00  0.00    -0.199 N 
ATOM      7  HN  UNL d   1      -2.078   1.160   0.044  1.00  0.00     0.183 HD
ATOM      8  C   UNL d   1      -1.187  -0.706   0.012  0.00  0.00     0.126 A 
ENDROOT
BRANCH   5   9
ATOM      9  N   UNL d   1       0.039   2.675   0.023  0.00  0.00    -0.132 N 
ATOM     10  H   UNL d   1       0.976   3.049  -0.002  0.00  0.00     0.205 HD
BRANCH   9  11
ATOM     11  N   UNL d   1      -1.101   3.408   0.018  0.00  0.00    -0.298 N 
ATOM     12  C   UNL d   1      -0.969   4.693  -0.013  0.00  0.00     0.107 C 
ATOM     13  HN  UNL d   1      -2.020   2.966   0.038  1.00  0.00     0.186 HD
BRANCH  12  14
ATOM     14  C   UNL d   1      -2.179   5.541   0.013  0.00  0.00     0.019 C 
ATOM     15  C   UNL d   1      -2.120   6.881   0.031  0.00  0.00     0.013 C 
BRANCH  15  16
ATOM     16  C   UNL d   1      -3.320   7.734   0.116  0.00  0.00    -0.036 A 
ATOM     17  C   UNL d   1      -4.478   7.327   0.798  0.00  0.00     0.011 A 
ATOM     18  C   UNL d   1      -5.589   8.168   0.893  0.00  0.00     0.001 A 
ATOM     19  C   UNL d   1      -5.556   9.436   0.321  0.00  0.00     0.000 A 
ATOM     20  C   UNL d   1      -4.408   9.863  -0.344  0.00  0.00     0.001 A 
ATOM     21  C   UNL d   1      -3.296   9.019  -0.442  0.00  0.00     0.011 A 
ENDBRANCH  15  16
ENDBRANCH  12  14
ENDBRANCH   9  11
ENDBRANCH   5   9
BRANCH   2  22
ATOM     22  C   UNL d   1       2.517  -1.396  -0.135  0.00  0.00     0.434 C 
ATOM     23  F   UNL d   1       2.547  -2.741  -0.332  0.00  0.00    -0.165 F 
ATOM     24  F   UNL d   1       3.222  -0.887  -1.191  0.00  0.00    -0.165 F 
ATOM     25  F   UNL d   1       3.294  -1.164   0.963  0.00  0.00    -0.165 F 
ENDBRANCH   2  22
BRANCH   1  26
ATOM     26  C   UNL d   1      -0.230  -2.922  -0.046  0.00  0.00     0.296 C 
ATOM     27  O   UNL d   1      -1.108  -3.438  -0.714  0.00  0.00    -0.259 OA
BRANCH  26  28
ATOM     28  O   UNL d   1       0.602  -3.548   0.811  0.00  0.00    -0.322 OA
ATOM     29  C   UNL d   1       0.496  -4.977   0.771  0.00  0.00     0.213 C 
ENDBRANCH  26  28
ENDBRANCH   1  26
TORSDOF 7
