REMARK  5 active torsions:
REMARK  status: ('A' for Active; 'I' for Inactive)
REMARK    1  A    between atoms: N_10  and  C_1 
REMARK    2  A    between atoms: O_11  and  C_6 
REMARK    3  A    between atoms: O_12  and  C_7 
REMARK    4  A    between atoms: C_14  and  O_11 
REMARK    5  A    between atoms: C_15  and  O_12 
ROOT
ATOM      1  C   UNL d   1      -1.425  -0.144  -0.056  0.00  0.00     0.686 C 
ATOM      2  N   UNL d   1      -0.690  -1.208   0.204  0.00  0.00    -0.154 N 
ATOM      3  HN  UNL d   1      -1.109  -2.112   0.424  1.00  0.00     0.188 HD
ATOM      4  N   UNL d   1      -0.898   1.053  -0.235  0.00  0.00    -0.154 N 
ATOM      5  HN  UNL d   1      -1.466   1.861  -0.493  1.00  0.00     0.188 HD
ATOM      6  C   UNL d   1       0.630  -1.038   0.165  0.00  0.00     0.246 C 
ATOM      7  C   UNL d   1       0.421   1.144  -0.059  0.00  0.00     0.246 C 
ATOM      8  N   UNL d   1       1.254   0.129   0.091  0.00  0.00    -0.286 N 
ATOM      9  HN  UNL d   1       2.267   0.232   0.144  1.00  0.00     0.173 HD
ENDROOT
BRANCH   6  10
ATOM     10  O   UNL d   1       1.446  -2.159   0.185  0.00  0.00    -0.279 OA
BRANCH  10  11
ATOM     11  C   UNL d   1       0.965  -3.302  -0.421  0.00  0.00     0.079 A 
ATOM     12  C   UNL d   1       0.177  -3.296  -1.581  0.00  0.00     0.040 A 
ATOM     13  C   UNL d   1      -0.294  -4.495  -2.116  0.00  0.00     0.045 A 
ATOM     14  C   UNL d   1       0.065  -5.695  -1.520  0.00  0.00     0.116 A 
ATOM     15  C   UNL d   1       0.892  -5.721  -0.402  0.00  0.00     0.045 A 
ATOM     16  F   UNL d   1      -0.388  -6.846  -2.034  0.00  0.00    -0.206 F 
ATOM     17  C   UNL d   1       1.347  -4.520   0.149  0.00  0.00     0.040 A 
ENDBRANCH  10  11
ENDBRANCH   6  10
BRANCH   1  18
ATOM     18  N   UNL d   1      -2.784  -0.294  -0.161  0.00  0.00    -0.216 N 
ATOM     19  C   UNL d   1      -3.477  -1.355   0.561  0.00  0.00     0.151 C 
ATOM     20  C   UNL d   1      -4.429  -0.769   1.612  0.00  0.00     0.094 C 
ATOM     21  S   UNL d   1      -5.682   0.347   0.886  0.00  0.00    -0.166 SA
ATOM     22  C   UNL d   1      -4.539   1.448  -0.024  0.00  0.00     0.094 C 
ATOM     23  C   UNL d   1      -3.583   0.662  -0.923  0.00  0.00     0.151 C 
ENDBRANCH   1  18
BRANCH   7  24
ATOM     24  O   UNL d   1       0.998   2.406  -0.017  0.00  0.00    -0.279 OA
BRANCH  24  25
ATOM     25  C   UNL d   1       0.246   3.424   0.533  0.00  0.00     0.079 A 
ATOM     26  C   UNL d   1      -0.625   3.246   1.618  0.00  0.00     0.040 A 
ATOM     27  C   UNL d   1      -1.373   4.319   2.100  0.00  0.00     0.045 A 
ATOM     28  C   UNL d   1      -1.212   5.573   1.528  0.00  0.00     0.116 A 
ATOM     29  C   UNL d   1      -0.310   5.778   0.487  0.00  0.00     0.045 A 
ATOM     30  F   UNL d   1      -1.930   6.604   1.991  0.00  0.00    -0.206 F 
ATOM     31  C   UNL d   1       0.424   4.699  -0.012  0.00  0.00     0.040 A 
ENDBRANCH  24  25
ENDBRANCH   7  24
TORSDOF 5
