REMARK  1 active torsions:
REMARK  status: ('A' for Active; 'I' for Inactive)
REMARK    1  A    between atoms: C_13  and  C_10 
ROOT
ATOM      1  N   UNL d   1       1.248  -0.616  -0.013  0.00  0.00    -0.203 N 
ATOM      2  C   UNL d   1       1.202   0.767   0.010  0.00  0.00     0.133 A 
ATOM      3  N   UNL d   1       2.525  -1.081  -0.022  0.00  0.00    -0.289 N 
ATOM      4  HN  UNL d   1       2.835  -2.052  -0.043  1.00  0.00     0.188 HD
ATOM      5  C   UNL d   1       0.108  -1.448  -0.020  0.00  0.00     0.277 A 
ATOM      6  C   UNL d   1      -1.172  -0.694  -0.008  0.00  0.00     0.044 A 
ATOM      7  C   UNL d   1       2.495   1.206   0.029  0.00  0.00     0.082 A 
ATOM      8  N   UNL d   1       0.003   1.389   0.015  0.00  0.00    -0.343 N 
ATOM      9  C   UNL d   1      -1.163   0.650   0.005  0.00  0.00     0.032 A 
ATOM     10  C   UNL d   1       3.291   0.026   0.002  0.00  0.00     0.062 A 
ATOM     11  S   UNL d   1      -3.724  -0.046   0.005  0.00  0.00    -0.158 SA
ATOM     12  O   UNL d   1       0.184  -2.673  -0.033  0.00  0.00    -0.266 OA
ATOM     13  C   UNL d   1      -2.481  -1.387  -0.013  0.00  0.00     0.120 A 
ATOM     14  C   UNL d   1      -2.509   1.310   0.010  0.00  0.00     0.132 A 
ATOM     15  H   UNL d   1      -0.082   2.404   0.021  0.00  0.00     0.167 HD
ENDROOT
BRANCH  10  16
ATOM     16  C   UNL d   1       4.753  -0.036  -0.016  0.00  0.00    -0.008 A 
ATOM     17  C   UNL d   1       5.504   1.021  -0.553  0.00  0.00     0.014 A 
ATOM     18  C   UNL d   1       6.897   0.951  -0.604  0.00  0.00     0.001 A 
ATOM     19  C   UNL d   1       7.555  -0.172  -0.111  0.00  0.00     0.000 A 
ATOM     20  C   UNL d   1       6.822  -1.223   0.441  0.00  0.00     0.001 A 
ATOM     21  C   UNL d   1       5.428  -1.155   0.491  0.00  0.00     0.014 A 
ENDBRANCH  10  16
TORSDOF 1
