REMARK  4 active torsions:
REMARK  status: ('A' for Active; 'I' for Inactive)
REMARK    1  A    between atoms: S_9  and  C_1 
REMARK       I    between atoms: C_6  and  N_7 
REMARK    2  A    between atoms: C_13  and  C_6 
REMARK    3  A    between atoms: N_7  and  C_10 
REMARK    4  A    between atoms: C_11  and  S_9 
ROOT
ATOM      1  C   UNL d   1      -4.884  -2.174   0.746  0.00  0.00     0.052 A 
ATOM      2  C   UNL d   1      -5.100  -1.715  -0.570  0.00  0.00     0.034 A 
ATOM      3  C   UNL d   1      -5.602  -3.304   1.193  0.00  0.00     0.031 A 
ATOM      4  C   UNL d   1      -6.144  -2.297  -1.321  0.00  0.00     0.021 A 
ATOM      5  C   UNL d   1      -6.602  -3.889   0.418  0.00  0.00     0.002 A 
ATOM      6  C   UNL d   1      -6.899  -3.362  -0.828  0.00  0.00     0.002 A 
ENDROOT
BRANCH   2   7
ATOM      7  S   UNL d   1      -4.135  -0.524  -1.501  0.00  0.00    -0.063 SA
BRANCH   7   8
ATOM      8  C   UNL d   1      -2.507  -1.066  -1.151  0.00  0.00     0.118 A 
ATOM      9  N   UNL d   1      -2.201  -2.321  -0.905  0.00  0.00    -0.344 N 
ATOM     10  C   UNL d   1      -0.864  -2.419  -0.572  0.00  0.00     0.050 A 
ATOM     11  HN  UNL d   1      -2.853  -3.104  -0.953  1.00  0.00     0.167 HD
ATOM     12  C   UNL d   1      -0.196  -3.595  -0.175  0.00  0.00     0.032 A 
ATOM     13  C   UNL d   1      -0.142  -1.224  -0.629  0.00  0.00     0.035 A 
ATOM     14  C   UNL d   1       1.159  -3.542   0.174  0.00  0.00     0.026 A 
ATOM     15  C   UNL d   1       1.849  -2.336   0.112  0.00  0.00     0.035 A 
ATOM     16  C   UNL d   1       1.221  -1.158  -0.300  0.00  0.00     0.045 A 
ATOM     17 CL   UNL d   1       3.510  -2.287   0.564  0.00  0.00    -0.084 Cl
ATOM     18  S   UNL d   1      -1.195   0.038  -1.134  0.00  0.00    -0.063 SA
ENDBRANCH   7   8
ENDBRANCH   2   7
BRANCH   1  19
ATOM     19  N   UNL d   1      -4.029  -1.619   1.735  0.00  0.00    -0.322 N 
ATOM     20  C   UNL d   1      -3.725  -0.282   1.919  0.00  0.00     0.256 C 
ATOM     21  O   UNL d   1      -4.050   0.655   1.204  0.00  0.00    -0.267 OA
ATOM     22  H   UNL d   1      -3.916  -2.198   2.556  0.00  0.00     0.169 HD
BRANCH  20  23
ATOM     23  C   UNL d   1      -3.061   0.031   3.221  0.00  0.00     0.032 A 
ATOM     24  C   UNL d   1      -2.216  -0.875   3.880  0.00  0.00     0.020 A 
ATOM     25  C   UNL d   1      -1.726  -0.569   5.155  0.00  0.00     0.043 A 
ATOM     26  C   UNL d   1      -2.070   0.641   5.752  0.00  0.00     0.116 A 
ATOM     27  C   UNL d   1      -2.870   1.566   5.093  0.00  0.00     0.043 A 
ATOM     28  F   UNL d   1      -1.623   0.917   6.984  0.00  0.00    -0.206 F 
ATOM     29  C   UNL d   1      -3.364   1.262   3.822  0.00  0.00     0.020 A 
ENDBRANCH  20  23
ENDBRANCH   1  19
TORSDOF 4
