REMARK  3 active torsions:
REMARK  status: ('A' for Active; 'I' for Inactive)
REMARK    1  A    between atoms: C_6  and  C_1 
REMARK    2  A    between atoms: C_5  and  C_2 
REMARK       I    between atoms: N_9  and  C_5 
REMARK    3  A    between atoms: C_13  and  N_9 
ROOT
ATOM      1  C   UNL d   1      -1.461  -0.448   0.018  0.00  0.00     0.086 A 
ATOM      2  C   UNL d   1      -0.166  -1.089  -0.122  0.00  0.00     0.092 A 
ATOM      3  N   UNL d   1      -1.273   0.888   0.063  0.00  0.00    -0.259 N 
ATOM      4  HN  UNL d   1      -2.010   1.594   0.071  1.00  0.00     0.195 HD
ATOM      5  O   UNL d   1       0.059   1.133   0.096  0.00  0.00    -0.241 OA
ATOM      6  C   UNL d   1       0.727  -0.026  -0.019  0.00  0.00     0.090 A 
ATOM      7  C   UNL d   1       2.200   0.118  -0.030  0.00  0.00     0.080 C 
ENDROOT
BRANCH   1   8
ATOM      8  C   UNL d   1      -2.888  -0.862   0.012  0.00  0.00     0.037 A 
ATOM      9  C   UNL d   1      -3.838  -0.122   0.780  0.00  0.00     0.048 A 
ATOM     10 CL   UNL d   1      -3.409   0.968   2.071  0.00  0.00    -0.083 Cl
ATOM     11  C   UNL d   1      -5.223  -0.235   0.569  0.00  0.00     0.025 A 
ATOM     12  C   UNL d   1      -5.716  -1.159  -0.338  0.00  0.00     0.003 A 
ATOM     13  C   UNL d   1      -4.816  -1.975  -1.023  0.00  0.00     0.025 A 
ATOM     14  C   UNL d   1      -3.424  -1.814  -0.876  0.00  0.00     0.048 A 
ATOM     15 CL   UNL d   1      -2.475  -2.804  -1.922  0.00  0.00    -0.083 Cl
ENDBRANCH   1   8
BRANCH   2  16
ATOM     16  C   UNL d   1       0.361  -2.420  -0.382  0.00  0.00     0.257 C 
ATOM     17  N   UNL d   1      -0.250  -3.509   0.199  0.00  0.00    -0.349 N 
ATOM     18  H   UNL d   1      -1.028  -3.321   0.819  0.00  0.00     0.163 HD
ATOM     19  O   UNL d   1       1.377  -2.537  -1.069  0.00  0.00    -0.267 OA
BRANCH  17  20
ATOM     20  C   UNL d   1       0.324  -4.878   0.257  0.00  0.00     0.022 C 
ATOM     21  C   UNL d   1       1.043  -5.057   1.604  0.00  0.00     0.037 C 
ATOM     22  C   UNL d   1      -0.833  -5.884   0.158  0.00  0.00     0.037 C 
ATOM     23  C   UNL d   1       1.325  -5.228  -0.868  0.00  0.00     0.037 C 
ENDBRANCH  17  20
ENDBRANCH   2  16
TORSDOF 3
