REMARK  3 active torsions:
REMARK  status: ('A' for Active; 'I' for Inactive)
REMARK    1  A    between atoms: C_6  and  C_1 
REMARK    2  A    between atoms: C_5  and  C_2 
REMARK       I    between atoms: N_9  and  C_5 
REMARK    3  A    between atoms: C_13  and  N_9 
ROOT
ATOM      1  C   UNL d   1      -1.432  -0.309   0.253  0.00  0.00     0.086 A 
ATOM      2  C   UNL d   1      -0.204  -1.013   0.009  0.00  0.00     0.093 A 
ATOM      3  N   UNL d   1      -1.159   0.957   0.616  0.00  0.00    -0.259 N 
ATOM      4  HN  UNL d   1      -1.832   1.658   0.925  1.00  0.00     0.195 HD
ATOM      5  O   UNL d   1       0.194   1.129   0.492  0.00  0.00    -0.241 OA
ATOM      6  C   UNL d   1       0.770  -0.039   0.122  0.00  0.00     0.090 A 
ATOM      7  C   UNL d   1       2.232   0.026  -0.077  0.00  0.00     0.080 C 
ENDROOT
BRANCH   2   8
ATOM      8  C   UNL d   1       0.015  -2.417  -0.301  0.00  0.00     0.261 C 
ATOM      9  N   UNL d   1       1.012  -2.972   0.486  0.00  0.00    -0.323 N 
ATOM     10  H   UNL d   1       1.424  -2.360   1.178  0.00  0.00     0.169 HD
ATOM     11  O   UNL d   1      -0.678  -3.000  -1.119  0.00  0.00    -0.267 OA
BRANCH   9  12
ATOM     12  C   UNL d   1       1.419  -4.320   0.569  0.00  0.00     0.036 A 
ATOM     13  C   UNL d   1       0.905  -5.348  -0.221  0.00  0.00     0.053 A 
ATOM     14  C   UNL d   1       1.338  -6.663  -0.018  0.00  0.00     0.036 A 
ATOM     15 CL   UNL d   1       0.686  -7.934  -0.978  0.00  0.00    -0.084 Cl
ATOM     16  C   UNL d   1       2.287  -6.962   0.959  0.00  0.00     0.024 A 
ATOM     17  C   UNL d   1       2.820  -5.940   1.735  0.00  0.00     0.004 A 
ATOM     18  C   UNL d   1       2.388  -4.625   1.538  0.00  0.00     0.029 A 
ENDBRANCH   9  12
ENDBRANCH   2   8
BRANCH   1  19
ATOM     19  C   UNL d   1      -2.834  -0.751   0.230  0.00  0.00     0.037 A 
ATOM     20  C   UNL d   1      -3.283  -1.875   0.953  0.00  0.00     0.048 A 
ATOM     21 CL   UNL d   1      -2.246  -2.850   1.941  0.00  0.00    -0.083 Cl
ATOM     22  C   UNL d   1      -4.644  -2.223   0.979  0.00  0.00     0.025 A 
ATOM     23  C   UNL d   1      -5.591  -1.439   0.330  0.00  0.00     0.003 A 
ATOM     24  C   UNL d   1      -5.176  -0.320  -0.380  0.00  0.00     0.025 A 
ATOM     25  C   UNL d   1      -3.814   0.010  -0.452  0.00  0.00     0.048 A 
ATOM     26 CL   UNL d   1      -3.434   1.388  -1.439  0.00  0.00    -0.083 Cl
ENDBRANCH   1  19
TORSDOF 3
