REMARK  1 active torsions:
REMARK  status: ('A' for Active; 'I' for Inactive)
REMARK    1  A    between atoms: C_8  and  C_3 
ROOT
ATOM      1  O   UNL d   1       0.283   1.340  -0.042  0.00  0.00    -0.308 OA
ATOM      2  C   UNL d   1      -1.023   1.024  -0.056  0.00  0.00     0.283 C 
ATOM      3  C   UNL d   1       1.358   0.383   0.004  0.00  0.00     0.169 C 
ATOM      4  C   UNL d   1      -1.387  -0.396  -0.036  0.00  0.00     0.084 C 
ATOM      5  C   UNL d   1      -0.486  -1.387  -0.061  0.00  0.00    -0.075 C 
ATOM      6  C   UNL d   1       0.979  -1.104  -0.110  0.00  0.00     0.071 C 
ATOM      7  O   UNL d   1      -1.905   1.875  -0.081  0.00  0.00    -0.260 OA
ATOM      8  C   UNL d   1      -0.905  -2.827  -0.043  0.00  0.00     0.043 C 
ENDROOT
BRANCH   3   9
ATOM      9  C   UNL d   1       2.183   0.622   1.257  0.00  0.00    -0.029 A 
ATOM     10  C   UNL d   1       1.595   0.543   2.529  0.00  0.00     0.010 A 
ATOM     11  C   UNL d   1       2.382   0.626   3.678  0.00  0.00     0.001 A 
ATOM     12  C   UNL d   1       3.760   0.803   3.569  0.00  0.00     0.000 A 
ATOM     13  C   UNL d   1       4.351   0.916   2.313  0.00  0.00     0.001 A 
ATOM     14  C   UNL d   1       3.568   0.828   1.161  0.00  0.00     0.010 A 
ENDBRANCH   3   9
TORSDOF 1
