REMARK  5 active torsions:
REMARK  status: ('A' for Active; 'I' for Inactive)
REMARK    1  A    between atoms: S_9  and  C_1 
REMARK    2  A    between atoms: C_11  and  N_5 
REMARK    3  A    between atoms: C_18  and  S_9 
REMARK    4  A    between atoms: C_13  and  C_14 
REMARK    5  A    between atoms: C_21  and  C_18 
ROOT
ATOM      1  C   UNL d   1      -0.234  -1.062  -0.022  0.00  0.00     0.091 A 
ATOM      2  C   UNL d   1       0.533   0.110   0.014  0.00  0.00     0.078 A 
ATOM      3  N   UNL d   1      -1.592  -1.034  -0.065  0.00  0.00    -0.348 N 
ATOM      4  HN  UNL d   1      -2.138  -1.896  -0.089  1.00  0.00     0.166 HD
ATOM      5  C   UNL d   1       1.963   0.104   0.056  0.00  0.00     0.102 C 
ATOM      6  N   UNL d   1       3.124   0.160   0.080  0.00  0.00    -0.191 NA
ATOM      7  C   UNL d   1      -2.196   0.183  -0.073  0.00  0.00     0.048 A 
ATOM      8  C   UNL d   1      -0.128   1.347  -0.002  0.00  0.00     0.028 A 
ATOM      9  C   UNL d   1      -1.516   1.389  -0.045  0.00  0.00     0.032 A 
ENDROOT
BRANCH   1  10
ATOM     10  S   UNL d   1       0.524  -2.688   0.067  0.00  0.00    -0.106 SA
BRANCH  10  11
ATOM     11  C   UNL d   1      -0.727  -3.710  -0.778  0.00  0.00     0.119 C 
BRANCH  11  12
ATOM     12  C   UNL d   1      -0.382  -5.185  -0.748  0.00  0.00    -0.048 A 
ATOM     13  C   UNL d   1      -0.892  -6.012   0.267  0.00  0.00     0.009 A 
ATOM     14  C   UNL d   1      -0.614  -7.382   0.281  0.00  0.00     0.024 A 
ATOM     15  C   UNL d   1       0.185  -7.936  -0.716  0.00  0.00     0.034 A 
ATOM     16  C   UNL d   1       0.714  -7.130  -1.721  0.00  0.00     0.024 A 
ATOM     17 CL   UNL d   1       0.514  -9.625  -0.707  0.00  0.00    -0.084 Cl
ATOM     18  C   UNL d   1       0.435  -5.759  -1.735  0.00  0.00     0.009 A 
ENDBRANCH  11  12
ENDBRANCH  10  11
ENDBRANCH   1  10
BRANCH   7  19
ATOM     19  C   UNL d   1      -3.672   0.152  -0.140  0.00  0.00     0.117 C 
ATOM     20  N   UNL d   1      -4.375   1.228  -0.304  0.00  0.00    -0.362 N 
ATOM     21  HN  UNL d   1      -3.916   2.138  -0.356  1.00  0.00     0.165 HD
BRANCH  20  22
ATOM     22  C   UNL d   1      -5.779   1.133  -0.410  0.00  0.00     0.054 A 
ATOM     23  C   UNL d   1      -6.616   2.107   0.172  0.00  0.00     0.062 A 
ATOM     24  C   UNL d   1      -8.006   2.056   0.015  0.00  0.00     0.050 A 
ATOM     25 CL   UNL d   1      -5.959   3.418   1.092  0.00  0.00    -0.082 Cl
ATOM     26  C   UNL d   1      -8.575   1.028  -0.731  0.00  0.00     0.035 A 
ATOM     27  C   UNL d   1      -7.771   0.062  -1.327  0.00  0.00     0.026 A 
ATOM     28 CL   UNL d   1     -10.281   0.957  -0.936  0.00  0.00    -0.084 Cl
ATOM     29  C   UNL d   1      -6.383   0.125  -1.177  0.00  0.00     0.033 A 
ENDBRANCH  20  22
ENDBRANCH   7  19
TORSDOF 5
