REMARK  5 active torsions:
REMARK  status: ('A' for Active; 'I' for Inactive)
REMARK    1  A    between atoms: C_11  and  C_1 
REMARK    2  A    between atoms: C_12  and  C_1 
REMARK    3  A    between atoms: C_2  and  C_3 
REMARK    4  A    between atoms: N_8  and  C_4 
REMARK    5  A    between atoms: C_5  and  N_8 
ROOT
ATOM      1  C   UNL d   1      -1.214  -4.214  -4.067  0.00  0.00     0.065 A 
ATOM      2  C   UNL d   1       0.275  -2.664  -2.306  0.00  0.00     0.127 A 
ATOM      3  N   UNL d   1      -0.937  -2.218  -2.728  0.00  0.00    -0.350 N 
ATOM      4  HN  UNL d   1      -1.308  -1.326  -2.400  1.00  0.00     0.166 HD
ATOM      5  C   UNL d   1       0.022  -4.680  -3.615  0.00  0.00     0.045 A 
ATOM      6  C   UNL d   1       0.773  -3.904  -2.731  0.00  0.00     0.079 A 
ATOM      7  C   UNL d   1      -1.641  -2.985  -3.594  0.00  0.00     0.106 A 
ATOM      8 CL   UNL d   1       2.289  -4.518  -2.177  0.00  0.00    -0.080 Cl
ENDROOT
BRANCH   2   9
ATOM      9  N   UNL d   1       0.981  -1.905  -1.357  0.00  0.00    -0.350 N 
ATOM     10  H   UNL d   1       2.000  -2.000  -1.365  0.00  0.00     0.166 HD
BRANCH   9  11
ATOM     11  C   UNL d   1       0.473  -0.857  -0.623  0.00  0.00     0.108 C 
ATOM     12  C   UNL d   1       1.116   0.065   0.121  0.00  0.00     0.070 C 
BRANCH  12  13
ATOM     13  C   UNL d   1       0.324   1.033   0.936  0.00  0.00     0.160 C 
ATOM     14  O   UNL d   1       0.830   1.543   1.938  0.00  0.00    -0.293 OA
ATOM     15  C   UNL d   1      -1.105   1.378   0.585  0.00  0.00     0.097 C 
ENDBRANCH  12  13
BRANCH  12  16
ATOM     16  C   UNL d   1       2.620   0.028   0.144  0.00  0.00     0.160 C 
ATOM     17  O   UNL d   1       3.230  -0.968  -0.277  0.00  0.00    -0.293 OA
ATOM     18  C   UNL d   1       3.418   1.224   0.605  0.00  0.00     0.097 C 
ENDBRANCH  12  16
ENDBRANCH   9  11
ENDBRANCH   2   9
BRANCH   1  19
ATOM     19  C   UNL d   1      -2.074  -4.984  -5.019  0.00  0.00     0.418 C 
ATOM     20  F   UNL d   1      -1.528  -6.169  -5.407  0.00  0.00    -0.166 F 
ATOM     21  F   UNL d   1      -3.292  -5.288  -4.492  0.00  0.00    -0.166 F 
ATOM     22  F   UNL d   1      -2.325  -4.295  -6.165  0.00  0.00    -0.166 F 
ENDBRANCH   1  19
TORSDOF 5
