REMARK  6 active torsions:
REMARK  status: ('A' for Active; 'I' for Inactive)
REMARK    1  A    between atoms: C_4  and  C_1 
REMARK    2  A    between atoms: C_5  and  C_2 
REMARK    3  A    between atoms: O_6  and  C_4 
REMARK    4  A    between atoms: O_7  and  C_5 
REMARK    5  A    between atoms: C_11  and  O_6 
REMARK    6  A    between atoms: C_12  and  O_7 
ROOT
ATOM      1  C   UNL d   1       0.317   1.198  -0.239  0.00  0.00     0.079 A 
ATOM      2  C   UNL d   1       0.302  -1.196   0.220  0.00  0.00     0.079 A 
ATOM      3  C   UNL d   1       1.005  -0.004  -0.016  0.00  0.00     0.148 A 
ATOM      4  F   UNL d   1       2.346  -0.014  -0.033  0.00  0.00    -0.204 F 
ATOM      5  C   UNL d   1      -1.086   1.184  -0.270  0.00  0.00     0.021 A 
ATOM      6  C   UNL d   1      -1.095  -1.165   0.292  0.00  0.00     0.021 A 
ATOM      7  C   UNL d   1      -1.790   0.014   0.021  0.00  0.00     0.002 A 
ENDROOT
BRANCH   1   8
ATOM      8  C   UNL d   1       0.987   2.513  -0.440  0.00  0.00     0.301 C 
ATOM      9  O   UNL d   1       0.400   3.508  -0.839  0.00  0.00    -0.259 OA
BRANCH   8  10
ATOM     10  O   UNL d   1       2.316   2.443  -0.041  0.00  0.00    -0.275 OA
BRANCH  10  11
ATOM     11  C   UNL d   1       3.275   3.471  -0.200  0.00  0.00     0.079 A 
ATOM     12  C   UNL d   1       4.424   3.334   0.585  0.00  0.00     0.039 A 
ATOM     13  C   UNL d   1       5.495   4.214   0.409  0.00  0.00     0.026 A 
ATOM     14  C   UNL d   1       5.409   5.220  -0.552  0.00  0.00     0.034 A 
ATOM     15  C   UNL d   1       4.251   5.373  -1.315  0.00  0.00     0.026 A 
ATOM     16 CL   UNL d   1       6.754   6.259  -0.822  0.00  0.00    -0.084 Cl
ATOM     17  C   UNL d   1       3.176   4.492  -1.142  0.00  0.00     0.039 A 
ENDBRANCH  10  11
ENDBRANCH   8  10
ENDBRANCH   1   8
BRANCH   2  18
ATOM     18  C   UNL d   1       0.970  -2.524   0.390  0.00  0.00     0.301 C 
ATOM     19  O   UNL d   1       0.371  -3.511   0.789  0.00  0.00    -0.259 OA
BRANCH  18  20
ATOM     20  O   UNL d   1       2.277  -2.468  -0.043  0.00  0.00    -0.275 OA
BRANCH  20  21
ATOM     21  C   UNL d   1       3.233  -3.503   0.082  0.00  0.00     0.079 A 
ATOM     22  C   UNL d   1       4.363  -3.368  -0.731  0.00  0.00     0.039 A 
ATOM     23  C   UNL d   1       5.433  -4.253  -0.588  0.00  0.00     0.026 A 
ATOM     24  C   UNL d   1       5.367  -5.266   0.367  0.00  0.00     0.034 A 
ATOM     25  C   UNL d   1       4.226  -5.421   1.157  0.00  0.00     0.026 A 
ATOM     26 CL   UNL d   1       6.716  -6.309   0.597  0.00  0.00    -0.084 Cl
ATOM     27  C   UNL d   1       3.151  -4.536   1.016  0.00  0.00     0.039 A 
ENDBRANCH  20  21
ENDBRANCH  18  20
ENDBRANCH   2  18
TORSDOF 6
