REMARK  6 active torsions:
REMARK  status: ('A' for Active; 'I' for Inactive)
REMARK    1  A    between atoms: C_13  and  C_2 
REMARK    2  A    between atoms: C_6  and  C_13 
REMARK    3  A    between atoms: S_17  and  C_7 
REMARK       I    between atoms: N_16  and  C_20 
REMARK    4  A    between atoms: C_18  and  N_16 
REMARK    5  A    between atoms: C_25  and  S_17 
REMARK    6  A    between atoms: C_20  and  C_25 
ROOT
ATOM      1  N   UNL d   1       1.030  -0.020   0.231  0.00  0.00    -0.319 N 
ATOM      2  C   UNL d   1       0.174   1.025  -0.046  0.00  0.00     0.105 C 
ATOM      3  C   UNL d   1       0.220  -1.106   0.428  0.00  0.00     0.162 C 
ATOM      4  N   UNL d   1      -1.054   0.550  -0.138  0.00  0.00    -0.286 N 
ATOM      5  HN  UNL d   1      -1.887   1.090  -0.372  1.00  0.00     0.188 HD
ATOM      6  N   UNL d   1      -1.018  -0.791   0.134  0.00  0.00    -0.278 N 
ATOM      7  HN  UNL d   1      -1.812  -1.430   0.112  1.00  0.00     0.189 HD
ATOM      8  C   UNL d   1       2.470  -0.024   0.250  0.00  0.00     0.159 C 
ENDROOT
BRANCH   2   9
ATOM      9  C   UNL d   1       0.546   2.454  -0.232  0.00  0.00     0.137 C 
BRANCH   9  10
ATOM     10  C   UNL d   1       1.047   3.030   1.083  0.00  0.00     0.044 A 
ATOM     11  N   UNL d   1       2.333   3.014   1.254  0.00  0.00    -0.299 N 
ATOM     12  N   UNL d   1       2.867   3.474   2.421  0.00  0.00    -0.261 N 
ATOM     13  HN  UNL d   1       2.943   2.657   0.519  1.00  0.00     0.187 HD
ATOM     14  C   UNL d   1       4.306   3.348   2.562  0.00  0.00     0.181 C 
ATOM     15  C   UNL d   1       2.122   3.967   3.483  0.00  0.00     0.272 A 
ATOM     16  C   UNL d   1       0.661   4.022   3.290  0.00  0.00     0.046 A 
ATOM     17  O   UNL d   1       2.613   4.344   4.545  0.00  0.00    -0.266 OA
ATOM     18  C   UNL d   1       0.105   3.550   2.099  0.00  0.00     0.004 A 
ATOM     19  C   UNL d   1      -0.155   4.540   4.303  0.00  0.00     0.018 A 
ATOM     20  C   UNL d   1      -1.283   3.597   1.929  0.00  0.00     0.014 A 
ATOM     21  C   UNL d   1      -2.096   4.123   2.939  0.00  0.00     0.001 A 
ATOM     22  C   UNL d   1      -1.535   4.593   4.124  0.00  0.00     0.001 A 
ENDBRANCH   9  10
ENDBRANCH   2   9
BRANCH   3  23
ATOM     23  S   UNL d   1       0.772  -2.634   1.014  0.00  0.00    -0.083 SA
BRANCH  23  24
ATOM     24  C   UNL d   1      -0.769  -3.593   1.049  0.00  0.00     0.185 C 
BRANCH  24  25
ATOM     25  C   UNL d   1      -1.646  -3.212   2.235  0.00  0.00     0.231 C 
ATOM     26  N   UNL d   1      -2.479  -2.136   1.991  0.00  0.00    -0.325 N 
ATOM     27  H   UNL d   1      -2.421  -1.702   1.065  0.00  0.00     0.169 HD
ATOM     28  O   UNL d   1      -1.607  -3.863   3.276  0.00  0.00    -0.272 OA
BRANCH  26  29
ATOM     29  C   UNL d   1      -3.349  -1.480   2.891  0.00  0.00     0.056 A 
ATOM     30  C   UNL d   1      -4.241  -0.511   2.389  0.00  0.00     0.062 A 
ATOM     31  C   UNL d   1      -5.106   0.183   3.237  0.00  0.00     0.050 A 
ATOM     32 CL   UNL d   1      -4.345  -0.171   0.695  0.00  0.00    -0.082 Cl
ATOM     33  C   UNL d   1      -5.080  -0.080   4.602  0.00  0.00     0.035 A 
ATOM     34  C   UNL d   1      -4.203  -1.029   5.119  0.00  0.00     0.026 A 
ATOM     35 CL   UNL d   1      -6.138   0.774   5.655  0.00  0.00    -0.084 Cl
ATOM     36  C   UNL d   1      -3.343  -1.729   4.266  0.00  0.00     0.033 A 
ENDBRANCH  26  29
ENDBRANCH  24  25
ENDBRANCH  23  24
ENDBRANCH   3  23
TORSDOF 6
