REMARK  3 active torsions:
REMARK  status: ('A' for Active; 'I' for Inactive)
REMARK    1  A    between atoms: N_16  and  C_7 
REMARK    2  A    between atoms: C_8  and  C_13 
REMARK    3  A    between atoms: C_22  and  N_16 
ROOT
ATOM      1  S   UNL d   1       0.886  -1.670  -0.044  0.00  0.00     0.270 S 
ATOM      2  C   UNL d   1       2.058  -0.484  -0.484  0.00  0.00     0.146 C 
ATOM      3  N   UNL d   1       1.293  -1.986   1.585  0.00  0.00    -0.275 N 
ATOM      4  C   UNL d   1       1.631  -0.877   2.389  0.00  0.00     0.066 A 
ATOM      5  C   UNL d   1       2.024   0.340   1.864  0.00  0.00     0.084 A 
ATOM      6  C   UNL d   1       2.242   0.642   0.458  0.00  0.00     0.215 C 
ATOM      7  C   UNL d   1       2.901  -0.724  -1.500  0.00  0.00     0.118 C 
ATOM      8  S   UNL d   1       2.331   1.503   3.072  0.00  0.00    -0.096 SA
ATOM      9  O   UNL d   1      -0.429  -1.062  -0.037  0.00  0.00    -0.200 OA
ATOM     10  O   UNL d   1       1.114  -2.891  -0.787  0.00  0.00    -0.200 OA
ATOM     11  C   UNL d   1       1.655  -0.860   3.816  0.00  0.00     0.039 A 
ATOM     12  C   UNL d   1       2.013   0.374   4.316  0.00  0.00     0.053 A 
ATOM     13  O   UNL d   1       2.654   1.723   0.033  0.00  0.00    -0.285 OA
ATOM     14  C   UNL d   1       1.009  -3.323   2.118  0.00  0.00     0.170 C 
ENDROOT
BRANCH   7  15
ATOM     15  N   UNL d   1       3.990   0.011  -1.903  0.00  0.00    -0.364 N 
ATOM     16  H   UNL d   1       4.100   0.928  -1.462  0.00  0.00     0.165 HD
BRANCH  15  17
ATOM     17  C   UNL d   1       5.060  -0.412  -2.708  0.00  0.00     0.032 A 
ATOM     18  C   UNL d   1       5.271  -1.754  -3.062  0.00  0.00     0.045 A 
ATOM     19  C   UNL d   1       6.302  -2.132  -3.940  0.00  0.00     0.050 A 
ATOM     20  C   UNL d   1       7.129  -1.138  -4.479  0.00  0.00     0.016 A 
ATOM     21  C   UNL d   1       6.938   0.196  -4.135  0.00  0.00     0.003 A 
ATOM     22  C   UNL d   1       5.912   0.554  -3.258  0.00  0.00     0.029 A 
BRANCH  19  23
ATOM     23  C   UNL d   1       6.515  -3.578  -4.312  0.00  0.00     0.417 C 
ATOM     24  F   UNL d   1       5.663  -4.436  -3.684  0.00  0.00    -0.166 F 
ATOM     25  F   UNL d   1       6.354  -3.803  -5.646  0.00  0.00    -0.166 F 
ATOM     26  F   UNL d   1       7.769  -4.014  -4.008  0.00  0.00    -0.166 F 
ENDBRANCH  19  23
ENDBRANCH  15  17
ENDBRANCH   7  15
TORSDOF 3
