REMARK  7 active torsions:
REMARK  status: ('A' for Active; 'I' for Inactive)
REMARK    1  A    between atoms: C_2  and  S_1 
REMARK    2  A    between atoms: C_3  and  S_1 
REMARK    3  A    between atoms: S_4  and  C_5 
REMARK    4  A    between atoms: N_14  and  S_4 
REMARK    5  A    between atoms: C_9  and  C_10 
REMARK    6  A    between atoms: C_23  and  N_14 
REMARK    7  A    between atoms: C_27  and  C_23 
ROOT
ATOM      1  C   UNL d   1       0.453   0.559  -1.718  0.00  0.00     0.107 A 
ATOM      2  C   UNL d   1      -0.056   1.863  -3.768  0.00  0.00     0.116 A 
ATOM      3  S   UNL d   1       0.567   2.195  -2.204  0.00  0.00    -0.065 SA
ATOM      4  C   UNL d   1      -0.113  -0.218  -2.712  0.00  0.00     0.033 A 
ATOM      5  C   UNL d   1      -0.409   0.532  -3.888  0.00  0.00     0.034 A 
ENDROOT
BRANCH   1   6
ATOM      6  S   UNL d   1       1.109   0.125  -0.109  0.00  0.00     0.230 S 
ATOM      7  O   UNL d   1       1.314  -1.311  -0.213  0.00  0.00    -0.215 OA
ATOM      8  O   UNL d   1       2.212   1.036   0.127  0.00  0.00    -0.215 OA
BRANCH   6   9
ATOM      9  C   UNL d   1      -0.122   0.395   1.134  0.00  0.00     0.155 A 
ATOM     10  N   UNL d   1      -1.322   0.855   0.671  0.00  0.00    -0.354 N 
ATOM     11  C   UNL d   1      -2.273   1.098   1.605  0.00  0.00     0.105 A 
ATOM     12  HN  UNL d   1      -1.493   1.007  -0.323  1.00  0.00     0.166 HD
ATOM     13  C   UNL d   1      -2.090   0.903   2.969  0.00  0.00     0.065 A 
ATOM     14  C   UNL d   1      -0.851   0.407   3.397  0.00  0.00     0.044 A 
ATOM     15  C   UNL d   1       0.159   0.143   2.469  0.00  0.00     0.073 A 
ATOM     16 CL   UNL d   1       1.652  -0.473   3.056  0.00  0.00    -0.081 Cl
BRANCH  13  17
ATOM     17  C   UNL d   1      -3.196   1.235   3.928  0.00  0.00     0.418 C 
ATOM     18  F   UNL d   1      -2.873   1.002   5.228  0.00  0.00    -0.166 F 
ATOM     19  F   UNL d   1      -3.561   2.544   3.861  0.00  0.00    -0.166 F 
ATOM     20  F   UNL d   1      -4.325   0.516   3.687  0.00  0.00    -0.166 F 
ENDBRANCH  13  17
ENDBRANCH   6   9
ENDBRANCH   1   6
BRANCH   2  21
ATOM     21  S   UNL d   1      -0.178   3.235  -4.914  0.00  0.00     0.248 S 
ATOM     22  O   UNL d   1      -1.579   3.277  -5.270  0.00  0.00    -0.205 OA
ATOM     23  O   UNL d   1       0.495   4.352  -4.292  0.00  0.00    -0.205 OA
BRANCH  21  24
ATOM     24  N   UNL d   1       0.703   2.843  -6.288  0.00  0.00    -0.210 NA
ATOM     25  H   UNL d   1       1.646   2.499  -6.095  0.00  0.00     0.140 HD
BRANCH  24  26
ATOM     26  C   UNL d   1       0.017   2.072  -7.336  0.00  0.00     0.161 C 
BRANCH  26  27
ATOM     27  C   UNL d   1       0.933   1.795  -8.513  0.00  0.00     0.022 A 
ATOM     28  N   UNL d   1       2.070   1.094  -8.254  0.00  0.00    -0.368 N 
ATOM     29  C   UNL d   1       2.888   0.838  -9.302  0.00  0.00     0.088 A 
ATOM     30  HN  UNL d   1       2.296   0.775  -7.312  1.00  0.00     0.165 HD
ATOM     31  C   UNL d   1       2.633   1.245 -10.601  0.00  0.00     0.017 A 
ATOM     32  C   UNL d   1       1.470   1.962 -10.847  0.00  0.00     0.003 A 
ATOM     33  C   UNL d   1       0.606   2.244  -9.792  0.00  0.00     0.026 A 
ENDBRANCH  26  27
ENDBRANCH  24  26
ENDBRANCH  21  24
ENDBRANCH   2  21
TORSDOF 7
