REMARK  5 active torsions:
REMARK  status: ('A' for Active; 'I' for Inactive)
REMARK    1  A    between atoms: C_2  and  C_1 
REMARK    2  A    between atoms: N_14  and  C_2 
REMARK    3  A    between atoms: O_10  and  N_3 
REMARK    4  A    between atoms: C_7  and  O_10 
REMARK    5  A    between atoms: C_11  and  C_7 
ROOT
ATOM      1  C   UNL d   1       0.548   1.321  -0.679  0.00  0.00     0.135 C 
ATOM      2  N   UNL d   1       0.642   2.547  -1.105  0.00  0.00    -0.243 N 
ATOM      3  HN  UNL d   1       0.898   2.796  -2.060  1.00  0.00     0.196 HD
ENDROOT
BRANCH   2   4
ATOM      4  O   UNL d   1       0.353   3.492  -0.101  0.00  0.00    -0.193 OA
BRANCH   4   5
ATOM      5  C   UNL d   1       1.157   4.578  -0.284  0.00  0.00     0.315 C 
ATOM      6  O   UNL d   1       2.341   4.557  -0.587  0.00  0.00    -0.257 OA
BRANCH   5   7
ATOM      7  C   UNL d   1       0.389   5.838  -0.085  0.00  0.00     0.041 A 
ATOM      8  C   UNL d   1       1.083   7.052  -0.204  0.00  0.00     0.019 A 
ATOM      9  C   UNL d   1       0.399   8.268  -0.123  0.00  0.00     0.025 A 
ATOM     10  C   UNL d   1      -0.979   8.274   0.078  0.00  0.00     0.034 A 
ATOM     11  C   UNL d   1      -1.679   7.075   0.211  0.00  0.00     0.025 A 
ATOM     12 CL   UNL d   1      -1.826   9.769   0.145  0.00  0.00    -0.084 Cl
ATOM     13  C   UNL d   1      -0.997   5.856   0.130  0.00  0.00     0.019 A 
ENDBRANCH   5   7
ENDBRANCH   4   5
ENDBRANCH   2   4
BRANCH   1  14
ATOM     14  C   UNL d   1       0.728   0.307  -1.695  0.00  0.00     0.139 A 
ATOM     15  O   UNL d   1       0.691  -1.006  -1.323  0.00  0.00    -0.235 OA
ATOM     16  N   UNL d   1       0.869  -1.810  -2.438  0.00  0.00    -0.272 N 
ATOM     17  C   UNL d   1       1.004  -0.964  -3.462  0.00  0.00     0.117 A 
ATOM     18  HN  UNL d   1       0.890  -2.829  -2.470  1.00  0.00     0.194 HD
ATOM     19  C   UNL d   1       0.931   0.376  -3.055  0.00  0.00     0.062 A 
ENDBRANCH   1  14
BRANCH   1  20
ATOM     20  N   UNL d   1       0.315   1.003   0.641  0.00  0.00    -0.285 NA
ATOM     21  H   UNL d   1       0.647   0.085   0.917  0.00  0.00     0.125 HD
ATOM     22  H   UNL d   1       0.596   1.737   1.278  0.00  0.00     0.125 HD
ENDBRANCH   1  20
TORSDOF 5
