REMARK  8 active torsions:
REMARK  status: ('A' for Active; 'I' for Inactive)
REMARK    1  A    between atoms: C_2  and  S_1 
REMARK    2  A    between atoms: O_4  and  S_1 
REMARK    3  A    between atoms: S_3  and  C_9 
REMARK    4  A    between atoms: C_20  and  S_3 
REMARK    5  A    between atoms: N_5  and  O_4 
REMARK    6  A    between atoms: C_9  and  C_7 
REMARK    7  A    between atoms: N_17  and  C_7 
REMARK    8  A    between atoms: C_22  and  C_20 
ROOT
ATOM      1  N   UNL d   1       0.712  -2.340  -1.075  0.00  0.00    -0.236 N 
ATOM      2  HN  UNL d   1       0.325  -1.636  -0.447  1.00  0.00     0.197 HD
ATOM      3  C   UNL d   1       0.454  -3.610  -1.008  0.00  0.00     0.110 C 
ENDROOT
BRANCH   1   4
ATOM      4  O   UNL d   1       1.599  -2.067  -2.134  0.00  0.00    -0.146 OA
BRANCH   4   5
ATOM      5  S   UNL d   1       1.621  -0.505  -2.654  0.00  0.00     0.321 S 
ATOM      6  O   UNL d   1       0.444   0.191  -2.168  0.00  0.00    -0.191 OA
ATOM      7  O   UNL d   1       2.950   0.047  -2.462  0.00  0.00    -0.191 OA
BRANCH   5   8
ATOM      8  C   UNL d   1       1.407  -0.669  -4.400  0.00  0.00     0.126 A 
ATOM      9  C   UNL d   1       1.929  -1.786  -5.044  0.00  0.00     0.143 A 
ATOM     10  C   UNL d   1       1.724  -1.970  -6.406  0.00  0.00     0.086 A 
ATOM     11  F   UNL d   1       2.624  -2.716  -4.375  0.00  0.00    -0.204 F 
ATOM     12  C   UNL d   1       0.985  -1.028  -7.109  0.00  0.00     0.119 A 
ATOM     13  C   UNL d   1       0.449   0.092  -6.474  0.00  0.00     0.044 A 
ATOM     14  F   UNL d   1       0.774  -1.204  -8.419  0.00  0.00    -0.206 F 
ATOM     15  C   UNL d   1       0.656   0.276  -5.107  0.00  0.00     0.032 A 
ENDBRANCH   5   8
ENDBRANCH   4   5
ENDBRANCH   1   4
BRANCH   3  16
ATOM     16  C   UNL d   1      -0.460  -4.065   0.098  0.00  0.00     0.217 C 
BRANCH  16  17
ATOM     17  S   UNL d   1       0.261  -3.815   1.704  0.00  0.00     0.151 S 
ATOM     18  O   UNL d   1      -0.701  -4.332   2.660  0.00  0.00    -0.227 OA
ATOM     19  O   UNL d   1       1.612  -4.348   1.688  0.00  0.00    -0.227 OA
BRANCH  17  20
ATOM     20  C   UNL d   1       0.342  -2.039   1.948  0.00  0.00     0.140 C 
BRANCH  20  21
ATOM     21  C   UNL d   1       0.918  -1.697   3.317  0.00  0.00     0.010 C 
ATOM     22  C   UNL d   1       1.002  -0.193   3.527  0.00  0.00     0.006 C 
ENDBRANCH  20  21
ENDBRANCH  17  20
ENDBRANCH  16  17
ENDBRANCH   3  16
BRANCH   3  23
ATOM     23  N   UNL d   1       0.902  -4.535  -1.916  0.00  0.00    -0.387 N 
ATOM     24  H   UNL d   1       1.373  -4.181  -2.743  0.00  0.00     0.157 HD
ATOM     25  H   UNL d   1       0.423  -5.420  -2.032  0.00  0.00     0.157 HD
ENDBRANCH   3  23
TORSDOF 8
