REMARK  3 active torsions:
REMARK  status: ('A' for Active; 'I' for Inactive)
REMARK    1  A    between atoms: C_2  and  N_1 
REMARK    2  A    between atoms: S_4  and  C_3 
REMARK    3  A    between atoms: C_9  and  S_4 
ROOT
ATOM      1  C   UNL d   1       0.295  -1.065   0.648  0.00  0.00     0.121 A 
ATOM      2  C   UNL d   1      -0.689  -1.596  -0.201  0.00  0.00     0.040 A 
ATOM      3  N   UNL d   1       0.411  -3.865   4.615  0.00  0.00    -0.191 NA
ATOM      4  C   UNL d   1       0.184  -3.382   3.585  0.00  0.00     0.099 C 
ATOM      5  C   UNL d   1       0.601  -1.651   1.892  0.00  0.00     0.060 A 
ATOM      6  C   UNL d   1      -1.385  -2.731   0.249  0.00  0.00     0.023 A 
ATOM      7  C   UNL d   1      -0.101  -2.782   2.312  0.00  0.00     0.047 A 
ATOM      8  C   UNL d   1      -1.097  -3.317   1.490  0.00  0.00     0.024 A 
ENDROOT
BRANCH   1   9
ATOM      9  N   UNL d   1       1.014   0.150   0.307  0.00  0.00    -0.114 N 
ATOM     10  O   UNL d   1       0.342   1.167   0.087  0.00  0.00    -0.532 OA
ATOM     11  O   UNL d   1       2.251   0.110   0.371  0.00  0.00    -0.532 OA
ENDBRANCH   1   9
BRANCH   2  12
ATOM     12  S   UNL d   1      -1.177  -0.936  -1.789  0.00  0.00    -0.070 SA
BRANCH  12  13
ATOM     13  C   UNL d   1       0.213  -1.320  -2.841  0.00  0.00     0.074 A 
ATOM     14  N   UNL d   1       1.353  -1.773  -2.270  0.00  0.00    -0.360 N 
ATOM     15  C   UNL d   1       2.395  -2.031  -3.094  0.00  0.00     0.089 A 
ATOM     16  HN  UNL d   1       1.423  -1.913  -1.262  1.00  0.00     0.166 HD
ATOM     17  C   UNL d   1       2.351  -1.877  -4.469  0.00  0.00     0.017 A 
ATOM     18  C   UNL d   1       1.170  -1.420  -5.039  0.00  0.00     0.004 A 
ATOM     19  C   UNL d   1       0.085  -1.131  -4.214  0.00  0.00     0.037 A 
ENDBRANCH  12  13
ENDBRANCH   2  12
TORSDOF 3
