REMARK  3 active torsions:
REMARK  status: ('A' for Active; 'I' for Inactive)
REMARK    1  A    between atoms: N_2  and  S_1 
REMARK    2  A    between atoms: C_3  and  S_1 
REMARK    3  A    between atoms: C_5  and  N_2 
ROOT
ATOM      1  S   UNL d   1       0.821  -0.078   0.030  0.00  0.00     0.263 S 
ATOM      2  O   UNL d   1      -0.143  -0.343   1.077  0.00  0.00    -0.200 OA
ATOM      3  O   UNL d   1       2.243  -0.219   0.268  0.00  0.00    -0.200 OA
ENDROOT
BRANCH   1   4
ATOM      4  N   UNL d   1       0.596   1.486  -0.575  0.00  0.00    -0.280 N 
ATOM      5  H   UNL d   1       1.366   1.756  -1.184  0.00  0.00     0.179 HD
BRANCH   4   6
ATOM      6  C   UNL d   1      -0.710   1.897  -0.974  0.00  0.00     0.048 A 
ATOM      7  C   UNL d   1      -1.623   2.425  -0.046  0.00  0.00    -0.032 A 
ATOM      8  C   UNL d   1      -2.913   2.767  -0.489  0.00  0.00     0.051 A 
ATOM      9  C   UNL d   1      -1.295   2.635   1.406  0.00  0.00     0.050 C 
ATOM     10  C   UNL d   1      -3.263   2.605  -1.824  0.00  0.00     0.117 A 
ATOM     11  C   UNL d   1      -2.354   2.101  -2.744  0.00  0.00     0.044 A 
ATOM     12  F   UNL d   1      -4.492   2.946  -2.232  0.00  0.00    -0.206 F 
ATOM     13  C   UNL d   1      -1.073   1.748  -2.319  0.00  0.00     0.034 A 
ENDBRANCH   4   6
ENDBRANCH   1   4
BRANCH   1  14
ATOM     14  C   UNL d   1       0.416  -1.119  -1.356  0.00  0.00     0.082 A 
ATOM     15  C   UNL d   1       1.423  -1.473  -2.259  0.00  0.00     0.065 A 
ATOM     16  C   UNL d   1       1.104  -2.269  -3.358  0.00  0.00     0.103 A 
ATOM     17  O   UNL d   1       2.126  -2.545  -4.230  0.00  0.00    -0.346 OA
ATOM     18  C   UNL d   1      -0.201  -2.744  -3.530  0.00  0.00     0.102 A 
ATOM     19  C   UNL d   1       1.628  -3.036  -5.479  0.00  0.00     0.202 C 
ATOM     20  C   UNL d   1       0.560  -4.094  -5.257  0.00  0.00     0.202 C 
ATOM     21  O   UNL d   1      -0.575  -3.539  -4.582  0.00  0.00    -0.346 OA
ATOM     22  C   UNL d   1      -1.198  -2.403  -2.616  0.00  0.00     0.041 A 
ATOM     23  C   UNL d   1      -0.891  -1.596  -1.517  0.00  0.00     0.028 A 
ENDBRANCH   1  14
TORSDOF 3
