REMARK  5 active torsions:
REMARK  status: ('A' for Active; 'I' for Inactive)
REMARK    1  A    between atoms: C_7  and  C_3 
REMARK    2  A    between atoms: N_11  and  C_4 
REMARK    3  A    between atoms: C_12  and  C_5 
REMARK       I    between atoms: C_6  and  N_10 
REMARK       I    between atoms: N_14  and  C_6 
REMARK    4  A    between atoms: O_23  and  C_12 
REMARK    5  A    between atoms: C_26  and  N_14 
ROOT
ATOM      1  C   UNL d   1      -0.979   6.533  -0.013  0.00  0.00     0.318 C 
ATOM      2  N   UNL d   1      -0.033   5.535  -0.226  0.00  0.00    -0.333 N 
ATOM      3  N   UNL d   1       0.061   2.550  -0.451  0.00  0.00    -0.216 N 
ATOM      4  N   UNL d   1      -0.885   7.213   1.170  0.00  0.00    -0.338 N 
ATOM      5  O   UNL d   1      -1.859   6.785  -0.831  0.00  0.00    -0.247 OA
ATOM      6  C   UNL d   1      -0.093   4.814  -1.510  0.00  0.00     0.148 C 
ATOM      7  C   UNL d   1      -0.641   3.375  -1.446  0.00  0.00     0.161 C 
ATOM      8  C   UNL d   1       0.898   3.846   1.445  0.00  0.00     0.040 C 
ATOM      9  C   UNL d   1       1.087   5.133   0.638  0.00  0.00     0.129 C 
ATOM     10  C   UNL d   1      -0.187   2.903   0.945  0.00  0.00     0.143 C 
ATOM     11  H   UNL d   1       0.014   7.189   1.611  0.00  0.00     0.164 HD
ENDROOT
BRANCH   3  12
ATOM     12  C   UNL d   1       0.084   1.182  -0.698  0.00  0.00     0.680 A 
ATOM     13  N   UNL d   1      -0.561   0.698  -1.766  0.00  0.00    -0.185 N 
ATOM     14  C   UNL d   1      -0.471  -0.627  -2.096  0.00  0.00     0.150 A 
ATOM     15  HN  UNL d   1      -1.126   1.324  -2.340  1.00  0.00     0.184 HD
ATOM     16  C   UNL d   1       0.305  -1.490  -1.347  0.00  0.00     0.087 A 
ATOM     17  C   UNL d   1       0.921  -0.915  -0.249  0.00  0.00     0.126 A 
ATOM     18  N   UNL d   1       0.817   0.390   0.091  0.00  0.00    -0.201 N 
ATOM     19  HN  UNL d   1       1.282   0.758   0.921  1.00  0.00     0.183 HD
BRANCH  14  20
ATOM     20  C   UNL d   1      -1.238  -1.047  -3.328  0.00  0.00     0.434 C 
ATOM     21  F   UNL d   1      -1.930  -0.013  -3.897  0.00  0.00    -0.165 F 
ATOM     22  F   UNL d   1      -0.434  -1.518  -4.323  0.00  0.00    -0.165 F 
ATOM     23  F   UNL d   1      -2.179  -2.002  -3.089  0.00  0.00    -0.165 F 
ENDBRANCH  14  20
BRANCH  16  24
ATOM     24  C   UNL d   1       0.554  -2.925  -1.573  0.00  0.00     0.296 C 
ATOM     25  O   UNL d   1       1.365  -3.560  -0.899  0.00  0.00    -0.259 OA
BRANCH  24  26
ATOM     26  O   UNL d   1      -0.168  -3.448  -2.583  0.00  0.00    -0.322 OA
ATOM     27  C   UNL d   1       0.072  -4.837  -2.819  0.00  0.00     0.213 C 
ENDBRANCH  24  26
ENDBRANCH  16  24
ENDBRANCH   3  12
BRANCH   4  28
ATOM     28  C   UNL d   1      -1.702   8.396   1.513  0.00  0.00     0.086 C 
ATOM     29  C   UNL d   1      -1.325   8.876   2.925  0.00  0.00     0.025 C 
ATOM     30  C   UNL d   1      -1.629   7.788   3.958  0.00  0.00     0.002 C 
ATOM     31  C   UNL d   1      -3.092   7.346   3.916  0.00  0.00     0.000 C 
ATOM     32  C   UNL d   1      -3.615   7.069   2.505  0.00  0.00     0.002 C 
ATOM     33  C   UNL d   1      -3.221   8.159   1.511  0.00  0.00     0.025 C 
ENDBRANCH   4  28
TORSDOF 5
