REMARK  3 active torsions:
REMARK  status: ('A' for Active; 'I' for Inactive)
REMARK    1  A    between atoms: O_5  and  C_1 
REMARK    2  A    between atoms: C_6  and  O_5 
REMARK    3  A    between atoms: N_11  and  C_9 
ROOT
ATOM      1  N   UNL d   1       0.947   3.108  -1.646  0.00  0.00    -0.345 N 
ATOM      2  HN  UNL d   1       0.851   2.129  -1.915  1.00  0.00     0.167 HD
ATOM      3  C   UNL d   1       0.333   3.610  -0.554  0.00  0.00     0.148 A 
ATOM      4  C   UNL d   1       1.698   3.977  -2.365  0.00  0.00     0.113 A 
ATOM      5  C   UNL d   1       1.903   5.318  -2.039  0.00  0.00     0.021 A 
ATOM      6  C   UNL d   1       0.392   4.949  -0.195  0.00  0.00     0.058 A 
ATOM      7  C   UNL d   1       1.170   5.813  -0.964  0.00  0.00     0.029 A 
ENDROOT
BRANCH   3   8
ATOM      8  O   UNL d   1      -0.379   2.792   0.320  0.00  0.00    -0.293 OA
BRANCH   8   9
ATOM      9  C   UNL d   1      -0.371   1.429   0.118  0.00  0.00     0.084 A 
ATOM     10  C   UNL d   1       0.781   0.623   0.223  0.00  0.00    -0.022 A 
ATOM     11  C   UNL d   1       0.647  -0.774   0.030  0.00  0.00    -0.053 A 
ATOM     12  C   UNL d   1       2.132   1.221   0.509  0.00  0.00     0.052 C 
ATOM     13  C   UNL d   1       1.821  -1.716   0.039  0.00  0.00     0.049 C 
ATOM     14  C   UNL d   1      -0.633  -1.334  -0.129  0.00  0.00     0.007 A 
ATOM     15  C   UNL d   1      -1.768  -0.529  -0.156  0.00  0.00     0.003 A 
ATOM     16  C   UNL d   1      -1.635   0.851  -0.045  0.00  0.00     0.038 A 
ENDBRANCH   8   9
ENDBRANCH   3   8
BRANCH   5  17
ATOM     17  N   UNL d   1       2.613   6.190  -2.873  0.00  0.00    -0.302 NA
ATOM     18  H   UNL d   1       2.943   7.029  -2.409  0.00  0.00     0.124 HD
ATOM     19  H   UNL d   1       3.347   5.738  -3.412  0.00  0.00     0.124 HD
ENDBRANCH   5  17
TORSDOF 3
