REMARK  6 active torsions:
REMARK  status: ('A' for Active; 'I' for Inactive)
REMARK       I    between atoms: N_2  and  C_1 
REMARK    1  A    between atoms: C_9  and  C_1 
REMARK    2  A    between atoms: C_6  and  C_26 
REMARK    3  A    between atoms: C_25  and  N_8 
REMARK    4  A    between atoms: O_27  and  C_20 
REMARK    5  A    between atoms: C_28  and  C_25 
REMARK    6  A    between atoms: C_26  and  C_28 
ROOT
ATOM      1  C   UNL d   1       0.919  -0.027  -0.081  0.00  0.00     0.253 C 
ATOM      2  N   UNL d   1       0.311   1.157  -0.494  0.00  0.00    -0.345 N 
ATOM      3  N   UNL d   1      -0.314   3.979  -1.083  0.00  0.00     0.091 N 
ATOM      4  O   UNL d   1       1.903  -0.506  -0.637  0.00  0.00    -0.267 OA
ATOM      5  C   UNL d   1       0.722   1.753  -1.771  0.00  0.00     0.156 C 
ATOM      6  C   UNL d   1      -0.770   1.856   0.212  0.00  0.00     0.156 C 
ATOM      7  C   UNL d   1      -0.555   3.375   0.242  0.00  0.00     0.292 C 
ATOM      8  C   UNL d   1       0.849   3.290  -1.691  0.00  0.00     0.292 C 
ENDROOT
BRANCH   3   9
ATOM      9  C   UNL d   1      -1.486   3.938  -1.973  0.00  0.00     0.273 C 
BRANCH   9  10
ATOM     10  C   UNL d   1      -2.720   4.672  -1.432  0.00  0.00     0.035 C 
BRANCH  10  11
ATOM     11  C   UNL d   1      -2.435   6.142  -1.123  0.00  0.00     0.042 C 
BRANCH  11  12
ATOM     12  C   UNL d   1      -3.627   6.826  -0.533  0.00  0.00    -0.030 A 
ATOM     13  C   UNL d   1      -3.959   6.935   0.851  0.00  0.00     0.001 A 
ATOM     14  C   UNL d   1      -5.150   7.659   0.946  0.00  0.00     0.043 A 
ATOM     15  C   UNL d   1      -3.353   6.486   2.042  0.00  0.00     0.056 A 
ATOM     16  C   UNL d   1      -5.769   7.960   2.167  0.00  0.00     0.033 A 
ATOM     17  N   UNL d   1      -5.529   7.976  -0.336  0.00  0.00    -0.365 N 
ATOM     18  C   UNL d   1      -5.143   7.505   3.332  0.00  0.00     0.044 A 
ATOM     19  C   UNL d   1      -3.959   6.779   3.263  0.00  0.00     0.117 A 
ATOM     20  F   UNL d   1      -3.388   6.351   4.396  0.00  0.00    -0.206 F 
ATOM     21  C   UNL d   1      -4.621   7.478  -1.228  0.00  0.00     0.096 A 
ATOM     22  H   UNL d   1      -6.356   8.504  -0.579  0.00  0.00     0.165 HD
ENDBRANCH  11  12
ENDBRANCH  10  11
ENDBRANCH   9  10
ENDBRANCH   3   9
BRANCH   1  23
ATOM     23  C   UNL d   1       0.381  -0.747   1.102  0.00  0.00     0.032 A 
ATOM     24  C   UNL d   1      -0.989  -0.996   1.247  0.00  0.00     0.020 A 
ATOM     25  C   UNL d   1      -1.478  -1.587   2.414  0.00  0.00     0.038 A 
ATOM     26  C   UNL d   1      -0.592  -1.992   3.413  0.00  0.00     0.068 A 
ATOM     27  C   UNL d   1       0.783  -1.836   3.222  0.00  0.00     0.038 A 
ATOM     28  C   UNL d   1       1.273  -1.207   2.075  0.00  0.00     0.020 A 
BRANCH  26  29
ATOM     29  O   UNL d   1      -0.959  -2.597   4.584  0.00  0.00    -0.356 OA
ATOM     30  C   UNL d   1      -2.236  -2.224   5.094  0.00  0.00     0.210 C 
ENDBRANCH  26  29
ENDBRANCH   1  23
TORSDOF 6
