REMARK  4 active torsions:
REMARK  status: ('A' for Active; 'I' for Inactive)
REMARK    1  A    between atoms: N_2  and  S_1 
REMARK    2  A    between atoms: C_8  and  S_1 
REMARK    3  A    between atoms: C_3  and  N_2 
REMARK       I    between atoms: C_11  and  N_12 
REMARK    4  A    between atoms: N_12  and  C_18 
ROOT
ATOM      1  S   UNL d   1       7.799   4.325  -0.631  0.00  0.00     0.259 S 
ATOM      2  O   UNL d   1       7.002   4.336  -1.841  0.00  0.00    -0.201 OA
ATOM      3  O   UNL d   1       8.755   5.374  -0.364  0.00  0.00    -0.201 OA
ENDROOT
BRANCH   1   4
ATOM      4  N   UNL d   1       8.576   2.849  -0.640  0.00  0.00    -0.309 N 
ATOM      5  H   UNL d   1       8.474   2.427  -1.564  0.00  0.00     0.172 HD
BRANCH   4   6
ATOM      6  C   UNL d   1       9.747   2.418   0.165  0.00  0.00     0.109 C 
ATOM      7  C   UNL d   1      11.084   3.125  -0.288  0.00  0.00    -0.022 C 
ATOM      8  C   UNL d   1      12.149   2.016  -0.223  0.00  0.00     0.016 C 
ATOM      9  C   UNL d   1      11.088   3.334  -1.815  0.00  0.00     0.011 C 
ATOM     10  C   UNL d   1      11.510   4.320   0.553  0.00  0.00     0.017 C 
ATOM     11  C   UNL d   1      11.325   1.028  -1.052  0.00  0.00    -0.004 C 
ATOM     12  C   UNL d   1      10.045   0.886  -0.166  0.00  0.00    -0.022 C 
ATOM     13  C   UNL d   1      11.097   1.878  -2.331  0.00  0.00     0.006 C 
ATOM     14  C   UNL d   1      10.399   0.037   1.091  0.00  0.00     0.017 C 
ATOM     15  C   UNL d   1       8.869   0.127  -0.822  0.00  0.00     0.017 C 
ENDBRANCH   4   6
ENDBRANCH   1   4
BRANCH   1  16
ATOM     16  C   UNL d   1       6.672   4.233   0.715  0.00  0.00     0.079 A 
ATOM     17  C   UNL d   1       6.662   5.242   1.676  0.00  0.00     0.027 A 
ATOM     18  C   UNL d   1       5.736   5.195   2.718  0.00  0.00     0.031 A 
ATOM     19  C   UNL d   1       4.824   4.128   2.809  0.00  0.00     0.034 A 
ATOM     20  C   UNL d   1       4.825   3.145   1.820  0.00  0.00     0.031 A 
ATOM     21  C   UNL d   1       5.747   3.191   0.766  0.00  0.00     0.027 A 
BRANCH  19  22
ATOM     22  N   UNL d   1       3.973   4.124   3.934  0.00  0.00    -0.328 N 
ATOM     23  C   UNL d   1       3.063   3.147   4.289  0.00  0.00     0.218 C 
ATOM     24  O   UNL d   1       2.780   2.138   3.647  0.00  0.00    -0.274 OA
ATOM     25  C   UNL d   1       2.419   3.401   5.624  0.00  0.00     0.117 C 
ATOM     26  H   UNL d   1       4.083   4.900   4.569  0.00  0.00     0.169 HD
ENDBRANCH  19  22
ENDBRANCH   1  16
TORSDOF 4
