REMARK  2 active torsions:
REMARK  status: ('A' for Active; 'I' for Inactive)
REMARK    1  A    between atoms: C_11  and  C_7 
REMARK    2  A    between atoms: O_18  and  C_14 
ROOT
ATOM      1  C   UNL d   1       2.879  -1.100   0.446  0.00  0.00     0.101 A 
ATOM      2  N   UNL d   1       2.321  -3.438   0.630  0.00  0.00    -0.275 N 
ATOM      3  N   UNL d   1       4.307  -2.690   1.552  0.00  0.00    -0.275 N 
ATOM      4  C   UNL d   1       1.935  -2.214   0.167  0.00  0.00     0.265 A 
ATOM      5  C   UNL d   1       4.106  -1.374   1.236  0.00  0.00     0.265 A 
ATOM      6  C   UNL d   1       3.463  -3.727   1.308  0.00  0.00     0.329 A 
ATOM      7  C   UNL d   1       2.555   0.104  -0.063  0.00  0.00     0.034 C 
ATOM      8  O   UNL d   1       0.878  -2.073  -0.439  0.00  0.00    -0.267 OA
ATOM      9  O   UNL d   1       4.898  -0.520   1.613  0.00  0.00    -0.267 OA
ATOM     10  O   UNL d   1       3.714  -4.865   1.689  0.00  0.00    -0.246 OA
ATOM     11  H   UNL d   1       1.694  -4.210   0.450  0.00  0.00     0.173 HD
ATOM     12  H   UNL d   1       5.137  -2.899   2.089  0.00  0.00     0.173 HD
ENDROOT
BRANCH   7  13
ATOM     13  C   UNL d   1       3.330   1.341   0.033  0.00  0.00    -0.034 A 
ATOM     14  C   UNL d   1       3.150   2.210   1.111  0.00  0.00     0.033 A 
ATOM     15  C   UNL d   1       3.850   3.430   1.192  0.00  0.00     0.045 A 
ATOM     16 BR   UNL d   1       3.432   4.451   2.741  0.00  0.00    -0.048 Br
ATOM     17  C   UNL d   1       4.749   3.785   0.176  0.00  0.00     0.085 A 
ATOM     18  C   UNL d   1       4.929   2.886  -0.892  0.00  0.00     0.039 A 
ATOM     19  C   UNL d   1       4.231   1.680  -0.970  0.00  0.00     0.014 A 
BRANCH  17  20
ATOM     20  O   UNL d   1       5.529   4.892   0.002  0.00  0.00    -0.355 OA
ATOM     21  C   UNL d   1       5.490   5.971   0.914  0.00  0.00     0.210 C 
ENDBRANCH  17  20
ENDBRANCH   7  13
TORSDOF 2
