REMARK  6 active torsions:
REMARK  status: ('A' for Active; 'I' for Inactive)
REMARK    1  A    between atoms: C_8  and  C_1 
REMARK    2  A    between atoms: C_12  and  C_2 
REMARK    3  A    between atoms: C_5  and  C_9 
REMARK    4  A    between atoms: O_18  and  C_8 
REMARK    5  A    between atoms: C_9  and  O_13 
REMARK    6  A    between atoms: O_13  and  N_10 
ROOT
ATOM      1  N   UNL d   1      -0.556  -3.668   0.243  0.00  0.00    -0.261 N 
ATOM      2  HN  UNL d   1      -0.257  -4.641   0.317  1.00  0.00     0.194 HD
ATOM      3  C   UNL d   1       0.257  -2.670   0.059  0.00  0.00     0.044 C 
ATOM      4  C   UNL d   1      -0.194  -1.231  -0.050  0.00  0.00     0.071 C 
ENDROOT
BRANCH   1   5
ATOM      5  O   UNL d   1      -1.899  -3.245   0.327  0.00  0.00    -0.195 OA
BRANCH   5   6
ATOM      6  C   UNL d   1      -2.748  -4.316   0.301  0.00  0.00     0.321 C 
ATOM      7  O   UNL d   1      -2.449  -5.497   0.214  0.00  0.00    -0.257 OA
BRANCH   6   8
ATOM      8  C   UNL d   1      -4.140  -3.843   0.414  0.00  0.00     0.118 A 
ATOM      9  C   UNL d   1      -5.083  -4.629   1.075  0.00  0.00     0.135 A 
ATOM     10  F   UNL d   1      -4.733  -5.781   1.665  0.00  0.00    -0.205 F 
ATOM     11  C   UNL d   1      -6.422  -4.233   1.163  0.00  0.00     0.043 A 
ATOM     12  C   UNL d   1      -6.832  -3.033   0.586  0.00  0.00     0.006 A 
ATOM     13  C   UNL d   1      -5.900  -2.237  -0.076  0.00  0.00     0.043 A 
ATOM     14  C   UNL d   1      -4.564  -2.645  -0.161  0.00  0.00     0.135 A 
ATOM     15  F   UNL d   1      -3.715  -1.858  -0.834  0.00  0.00    -0.205 F 
ENDBRANCH   6   8
ENDBRANCH   5   6
ENDBRANCH   1   5
BRANCH   3  16
ATOM     16  C   UNL d   1       1.677  -2.992   0.034  0.00  0.00     0.054 A 
ATOM     17  C   UNL d   1       2.331  -4.183  -0.436  0.00  0.00     0.144 A 
ATOM     18  N   UNL d   1       3.653  -4.119  -0.202  0.00  0.00    -0.254 N 
ATOM     19  O   UNL d   1       3.890  -2.894   0.359  0.00  0.00    -0.241 OA
ATOM     20  HN  UNL d   1       4.344  -4.841  -0.404  1.00  0.00     0.195 HD
ATOM     21  C   UNL d   1       2.727  -2.212   0.496  0.00  0.00     0.087 A 
ATOM     22  C   UNL d   1       2.896  -0.880   1.112  0.00  0.00     0.080 C 
BRANCH  17  23
ATOM     23  C   UNL d   1       1.797  -5.345  -1.146  0.00  0.00     0.312 C 
ATOM     24  O   UNL d   1       2.312  -6.460  -1.106  0.00  0.00    -0.258 OA
BRANCH  23  25
ATOM     25  O   UNL d   1       0.757  -5.020  -1.972  0.00  0.00    -0.321 OA
ATOM     26  C   UNL d   1       0.310  -6.094  -2.802  0.00  0.00     0.213 C 
ENDBRANCH  23  25
ENDBRANCH  17  23
ENDBRANCH   3  16
TORSDOF 6
