REMARK  3 active torsions:
REMARK  status: ('A' for Active; 'I' for Inactive)
REMARK    1  A    between atoms: C_7  and  N_1 
REMARK    2  A    between atoms: C_6  and  C_2 
REMARK    3  A    between atoms: N_18  and  C_3 
ROOT
ATOM      1  N   UNL d   1       0.970  -0.598  -0.028  0.00  0.00    -0.238 N 
ATOM      2  C   UNL d   1      -0.311   1.213   0.112  0.00  0.00     0.073 A 
ATOM      3  C   UNL d   1       1.007   0.806   0.070  0.00  0.00     0.136 A 
ATOM      4  N   UNL d   1      -0.309  -1.052  -0.066  0.00  0.00    -0.302 N 
ATOM      5  HN  UNL d   1      -0.622  -2.020  -0.147  1.00  0.00     0.186 HD
ATOM      6  C   UNL d   1      -1.068   0.040   0.027  0.00  0.00     0.127 A 
ENDROOT
BRANCH   1   7
ATOM      7  C   UNL d   1       2.073  -1.506  -0.044  0.00  0.00     0.080 A 
ATOM      8  C   UNL d   1       2.037  -2.733  -0.733  0.00  0.00     0.064 A 
ATOM      9  C   UNL d   1       3.173  -3.557  -0.753  0.00  0.00     0.050 A 
ATOM     10 CL   UNL d   1       0.715  -3.286  -1.705  0.00  0.00    -0.082 Cl
ATOM     11  C   UNL d   1       4.335  -3.174  -0.090  0.00  0.00     0.035 A 
ATOM     12  C   UNL d   1       4.374  -1.983   0.624  0.00  0.00     0.026 A 
ATOM     13 CL   UNL d   1       5.734  -4.171  -0.162  0.00  0.00    -0.084 Cl
ATOM     14  C   UNL d   1       3.247  -1.159   0.656  0.00  0.00     0.035 A 
ENDBRANCH   1   7
BRANCH   3  15
ATOM     15  N   UNL d   1       2.139   1.567   0.050  0.00  0.00    -0.383 N 
ATOM     16  H   UNL d   1       2.033   2.581  -0.044  0.00  0.00     0.157 HD
ATOM     17  H   UNL d   1       2.979   1.236  -0.421  0.00  0.00     0.157 HD
ENDBRANCH   3  15
BRANCH   2  18
ATOM     18  C   UNL d   1      -0.852   2.559   0.164  0.00  0.00     0.149 A 
ATOM     19  N   UNL d   1      -0.026   3.655   0.129  0.00  0.00    -0.266 N 
ATOM     20  N   UNL d   1      -0.814   4.721   0.161  0.00  0.00    -0.005 NA
ATOM     21  HN  UNL d   1       0.993   3.651   0.086  1.00  0.00     0.186 HD
ATOM     22  N   UNL d   1      -2.055   4.219   0.214  0.00  0.00    -0.225 N 
ATOM     23  N   UNL d   1      -2.154   2.880   0.213  0.00  0.00    -0.271 N 
ATOM     24  H   UNL d   1      -2.872   4.824   0.250  0.00  0.00     0.205 HD
ATOM     25  HN  UNL d   1      -2.979   2.280   0.240  1.00  0.00     0.190 HD
ENDBRANCH   2  18
TORSDOF 3
