REMARK  5 active torsions:
REMARK  status: ('A' for Active; 'I' for Inactive)
REMARK    1  A    between atoms: C_6  and  C_1 
REMARK    2  A    between atoms: C_7  and  C_3 
REMARK    3  A    between atoms: O_12  and  C_6 
REMARK    4  A    between atoms: C_8  and  C_7 
REMARK    5  A    between atoms: O_14  and  C_8 
ROOT
ATOM      1  C   UNL d   1      -0.941  -1.198   0.056  0.00  0.00     0.053 A 
ATOM      2  C   UNL d   1      -1.256   0.106  -0.007  0.00  0.00     0.021 A 
ATOM      3  C   UNL d   1       0.560  -1.401   0.062  0.00  0.00     0.129 A 
ATOM      4  C   UNL d   1       1.019   0.048   0.040  0.00  0.00     0.231 A 
ATOM      5  N   UNL d   1      -0.102   0.840  -0.036  0.00  0.00    -0.330 N 
ATOM      6  O   UNL d   1       2.173   0.426   0.167  0.00  0.00    -0.272 OA
ATOM      7  C   UNL d   1      -2.558   0.827  -0.060  0.00  0.00     0.069 C 
ATOM      8  H   UNL d   1      -0.057   1.851  -0.033  0.00  0.00     0.168 HD
ENDROOT
BRANCH   3   9
ATOM      9  C   UNL d   1       1.171  -2.107   1.268  0.00  0.00     0.129 C 
BRANCH   9  10
ATOM     10  C   UNL d   1       0.922  -1.374   2.562  0.00  0.00     0.140 C 
ATOM     11  O   UNL d   1      -0.032  -1.602   3.290  0.00  0.00    -0.650 OA
BRANCH  10  12
ATOM     12  O   UNL d   1       1.825  -0.407   2.834  0.00  0.00    -0.776 OA
ATOM     13  H   UNL d   1       2.474  -0.227   2.117  0.00  0.00     0.167 HD
ENDBRANCH  10  12
ENDBRANCH   9  10
ENDBRANCH   3   9
BRANCH   1  14
ATOM     14  C   UNL d   1      -1.814  -2.384   0.055  0.00  0.00     0.291 C 
ATOM     15  O   UNL d   1      -1.398  -3.500  -0.215  0.00  0.00    -0.260 OA
BRANCH  14  16
ATOM     16  O   UNL d   1      -3.083  -2.064   0.389  0.00  0.00    -0.323 OA
ATOM     17  C   UNL d   1      -4.002  -3.155   0.361  0.00  0.00     0.213 C 
ENDBRANCH  14  16
ENDBRANCH   1  14
TORSDOF 5
