REMARK  5 active torsions:
REMARK  status: ('A' for Active; 'I' for Inactive)
REMARK    1  A    between atoms: C_6  and  C_1 
REMARK    2  A    between atoms: N_8  and  C_2 
REMARK    3  A    between atoms: C_7  and  C_3 
REMARK    4  A    between atoms: O_10  and  C_6 
REMARK    5  A    between atoms: C_14  and  O_10 
ROOT
ATOM      1  C   UNL d   1      -0.209  -1.217  -0.067  0.00  0.00     0.085 A 
ATOM      2  C   UNL d   1       1.112  -0.781  -0.084  0.00  0.00     0.085 A 
ATOM      3  C   UNL d   1      -1.144  -0.089  -0.034  0.00  0.00     0.006 A 
ATOM      4  S   UNL d   1       1.234   0.911  -0.035  0.00  0.00    -0.076 SA
ATOM      5  C   UNL d   1      -0.462   1.125   0.045  0.00  0.00    -0.007 A 
ATOM      6  C   UNL d   1      -0.940   2.539   0.175  0.00  0.00     0.057 C 
ENDROOT
BRANCH   3   7
ATOM      7  C   UNL d   1      -2.622  -0.145   0.014  0.00  0.00    -0.024 A 
ATOM      8  C   UNL d   1      -3.281  -1.080   0.824  0.00  0.00     0.012 A 
ATOM      9  C   UNL d   1      -4.679  -1.111   0.899  0.00  0.00     0.001 A 
ATOM     10  C   UNL d   1      -5.439  -0.181   0.196  0.00  0.00     0.000 A 
ATOM     11  C   UNL d   1      -4.803   0.753  -0.616  0.00  0.00     0.001 A 
ATOM     12  C   UNL d   1      -3.409   0.750  -0.729  0.00  0.00     0.012 A 
ENDBRANCH   3   7
BRANCH   1  13
ATOM     13  C   UNL d   1      -0.554  -2.636  -0.106  0.00  0.00     0.297 C 
ATOM     14  O   UNL d   1      -1.552  -3.092  -0.653  0.00  0.00    -0.259 OA
BRANCH  13  15
ATOM     15  O   UNL d   1       0.348  -3.413   0.580  0.00  0.00    -0.318 OA
BRANCH  15  16
ATOM     16  C   UNL d   1       0.079  -4.822   0.630  0.00  0.00     0.174 C 
ATOM     17  C   UNL d   1      -0.860  -5.141   1.779  0.00  0.00     0.034 C 
ENDBRANCH  15  16
ENDBRANCH  13  15
ENDBRANCH   1  13
BRANCH   2  18
ATOM     18  N   UNL d   1       2.245  -1.516  -0.142  0.00  0.00    -0.393 N 
ATOM     19  H   UNL d   1       2.219  -2.490   0.152  0.00  0.00     0.156 HD
ATOM     20  H   UNL d   1       3.124  -1.055   0.079  0.00  0.00     0.156 HD
ENDBRANCH   2  18
TORSDOF 5
