REMARK  12 active torsions:
REMARK  status: ('A' for Active; 'I' for Inactive)
REMARK    1  A    between atoms: S_3  and  C_12 
REMARK    2  A    between atoms: N_24  and  S_3 
REMARK    3  A    between atoms: S_4  and  C_13 
REMARK    4  A    between atoms: N_25  and  S_4 
REMARK    5  A    between atoms: N_9  and  C_5 
REMARK    6  A    between atoms: N_10  and  C_6 
REMARK    7  A    between atoms: C_29  and  N_24 
REMARK    8  A    between atoms: C_30  and  N_25 
REMARK    9  A    between atoms: C_31  and  C_29 
REMARK   10  A    between atoms: C_32  and  C_30 
REMARK   11  A    between atoms: C_33  and  C_31 
REMARK   12  A    between atoms: C_34  and  C_32 
ROOT
ATOM      1  C   UNL d   1      -0.740   0.868   0.021  0.00  0.00     0.025 A 
ATOM      2  C   UNL d   1       0.735   0.861   0.006  0.00  0.00     0.025 A 
ATOM      3  C   UNL d   1      -1.739   1.840  -0.058  0.00  0.00     0.116 A 
ATOM      4  C   UNL d   1       1.742   1.815   0.148  0.00  0.00     0.116 A 
ATOM      5  C   UNL d   1       1.174  -0.473  -0.137  0.00  0.00     0.030 A 
ATOM      6  C   UNL d   1      -1.191  -0.472   0.021  0.00  0.00     0.030 A 
ATOM      7  C   UNL d   1      -0.010  -1.351  -0.090  0.00  0.00     0.194 A 
ATOM      8  C   UNL d   1      -3.485   0.141  -0.014  0.00  0.00     0.082 A 
ATOM      9  C   UNL d   1       3.470   0.134  -0.193  0.00  0.00     0.082 A 
ATOM     10  C   UNL d   1       3.104   1.471   0.021  0.00  0.00     0.062 A 
ATOM     11  C   UNL d   1      -3.105   1.490  -0.056  0.00  0.00     0.062 A 
ATOM     12  C   UNL d   1      -2.523  -0.869   0.015  0.00  0.00     0.041 A 
ATOM     13  C   UNL d   1       2.503  -0.871  -0.241  0.00  0.00     0.041 A 
ATOM     14  O   UNL d   1      -0.015  -2.561  -0.140  0.00  0.00    -0.287 OA
ENDROOT
BRANCH   8  15
ATOM     15  S   UNL d   1      -5.211  -0.254  -0.182  0.00  0.00     0.258 S 
ATOM     16  O   UNL d   1      -5.713   0.551  -1.268  0.00  0.00    -0.201 OA
ATOM     17  O   UNL d   1      -5.357  -1.690  -0.153  0.00  0.00    -0.201 OA
BRANCH  15  18
ATOM     18  N   UNL d   1      -5.870   0.382   1.236  0.00  0.00    -0.315 N 
ATOM     19  H   UNL d   1      -6.728   0.902   1.042  0.00  0.00     0.172 HD
BRANCH  18  20
ATOM     20  C   UNL d   1      -5.862  -0.498   2.412  0.00  0.00     0.132 C 
BRANCH  20  21
ATOM     21  C   UNL d   1      -6.417   0.226   3.638  0.00  0.00     0.024 C 
BRANCH  21  22
ATOM     22  C   UNL d   1      -6.479  -0.703   4.869  0.00  0.00    -0.021 C 
ATOM     23  C   UNL d   1      -5.092  -1.196   5.291  0.00  0.00     0.009 C 
ATOM     24  C   UNL d   1      -7.155  -0.003   6.048  0.00  0.00     0.009 C 
ENDBRANCH  21  22
ENDBRANCH  20  21
ENDBRANCH  18  20
ENDBRANCH  15  18
ENDBRANCH   8  15
BRANCH   3  25
ATOM     25  N   UNL d   1      -1.448   3.225  -0.366  0.00  0.00    -0.115 N 
ATOM     26  O   UNL d   1      -0.734   3.427  -1.354  0.00  0.00    -0.532 OA
ATOM     27  O   UNL d   1      -1.968   4.086   0.350  0.00  0.00    -0.532 OA
ENDBRANCH   3  25
BRANCH   4  28
ATOM     28  N   UNL d   1       1.471   3.148   0.643  0.00  0.00    -0.115 N 
ATOM     29  O   UNL d   1       0.782   3.220   1.669  0.00  0.00    -0.532 OA
ATOM     30  O   UNL d   1       1.979   4.096   0.036  0.00  0.00    -0.532 OA
ENDBRANCH   4  28
BRANCH   9  31
ATOM     31  S   UNL d   1       5.201  -0.270  -0.246  0.00  0.00     0.258 S 
ATOM     32  O   UNL d   1       5.832   0.473   0.820  0.00  0.00    -0.201 OA
ATOM     33  O   UNL d   1       5.334  -1.703  -0.370  0.00  0.00    -0.201 OA
BRANCH  31  34
ATOM     34  N   UNL d   1       5.698   0.446  -1.693  0.00  0.00    -0.315 N 
ATOM     35  H   UNL d   1       6.571   0.958  -1.567  0.00  0.00     0.172 HD
BRANCH  34  36
ATOM     36  C   UNL d   1       5.558  -0.368  -2.908  0.00  0.00     0.132 C 
BRANCH  36  37
ATOM     37  C   UNL d   1       5.984   0.426  -4.145  0.00  0.00     0.024 C 
BRANCH  37  38
ATOM     38  C   UNL d   1       5.903  -0.427  -5.431  0.00  0.00    -0.021 C 
ATOM     39  C   UNL d   1       4.477  -0.891  -5.728  0.00  0.00     0.009 C 
ATOM     40  C   UNL d   1       6.452   0.345  -6.632  0.00  0.00     0.009 C 
ENDBRANCH  37  38
ENDBRANCH  36  37
ENDBRANCH  34  36
ENDBRANCH  31  34
ENDBRANCH   9  31
TORSDOF 12
