REMARK  6 active torsions:
REMARK  status: ('A' for Active; 'I' for Inactive)
REMARK    1  A    between atoms: C_11  and  C_2 
REMARK    2  A    between atoms: S_15  and  C_3 
REMARK    3  A    between atoms: C_12  and  C_11 
REMARK    4  A    between atoms: C_18  and  S_15 
REMARK    5  A    between atoms: C_16  and  C_18 
REMARK    6  A    between atoms: C_20  and  C_16 
ROOT
ATOM      1  N   UNL d   1       0.941   0.531  -0.590  0.00  0.00    -0.319 N 
ATOM      2  C   UNL d   1      -0.158   1.224  -0.120  0.00  0.00     0.101 C 
ATOM      3  C   UNL d   1       0.451  -0.677  -1.017  0.00  0.00     0.162 C 
ATOM      4  N   UNL d   1      -1.159   0.372  -0.005  0.00  0.00    -0.287 N 
ATOM      5  HN  UNL d   1      -2.060   0.565   0.432  1.00  0.00     0.188 HD
ATOM      6  N   UNL d   1      -0.777  -0.821  -0.576  0.00  0.00    -0.278 N 
ATOM      7  HN  UNL d   1      -1.346  -1.665  -0.644  1.00  0.00     0.189 HD
ATOM      8  C   UNL d   1       2.314   0.963  -0.581  0.00  0.00     0.159 C 
ENDROOT
BRANCH   2   9
ATOM      9  C   UNL d   1      -0.268   2.715   0.029  0.00  0.00     0.103 C 
BRANCH   9  10
ATOM     10  C   UNL d   1      -0.225   3.213   1.474  0.00  0.00     0.151 C 
ATOM     11  C   UNL d   1      -1.484   2.854   2.251  0.00  0.00     0.236 C 
ATOM     12  N   UNL d   1      -2.618   3.601   2.092  0.00  0.00    -0.325 N 
ATOM     13  O   UNL d   1      -1.525   1.856   2.968  0.00  0.00    -0.272 OA
ATOM     14  C   UNL d   1      -2.699   4.907   1.591  0.00  0.00     0.051 A 
ATOM     15  H   UNL d   1      -3.439   3.189   2.518  0.00  0.00     0.169 HD
ATOM     16  C   UNL d   1      -1.561   5.655   1.270  0.00  0.00     0.028 A 
ATOM     17  C   UNL d   1      -3.969   5.492   1.496  0.00  0.00     0.031 A 
ATOM     18  S   UNL d   1       0.093   5.023   1.499  0.00  0.00    -0.113 SA
ATOM     19  C   UNL d   1      -1.712   6.987   0.854  0.00  0.00     0.021 A 
ATOM     20  C   UNL d   1      -2.981   7.564   0.756  0.00  0.00     0.002 A 
ATOM     21  C   UNL d   1      -4.110   6.818   1.079  0.00  0.00     0.002 A 
ENDBRANCH   9  10
ENDBRANCH   2   9
BRANCH   3  22
ATOM     22  S   UNL d   1       1.138  -1.608  -2.305  0.00  0.00    -0.085 SA
BRANCH  22  23
ATOM     23  C   UNL d   1       2.258  -2.772  -1.481  0.00  0.00     0.166 C 
BRANCH  23  24
ATOM     24  C   UNL d   1       3.640  -2.687  -2.122  0.00  0.00     0.169 C 
ATOM     25  O   UNL d   1       4.109  -1.625  -2.538  0.00  0.00    -0.291 OA
BRANCH  24  26
ATOM     26  C   UNL d   1       4.504  -3.907  -2.197  0.00  0.00     0.010 A 
ATOM     27  C   UNL d   1       4.276  -5.051  -1.423  0.00  0.00     0.015 A 
ATOM     28  C   UNL d   1       5.164  -6.128  -1.487  0.00  0.00     0.001 A 
ATOM     29  C   UNL d   1       6.282  -6.078  -2.323  0.00  0.00     0.000 A 
ATOM     30  C   UNL d   1       6.508  -4.951  -3.107  0.00  0.00     0.001 A 
ATOM     31  C   UNL d   1       5.623  -3.872  -3.046  0.00  0.00     0.015 A 
ENDBRANCH  24  26
ENDBRANCH  23  24
ENDBRANCH  22  23
ENDBRANCH   3  22
TORSDOF 6
