REMARK  4 active torsions:
REMARK  status: ('A' for Active; 'I' for Inactive)
REMARK    1  A    between atoms: C_16  and  C_15 
REMARK    2  A    between atoms: C_17  and  C_16 
REMARK    3  A    between atoms: C_19  and  C_17 
REMARK    4  A    between atoms: C_18  and  C_19 
ROOT
ATOM      1  C   UNL d   1       1.111   0.877  -0.000  0.00  0.00    -0.042 A 
ATOM      2  C   UNL d   1      -1.241   0.879   0.004  0.00  0.00    -0.041 A 
ATOM      3  C   UNL d   1       0.659  -0.458   0.000  0.00  0.00    -0.019 A 
ATOM      4  C   UNL d   1      -0.789  -0.460   0.002  0.00  0.00    -0.019 A 
ATOM      5  C   UNL d   1      -0.063   1.833   0.006  0.00  0.00     0.078 A 
ATOM      6  N   UNL d   1      -6.053   0.647  -0.004  0.00  0.00    -0.191 NA
ATOM      7  C   UNL d   1      -4.917   0.417  -0.002  0.00  0.00     0.099 C 
ATOM      8  C   UNL d   1      -1.696  -1.506   0.000  0.00  0.00     0.014 A 
ATOM      9  C   UNL d   1       1.568  -1.502  -0.004  0.00  0.00     0.013 A 
ATOM     10  C   UNL d   1      -2.590   1.192   0.002  0.00  0.00     0.031 A 
ATOM     11  C   UNL d   1       2.461   1.192  -0.006  0.00  0.00     0.015 A 
ATOM     12  C   UNL d   1      -3.509   0.136   0.001  0.00  0.00     0.045 A 
ATOM     13  C   UNL d   1      -3.063  -1.202  -0.000  0.00  0.00     0.023 A 
ATOM     14  C   UNL d   1       2.934  -1.194  -0.006  0.00  0.00     0.008 A 
ATOM     15  C   UNL d   1       3.390   0.141  -0.002  0.00  0.00    -0.058 A 
ENDROOT
BRANCH  15  16
ATOM     16  C   UNL d   1       4.875   0.423   0.004  0.00  0.00     0.038 C 
BRANCH  16  17
ATOM     17  C   UNL d   1       5.356   1.238   1.207  0.00  0.00     0.005 C 
BRANCH  17  18
ATOM     18  C   UNL d   1       5.099   0.551   2.550  0.00  0.00    -0.000 C 
BRANCH  18  19
ATOM     19  C   UNL d   1       5.611   1.422   3.695  0.00  0.00    -0.005 C 
ATOM     20  C   UNL d   1       5.357   0.776   5.046  0.00  0.00     0.005 C 
ENDBRANCH  18  19
ENDBRANCH  17  18
ENDBRANCH  16  17
ENDBRANCH  15  16
TORSDOF 4
