REMARK  6 active torsions:
REMARK  status: ('A' for Active; 'I' for Inactive)
REMARK    1  A    between atoms: C_5  and  S_1 
REMARK    2  A    between atoms: C_13  and  S_1 
REMARK    3  A    between atoms: N_2  and  C_4 
REMARK    4  A    between atoms: C_3  and  C_5 
REMARK    5  A    between atoms: C_7  and  C_8 
REMARK    6  A    between atoms: O_17  and  C_7 
ROOT
ATOM      1  C   UNL d   1       0.813  -0.074  -2.686  0.00  0.00    -0.010 A 
ATOM      2  C   UNL d   1       0.045   1.002  -3.182  0.00  0.00     0.110 A 
ATOM      3  C   UNL d   1       2.047  -0.329  -3.321  0.00  0.00     0.028 A 
ATOM      4  C   UNL d   1       2.494   0.451  -4.402  0.00  0.00     0.038 A 
ATOM      5  C   UNL d   1       0.488   1.787  -4.263  0.00  0.00     0.038 A 
ATOM      6  C   UNL d   1       1.708   1.505  -4.878  0.00  0.00     0.021 A 
ENDROOT
BRANCH   1   7
ATOM      7  C   UNL d   1       0.434  -0.926  -1.492  0.00  0.00     0.186 C 
BRANCH   7   8
ATOM      8  S   UNL d   1       1.075  -0.153  -0.011  0.00  0.00     0.179 S 
ATOM      9  O   UNL d   1       0.484   1.167   0.105  0.00  0.00    -0.222 OA
ATOM     10  O   UNL d   1       2.517  -0.315   0.005  0.00  0.00    -0.222 OA
BRANCH   8  11
ATOM     11  C   UNL d   1       0.415  -1.152   1.304  0.00  0.00     0.059 A 
ATOM     12  C   UNL d   1       1.121  -2.281   1.733  0.00  0.00     0.023 A 
ATOM     13  C   UNL d   1       0.627  -3.033   2.800  0.00  0.00     0.002 A 
ATOM     14  C   UNL d   1      -0.554  -2.651   3.438  0.00  0.00     0.000 A 
ATOM     15  C   UNL d   1      -1.248  -1.517   3.013  0.00  0.00     0.002 A 
ATOM     16  C   UNL d   1      -0.764  -0.760   1.945  0.00  0.00     0.023 A 
ENDBRANCH   8  11
ENDBRANCH   7   8
ENDBRANCH   1   7
BRANCH   2  17
ATOM     17  N   UNL d   1      -1.279   1.321  -2.648  0.00  0.00    -0.115 N 
ATOM     18  O   UNL d   1      -2.078   0.385  -2.526  0.00  0.00    -0.532 OA
ATOM     19  O   UNL d   1      -1.526   2.511  -2.414  0.00  0.00    -0.532 OA
ENDBRANCH   2  17
BRANCH   4  20
ATOM     20  C   UNL d   1       3.772   0.076  -5.056  0.00  0.00     0.176 C 
ATOM     21  O   UNL d   1       4.146  -1.080  -5.139  0.00  0.00    -0.646 OA
BRANCH  20  22
ATOM     22  O   UNL d   1       4.477   1.122  -5.529  0.00  0.00    -0.773 OA
ATOM     23  H   UNL d   1       4.175   2.000  -5.231  0.00  0.00     0.167 HD
ENDBRANCH  20  22
ENDBRANCH   4  20
TORSDOF 6
