REMARK  6 active torsions:
REMARK  status: ('A' for Active; 'I' for Inactive)
REMARK    1  A    between atoms: C_9  and  N_1 
REMARK    2  A    between atoms: C_12  and  C_4 
REMARK    3  A    between atoms: C_7  and  C_10 
REMARK    4  A    between atoms: C_8  and  O_18 
REMARK       I    between atoms: N_11  and  C_8 
REMARK    5  A    between atoms: C_17  and  N_11 
REMARK    6  A    between atoms: O_18  and  N_13 
ROOT
ATOM      1  C   UNL d   1      -1.020   2.472   0.101  0.00  0.00     0.130 C 
ATOM      2  N   UNL d   1      -2.111   2.772  -0.523  0.00  0.00    -0.267 N 
ATOM      3  HN  UNL d   1      -2.732   2.109  -0.987  1.00  0.00     0.194 HD
ENDROOT
BRANCH   2   4
ATOM      4  O   UNL d   1      -2.305   4.167  -0.458  0.00  0.00    -0.181 OA
BRANCH   4   5
ATOM      5  C   UNL d   1      -3.455   4.516  -1.115  0.00  0.00     0.387 C 
ATOM      6  N   UNL d   1      -4.292   5.379  -0.436  0.00  0.00    -0.301 N 
ATOM      7  H   UNL d   1      -5.115   5.583  -0.987  0.00  0.00     0.171 HD
ATOM      8  O   UNL d   1      -3.764   4.120  -2.234  0.00  0.00    -0.236 OA
BRANCH   6   9
ATOM      9  C   UNL d   1      -4.317   5.749   0.923  0.00  0.00     0.037 A 
ATOM     10  C   UNL d   1      -3.294   5.478   1.830  0.00  0.00     0.045 A 
ATOM     11  C   UNL d   1      -3.450   5.711   3.206  0.00  0.00     0.050 A 
ATOM     12  C   UNL d   1      -4.628   6.311   3.664  0.00  0.00     0.016 A 
ATOM     13  C   UNL d   1      -5.634   6.650   2.759  0.00  0.00     0.003 A 
ATOM     14  C   UNL d   1      -5.482   6.364   1.399  0.00  0.00     0.029 A 
BRANCH  11  15
ATOM     15  C   UNL d   1      -2.373   5.279   4.169  0.00  0.00     0.417 C 
ATOM     16  F   UNL d   1      -1.356   4.593   3.570  0.00  0.00    -0.166 F 
ATOM     17  F   UNL d   1      -1.786   6.326   4.811  0.00  0.00    -0.166 F 
ATOM     18  F   UNL d   1      -2.849   4.455   5.143  0.00  0.00    -0.166 F 
ENDBRANCH  11  15
ENDBRANCH   6   9
ENDBRANCH   4   5
ENDBRANCH   2   4
BRANCH   1  19
ATOM     19  C   UNL d   1      -0.628   1.091   0.300  0.00  0.00     0.029 C 
ATOM     20  C   UNL d   1      -1.385  -0.068   0.136  0.00  0.00     0.039 C 
ATOM     21  N   UNL d   1      -0.509  -1.120   0.342  0.00  0.00    -0.287 N 
ATOM     22  C   UNL d   1      -2.834  -0.219  -0.167  0.00  0.00     0.071 C 
ATOM     23  N   UNL d   1       0.663  -0.697   0.861  0.00  0.00    -0.301 N 
ATOM     24  C   UNL d   1       0.616   0.631   0.799  0.00  0.00     0.035 C 
ATOM     25  HN  UNL d   1       1.423  -1.273   1.224  1.00  0.00     0.187 HD
ATOM     26  C   UNL d   1       1.791   1.412   1.262  0.00  0.00     0.070 C 
BRANCH  21  27
ATOM     27  C   UNL d   1      -0.674  -2.577   0.136  0.00  0.00     0.043 C 
ATOM     28  C   UNL d   1      -1.479  -3.189   1.293  0.00  0.00     0.039 C 
ATOM     29  C   UNL d   1      -1.345  -2.908  -1.212  0.00  0.00     0.039 C 
ATOM     30  C   UNL d   1       0.711  -3.285   0.100  0.00  0.00     0.039 C 
ENDBRANCH  21  27
ENDBRANCH   1  19
TORSDOF 6
