REMARK  4 active torsions:
REMARK  status: ('A' for Active; 'I' for Inactive)
REMARK    1  A    between atoms: C_2  and  S_1 
REMARK    2  A    between atoms: C_6  and  S_1 
REMARK    3  A    between atoms: C_9  and  C_3 
REMARK    4  A    between atoms: O_21  and  C_13 
ROOT
ATOM      1  C   UNL d   1       0.562  -1.557  -0.838  0.00  0.00     0.144 C 
ATOM      2  C   UNL d   1      -0.197  -2.335  -0.038  0.00  0.00     0.046 C 
ATOM      3  C   UNL d   1       1.071  -0.285  -0.491  0.00  0.00     0.112 C 
ATOM      4  N   UNL d   1       1.480   0.765  -0.222  0.00  0.00    -0.191 NA
ENDROOT
BRANCH   1   5
ATOM      5  S   UNL d   1       0.811  -2.090  -2.476  0.00  0.00     0.216 S 
ATOM      6  O   UNL d   1      -0.300  -1.623  -3.286  0.00  0.00    -0.216 OA
ATOM      7  O   UNL d   1       1.156  -3.502  -2.478  0.00  0.00    -0.216 OA
BRANCH   5   8
ATOM      8  C   UNL d   1       2.262  -1.223  -3.063  0.00  0.00     0.065 A 
ATOM      9  C   UNL d   1       3.522  -1.815  -2.928  0.00  0.00     0.025 A 
ATOM     10  C   UNL d   1       4.650  -1.150  -3.414  0.00  0.00     0.025 A 
ATOM     11  C   UNL d   1       4.513   0.090  -4.041  0.00  0.00     0.034 A 
ATOM     12  C   UNL d   1       3.253   0.667  -4.200  0.00  0.00     0.025 A 
ATOM     13 CL   UNL d   1       5.907   0.908  -4.630  0.00  0.00    -0.084 Cl
ATOM     14  C   UNL d   1       2.119   0.006  -3.720  0.00  0.00     0.025 A 
ENDBRANCH   5   8
ENDBRANCH   1   5
BRANCH   2  15
ATOM     15  C   UNL d   1      -0.708  -2.019   1.312  0.00  0.00    -0.034 A 
ATOM     16  C   UNL d   1      -1.184  -0.744   1.642  0.00  0.00     0.014 A 
ATOM     17  C   UNL d   1      -1.730  -0.475   2.902  0.00  0.00     0.037 A 
ATOM     18  C   UNL d   1      -1.841  -1.486   3.851  0.00  0.00     0.068 A 
ATOM     19  C   UNL d   1      -1.408  -2.771   3.520  0.00  0.00     0.037 A 
ATOM     20  C   UNL d   1      -0.848  -3.038   2.261  0.00  0.00     0.014 A 
BRANCH  18  21
ATOM     21  O   UNL d   1      -2.357  -1.346   5.110  0.00  0.00    -0.356 OA
ATOM     22  C   UNL d   1      -2.787  -0.041   5.483  0.00  0.00     0.210 C 
ENDBRANCH  18  21
ENDBRANCH   2  15
TORSDOF 4
