REMARK  5 active torsions:
REMARK  status: ('A' for Active; 'I' for Inactive)
REMARK    1  A    between atoms: C_3  and  C_1 
REMARK    2  A    between atoms: C_2  and  O_6 
REMARK       I    between atoms: N_7  and  C_3 
REMARK    3  A    between atoms: O_6  and  C_4 
REMARK       I    between atoms: C_5  and  N_8 
REMARK    4  A    between atoms: C_9  and  C_5 
REMARK    5  A    between atoms: N_8  and  N_7 
ROOT
ATOM      1  C   UNL d   1       2.988  -0.238   0.093  0.00  0.00     0.272 C 
ATOM      2  N   UNL d   1       3.601   0.848   0.686  0.00  0.00    -0.263 N 
ATOM      3  O   UNL d   1       3.634  -1.173  -0.383  0.00  0.00    -0.266 OA
ATOM      4  H   UNL d   1       3.125   1.677   1.038  0.00  0.00     0.190 HD
ENDROOT
BRANCH   1   5
ATOM      5  C   UNL d   1       1.499  -0.212   0.027  0.00  0.00     0.067 A 
ATOM      6  C   UNL d   1       0.802  -0.888  -0.993  0.00  0.00     0.094 A 
ATOM      7  C   UNL d   1      -0.599  -0.925  -0.971  0.00  0.00     0.038 A 
ATOM      8  C   UNL d   1      -1.310  -0.285   0.045  0.00  0.00     0.003 A 
ATOM      9  C   UNL d   1      -0.627   0.389   1.053  0.00  0.00     0.001 A 
ATOM     10  C   UNL d   1       0.769   0.428   1.045  0.00  0.00     0.020 A 
BRANCH   6  11
ATOM     11  O   UNL d   1       1.403  -1.681  -1.931  0.00  0.00    -0.254 OA
BRANCH  11  12
ATOM     12  C   UNL d   1       2.088  -0.980  -2.965  0.00  0.00     0.530 C 
ATOM     13  F   UNL d   1       2.582   0.215  -2.575  0.00  0.00    -0.144 F 
ATOM     14  F   UNL d   1       3.105  -1.746  -3.418  0.00  0.00    -0.144 F 
ATOM     15  F   UNL d   1       1.239  -0.768  -3.996  0.00  0.00    -0.144 F 
ENDBRANCH  11  12
ENDBRANCH   6  11
ENDBRANCH   1   5
BRANCH   2  16
ATOM     16  N   UNL d   1       4.996   0.859   0.771  0.00  0.00    -0.263 N 
ATOM     17  C   UNL d   1       5.589   1.850   1.526  0.00  0.00     0.270 C 
ATOM     18  O   UNL d   1       4.930   2.745   2.051  0.00  0.00    -0.266 OA
ATOM     19  H   UNL d   1       5.477   0.120   0.263  0.00  0.00     0.190 HD
BRANCH  17  20
ATOM     20  C   UNL d   1       7.073   1.804   1.691  0.00  0.00     0.033 A 
ATOM     21  C   UNL d   1       7.847   0.686   1.360  0.00  0.00     0.019 A 
ATOM     22  C   UNL d   1       9.231   0.695   1.587  0.00  0.00     0.025 A 
ATOM     23  C   UNL d   1       9.839   1.817   2.149  0.00  0.00     0.034 A 
ATOM     24  C   UNL d   1       9.082   2.936   2.477  0.00  0.00     0.025 A 
ATOM     25 CL   UNL d   1      11.533   1.811   2.447  0.00  0.00    -0.084 Cl
ATOM     26  C   UNL d   1       7.702   2.929   2.251  0.00  0.00     0.019 A 
ENDBRANCH  17  20
ENDBRANCH   2  16
TORSDOF 5
