REMARK  1 active torsions:
REMARK  status: ('A' for Active; 'I' for Inactive)
REMARK    1  A    between atoms: C_8  and  C_3 
ROOT
ATOM      1  C   UNL d   1       0.149   0.654  -0.083  0.00  0.00     0.059 A 
ATOM      2  C   UNL d   1      -0.155  -0.657  -0.024  0.00  0.00     0.003 A 
ATOM      3  C   UNL d   1      -2.239   0.325  -0.051  0.00  0.00     0.041 A 
ATOM      4  C   UNL d   1      -1.563  -0.910  -0.007  0.00  0.00    -0.030 A 
ATOM      5  S   UNL d   1      -1.162   1.673  -0.137  0.00  0.00    -0.079 SA
ATOM      6  S   UNL d   1       1.780   0.996  -0.094  0.00  0.00    -0.074 SA
ATOM      7  C   UNL d   1       2.123  -0.675  -0.025  0.00  0.00     0.059 A 
ATOM      8  C   UNL d   1       0.999  -1.502   0.006  0.00  0.00    -0.025 A 
ATOM      9 BR   UNL d   1       3.907  -1.283  -0.002  0.00  0.00    -0.042 Br
ATOM     10  C   UNL d   1      -2.281  -2.219   0.043  0.00  0.00     0.050 C 
ATOM     11  C   UNL d   1       1.109  -2.990   0.059  0.00  0.00     0.051 C 
ENDROOT
BRANCH   3  12
ATOM     12  C   UNL d   1      -3.739   0.527  -0.022  0.00  0.00     0.067 A 
ATOM     13  N   UNL d   1      -4.607  -0.478   0.166  0.00  0.00    -0.298 N 
ATOM     14  N   UNL d   1      -5.813   0.111   0.156  0.00  0.00    -0.307 N 
ATOM     15  HN  UNL d   1      -4.397  -1.469   0.289  1.00  0.00     0.187 HD
ATOM     16  C   UNL d   1      -6.999  -0.681   0.376  0.00  0.00     0.177 C 
ATOM     17  C   UNL d   1      -5.762   1.452  -0.064  0.00  0.00     0.112 A 
ATOM     18  C   UNL d   1      -4.426   1.760  -0.172  0.00  0.00     0.051 A 
ENDBRANCH   3  12
TORSDOF 1
