REMARK  7 active torsions:
REMARK  status: ('A' for Active; 'I' for Inactive)
REMARK    1  A    between atoms: C_3  and  C_1 
REMARK    2  A    between atoms: N_5  and  C_2 
REMARK    3  A    between atoms: O_16  and  C_3 
REMARK    4  A    between atoms: C_7  and  C_9 
REMARK    5  A    between atoms: C_10  and  C_7 
REMARK    6  A    between atoms: C_11  and  C_7 
REMARK    7  A    between atoms: C_21  and  O_16 
ROOT
ATOM      1  C   UNL d   1      -0.969  -0.373   0.997  0.00  0.00     0.134 C 
ATOM      2  C   UNL d   1       0.335  -0.678   1.154  0.00  0.00     0.114 C 
ATOM      3  C   UNL d   1      -1.904  -0.487   2.060  0.00  0.00     0.107 C 
ATOM      4  N   UNL d   1      -2.668  -0.542   2.934  0.00  0.00    -0.191 NA
ENDROOT
BRANCH   1   5
ATOM      5  C   UNL d   1      -1.393   0.261  -0.272  0.00  0.00     0.305 C 
ATOM      6  O   UNL d   1      -0.662   0.482  -1.225  0.00  0.00    -0.258 OA
BRANCH   5   7
ATOM      7  O   UNL d   1      -2.695   0.635  -0.171  0.00  0.00    -0.317 OA
BRANCH   7   8
ATOM      8  C   UNL d   1      -3.135   1.646  -1.084  0.00  0.00     0.174 C 
ATOM      9  C   UNL d   1      -2.783   2.999  -0.491  0.00  0.00     0.034 C 
ENDBRANCH   7   8
ENDBRANCH   5   7
ENDBRANCH   1   5
BRANCH   2  10
ATOM     10  N   UNL d   1       0.966  -1.258   2.248  0.00  0.00    -0.388 N 
ATOM     11  C   UNL d   1       0.528  -2.532   2.828  0.00  0.00     0.122 C 
ATOM     12  C   UNL d   1       0.215  -2.339   4.304  0.00  0.00     0.025 C 
ATOM     13  C   UNL d   1       1.416  -1.774   5.088  0.00  0.00     0.001 C 
ATOM     14  C   UNL d   1       1.854  -0.459   4.384  0.00  0.00     0.025 C 
ATOM     15  C   UNL d   1       2.138  -0.648   2.887  0.00  0.00     0.122 C 
BRANCH  13  16
ATOM     16  C   UNL d   1       2.608  -2.781   5.245  0.00  0.00     0.056 C 
BRANCH  16  17
ATOM     17  C   UNL d   1       3.717  -2.201   6.126  0.00  0.00    -0.049 A 
ATOM     18  C   UNL d   1       3.470  -1.824   7.457  0.00  0.00     0.008 A 
ATOM     19  C   UNL d   1       4.494  -1.317   8.256  0.00  0.00     0.001 A 
ATOM     20  C   UNL d   1       5.779  -1.181   7.739  0.00  0.00     0.000 A 
ATOM     21  C   UNL d   1       6.040  -1.548   6.420  0.00  0.00     0.001 A 
ATOM     22  C   UNL d   1       5.017  -2.055   5.617  0.00  0.00     0.008 A 
ENDBRANCH  16  17
BRANCH  16  23
ATOM     23  C   UNL d   1       2.253  -4.193   5.716  0.00  0.00    -0.049 A 
ATOM     24  C   UNL d   1       3.007  -5.280   5.234  0.00  0.00     0.008 A 
ATOM     25  C   UNL d   1       2.732  -6.585   5.647  0.00  0.00     0.001 A 
ATOM     26  C   UNL d   1       1.702  -6.826   6.551  0.00  0.00     0.000 A 
ATOM     27  C   UNL d   1       0.959  -5.761   7.054  0.00  0.00     0.001 A 
ATOM     28  C   UNL d   1       1.240  -4.454   6.651  0.00  0.00     0.008 A 
ENDBRANCH  16  23
ENDBRANCH  13  16
ENDBRANCH   2  10
TORSDOF 7
