REMARK  5 active torsions:
REMARK  status: ('A' for Active; 'I' for Inactive)
REMARK    1  A    between atoms: S_7  and  C_1 
REMARK    2  A    between atoms: C_10  and  S_7 
REMARK    3  A    between atoms: C_8  and  C_10 
REMARK    4  A    between atoms: O_11  and  C_8 
REMARK    5  A    between atoms: C_14  and  O_11 
ROOT
ATOM      1  C   UNL d   1      -2.151  -0.757  -0.006  0.00  0.00     0.113 A 
ATOM      2  N   UNL d   1      -2.067   0.433   0.539  0.00  0.00    -0.344 N 
ATOM      3  HN  UNL d   1      -2.845   0.950   0.947  1.00  0.00     0.167 HD
ATOM      4  S   UNL d   1      -0.701  -1.406  -0.640  0.00  0.00    -0.063 SA
ATOM      5  C   UNL d   1      -0.755   0.880   0.474  0.00  0.00     0.050 A 
ATOM      6  C   UNL d   1       0.145   0.012  -0.148  0.00  0.00     0.034 A 
ATOM      7  C   UNL d   1      -0.271   2.105   0.980  0.00  0.00     0.031 A 
ATOM      8  C   UNL d   1       1.506   0.331  -0.296  0.00  0.00     0.021 A 
ATOM      9  C   UNL d   1       1.959   1.552   0.214  0.00  0.00     0.002 A 
ATOM     10  C   UNL d   1       1.084   2.429   0.847  0.00  0.00     0.002 A 
ENDROOT
BRANCH   1  11
ATOM     11  S   UNL d   1      -3.670  -1.634  -0.061  0.00  0.00    -0.095 SA
BRANCH  11  12
ATOM     12  C   UNL d   1      -4.845  -0.245  -0.121  0.00  0.00     0.192 C 
BRANCH  12  13
ATOM     13  C   UNL d   1      -4.590   0.631  -1.329  0.00  0.00     0.268 C 
ATOM     14  O   UNL d   1      -4.233   0.236  -2.429  0.00  0.00    -0.264 OA
BRANCH  13  15
ATOM     15  O   UNL d   1      -4.828   1.942  -1.015  0.00  0.00    -0.321 OA
BRANCH  15  16
ATOM     16  C   UNL d   1      -4.258   2.902  -1.909  0.00  0.00     0.174 C 
ATOM     17  C   UNL d   1      -5.328   3.565  -2.755  0.00  0.00     0.034 C 
ENDBRANCH  15  16
ENDBRANCH  13  15
ENDBRANCH  12  13
ENDBRANCH  11  12
ENDBRANCH   1  11
TORSDOF 5
