REMARK  7 active torsions:
REMARK  status: ('A' for Active; 'I' for Inactive)
REMARK    1  A    between atoms: N_2  and  S_1 
REMARK    2  A    between atoms: C_7  and  S_1 
REMARK    3  A    between atoms: O_10  and  N_3 
REMARK    4  A    between atoms: C_5  and  C_11 
REMARK    5  A    between atoms: N_23  and  C_5 
REMARK    6  A    between atoms: C_6  and  O_10 
REMARK    7  A    between atoms: C_12  and  C_6 
ROOT
ATOM      1  N   UNL d   1      -0.509   0.364   6.768  0.00  0.00    -0.246 N 
ATOM      2  HN  UNL d   1      -0.454   0.262   7.781  1.00  0.00     0.196 HD
ATOM      3  C   UNL d   1      -0.778  -0.609   5.952  0.00  0.00     0.109 C 
ENDROOT
BRANCH   3   4
ATOM      4  C   UNL d   1      -0.887  -1.990   6.523  0.00  0.00     0.004 A 
ATOM      5  C   UNL d   1      -1.391  -2.210   7.814  0.00  0.00     0.016 A 
ATOM      6  C   UNL d   1      -1.473  -3.513   8.330  0.00  0.00     0.026 A 
ATOM      7  C   UNL d   1      -1.024  -4.590   7.557  0.00  0.00     0.074 A 
ATOM      8  C   UNL d   1      -0.501  -4.370   6.277  0.00  0.00     0.026 A 
ATOM      9  C   UNL d   1      -0.439  -3.075   5.759  0.00  0.00     0.016 A 
BRANCH   7  10
ATOM     10  S   UNL d   1      -1.238  -6.268   8.116  0.00  0.00     0.243 S 
ATOM     11  O   UNL d   1      -2.643  -6.423   8.427  0.00  0.00    -0.206 OA
ATOM     12  O   UNL d   1      -0.602  -7.133   7.145  0.00  0.00    -0.206 OA
BRANCH  10  13
ATOM     13  N   UNL d   1      -0.365  -6.409   9.571  0.00  0.00    -0.202 NA
ATOM     14  C   UNL d   1       1.101  -6.109   9.553  0.00  0.00     0.134 C 
ATOM     15  C   UNL d   1       1.937  -7.287   9.040  0.00  0.00     0.183 C 
ATOM     16  O   UNL d   1       1.681  -8.478   9.797  0.00  0.00    -0.389 OA
ATOM     17  C   UNL d   1       0.295  -8.838   9.715  0.00  0.00     0.183 C 
ATOM     18  C   UNL d   1      -0.596  -7.722  10.279  0.00  0.00     0.134 C 
ENDBRANCH  10  13
ENDBRANCH   7  10
ENDBRANCH   3   4
BRANCH   3  19
ATOM     19  N   UNL d   1      -0.948  -0.444   4.594  0.00  0.00    -0.286 NA
ATOM     20  H   UNL d   1      -1.117   0.524   4.344  0.00  0.00     0.125 HD
ATOM     21  H   UNL d   1      -1.622  -1.069   4.163  0.00  0.00     0.125 HD
ENDBRANCH   3  19
BRANCH   1  22
ATOM     22  O   UNL d   1      -0.303   1.583   6.081  0.00  0.00    -0.193 OA
BRANCH  22  23
ATOM     23  C   UNL d   1       0.159   2.525   6.959  0.00  0.00     0.315 C 
ATOM     24  O   UNL d   1       0.235   2.432   8.174  0.00  0.00    -0.257 OA
BRANCH  23  25
ATOM     25  C   UNL d   1       0.596   3.757   6.237  0.00  0.00     0.041 A 
ATOM     26  C   UNL d   1       1.024   4.848   7.012  0.00  0.00     0.019 A 
ATOM     27  C   UNL d   1       1.467   6.026   6.405  0.00  0.00     0.025 A 
ATOM     28  C   UNL d   1       1.487   6.121   5.016  0.00  0.00     0.034 A 
ATOM     29  C   UNL d   1       1.069   5.047   4.231  0.00  0.00     0.025 A 
ATOM     30 CL   UNL d   1       2.035   7.569   4.266  0.00  0.00    -0.084 Cl
ATOM     31  C   UNL d   1       0.625   3.863   4.839  0.00  0.00     0.019 A 
ENDBRANCH  23  25
ENDBRANCH  22  23
ENDBRANCH   1  22
TORSDOF 7
