REMARK  5 active torsions:
REMARK  status: ('A' for Active; 'I' for Inactive)
REMARK    1  A    between atoms: N_11  and  C_1 
REMARK    2  A    between atoms: C_15  and  C_4 
REMARK    3  A    between atoms: C_5  and  C_8 
REMARK    4  A    between atoms: C_16  and  C_7 
REMARK       I    between atoms: C_8  and  N_11 
REMARK    5  A    between atoms: C_18  and  C_12 
ROOT
ATOM      1  C   UNL d   1       2.797  -2.289   1.236  0.00  0.00     0.261 C 
ATOM      2  N   UNL d   1       2.268  -1.585   0.159  0.00  0.00    -0.319 N 
ATOM      3  O   UNL d   1       2.227  -2.473   2.301  0.00  0.00    -0.267 OA
ATOM      4  H   UNL d   1       3.006  -1.138  -0.362  0.00  0.00     0.169 HD
ENDROOT
BRANCH   2   5
ATOM      5  C   UNL d   1       1.125  -0.794   0.195  0.00  0.00     0.085 A 
ATOM      6  C   UNL d   1       1.172   0.628   0.024  0.00  0.00     0.062 A 
ATOM      7  N   UNL d   1      -0.063   1.111  -0.076  0.00  0.00    -0.300 N 
ATOM      8  N   UNL d   1      -0.882   0.050   0.020  0.00  0.00    -0.297 N 
ATOM      9  HN  UNL d   1      -0.333   2.087  -0.200  1.00  0.00     0.187 HD
ATOM     10  C   UNL d   1      -0.229  -1.169   0.170  0.00  0.00     0.064 A 
ATOM     11  C   UNL d   1      -2.280   0.384  -0.119  0.00  0.00     0.177 C 
BRANCH   6  12
ATOM     12  C   UNL d   1       2.363   1.604  -0.010  0.00  0.00    -0.005 C 
ATOM     13  C   UNL d   1       1.883   3.073  -0.149  0.00  0.00     0.021 C 
ATOM     14  C   UNL d   1       3.172   1.516   1.301  0.00  0.00     0.021 C 
ATOM     15  C   UNL d   1       3.314   1.345  -1.198  0.00  0.00     0.021 C 
ENDBRANCH   6  12
BRANCH  10  16
ATOM     16  C   UNL d   1      -0.962  -2.535   0.148  0.00  0.00    -0.005 C 
ATOM     17  C   UNL d   1      -1.639  -2.786  -1.223  0.00  0.00     0.021 C 
ATOM     18  C   UNL d   1      -0.008  -3.723   0.382  0.00  0.00     0.021 C 
ATOM     19  C   UNL d   1      -2.035  -2.649   1.258  0.00  0.00     0.021 C 
ENDBRANCH  10  16
ENDBRANCH   2   5
BRANCH   1  20
ATOM     20  C   UNL d   1       4.181  -2.706   0.985  0.00  0.00     0.093 A 
ATOM     21  C   UNL d   1       5.255  -2.981   1.906  0.00  0.00     0.083 A 
ATOM     22  N   UNL d   1       6.378  -3.278   1.226  0.00  0.00    -0.259 N 
ATOM     23  O   UNL d   1       6.064  -3.257  -0.100  0.00  0.00    -0.241 OA
ATOM     24  HN  UNL d   1       7.293  -3.481   1.628  1.00  0.00     0.195 HD
ATOM     25  C   UNL d   1       4.758  -2.945  -0.259  0.00  0.00     0.090 A 
ATOM     26  C   UNL d   1       4.319  -2.951  -1.672  0.00  0.00     0.080 C 
BRANCH  21  27
ATOM     27  C   UNL d   1       5.326  -2.971   3.372  0.00  0.00    -0.006 A 
ATOM     28  C   UNL d   1       4.609  -2.060   4.154  0.00  0.00     0.014 A 
ATOM     29  C   UNL d   1       4.719  -2.080   5.550  0.00  0.00     0.001 A 
ATOM     30  C   UNL d   1       5.559  -2.999   6.178  0.00  0.00     0.000 A 
ATOM     31  C   UNL d   1       6.298  -3.897   5.415  0.00  0.00     0.001 A 
ATOM     32  C   UNL d   1       6.183  -3.879   4.024  0.00  0.00     0.014 A 
ENDBRANCH  21  27
ENDBRANCH   1  20
TORSDOF 5
