REMARK  3 active torsions:
REMARK  status: ('A' for Active; 'I' for Inactive)
REMARK    1  A    between atoms: C_2  and  S_1 
REMARK    2  A    between atoms: C_11  and  S_1 
REMARK    3  A    between atoms: C_9  and  C_5 
ROOT
ATOM      1  C   UNL d   1       0.578  -1.304   1.267  0.00  0.00     0.101 A 
ATOM      2  N   UNL d   1       0.469  -3.627   1.806  0.00  0.00    -0.343 N 
ATOM      3  HN  UNL d   1       0.661  -4.601   1.572  1.00  0.00     0.167 HD
ATOM      4  C   UNL d   1      -0.143  -3.305   2.970  0.00  0.00     0.134 A 
ATOM      5  C   UNL d   1       0.821  -2.627   0.956  0.00  0.00     0.030 A 
ATOM      6  N   UNL d   1      -0.383  -2.034   3.346  0.00  0.00    -0.349 N 
ATOM      7  HN  UNL d   1      -0.811  -1.816   4.246  1.00  0.00     0.167 HD
ATOM      8  C   UNL d   1      -0.032  -1.062   2.479  0.00  0.00     0.115 A 
ATOM      9  C   UNL d   1       1.470  -3.092  -0.313  0.00  0.00     0.070 C 
ENDROOT
BRANCH   1  10
ATOM     10  S   UNL d   1       0.839   0.041   0.174  0.00  0.00     0.210 S 
ATOM     11  O   UNL d   1       0.003   1.129   0.640  0.00  0.00    -0.217 OA
ATOM     12  O   UNL d   1       0.681  -0.459  -1.179  0.00  0.00    -0.217 OA
BRANCH  10  13
ATOM     13  C   UNL d   1       2.504   0.659   0.272  0.00  0.00     0.064 A 
ATOM     14  C   UNL d   1       3.430   0.177   1.198  0.00  0.00     0.025 A 
ATOM     15  C   UNL d   1       4.728   0.701   1.195  0.00  0.00     0.025 A 
ATOM     16  C   UNL d   1       5.086   1.696   0.281  0.00  0.00     0.034 A 
ATOM     17  C   UNL d   1       4.154   2.186  -0.631  0.00  0.00     0.025 A 
ATOM     18 CL   UNL d   1       6.690   2.317   0.275  0.00  0.00    -0.084 Cl
ATOM     19  C   UNL d   1       2.859   1.667  -0.636  0.00  0.00     0.025 A 
ENDBRANCH  10  13
ENDBRANCH   1  10
BRANCH   4  20
ATOM     20  C   UNL d   1      -0.585  -4.413   3.845  0.00  0.00     0.092 A 
ATOM     21  N   UNL d   1      -1.173  -4.112   5.042  0.00  0.00    -0.360 N 
ATOM     22  C   UNL d   1      -1.571  -5.159   5.802  0.00  0.00     0.105 A 
ATOM     23  HN  UNL d   1      -1.305  -3.148   5.346  1.00  0.00     0.165 HD
ATOM     24  C   UNL d   1      -1.397  -6.473   5.410  0.00  0.00     0.104 A 
ATOM     25  N   UNL d   1      -0.820  -6.802   4.236  0.00  0.00    -0.372 N 
ATOM     26  C   UNL d   1      -0.426  -5.748   3.471  0.00  0.00     0.121 A 
ATOM     27  HN  UNL d   1      -0.689  -7.770   3.943  1.00  0.00     0.164 HD
ENDBRANCH   4  20
TORSDOF 3
