REMARK  0 active torsions:
REMARK  status: ('A' for Active; 'I' for Inactive)
ROOT
ATOM      1  C   UNL d   1      -0.278   0.718   0.000  0.00  0.00     0.094 A 
ATOM      2  C   UNL d   1      -0.226  -0.656   0.001  0.00  0.00     0.140 A 
ATOM      3  N   UNL d   1      -2.415  -0.041  -0.001  0.00  0.00    -0.307 N 
ATOM      4  HN  UNL d   1      -3.434  -0.087  -0.001  1.00  0.00     0.186 HD
ATOM      5  N   UNL d   1      -1.530  -1.071   0.000  0.00  0.00    -0.281 N 
ATOM      6  N   UNL d   1       0.883  -1.438   0.002  0.00  0.00    -0.336 N 
ATOM      7  HN  UNL d   1       0.856  -2.458   0.002  1.00  0.00     0.168 HD
ATOM      8  C   UNL d   1       0.949   1.457   0.001  0.00  0.00     0.261 A 
ATOM      9  C   UNL d   1      -1.636   1.048  -0.001  0.00  0.00     0.128 A 
ATOM     10  N   UNL d   1       2.060   0.634   0.002  0.00  0.00    -0.319 N 
ATOM     11  C   UNL d   1       1.983  -0.747   0.002  0.00  0.00     0.185 A 
ATOM     12  O   UNL d   1       1.027   2.680  -0.000  0.00  0.00    -0.267 OA
ATOM     13  C   UNL d   1      -2.023  -2.425   0.001  0.00  0.00     0.179 C 
ATOM     14  H   UNL d   1       2.954   1.101   0.003  0.00  0.00     0.169 HD
ENDROOT
TORSDOF 0
