REMARK  3 active torsions:
REMARK  status: ('A' for Active; 'I' for Inactive)
REMARK    1  A    between atoms: C_5  and  C_1 
REMARK    2  A    between atoms: C_8  and  C_5 
REMARK    3  A    between atoms: C_9  and  C_5 
ROOT
ATOM      1  C   UNL d   1       2.285  -1.382  -0.111  0.00  0.00     0.103 C 
ENDROOT
BRANCH   1   2
ATOM      2  C   UNL d   1       1.032  -0.545  -0.094  0.00  0.00     0.040 A 
ATOM      3  N   UNL d   1       0.635   0.221  -1.160  0.00  0.00    -0.304 N 
ATOM      4  N   UNL d   1      -0.472   0.942  -0.921  0.00  0.00    -0.312 N 
ATOM      5  H   UNL d   1       1.090   0.319  -2.062  0.00  0.00     0.186 HD
ATOM      6  C   UNL d   1      -0.824   0.581   0.314  0.00  0.00     0.109 A 
ATOM      7  HN  UNL d   1      -0.936   1.609  -1.538  1.00  0.00     0.186 HD
ATOM      8  C   UNL d   1       0.070  -0.347   0.875  0.00  0.00     0.046 A 
ENDBRANCH   1   2
BRANCH   1   9
ATOM      9  C   UNL d   1       2.284  -2.344  -1.307  0.00  0.00    -0.044 A 
ATOM     10  C   UNL d   1       2.828  -1.981  -2.552  0.00  0.00     0.008 A 
ATOM     11  C   UNL d   1       2.843  -2.885  -3.615  0.00  0.00     0.001 A 
ATOM     12  C   UNL d   1       2.305  -4.160  -3.454  0.00  0.00     0.000 A 
ATOM     13  C   UNL d   1       1.741  -4.527  -2.236  0.00  0.00     0.001 A 
ATOM     14  C   UNL d   1       1.725  -3.626  -1.169  0.00  0.00     0.008 A 
ENDBRANCH   1   9
BRANCH   1  15
ATOM     15  C   UNL d   1       3.597  -0.593   0.038  0.00  0.00    -0.044 A 
ATOM     16  C   UNL d   1       3.648   0.803   0.186  0.00  0.00     0.008 A 
ATOM     17  C   UNL d   1       4.872   1.472   0.271  0.00  0.00     0.001 A 
ATOM     18  C   UNL d   1       6.067   0.759   0.227  0.00  0.00     0.000 A 
ATOM     19  C   UNL d   1       6.041  -0.627   0.119  0.00  0.00     0.001 A 
ATOM     20  C   UNL d   1       4.819  -1.297   0.038  0.00  0.00     0.008 A 
ENDBRANCH   1  15
TORSDOF 3
