REMARK  6 active torsions:
REMARK  status: ('A' for Active; 'I' for Inactive)
REMARK    1  A    between atoms: C_2  and  S_1 
REMARK    2  A    between atoms: N_5  and  S_1 
REMARK    3  A    between atoms: C_14  and  C_4 
REMARK    4  A    between atoms: C_7  and  C_9 
REMARK    5  A    between atoms: C_11  and  N_10 
REMARK    6  A    between atoms: O_29  and  C_14 
ROOT
ATOM      1  N   UNL d   1       0.499   0.791  -1.510  0.00  0.00    -0.204 NA
ATOM      2  N   UNL d   1       1.070   2.475  -3.947  0.00  0.00    -0.366 N 
ATOM      3  C   UNL d   1       0.966   2.233  -1.487  0.00  0.00     0.127 C 
ATOM      4  C   UNL d   1       0.548   3.062  -2.715  0.00  0.00     0.140 C 
ATOM      5  C   UNL d   1       0.315   0.140  -3.990  0.00  0.00     0.035 C 
ATOM      6  C   UNL d   1       1.101   0.029  -2.684  0.00  0.00     0.109 C 
ATOM      7  C   UNL d   1       0.209   1.521  -4.619  0.00  0.00     0.125 C 
ENDROOT
BRANCH   1   8
ATOM      8  S   UNL d   1       0.943  -0.032  -0.041  0.00  0.00     0.259 S 
ATOM      9  O   UNL d   1       0.186  -1.268   0.013  0.00  0.00    -0.204 OA
ATOM     10  O   UNL d   1       2.387  -0.037   0.019  0.00  0.00    -0.204 OA
BRANCH   8  11
ATOM     11  C   UNL d   1       0.452   0.857   1.436  0.00  0.00     0.146 A 
ATOM     12  N   UNL d   1      -0.838   1.228   1.802  0.00  0.00    -0.336 N 
ATOM     13  C   UNL d   1      -0.828   1.859   3.049  0.00  0.00     0.111 A 
ATOM     14  C   UNL d   1      -2.049   0.968   1.046  0.00  0.00     0.157 C 
ATOM     15  C   UNL d   1       0.492   1.876   3.469  0.00  0.00     0.039 A 
ATOM     16  C   UNL d   1       1.268   1.221   2.501  0.00  0.00     0.046 A 
BRANCH  13  17
ATOM     17  C   UNL d   1      -1.974   2.370   3.784  0.00  0.00     0.309 C 
ATOM     18  O   UNL d   1      -3.143   2.309   3.425  0.00  0.00    -0.258 OA
BRANCH  17  19
ATOM     19  O   UNL d   1      -1.555   2.938   4.956  0.00  0.00    -0.321 OA
ATOM     20  C   UNL d   1      -2.592   3.482   5.773  0.00  0.00     0.213 C 
ENDBRANCH  17  19
ENDBRANCH  13  17
ENDBRANCH   8  11
ENDBRANCH   1   8
BRANCH   2  21
ATOM     21  C   UNL d   1       2.117   3.070  -4.616  0.00  0.00     0.102 A 
ATOM     22  N   UNL d   1       2.314   4.397  -4.478  0.00  0.00    -0.352 N 
ATOM     23  C   UNL d   1       3.332   4.979  -5.157  0.00  0.00     0.106 A 
ATOM     24  HN  UNL d   1       1.709   4.952  -3.873  1.00  0.00     0.166 HD
ATOM     25  C   UNL d   1       4.219   4.294  -5.968  0.00  0.00     0.063 A 
ATOM     26  C   UNL d   1       4.037   2.918  -6.081  0.00  0.00     0.021 A 
ATOM     27  C   UNL d   1       2.978   2.309  -5.408  0.00  0.00     0.049 A 
BRANCH  25  28
ATOM     28  C   UNL d   1       5.321   5.010  -6.680  0.00  0.00     0.418 C 
ATOM     29  F   UNL d   1       5.327   6.355  -6.463  0.00  0.00    -0.166 F 
ATOM     30  F   UNL d   1       6.555   4.569  -6.312  0.00  0.00    -0.166 F 
ATOM     31  F   UNL d   1       5.256   4.853  -8.031  0.00  0.00    -0.166 F 
ENDBRANCH  25  28
ENDBRANCH   2  21
TORSDOF 6
