REMARK  5 active torsions:
REMARK  status: ('A' for Active; 'I' for Inactive)
REMARK    1  A    between atoms: C_5  and  S_1 
REMARK    2  A    between atoms: C_7  and  S_1 
REMARK    3  A    between atoms: C_3  and  C_2 
REMARK       I    between atoms: N_10  and  C_3 
REMARK    4  A    between atoms: C_4  and  C_9 
REMARK    5  A    between atoms: C_8  and  C_5 
ROOT
ATOM      1  S   UNL d   1      -1.357   1.085   0.237  0.00  0.00     0.196 S 
ATOM      2  O   UNL d   1      -1.465   0.221   1.403  0.00  0.00    -0.221 OA
ATOM      3  O   UNL d   1      -1.722   0.561  -1.069  0.00  0.00    -0.221 OA
ENDROOT
BRANCH   1   4
ATOM      4  C   UNL d   1       0.305   1.720   0.142  0.00  0.00     0.212 C 
BRANCH   4   5
ATOM      5  C   UNL d   1       0.735   2.242   1.462  0.00  0.00     0.068 A 
ATOM      6  O   UNL d   1       0.646   3.591   1.657  0.00  0.00    -0.308 OA
ATOM      7  C   UNL d   1       1.122   3.862   2.916  0.00  0.00     0.143 A 
ATOM      8  C   UNL d   1       1.540   2.677   3.499  0.00  0.00     0.045 A 
ATOM      9  C   UNL d   1       1.284   1.641   2.574  0.00  0.00     0.036 A 
BRANCH   7  10
ATOM     10  C   UNL d   1       1.248   5.225   3.414  0.00  0.00     0.277 C 
ATOM     11  N   UNL d   1       0.411   6.224   2.929  0.00  0.00    -0.342 N 
ATOM     12  C   UNL d   1       0.673   7.622   3.282  0.00  0.00     0.152 C 
ATOM     13  C   UNL d   1      -0.875   6.038   2.263  0.00  0.00     0.152 C 
ATOM     14  C   UNL d   1       0.526   8.507   2.038  0.00  0.00     0.187 C 
ATOM     15  O   UNL d   1      -0.764   8.337   1.433  0.00  0.00    -0.388 OA
ATOM     16  C   UNL d   1      -0.970   6.970   1.052  0.00  0.00     0.187 C 
ATOM     17  O   UNL d   1       2.112   5.497   4.250  0.00  0.00    -0.265 OA
ENDBRANCH   7  10
ENDBRANCH   4   5
ENDBRANCH   1   4
BRANCH   1  18
ATOM     18  C   UNL d   1      -2.372   2.521   0.531  0.00  0.00     0.128 A 
ATOM     19  N   UNL d   1      -2.287   3.471  -0.437  0.00  0.00    -0.356 N 
ATOM     20  C   UNL d   1      -3.077   4.556  -0.278  0.00  0.00     0.105 A 
ATOM     21  HN  UNL d   1      -1.662   3.371  -1.238  1.00  0.00     0.166 HD
ATOM     22  C   UNL d   1      -3.902   4.763   0.823  0.00  0.00     0.063 A 
ATOM     23  C   UNL d   1      -3.944   3.761   1.804  0.00  0.00     0.020 A 
ATOM     24  C   UNL d   1      -3.175   2.610   1.656  0.00  0.00     0.042 A 
BRANCH  22  25
ATOM     25  C   UNL d   1      -4.668   6.045   0.981  0.00  0.00     0.418 C 
ATOM     26  F   UNL d   1      -4.474   6.920  -0.041  0.00  0.00    -0.166 F 
ATOM     27  F   UNL d   1      -6.010   5.851   1.067  0.00  0.00    -0.166 F 
ATOM     28  F   UNL d   1      -4.307   6.708   2.113  0.00  0.00    -0.166 F 
ENDBRANCH  22  25
ENDBRANCH   1  18
TORSDOF 5
