REMARK  3 active torsions:
REMARK  status: ('A' for Active; 'I' for Inactive)
REMARK    1  A    between atoms: S_5  and  C_1 
REMARK    2  A    between atoms: C_12  and  S_5 
REMARK    3  A    between atoms: N_15  and  C_14 
ROOT
ATOM      1  C   UNL d   1      -0.943  -1.486   0.012  0.00  0.00     0.089 A 
ATOM      2  C   UNL d   1       0.279  -0.781   0.001  0.00  0.00     0.038 A 
ATOM      3  C   UNL d   1       0.121   0.605  -0.000  0.00  0.00     0.088 A 
ATOM      4  S   UNL d   1       1.590   1.462  -0.025  0.00  0.00    -0.083 SA
ATOM      5  N   UNL d   1      -2.123  -0.825   0.081  0.00  0.00    -0.346 N 
ATOM      6  HN  UNL d   1      -3.005  -1.333   0.147  1.00  0.00     0.167 HD
ATOM      7  C   UNL d   1       1.701  -1.119   0.005  0.00  0.00    -0.040 A 
ATOM      8  C   UNL d   1       2.489   0.021  -0.015  0.00  0.00     0.059 A 
ATOM      9  N   UNL d   1      -1.028   1.296   0.019  0.00  0.00    -0.346 N 
ATOM     10  HN  UNL d   1      -1.074   2.314   0.002  1.00  0.00     0.167 HD
ATOM     11  C   UNL d   1      -2.101   0.512   0.061  0.00  0.00     0.182 A 
ATOM     12  C   UNL d   1       2.336  -2.470   0.036  0.00  0.00     0.049 C 
ENDROOT
BRANCH   1  13
ATOM     13  S   UNL d   1      -1.052  -3.250   0.017  0.00  0.00    -0.070 SA
BRANCH  13  14
ATOM     14  C   UNL d   1      -1.019  -3.623  -1.739  0.00  0.00     0.028 A 
ATOM     15  C   UNL d   1      -2.065  -3.270  -2.618  0.00  0.00     0.023 A 
ATOM     16  C   UNL d   1      -1.947  -3.601  -3.974  0.00  0.00     0.024 A 
ATOM     17  C   UNL d   1      -0.858  -4.335  -4.445  0.00  0.00     0.002 A 
ATOM     18  C   UNL d   1       0.142  -4.735  -3.566  0.00  0.00     0.001 A 
ATOM     19  C   UNL d   1       0.057  -4.387  -2.218  0.00  0.00     0.021 A 
BRANCH  15  20
ATOM     20  N   UNL d   1      -3.124  -2.435  -2.229  0.00  0.00    -0.302 NA
ATOM     21  H   UNL d   1      -3.234  -2.362  -1.217  0.00  0.00     0.124 HD
ATOM     22  H   UNL d   1      -3.996  -2.598  -2.718  0.00  0.00     0.124 HD
ENDBRANCH  15  20
ENDBRANCH  13  14
ENDBRANCH   1  13
TORSDOF 3
