REMARK  5 active torsions:
REMARK  status: ('A' for Active; 'I' for Inactive)
REMARK       I    between atoms: C_2  and  N_1 
REMARK       I    between atoms: C_3  and  N_1 
REMARK       I    between atoms: N_6  and  C_2 
REMARK    1  A    between atoms: C_9  and  C_3 
REMARK    2  A    between atoms: C_4  and  C_8 
REMARK    3  A    between atoms: C_5  and  C_7 
REMARK    4  A    between atoms: O_22  and  C_5 
REMARK    5  A    between atoms: C_13  and  N_6 
ROOT
ATOM      1  N   UNL d   1       1.341  -0.021  -0.026  0.00  0.00    -0.275 N 
ATOM      2  C   UNL d   1       0.508  -0.633   0.875  0.00  0.00     0.327 C 
ATOM      3  C   UNL d   1       2.684   0.266   0.094  0.00  0.00     0.259 C 
ATOM      4  N   UNL d   1       1.108  -1.199   1.971  0.00  0.00    -0.309 N 
ATOM      5  O   UNL d   1      -0.695  -0.583   0.632  0.00  0.00    -0.247 OA
ATOM      6  O   UNL d   1       3.421  -0.215   0.949  0.00  0.00    -0.267 OA
ATOM      7  H   UNL d   1       0.816   0.366  -0.796  0.00  0.00     0.173 HD
ATOM      8  H   UNL d   1       2.098  -0.990   2.087  0.00  0.00     0.170 HD
ENDROOT
BRANCH   3   9
ATOM      9  C   UNL d   1       3.223   1.177  -0.947  0.00  0.00     0.032 A 
ATOM     10  C   UNL d   1       2.479   2.268  -1.417  0.00  0.00     0.018 A 
ATOM     11  C   UNL d   1       3.026   3.117  -2.381  0.00  0.00     0.017 A 
ATOM     12  C   UNL d   1       4.320   2.893  -2.880  0.00  0.00     0.048 A 
ATOM     13  C   UNL d   1       5.053   1.794  -2.404  0.00  0.00     0.017 A 
ATOM     14  C   UNL d   1       4.510   0.944  -1.437  0.00  0.00     0.018 A 
BRANCH  12  15
ATOM     15  C   UNL d   1       4.908   3.845  -3.894  0.00  0.00     0.417 C 
ATOM     16  F   UNL d   1       6.172   3.520  -4.279  0.00  0.00    -0.166 F 
ATOM     17  F   UNL d   1       4.170   3.906  -5.036  0.00  0.00    -0.166 F 
ATOM     18  F   UNL d   1       4.976   5.121  -3.423  0.00  0.00    -0.166 F 
ENDBRANCH  12  15
ENDBRANCH   3   9
BRANCH   4  19
ATOM     19  C   UNL d   1       0.449  -1.876   3.015  0.00  0.00     0.037 A 
ATOM     20  C   UNL d   1      -0.866  -2.329   2.895  0.00  0.00     0.047 A 
ATOM     21  C   UNL d   1      -1.538  -2.899   3.983  0.00  0.00     0.041 A 
ATOM     22  C   UNL d   1      -0.861  -3.068   5.195  0.00  0.00     0.018 A 
ATOM     23  C   UNL d   1       0.473  -2.671   5.308  0.00  0.00     0.003 A 
ATOM     24  C   UNL d   1       1.127  -2.081   4.220  0.00  0.00     0.029 A 
BRANCH  21  25
ATOM     25  C   UNL d   1      -2.971  -3.280   3.886  0.00  0.00     0.293 C 
ATOM     26  O   UNL d   1      -3.597  -3.819   4.787  0.00  0.00    -0.259 OA
BRANCH  25  27
ATOM     27  O   UNL d   1      -3.474  -2.891   2.688  0.00  0.00    -0.323 OA
ATOM     28  C   UNL d   1      -4.880  -3.064   2.529  0.00  0.00     0.213 C 
ENDBRANCH  25  27
ENDBRANCH  21  25
ENDBRANCH   4  19
TORSDOF 5
