REMARK  4 active torsions:
REMARK  status: ('A' for Active; 'I' for Inactive)
REMARK    1  A    between atoms: S_4  and  C_1 
REMARK    2  A    between atoms: C_3  and  C_2 
REMARK    3  A    between atoms: O_9  and  C_3 
REMARK    4  A    between atoms: C_8  and  S_4 
ROOT
ATOM      1  C   UNL d   1      -0.584   1.220   0.031  0.00  0.00     0.091 A 
ATOM      2  C   UNL d   1       0.804   1.216   0.189  0.00  0.00     0.071 A 
ATOM      3  N   UNL d   1      -1.296   0.076  -0.159  0.00  0.00    -0.359 N 
ATOM      4  HN  UNL d   1      -2.312   0.102  -0.256  1.00  0.00     0.166 HD
ATOM      5  C   UNL d   1       1.468  -0.019   0.103  0.00  0.00     0.022 A 
ATOM      6  C   UNL d   1      -0.624  -1.094  -0.216  0.00  0.00     0.089 A 
ATOM      7  C   UNL d   1       0.747  -1.191  -0.096  0.00  0.00     0.018 A 
ENDROOT
BRANCH   1   8
ATOM      8  S   UNL d   1      -1.608   2.678   0.158  0.00  0.00    -0.072 SA
BRANCH   8   9
ATOM      9  C   UNL d   1      -1.714   3.219  -1.538  0.00  0.00     0.007 A 
ATOM     10  C   UNL d   1      -2.217   2.394  -2.549  0.00  0.00     0.019 A 
ATOM     11  C   UNL d   1      -2.330   2.869  -3.859  0.00  0.00     0.001 A 
ATOM     12  C   UNL d   1      -1.950   4.175  -4.166  0.00  0.00     0.000 A 
ATOM     13  C   UNL d   1      -1.464   5.008  -3.162  0.00  0.00     0.001 A 
ATOM     14  C   UNL d   1      -1.349   4.535  -1.853  0.00  0.00     0.019 A 
ENDBRANCH   8   9
ENDBRANCH   1   8
BRANCH   2  15
ATOM     15  C   UNL d   1       1.657   2.402   0.443  0.00  0.00     0.179 C 
ATOM     16  O   UNL d   1       2.831   2.430   0.100  0.00  0.00    -0.646 OA
BRANCH  15  17
ATOM     17  O   UNL d   1       1.104   3.391   1.171  0.00  0.00    -0.773 OA
ATOM     18  H   UNL d   1       0.157   3.281   1.389  0.00  0.00     0.167 HD
ENDBRANCH  15  17
ENDBRANCH   2  15
TORSDOF 4
