REMARK  8 active torsions:
REMARK  status: ('A' for Active; 'I' for Inactive)
REMARK    1  A    between atoms: C_4  and  S_1 
REMARK    2  A    between atoms: N_7  and  S_1 
REMARK    3  A    between atoms: C_9  and  C_2 
REMARK    4  A    between atoms: C_6  and  C_3 
REMARK    5  A    between atoms: C_5  and  N_8 
REMARK    6  A    between atoms: C_10  and  N_7 
REMARK    7  A    between atoms: N_8  and  C_11 
REMARK    8  A    between atoms: O_21  and  C_9 
ROOT
ATOM      1  C   UNL d   1       0.610  -2.830  -0.059  0.00  0.00     0.069 A 
ATOM      2  C   UNL d   1       1.985  -3.002  -0.319  0.00  0.00     0.060 A 
ATOM      3  C   UNL d   1      -0.284  -3.884  -0.276  0.00  0.00     0.032 A 
ATOM      4  C   UNL d   1       2.402  -4.220  -0.882  0.00  0.00     0.032 A 
ATOM      5  C   UNL d   1       0.157  -5.093  -0.806  0.00  0.00     0.002 A 
ATOM      6  C   UNL d   1       1.502  -5.263  -1.112  0.00  0.00     0.002 A 
ENDROOT
BRANCH   1   7
ATOM      7  N   UNL d   1       0.082  -1.653   0.521  0.00  0.00    -0.278 N 
ATOM      8  H   UNL d   1      -0.111  -1.635   1.524  0.00  0.00     0.179 HD
BRANCH   7   9
ATOM      9  S   UNL d   1      -0.301  -0.278  -0.321  0.00  0.00     0.264 S 
ATOM     10  O   UNL d   1      -0.680   0.723   0.652  0.00  0.00    -0.200 OA
ATOM     11  O   UNL d   1       0.766  -0.025  -1.272  0.00  0.00    -0.200 OA
BRANCH   9  12
ATOM     12  C   UNL d   1      -1.796  -0.596  -1.261  0.00  0.00     0.094 A 
ATOM     13  C   UNL d   1      -2.978  -1.125  -0.709  0.00  0.00     0.071 A 
ATOM     14  C   UNL d   1      -4.131  -1.182  -1.533  0.00  0.00     0.018 A 
ATOM     15  C   UNL d   1      -4.130  -0.688  -2.837  0.00  0.00     0.001 A 
ATOM     16  C   UNL d   1      -2.966  -0.145  -3.361  0.00  0.00     0.002 A 
ATOM     17  C   UNL d   1      -1.806  -0.109  -2.585  0.00  0.00     0.026 A 
BRANCH  13  18
ATOM     18  C   UNL d   1      -3.167  -1.629   0.701  0.00  0.00     0.419 C 
ATOM     19  F   UNL d   1      -2.121  -1.491   1.550  0.00  0.00    -0.166 F 
ATOM     20  F   UNL d   1      -4.222  -1.032   1.322  0.00  0.00    -0.166 F 
ATOM     21  F   UNL d   1      -3.460  -2.964   0.705  0.00  0.00    -0.166 F 
ENDBRANCH  13  18
ENDBRANCH   9  12
ENDBRANCH   7   9
ENDBRANCH   1   7
BRANCH   2  22
ATOM     22  N   UNL d   1       2.946  -1.962  -0.272  0.00  0.00    -0.356 N 
ATOM     23  H   UNL d   1       2.800  -1.368  -1.092  0.00  0.00     0.166 HD
BRANCH  22  24
ATOM     24  C   UNL d   1       3.362  -1.224   0.830  0.00  0.00     0.032 A 
ATOM     25  C   UNL d   1       3.521  -1.544   2.128  0.00  0.00     0.050 A 
ATOM     26  C   UNL d   1       4.031  -0.480   3.052  0.00  0.00     0.121 A 
ATOM     27  S   UNL d   1       4.213   1.017   2.061  0.00  0.00    -0.158 SA
ATOM     28  C   UNL d   1       3.799   0.197   0.507  0.00  0.00     0.132 A 
BRANCH  25  29
ATOM     29  C   UNL d   1       3.300  -2.832   2.811  0.00  0.00     0.291 C 
ATOM     30  O   UNL d   1       2.866  -2.905   3.949  0.00  0.00    -0.260 OA
BRANCH  29  31
ATOM     31  O   UNL d   1       3.791  -3.867   2.091  0.00  0.00    -0.323 OA
ATOM     32  C   UNL d   1       3.741  -5.121   2.770  0.00  0.00     0.213 C 
ENDBRANCH  29  31
ENDBRANCH  25  29
ENDBRANCH  22  24
ENDBRANCH   2  22
TORSDOF 8
