REMARK  3 active torsions:
REMARK  status: ('A' for Active; 'I' for Inactive)
REMARK    1  A    between atoms: N_9  and  C_5 
REMARK    2  A    between atoms: S_18  and  C_8 
REMARK       I    between atoms: C_10  and  N_9 
REMARK    3  A    between atoms: C_14  and  C_10 
ROOT
ATOM      1  N   UNL d   1       0.154  -0.696   0.485  0.00  0.00    -0.068 N 
ATOM      2  C   UNL d   1       0.216   0.700   0.484  0.00  0.00     0.707 A 
ATOM      3  N   UNL d   1       1.427   1.076   0.824  0.00  0.00    -0.167 N 
ATOM      4  HN  UNL d   1       1.791   2.024   0.914  1.00  0.00     0.186 HD
ATOM      5  C   UNL d   1      -1.035  -1.387   0.171  0.00  0.00     0.149 A 
ATOM      6  N   UNL d   1       1.364  -1.209   0.829  0.00  0.00    -0.257 N 
ATOM      7  HN  UNL d   1       1.649  -2.185   0.915  1.00  0.00     0.190 HD
ATOM      8  C   UNL d   1       2.082  -0.101   1.026  0.00  0.00     0.174 A 
ATOM      9  N   UNL d   1      -0.868   1.468   0.173  0.00  0.00    -0.200 N 
ATOM     10  HN  UNL d   1      -0.826   2.487   0.163  1.00  0.00     0.183 HD
ATOM     11  C   UNL d   1      -2.124  -0.658  -0.127  0.00  0.00     0.069 A 
ATOM     12  C   UNL d   1      -1.954   0.820  -0.110  0.00  0.00     0.110 A 
ENDROOT
BRANCH   5  13
ATOM     13  N   UNL d   1      -0.993  -2.777   0.193  0.00  0.00    -0.307 N 
ATOM     14  C   UNL d   1      -2.024  -3.658  -0.090  0.00  0.00     0.257 C 
ATOM     15  O   UNL d   1      -3.156  -3.326  -0.428  0.00  0.00    -0.267 OA
ATOM     16  H   UNL d   1      -0.070  -3.159   0.394  0.00  0.00     0.170 HD
BRANCH  14  17
ATOM     17  C   UNL d   1      -1.702  -5.113  -0.006  0.00  0.00     0.032 A 
ATOM     18  C   UNL d   1      -0.694  -5.619   0.828  0.00  0.00     0.023 A 
ATOM     19  C   UNL d   1      -0.419  -6.995   0.853  0.00  0.00    -0.061 A 
ATOM     20  C   UNL d   1       0.670  -7.548   1.725  0.00  0.00     0.048 C 
ATOM     21  C   UNL d   1      -1.183  -7.863   0.061  0.00  0.00     0.007 A 
ATOM     22  C   UNL d   1      -2.204  -7.369  -0.749  0.00  0.00     0.002 A 
ATOM     23  C   UNL d   1      -2.462  -5.999  -0.783  0.00  0.00     0.017 A 
ENDBRANCH  14  17
ENDBRANCH   5  13
BRANCH   8  24
ATOM     24  S   UNL d   1       3.751  -0.186   1.523  0.00  0.00    -0.097 SA
ATOM     25  C   UNL d   1       4.146   1.574   1.639  0.00  0.00     0.099 C 
ENDBRANCH   8  24
TORSDOF 3
