REMARK  7 active torsions:
REMARK  status: ('A' for Active; 'I' for Inactive)
REMARK    1  A    between atoms: C_2  and  C_1 
REMARK    2  A    between atoms: C_8  and  C_1 
REMARK    3  A    between atoms: C_3  and  C_2 
REMARK    4  A    between atoms: C_4  and  C_6 
REMARK    5  A    between atoms: C_5  and  C_7 
REMARK    6  A    between atoms: O_22  and  C_8 
REMARK    7  A    between atoms: N_21  and  C_9 
ROOT
ATOM      1  C   UNL d   1      -1.267   0.471   1.440  0.00  0.00     0.017 A 
ATOM      2  C   UNL d   1      -2.901   2.205   0.918  0.00  0.00     0.049 A 
ATOM      3  C   UNL d   1      -3.546   0.294   2.305  0.00  0.00     0.049 A 
ATOM      4  C   UNL d   1      -2.240  -0.205   2.192  0.00  0.00     0.031 A 
ATOM      5  C   UNL d   1      -1.591   1.696   0.839  0.00  0.00     0.031 A 
ATOM      6  C   UNL d   1      -3.869   1.492   1.648  0.00  0.00     0.032 A 
ENDROOT
BRANCH   1   7
ATOM      7  C   UNL d   1       0.069  -0.190   1.297  0.00  0.00     0.200 C 
ATOM      8  O   UNL d   1       0.423  -0.951   2.193  0.00  0.00    -0.286 OA
BRANCH   7   9
ATOM      9  C   UNL d   1       0.874   0.031   0.048  0.00  0.00     0.112 C 
ATOM     10  C   UNL d   1       2.239   0.011   0.014  0.00  0.00     0.021 C 
ATOM     11  C   UNL d   1       3.100  -0.240   1.243  0.00  0.00     0.069 C 
BRANCH   9  12
ATOM     12  C   UNL d   1       0.156   0.217  -1.247  0.00  0.00     0.298 C 
ATOM     13  O   UNL d   1       0.513   0.980  -2.136  0.00  0.00    -0.259 OA
BRANCH  12  14
ATOM     14  O   UNL d   1      -0.964  -0.551  -1.271  0.00  0.00    -0.322 OA
ATOM     15  C   UNL d   1      -1.791  -0.395  -2.427  0.00  0.00     0.213 C 
ENDBRANCH  12  14
ENDBRANCH   9  12
BRANCH  10  16
ATOM     16  N   UNL d   1       2.972   0.195  -1.171  0.00  0.00    -0.397 N 
ATOM     17  C   UNL d   1       4.393   0.455  -1.299  0.00  0.00     0.146 C 
ATOM     18  H   UNL d   1       2.424   0.600  -1.938  0.00  0.00     0.158 HD
ENDBRANCH  10  16
ENDBRANCH   7   9
ENDBRANCH   1   7
BRANCH   3  19
ATOM     19  C   UNL d   1      -4.602  -0.455   3.086  0.00  0.00     0.417 C 
ATOM     20  F   UNL d   1      -4.128  -1.545   3.745  0.00  0.00    -0.166 F 
ATOM     21  F   UNL d   1      -5.201   0.326   4.026  0.00  0.00    -0.166 F 
ATOM     22  F   UNL d   1      -5.604  -0.908   2.282  0.00  0.00    -0.166 F 
ENDBRANCH   3  19
BRANCH   2  23
ATOM     23  C   UNL d   1      -3.290   3.483   0.208  0.00  0.00     0.417 C 
ATOM     24  F   UNL d   1      -2.256   4.076  -0.446  0.00  0.00    -0.166 F 
ATOM     25  F   UNL d   1      -4.256   3.275  -0.729  0.00  0.00    -0.166 F 
ATOM     26  F   UNL d   1      -3.786   4.420   1.060  0.00  0.00    -0.166 F 
ENDBRANCH   2  23
TORSDOF 7
