REMARK  7 active torsions:
REMARK  status: ('A' for Active; 'I' for Inactive)
REMARK    1  A    between atoms: C_13  and  C_1 
REMARK    2  A    between atoms: O_26  and  C_2 
REMARK    3  A    between atoms: C_3  and  C_4 
REMARK    4  A    between atoms: N_23  and  C_4 
REMARK    5  A    between atoms: N_5  and  O_12 
REMARK    6  A    between atoms: C_9  and  C_14 
REMARK    7  A    between atoms: O_12  and  C_9 
ROOT
ATOM      1  C   UNL d   1      -0.928   1.301   6.803  0.00  0.00     0.109 C 
ATOM      2  N   UNL d   1      -0.416   0.448   5.973  0.00  0.00    -0.246 N 
ATOM      3  HN  UNL d   1      -0.219  -0.520   6.228  1.00  0.00     0.196 HD
ENDROOT
BRANCH   2   4
ATOM      4  O   UNL d   1      -0.151   0.970   4.683  0.00  0.00    -0.193 OA
BRANCH   4   5
ATOM      5  C   UNL d   1       0.407  -0.043   3.939  0.00  0.00     0.315 C 
ATOM      6  O   UNL d   1       0.725  -1.153   4.352  0.00  0.00    -0.257 OA
BRANCH   5   7
ATOM      7  C   UNL d   1       0.615   0.316   2.506  0.00  0.00     0.041 A 
ATOM      8  C   UNL d   1       0.311   1.558   1.941  0.00  0.00     0.018 A 
ATOM      9  C   UNL d   1       0.558   1.788   0.574  0.00  0.00     0.017 A 
ATOM     10  C   UNL d   1       1.109   0.784  -0.244  0.00  0.00     0.048 A 
ATOM     11  C   UNL d   1       1.399  -0.460   0.326  0.00  0.00     0.017 A 
ATOM     12  C   UNL d   1       1.156  -0.688   1.682  0.00  0.00     0.018 A 
BRANCH  10  13
ATOM     13  C   UNL d   1       1.382   1.038  -1.711  0.00  0.00     0.417 C 
ATOM     14  F   UNL d   1       1.982  -0.012  -2.342  0.00  0.00    -0.166 F 
ATOM     15  F   UNL d   1       2.202   2.106  -1.911  0.00  0.00    -0.166 F 
ATOM     16  F   UNL d   1       0.248   1.296  -2.416  0.00  0.00    -0.166 F 
ENDBRANCH  10  13
ENDBRANCH   5   7
ENDBRANCH   4   5
ENDBRANCH   2   4
BRANCH   1  17
ATOM     17  C   UNL d   1      -1.284   0.777   8.165  0.00  0.00     0.006 A 
ATOM     18  C   UNL d   1      -0.557  -0.278   8.724  0.00  0.00     0.036 A 
ATOM     19  C   UNL d   1      -0.892  -0.816   9.985  0.00  0.00     0.046 A 
ATOM     20 BR   UNL d   1       0.274  -2.214  10.545  0.00  0.00    -0.048 Br
ATOM     21  C   UNL d   1      -1.988  -0.309  10.701  0.00  0.00     0.102 A 
ATOM     22  C   UNL d   1      -2.711   0.756  10.108  0.00  0.00     0.046 A 
ATOM     23  C   UNL d   1      -2.366   1.299   8.863  0.00  0.00     0.036 A 
ATOM     24 BR   UNL d   1      -4.238   1.521  10.967  0.00  0.00    -0.048 Br
BRANCH  21  25
ATOM     25  O   UNL d   1      -2.487  -0.678  11.919  0.00  0.00    -0.353 OA
ATOM     26  C   UNL d   1      -1.986  -1.768  12.666  0.00  0.00     0.210 C 
ENDBRANCH  21  25
ENDBRANCH   1  17
BRANCH   1  27
ATOM     27  N   UNL d   1      -1.154   2.626   6.523  0.00  0.00    -0.286 NA
ATOM     28  H   UNL d   1      -1.065   3.264   7.306  0.00  0.00     0.125 HD
ATOM     29  H   UNL d   1      -0.639   2.943   5.709  0.00  0.00     0.125 HD
ENDBRANCH   1  27
TORSDOF 7
