REMARK  3 active torsions:
REMARK  status: ('A' for Active; 'I' for Inactive)
REMARK    1  A    between atoms: C2_5  and  C1_1 
REMARK    2  A    between atoms: C8_12  and  C3_6 
REMARK    3  A    between atoms: O1_13  and  C8_12 
ROOT
ATOM      1  C1  <1> d   1       0.180  -1.153  -0.014  0.00  0.00     0.091 A 
ATOM      2  N1  <1> d   1       1.376  -0.592   0.036  0.00  0.00    -0.351 N 
ATOM      3  H1  <1> d   1       2.257  -1.103   0.094  1.00  0.00     0.166 HD
ATOM      4  S1  <1> d   1      -1.132  -0.038  -0.099  0.00  0.00    -0.081 SA
ATOM      5  C3  <1> d   1       1.263   0.798  -0.001  0.00  0.00     0.040 A 
ATOM      6  C4  <1> d   1      -0.032   1.269  -0.074  0.00  0.00     0.079 A 
ENDROOT
BRANCH   1   7
ATOM      7  C2  <1> d   1       0.014  -2.592   0.009  0.00  0.00     0.038 A 
ATOM      8  S2  <1> d   1      -1.510  -3.374  -0.144  0.00  0.00    -0.099 SA
ATOM      9  C6  <1> d   1      -0.817  -4.930  -0.027  0.00  0.00     0.050 A 
ATOM     10  C7  <1> d   1       0.548  -4.874   0.127  0.00  0.00     0.008 A 
ATOM     11  C5  <1> d   1       1.025  -3.529   0.147  0.00  0.00     0.022 A 
ENDBRANCH   1   7
BRANCH   5  12
ATOM     12  C8  <1> d   1       2.510   1.622   0.038  0.00  0.00     0.221 C 
BRANCH  12  13
ATOM     13  O1  <1> d   1       3.617   0.927  -0.531  0.00  0.00    -0.395 OA
ATOM     14  H7  <1> d   1       3.399  -0.019  -0.419  0.00  0.00     0.209 HD
ENDBRANCH  12  13
ENDBRANCH   5  12
TORSDOF 3
