REMARK  3 active torsions:
REMARK  status: ('A' for Active; 'I' for Inactive)
REMARK    1  A    between atoms: C_3  and  C_1 
REMARK    2  A    between atoms: C_6  and  C_2 
REMARK    3  A    between atoms: C_7  and  C_3 
ROOT
ATOM      1  C   UNL d   1       0.618   0.943  -0.093  0.00  0.00     0.081 A 
ATOM      2  C   UNL d   1      -0.869   0.983   0.087  0.00  0.00     0.090 A 
ATOM      3  N   UNL d   1       1.133  -0.230  -0.307  0.00  0.00    -0.321 N 
ATOM      4  HN  UNL d   1       2.126  -0.451  -0.380  1.00  0.00     0.180 HD
ATOM      5  N   UNL d   1       0.106  -1.103  -0.416  0.00  0.00    -0.239 NA
ATOM      6  C   UNL d   1      -1.195  -0.497  -0.126  0.00  0.00     0.126 A 
ATOM      7  H   UNL d   1       0.271  -1.950   0.134  0.00  0.00     0.146 HD
ENDROOT
BRANCH   1   8
ATOM      8  C   UNL d   1       1.434   2.213  -0.030  0.00  0.00     0.206 C 
ATOM      9  O   UNL d   1       0.853   3.272   0.192  0.00  0.00    -0.285 OA
BRANCH   8  10
ATOM     10  C   UNL d   1       2.901   2.203  -0.232  0.00  0.00     0.017 A 
ATOM     11  C   UNL d   1       3.674   3.166   0.433  0.00  0.00     0.028 A 
ATOM     12  C   UNL d   1       5.070   3.193   0.281  0.00  0.00    -0.025 A 
ATOM     13  C   UNL d   1       5.868   4.134   0.951  0.00  0.00     0.012 A 
ATOM     14  C   UNL d   1       5.692   2.246  -0.567  0.00  0.00    -0.026 A 
ATOM     15  C   UNL d   1       7.255   4.139   0.787  0.00  0.00     0.001 A 
ATOM     16  C   UNL d   1       7.862   3.207  -0.049  0.00  0.00     0.001 A 
ATOM     17  C   UNL d   1       7.085   2.265  -0.722  0.00  0.00     0.012 A 
ATOM     18  C   UNL d   1       4.907   1.304  -1.242  0.00  0.00     0.013 A 
ATOM     19  C   UNL d   1       3.522   1.289  -1.085  0.00  0.00     0.016 A 
ENDBRANCH   8  10
ENDBRANCH   1   8
BRANCH   2  20
ATOM     20  C   UNL d   1      -1.328   1.581   1.405  0.00  0.00    -0.025 A 
ATOM     21  C   UNL d   1      -0.979   1.099   2.682  0.00  0.00     0.042 A 
ATOM     22  C   UNL d   1      -1.396   1.765   3.840  0.00  0.00     0.048 A 
ATOM     23 CL   UNL d   1      -0.000  -0.303   2.931  0.00  0.00    -0.084 Cl
ATOM     24  C   UNL d   1      -2.151   2.928   3.740  0.00  0.00     0.035 A 
ATOM     25  C   UNL d   1      -2.510   3.426   2.495  0.00  0.00     0.024 A 
ATOM     26 CL   UNL d   1      -2.627   3.762   5.167  0.00  0.00    -0.084 Cl
ATOM     27  C   UNL d   1      -2.106   2.756   1.339  0.00  0.00     0.011 A 
ENDBRANCH   2  20
TORSDOF 3
