REMARK  6 active torsions:
REMARK  status: ('A' for Active; 'I' for Inactive)
REMARK    1  A    between atoms: N_9  and  C_1 
REMARK    2  A    between atoms: C_7  and  C_3 
REMARK    3  A    between atoms: O_16  and  C_8 
REMARK    4  A    between atoms: C_13  and  N_9 
REMARK    5  A    between atoms: O_19  and  C_14 
REMARK    6  A    between atoms: O_20  and  C_18 
ROOT
ATOM      1  C   UNL d   1      -1.380  -0.502   0.053  0.00  0.00     0.099 C 
ATOM      2  C   UNL d   1      -0.323  -1.331  -0.125  0.00  0.00     0.145 C 
ATOM      3  C   UNL d   1       0.560   1.483   0.134  0.00  0.00     0.190 C 
ATOM      4  S   UNL d   1      -1.142   1.156   0.597  0.00  0.00    -0.080 SA
ATOM      5  N   UNL d   1       1.403   0.346   0.360  0.00  0.00    -0.338 N 
ATOM      6  C   UNL d   1       1.082  -0.955   0.185  0.00  0.00     0.266 C 
ATOM      7  C   UNL d   1      -0.485  -2.659  -0.623  0.00  0.00     0.108 C 
ATOM      8  N   UNL d   1      -0.604  -3.743  -1.021  0.00  0.00    -0.191 NA
ATOM      9  O   UNL d   1       1.972  -1.797   0.274  0.00  0.00    -0.267 OA
ATOM     10  H   UNL d   1       2.399   0.505   0.469  0.00  0.00     0.164 HD
ENDROOT
BRANCH   1  11
ATOM     11  N   UNL d   1      -2.710  -0.850  -0.200  0.00  0.00    -0.349 N 
ATOM     12  H   UNL d   1      -3.296  -0.016  -0.260  0.00  0.00     0.166 HD
BRANCH  11  13
ATOM     13  C   UNL d   1      -3.444  -1.904   0.405  0.00  0.00     0.035 A 
ATOM     14  C   UNL d   1      -2.932  -2.718   1.424  0.00  0.00     0.066 A 
ATOM     15  C   UNL d   1      -3.638  -3.836   1.875  0.00  0.00     0.070 A 
ATOM     16  C   UNL d   1      -4.908  -4.102   1.370  0.00  0.00     0.037 A 
ATOM     17  C   UNL d   1      -5.455  -3.277   0.389  0.00  0.00     0.005 A 
ATOM     18  C   UNL d   1      -4.721  -2.193  -0.097  0.00  0.00     0.029 A 
BRANCH  15  19
ATOM     19  O   UNL d   1      -3.172  -4.711   2.820  0.00  0.00    -0.356 OA
ATOM     20  C   UNL d   1      -1.758  -4.901   2.806  0.00  0.00     0.210 C 
ENDBRANCH  15  19
ENDBRANCH  11  13
ENDBRANCH   1  11
BRANCH   3  21
ATOM     21  C   UNL d   1       0.727   2.115  -1.238  0.00  0.00     0.011 A 
ATOM     22  C   UNL d   1       0.755   3.520  -1.394  0.00  0.00     0.108 A 
ATOM     23  C   UNL d   1       0.885   4.115  -2.659  0.00  0.00     0.101 A 
ATOM     24  C   UNL d   1       0.981   3.288  -3.781  0.00  0.00     0.039 A 
ATOM     25  C   UNL d   1       0.948   1.903  -3.657  0.00  0.00     0.004 A 
ATOM     26  C   UNL d   1       0.823   1.322  -2.397  0.00  0.00     0.013 A 
BRANCH  22  27
ATOM     27  O   UNL d   1       0.624   4.304  -0.277  0.00  0.00    -0.357 OA
ATOM     28  H   UNL d   1       1.415   4.168   0.273  0.00  0.00     0.217 HD
ENDBRANCH  22  27
BRANCH  23  29
ATOM     29  O   UNL d   1       0.947   5.444  -2.983  0.00  0.00    -0.353 OA
ATOM     30  C   UNL d   1       0.914   6.408  -1.944  0.00  0.00     0.210 C 
ENDBRANCH  23  29
ENDBRANCH   3  21
TORSDOF 6
