REMARK  3 active torsions:
REMARK  status: ('A' for Active; 'I' for Inactive)
REMARK       I    between atoms: C_2  and  N_1 
REMARK    1  A    between atoms: C_9  and  C_2 
REMARK       I    between atoms: C_3  and  N_4 
REMARK    2  A    between atoms: C_10  and  C_3 
REMARK    3  A    between atoms: N_4  and  C_11 
ROOT
ATOM      1  N   UNL d   1       1.096   0.130   0.416  0.00  0.00    -0.352 N 
ATOM      2  C   UNL d   1       2.294   0.063   1.130  0.00  0.00     0.224 C 
ATOM      3  C   UNL d   1       0.321  -1.003  -0.080  0.00  0.00     0.127 C 
ATOM      4  C   UNL d   1       0.599   1.444  -0.004  0.00  0.00     0.127 C 
ATOM      5  O   UNL d   1       2.924   1.080   1.407  0.00  0.00    -0.273 OA
ATOM      6  C   UNL d   1      -1.742   0.444  -0.186  0.00  0.00     0.087 C 
ATOM      7  C   UNL d   1      -0.885   1.616   0.323  0.00  0.00     0.045 C 
ATOM      8  C   UNL d   1      -1.145  -0.871   0.331  0.00  0.00     0.045 C 
ENDROOT
BRANCH   6   9
ATOM      9  N   UNL d   1      -1.868   0.391  -1.644  0.00  0.00    -0.356 N 
ATOM     10  C   UNL d   1      -2.403   1.422  -2.379  0.00  0.00     0.222 C 
ATOM     11  O   UNL d   1      -2.854   2.435  -1.852  0.00  0.00    -0.273 OA
ATOM     12  H   UNL d   1      -1.936  -0.527  -2.063  0.00  0.00     0.162 HD
BRANCH  10  13
ATOM     13  C   UNL d   1      -2.473   1.188  -3.898  0.00  0.00     0.078 C 
ATOM     14  C   UNL d   1      -1.335   0.342  -4.494  0.00  0.00     0.014 C 
ATOM     15  C   UNL d   1       0.012   1.062  -4.490  0.00  0.00     0.001 C 
ATOM     16  C   UNL d   1      -0.073   2.429  -5.158  0.00  0.00     0.000 C 
ATOM     17  C   UNL d   1      -1.196   3.278  -4.573  0.00  0.00     0.001 C 
ATOM     18  C   UNL d   1      -2.538   2.543  -4.627  0.00  0.00     0.014 C 
ENDBRANCH  10  13
ENDBRANCH   6   9
BRANCH   2  19
ATOM     19  C   UNL d   1       2.813  -1.321   1.562  0.00  0.00     0.078 C 
ATOM     20  C   UNL d   1       3.660  -1.261   2.839  0.00  0.00     0.014 C 
ATOM     21  C   UNL d   1       5.053  -0.676   2.641  0.00  0.00     0.001 C 
ATOM     22  C   UNL d   1       5.814  -1.309   1.484  0.00  0.00     0.000 C 
ATOM     23  C   UNL d   1       4.991  -1.506   0.213  0.00  0.00     0.001 C 
ATOM     24  C   UNL d   1       3.579  -2.043   0.448  0.00  0.00     0.014 C 
ENDBRANCH   2  19
TORSDOF 3
