REMARK  2 active torsions:
REMARK  status: ('A' for Active; 'I' for Inactive)
REMARK    1  A    between atoms: C_7  and  N_1 
REMARK    2  A    between atoms: N_4  and  C_8 
ROOT
ATOM      1  N   UNL d   1       1.931  -0.024  -0.087  0.00  0.00    -0.244 N 
ATOM      2  C   UNL d   1       1.166   1.119   0.034  0.00  0.00     0.266 A 
ATOM      3  C   UNL d   1       1.123  -1.143  -0.142  0.00  0.00     0.266 A 
ATOM      4  C   UNL d   1      -0.255  -0.679  -0.063  0.00  0.00     0.048 A 
ATOM      5  C   UNL d   1      -0.233   0.696   0.019  0.00  0.00     0.048 A 
ATOM      6  O   UNL d   1       1.478   2.293   0.115  0.00  0.00    -0.267 OA
ATOM      7  O   UNL d   1       1.388  -2.329  -0.202  0.00  0.00    -0.267 OA
ATOM      8  C   UNL d   1      -1.398   1.438   0.066  0.00  0.00     0.018 A 
ATOM      9  C   UNL d   1      -1.432  -1.401  -0.061  0.00  0.00     0.018 A 
ATOM     10  C   UNL d   1      -2.624  -0.675  -0.000  0.00  0.00     0.001 A 
ATOM     11  C   UNL d   1      -2.607   0.734   0.051  0.00  0.00     0.001 A 
ENDROOT
BRANCH   1  12
ATOM     12  C   UNL d   1       3.352  -0.061  -0.132  0.00  0.00     0.046 A 
ATOM     13  C   UNL d   1       4.129   0.999   0.366  0.00  0.00     0.032 A 
ATOM     14  C   UNL d   1       5.530   0.941   0.355  0.00  0.00     0.038 A 
ATOM     15  C   UNL d   1       6.173  -0.177  -0.184  0.00  0.00     0.103 A 
ATOM     16  C   UNL d   1       5.424  -1.232  -0.709  0.00  0.00     0.038 A 
ATOM     17  C   UNL d   1       4.026  -1.170  -0.672  0.00  0.00     0.032 A 
BRANCH  15  18
ATOM     18  N   UNL d   1       7.638  -0.247  -0.199  0.00  0.00    -0.116 N 
ATOM     19  O   UNL d   1       8.264   0.702   0.291  0.00  0.00    -0.532 OA
ATOM     20  O   UNL d   1       8.162  -1.251  -0.701  0.00  0.00    -0.532 OA
ENDBRANCH  15  18
ENDBRANCH   1  12
TORSDOF 2
