REMARK  3 active torsions:
REMARK  status: ('A' for Active; 'I' for Inactive)
REMARK    1  A    between atoms: C_2  and  C_1 
REMARK    2  A    between atoms: C_16  and  N_6 
REMARK    3  A    between atoms: S_14  and  C_7 
ROOT
ATOM      1  C   UNL d   1      -0.081  -1.309   0.219  0.00  0.00     0.152 A 
ATOM      2  N   UNL d   1       0.996  -0.673   0.801  0.00  0.00    -0.314 N 
ATOM      3  N   UNL d   1      -0.824  -0.409  -0.392  0.00  0.00    -0.281 N 
ATOM      4  HN  UNL d   1      -1.678  -0.597  -0.917  1.00  0.00     0.188 HD
ATOM      5  C   UNL d   1       0.826   0.658   0.520  0.00  0.00     0.159 A 
ATOM      6  N   UNL d   1      -0.255   0.826  -0.200  0.00  0.00    -0.278 N 
ATOM      7  HN  UNL d   1      -0.610   1.714  -0.555  1.00  0.00     0.189 HD
ATOM      8  C   UNL d   1       2.105  -1.268   1.500  0.00  0.00     0.160 C 
ENDROOT
BRANCH   1   9
ATOM      9  C   UNL d   1      -0.368  -2.712   0.220  0.00  0.00     0.098 A 
ATOM     10  N   UNL d   1      -0.993  -3.386  -0.806  0.00  0.00    -0.289 N 
ATOM     11  N   UNL d   1      -1.041  -4.724  -0.607  0.00  0.00    -0.303 N 
ATOM     12  C   UNL d   1      -0.507  -4.898   0.605  0.00  0.00     0.024 A 
ATOM     13  HN  UNL d   1      -1.402  -5.438  -1.239  1.00  0.00     0.186 HD
ATOM     14  C   UNL d   1      -0.125  -3.670   1.182  0.00  0.00     0.061 A 
ATOM     15  C   UNL d   1      -0.352  -6.259   1.170  0.00  0.00     0.070 C 
BRANCH  10  16
ATOM     16  C   UNL d   1      -1.506  -2.866  -2.063  0.00  0.00     0.145 C 
ATOM     17  C   UNL d   1      -2.980  -2.505  -1.989  0.00  0.00     0.028 C 
ENDBRANCH  10  16
ENDBRANCH   1   9
BRANCH   5  18
ATOM     18  S   UNL d   1       1.880   1.935   1.022  0.00  0.00    -0.105 SA
ATOM     19  H   UNL d   1       2.734   1.260   1.799  0.00  0.00     0.110 HD
ENDBRANCH   5  18
TORSDOF 3
