REMARK  1 active torsions:
REMARK  status: ('A' for Active; 'I' for Inactive)
REMARK    1  A    between atoms: C_2  and  C_1 
ROOT
ATOM      1  C   UNL d   1       1.891   0.639  -0.032  0.00  0.00     0.090 A 
ATOM      2  O   UNL d   1       0.993   0.704   1.002  0.00  0.00    -0.299 OA
ATOM      3  C   UNL d   1       1.568  -0.434  -0.844  0.00  0.00     0.041 A 
ATOM      4  C   UNL d   1       0.115  -0.323   0.838  0.00  0.00     0.155 A 
ATOM      5  N   UNL d   1      -1.784  -0.607   2.561  0.00  0.00    -0.189 NA
ATOM      6  C   UNL d   1      -0.924  -0.467   1.794  0.00  0.00     0.125 C 
ATOM      7  C   UNL d   1       0.425  -1.055  -0.282  0.00  0.00     0.051 A 
ENDROOT
BRANCH   1   8
ATOM      8  C   UNL d   1       2.944   1.653  -0.050  0.00  0.00     0.036 A 
ATOM      9  C   UNL d   1       3.887   1.695  -1.091  0.00  0.00     0.132 A 
ATOM     10  C   UNL d   1       4.915   2.633  -1.116  0.00  0.00     0.085 A 
ATOM     11  F   UNL d   1       3.825   0.819  -2.107  0.00  0.00    -0.205 F 
ATOM     12  C   UNL d   1       5.010   3.554  -0.086  0.00  0.00     0.119 A 
ATOM     13  C   UNL d   1       4.092   3.555   0.957  0.00  0.00     0.043 A 
ATOM     14  F   UNL d   1       6.001   4.454  -0.096  0.00  0.00    -0.206 F 
ATOM     15  C   UNL d   1       3.060   2.608   0.975  0.00  0.00     0.020 A 
ENDBRANCH   1   8
TORSDOF 1
