REMARK  3 active torsions:
REMARK  status: ('A' for Active; 'I' for Inactive)
REMARK    1  A    between atoms: C_5  and  C_1 
REMARK    2  A    between atoms: N_9  and  C_2 
REMARK       I    between atoms: C_8  and  N_9 
REMARK       I    between atoms: N_10  and  C_8 
REMARK    3  A    between atoms: C_15  and  N_10 
ROOT
ATOM      1  C   UNL d   1       2.257  -2.711  -0.173  0.00  0.00     0.325 C 
ATOM      2  N   UNL d   1       2.574  -1.378   0.055  0.00  0.00    -0.305 N 
ATOM      3  N   UNL d   1       3.386  -3.487  -0.318  0.00  0.00    -0.309 N 
ATOM      4  O   UNL d   1       1.099  -3.118  -0.191  0.00  0.00    -0.247 OA
ATOM      5  H   UNL d   1       3.419  -1.222   0.583  0.00  0.00     0.171 HD
ATOM      6  H   UNL d   1       4.271  -3.002  -0.341  0.00  0.00     0.170 HD
ENDROOT
BRANCH   2   7
ATOM      7  C   UNL d   1       1.552  -0.461   0.264  0.00  0.00     0.086 C 
ATOM      8  C   UNL d   1       0.288  -0.268  -0.378  0.00  0.00     0.160 C 
ATOM      9  N   UNL d   1      -0.432   0.665   0.290  0.00  0.00    -0.293 N 
ATOM     10  N   UNL d   1       0.357   1.034   1.309  0.00  0.00    -0.305 N 
ATOM     11  HN  UNL d   1      -1.366   1.010   0.067  1.00  0.00     0.187 HD
ATOM     12  C   UNL d   1      -0.178   1.860   2.365  0.00  0.00     0.177 C 
ATOM     13  C   UNL d   1       1.602   0.483   1.263  0.00  0.00     0.141 C 
BRANCH   8  14
ATOM     14  C   UNL d   1      -0.240  -0.896  -1.645  0.00  0.00     0.436 C 
ATOM     15  F   UNL d   1       0.684  -1.635  -2.321  0.00  0.00    -0.165 F 
ATOM     16  F   UNL d   1      -1.322  -1.693  -1.438  0.00  0.00    -0.165 F 
ATOM     17  F   UNL d   1      -0.639   0.060  -2.538  0.00  0.00    -0.165 F 
ENDBRANCH   8  14
ENDBRANCH   2   7
BRANCH   3  18
ATOM     18  C   UNL d   1       3.431  -4.885  -0.532  0.00  0.00     0.036 A 
ATOM     19  C   UNL d   1       2.291  -5.686  -0.662  0.00  0.00     0.031 A 
ATOM     20  C   UNL d   1       2.405  -7.058  -0.906  0.00  0.00     0.026 A 
ATOM     21  C   UNL d   1       3.663  -7.641  -1.014  0.00  0.00     0.034 A 
ATOM     22  C   UNL d   1       4.807  -6.862  -0.869  0.00  0.00     0.026 A 
ATOM     23 CL   UNL d   1       3.802  -9.324  -1.333  0.00  0.00    -0.084 Cl
ATOM     24  C   UNL d   1       4.691  -5.488  -0.631  0.00  0.00     0.031 A 
ENDBRANCH   3  18
TORSDOF 3
