REMARK  4 active torsions:
REMARK  status: ('A' for Active; 'I' for Inactive)
REMARK    1  A    between atoms: C_9  and  N_1 
REMARK    2  A    between atoms: C_7  and  C_2 
REMARK    3  A    between atoms: N_14  and  C_12 
REMARK    4  A    between atoms: C_13  and  N_14 
ROOT
ATOM      1  N   UNL d   1       7.504  -3.421   1.793  0.00  0.00    -0.191 NA
ATOM      2  C   UNL d   1       7.326  -2.540   1.055  0.00  0.00     0.102 C 
ATOM      3  C   UNL d   1       7.086  -1.478   0.122  0.00  0.00     0.071 A 
ATOM      4  C   UNL d   1       5.805  -0.903  -0.013  0.00  0.00     0.052 A 
ATOM      5  C   UNL d   1       8.154  -1.033  -0.673  0.00  0.00     0.025 A 
ATOM      6  C   UNL d   1       5.656   0.161  -0.921  0.00  0.00     0.031 A 
ATOM      7  C   UNL d   1       7.967  -0.007  -1.598  0.00  0.00     0.002 A 
ATOM      8  C   UNL d   1       6.718   0.594  -1.716  0.00  0.00     0.002 A 
ENDROOT
BRANCH   4   9
ATOM      9  N   UNL d   1       4.711  -1.363   0.776  0.00  0.00    -0.365 N 
ATOM     10  H   UNL d   1       4.715  -2.382   0.839  0.00  0.00     0.165 HD
BRANCH   9  11
ATOM     11  C   UNL d   1       3.447  -0.821   0.685  0.00  0.00     0.092 C 
ATOM     12  C   UNL d   1       2.315  -1.471   0.387  0.00  0.00     0.068 C 
BRANCH  12  13
ATOM     13  C   UNL d   1       1.108  -0.748   0.209  0.00  0.00     0.139 C 
ATOM     14  N   UNL d   1      -0.132  -1.362   0.031  0.00  0.00    -0.225 N 
ATOM     15  N   UNL d   1      -0.990  -0.419  -0.438  0.00  0.00     0.001 NA
ATOM     16  N   UNL d   1      -0.349   0.734  -0.368  0.00  0.00    -0.007 NA
ATOM     17  N   UNL d   1       0.942   0.552   0.033  0.00  0.00    -0.270 N 
ATOM     18  HN  UNL d   1       1.644   1.279   0.171  1.00  0.00     0.185 HD
BRANCH  14  19
ATOM     19  C   UNL d   1      -0.591  -2.684   0.281  0.00  0.00     0.056 A 
ATOM     20  C   UNL d   1       0.074  -3.543   1.165  0.00  0.00     0.032 A 
ATOM     21  C   UNL d   1      -0.429  -4.823   1.413  0.00  0.00     0.009 A 
ATOM     22  C   UNL d   1      -1.607  -5.259   0.798  0.00  0.00    -0.062 A 
ATOM     23  C   UNL d   1      -2.276  -4.399  -0.077  0.00  0.00     0.009 A 
ATOM     24  C   UNL d   1      -2.157  -6.618   1.117  0.00  0.00     0.048 C 
ATOM     25  C   UNL d   1      -1.777  -3.118  -0.330  0.00  0.00     0.032 A 
ENDBRANCH  14  19
ENDBRANCH  12  13
ENDBRANCH   9  11
ENDBRANCH   4   9
TORSDOF 4
