REMARK  1 active torsions:
REMARK  status: ('A' for Active; 'I' for Inactive)
REMARK    1  A    between atoms: C_8  and  C_1 
ROOT
ATOM      1  C   UNL d   1       2.491   0.742  -0.016  0.00  0.00     0.019 A 
ATOM      2  S   UNL d   1       1.156   1.827   0.035  0.00  0.00    -0.089 SA
ATOM      3  C   UNL d   1       2.421  -0.591   0.005  0.00  0.00     0.075 A 
ATOM      4  C   UNL d   1      -0.136  -0.673   0.035  0.00  0.00     0.033 A 
ATOM      5  C   UNL d   1       1.169  -1.367   0.065  0.00  0.00     0.184 A 
ATOM      6  C   UNL d   1      -0.231   0.722   0.010  0.00  0.00     0.020 A 
ATOM      7  C   UNL d   1      -1.300  -1.461   0.022  0.00  0.00     0.040 A 
ATOM      8  O   UNL d   1       1.228  -2.591   0.125  0.00  0.00    -0.287 OA
ATOM      9  C   UNL d   1      -1.505   1.313  -0.033  0.00  0.00     0.021 A 
ATOM     10  C   UNL d   1      -2.552  -0.856  -0.026  0.00  0.00     0.035 A 
ATOM     11  C   UNL d   1      -2.660   0.530  -0.055  0.00  0.00     0.025 A 
ATOM     12 CL   UNL d   1      -3.974  -1.822  -0.054  0.00  0.00    -0.084 Cl
ENDROOT
BRANCH   1  13
ATOM     13  C   UNL d   1       3.807   1.396  -0.073  0.00  0.00    -0.019 A 
ATOM     14  C   UNL d   1       4.401   1.691  -1.309  0.00  0.00     0.013 A 
ATOM     15  C   UNL d   1       5.640   2.333  -1.359  0.00  0.00     0.001 A 
ATOM     16  C   UNL d   1       6.296   2.679  -0.179  0.00  0.00     0.000 A 
ATOM     17  C   UNL d   1       5.718   2.379   1.054  0.00  0.00     0.001 A 
ATOM     18  C   UNL d   1       4.480   1.737   1.109  0.00  0.00     0.013 A 
ENDBRANCH   1  13
TORSDOF 1
