REMARK  7 active torsions:
REMARK  status: ('A' for Active; 'I' for Inactive)
REMARK    1  A    between atoms: C_28  and  C_4 
REMARK    2  A    between atoms: C_9  and  N_5 
REMARK    3  A    between atoms: C_7  and  C_9 
REMARK    4  A    between atoms: C_10  and  C_7 
REMARK    5  A    between atoms: N_8  and  C_27 
REMARK    6  A    between atoms: C_27  and  C_29 
REMARK    7  A    between atoms: C_29  and  C_28 
ROOT
ATOM      1  N   UNL d   1       1.127   6.005  -2.794  0.00  0.00     0.099 N 
ATOM      2  N   UNL d   1       0.554   5.353   0.123  0.00  0.00     0.091 N 
ATOM      3  C   UNL d   1       0.971   4.626  -2.275  0.00  0.00     0.303 C 
ATOM      4  C   UNL d   1       0.425   6.939  -1.883  0.00  0.00     0.303 C 
ATOM      5  C   UNL d   1       1.317   4.465  -0.775  0.00  0.00     0.302 C 
ATOM      6  C   UNL d   1       0.692   6.746  -0.367  0.00  0.00     0.302 C 
ENDROOT
BRANCH   2   7
ATOM      7  C   UNL d   1      -0.866   4.984   0.260  0.00  0.00     0.273 C 
BRANCH   7   8
ATOM      8  C   UNL d   1      -1.142   3.538   0.693  0.00  0.00     0.035 C 
BRANCH   8   9
ATOM      9  C   UNL d   1      -0.496   3.149   2.026  0.00  0.00     0.042 C 
BRANCH   9  10
ATOM     10  C   UNL d   1      -0.736   1.700   2.330  0.00  0.00    -0.030 A 
ATOM     11  C   UNL d   1      -1.844   1.170   2.961  0.00  0.00     0.096 A 
ATOM     12  N   UNL d   1      -1.716  -0.193   2.993  0.00  0.00    -0.365 N 
ATOM     13  C   UNL d   1      -0.537  -0.574   2.392  0.00  0.00     0.043 A 
ATOM     14  H   UNL d   1      -2.391  -0.833   3.387  0.00  0.00     0.165 HD
ATOM     15  C   UNL d   1       0.112   0.595   1.986  0.00  0.00     0.001 A 
ATOM     16  C   UNL d   1      -0.009  -1.854   2.177  0.00  0.00     0.033 A 
ATOM     17  C   UNL d   1       1.363   0.480   1.349  0.00  0.00     0.056 A 
ATOM     18  C   UNL d   1       1.898  -0.790   1.139  0.00  0.00     0.117 A 
ATOM     19  C   UNL d   1       1.230  -1.940   1.537  0.00  0.00     0.044 A 
ATOM     20  F   UNL d   1       3.087  -0.904   0.530  0.00  0.00    -0.206 F 
ENDBRANCH   9  10
ENDBRANCH   8   9
ENDBRANCH   7   8
ENDBRANCH   2   7
BRANCH   1  21
ATOM     21  C   UNL d   1       2.564   6.311  -2.961  0.00  0.00     0.356 C 
BRANCH  21  22
ATOM     22  C   UNL d   1       2.837   7.730  -3.449  0.00  0.00     0.187 C 
ATOM     23  O   UNL d   1       3.464   8.518  -2.739  0.00  0.00    -0.290 OA
BRANCH  22  24
ATOM     24  C   UNL d   1       2.380   8.183  -4.799  0.00  0.00     0.012 A 
ATOM     25  C   UNL d   1       1.567   7.408  -5.636  0.00  0.00     0.018 A 
ATOM     26  C   UNL d   1       1.129   7.924  -6.861  0.00  0.00     0.043 A 
ATOM     27  C   UNL d   1       1.515   9.202  -7.251  0.00  0.00     0.116 A 
ATOM     28  C   UNL d   1       2.341   9.975  -6.446  0.00  0.00     0.043 A 
ATOM     29  F   UNL d   1       1.079   9.696  -8.417  0.00  0.00    -0.206 F 
ATOM     30  C   UNL d   1       2.773   9.465  -5.221  0.00  0.00     0.018 A 
ENDBRANCH  22  24
ENDBRANCH  21  22
ENDBRANCH   1  21
TORSDOF 7
