REMARK  2 active torsions:
REMARK  status: ('A' for Active; 'I' for Inactive)
REMARK    1  A    between atoms: C_2  and  N_1 
REMARK    2  A    between atoms: C_10  and  C_5 
ROOT
ATOM      1  N   UNL d   1       1.920  -0.044  -0.103  0.00  0.00    -0.242 N 
ATOM      2  C   UNL d   1       1.133  -1.142  -0.342  0.00  0.00     0.266 A 
ATOM      3  C   UNL d   1       1.173   1.103   0.037  0.00  0.00     0.266 A 
ATOM      4  C   UNL d   1      -0.249  -0.687  -0.198  0.00  0.00     0.048 A 
ATOM      5  C   UNL d   1      -0.227   0.680   0.009  0.00  0.00     0.048 A 
ATOM      6  O   UNL d   1       1.514   2.273   0.062  0.00  0.00    -0.267 OA
ATOM      7  O   UNL d   1       1.425  -2.292  -0.619  0.00  0.00    -0.267 OA
ATOM      8  C   UNL d   1      -1.388   1.418   0.125  0.00  0.00     0.018 A 
ATOM      9  C   UNL d   1      -1.431  -1.401  -0.252  0.00  0.00     0.018 A 
ATOM     10  C   UNL d   1      -2.620  -0.679  -0.113  0.00  0.00     0.001 A 
ATOM     11  C   UNL d   1      -2.599   0.721   0.062  0.00  0.00     0.001 A 
ENDROOT
BRANCH   1  12
ATOM     12  C   UNL d   1       3.314  -0.054  -0.147  0.00  0.00     0.067 A 
ATOM     13  C   UNL d   1       4.135   0.628   0.745  0.00  0.00     0.077 A 
ATOM     14  S   UNL d   1       5.788   0.484   0.305  0.00  0.00    -0.096 SA
ATOM     15  C   UNL d   1       5.434  -0.574  -0.982  0.00  0.00     0.053 A 
ATOM     16  C   UNL d   1       4.083  -0.811  -1.090  0.00  0.00     0.039 A 
BRANCH  13  17
ATOM     17  C   UNL d   1       3.745   1.284   1.995  0.00  0.00     0.164 C 
ATOM     18  O   UNL d   1       2.669   1.048   2.553  0.00  0.00    -0.292 OA
ATOM     19  C   UNL d   1       4.730   2.194   2.691  0.00  0.00     0.097 C 
ENDBRANCH  13  17
ENDBRANCH   1  12
TORSDOF 2
