REMARK  1 active torsions:
REMARK  status: ('A' for Active; 'I' for Inactive)
REMARK    1  A    between atoms: C_4  and  C_1 
ROOT
ATOM      1  C   UNL d   1       2.088  -2.407  -0.064  0.00  0.00     0.033 A 
ATOM      2  S   UNL d   1       3.777  -2.351   0.177  0.00  0.00    -0.077 SA
ATOM      3  C   UNL d   1       3.929  -4.047   0.029  0.00  0.00     0.086 A 
ATOM      4  C   UNL d   1       1.649  -3.696  -0.288  0.00  0.00     0.023 A 
ATOM      5  N   UNL d   1       6.177  -5.304   0.290  0.00  0.00    -0.191 NA
ATOM      6  C   UNL d   1       5.173  -4.735   0.171  0.00  0.00     0.107 C 
ATOM      7  C   UNL d   1       2.715  -4.646  -0.237  0.00  0.00     0.031 A 
ENDROOT
BRANCH   1   8
ATOM      8  C   UNL d   1       1.169  -1.222  -0.026  0.00  0.00     0.056 A 
ATOM      9  N   UNL d   1      -0.203  -1.383  -0.147  0.00  0.00    -0.353 N 
ATOM     10  C   UNL d   1      -0.803  -0.217  -0.038  0.00  0.00     0.047 A 
ATOM     11  HN  UNL d   1      -0.677  -2.273  -0.299  1.00  0.00     0.166 HD
ATOM     12  C   UNL d   1      -2.278  -0.020  -0.074  0.00  0.00     0.076 C 
ATOM     13  S   UNL d   1       0.236   1.135   0.166  0.00  0.00    -0.087 SA
ATOM     14  C   UNL d   1       1.588   0.082   0.145  0.00  0.00     0.082 A 
ENDBRANCH   1   8
TORSDOF 1
