REMARK  5 active torsions:
REMARK  status: ('A' for Active; 'I' for Inactive)
REMARK    1  A    between atoms: C_2  and  N_1 
REMARK    2  A    between atoms: C_3  and  C_11 
REMARK    3  A    between atoms: N_6  and  N_12 
REMARK    4  A    between atoms: O_22  and  C_9 
REMARK    5  A    between atoms: N_12  and  C_10 
ROOT
ATOM      1  N   UNL d   1      -3.200   0.124  -4.976  0.00  0.00    -0.308 N 
ATOM      2  HN  UNL d   1      -3.863   0.098  -4.200  1.00  0.00     0.186 HD
ATOM      3  C   UNL d   1      -3.460   0.666  -6.130  0.00  0.00     0.121 C 
ENDROOT
BRANCH   1   4
ATOM      4  N   UNL d   1      -1.931  -0.411  -4.916  0.00  0.00    -0.281 N 
ATOM      5  C   UNL d   1      -1.642  -1.589  -5.745  0.00  0.00     0.179 C 
BRANCH   4   6
ATOM      6  C   UNL d   1      -1.252  -0.461  -3.668  0.00  0.00     0.121 A 
ATOM      7  C   UNL d   1      -1.686   0.310  -2.584  0.00  0.00     0.052 A 
ATOM      8  C   UNL d   1      -0.984   0.284  -1.374  0.00  0.00     0.041 A 
ATOM      9  C   UNL d   1       0.157  -0.510  -1.279  0.00  0.00     0.118 A 
ATOM     10  C   UNL d   1       0.545  -1.243  -2.382  0.00  0.00     0.125 A 
ATOM     11  N   UNL d   1      -0.133  -1.229  -3.556  0.00  0.00    -0.349 N 
ATOM     12  HN  UNL d   1       0.190  -1.788  -4.346  1.00  0.00     0.167 HD
BRANCH   9  13
ATOM     13  N   UNL d   1       0.940  -0.574  -0.054  0.00  0.00    -0.114 N 
ATOM     14  O   UNL d   1       1.945  -1.298  -0.049  0.00  0.00    -0.532 OA
ATOM     15  O   UNL d   1       0.554   0.101   0.911  0.00  0.00    -0.532 OA
ENDBRANCH   9  13
ENDBRANCH   4   6
ENDBRANCH   1   4
BRANCH   3  16
ATOM     16  C   UNL d   1      -4.769   1.250  -6.477  0.00  0.00     0.017 A 
ATOM     17  C   UNL d   1      -5.024   1.625  -7.802  0.00  0.00     0.099 A 
ATOM     18  C   UNL d   1      -6.263   2.175  -8.145  0.00  0.00     0.069 A 
ATOM     19 CL   UNL d   1      -6.590   2.633  -9.776  0.00  0.00    -0.081 Cl
ATOM     20  C   UNL d   1      -7.248   2.354  -7.176  0.00  0.00     0.050 A 
ATOM     21  C   UNL d   1      -6.989   1.974  -5.861  0.00  0.00     0.036 A 
ATOM     22  C   UNL d   1      -5.758   1.419  -5.503  0.00  0.00     0.039 A 
ATOM     23 CL   UNL d   1      -8.205   2.194  -4.664  0.00  0.00    -0.084 Cl
BRANCH  17  24
ATOM     24  O   UNL d   1      -4.060   1.436  -8.759  0.00  0.00    -0.358 OA
ATOM     25  H   UNL d   1      -4.421   1.739  -9.615  0.00  0.00     0.217 HD
ENDBRANCH  17  24
ENDBRANCH   3  16
TORSDOF 5
