REMARK  5 active torsions:
REMARK  status: ('A' for Active; 'I' for Inactive)
REMARK    1  A    between atoms: C_5  and  C_1 
REMARK    2  A    between atoms: S_2  and  C_3 
REMARK    3  A    between atoms: N_9  and  C_4 
REMARK    4  A    between atoms: O_17  and  C_5 
REMARK    5  A    between atoms: C_6  and  N_9 
ROOT
ATOM      1  C   UNL d   1       3.732   3.990  -0.164  0.00  0.00     0.153 C 
ATOM      2  C   UNL d   1       2.679   3.150  -0.106  0.00  0.00     0.123 C 
ATOM      3  C   UNL d   1       3.583   5.398  -0.234  0.00  0.00     0.113 C 
ATOM      4  N   UNL d   1       3.380   6.534  -0.329  0.00  0.00    -0.191 NA
ENDROOT
BRANCH   1   5
ATOM      5  S   UNL d   1       5.354   3.378  -0.087  0.00  0.00     0.183 S 
ATOM      6  O   UNL d   1       6.197   4.347   0.591  0.00  0.00    -0.222 OA
ATOM      7  O   UNL d   1       5.342   1.999   0.368  0.00  0.00    -0.222 OA
ATOM      8  C   UNL d   1       5.878   3.352  -1.782  0.00  0.00     0.168 C 
ENDBRANCH   1   5
BRANCH   2   9
ATOM      9  N   UNL d   1       1.337   3.498  -0.081  0.00  0.00    -0.363 N 
ATOM     10  H   UNL d   1       1.196   4.508  -0.155  0.00  0.00     0.165 HD
BRANCH   9  11
ATOM     11  C   UNL d   1       0.189   2.757  -0.073  0.00  0.00     0.055 A 
ATOM     12  C   UNL d   1      -0.067   1.447   0.314  0.00  0.00     0.106 A 
ATOM     13  S   UNL d   1      -1.729   1.035   0.023  0.00  0.00    -0.094 SA
ATOM     14  C   UNL d   1      -2.111   2.593  -0.530  0.00  0.00     0.053 A 
ATOM     15  C   UNL d   1      -1.009   3.411  -0.528  0.00  0.00     0.038 A 
BRANCH  12  16
ATOM     16  C   UNL d   1       0.720   0.389   0.923  0.00  0.00     0.302 C 
ATOM     17  O   UNL d   1       0.497  -0.812   0.811  0.00  0.00    -0.259 OA
BRANCH  16  18
ATOM     18  O   UNL d   1       1.708   0.905   1.704  0.00  0.00    -0.322 OA
ATOM     19  C   UNL d   1       2.521  -0.048   2.401  0.00  0.00     0.213 C 
ENDBRANCH  16  18
ENDBRANCH  12  16
ENDBRANCH   9  11
ENDBRANCH   2   9
TORSDOF 5
