REMARK  6 active torsions:
REMARK  status: ('A' for Active; 'I' for Inactive)
REMARK    1  A    between atoms: C_2  and  C_1 
REMARK       I    between atoms: N_6  and  C_2 
REMARK    2  A    between atoms: O_11  and  C_3 
REMARK    3  A    between atoms: C_14  and  N_6 
REMARK    4  A    between atoms: N_9  and  C_15 
REMARK    5  A    between atoms: C_13  and  C_14 
REMARK    6  A    between atoms: C_15  and  C_13 
ROOT
ATOM      1  C   UNL d   1      -3.825  -1.932   1.357  0.00  0.00     0.254 C 
ATOM      2  O   UNL d   1      -4.172  -2.411   2.432  0.00  0.00    -0.268 OA
ATOM      3  N   UNL d   1      -4.112  -2.515   0.137  0.00  0.00    -0.357 N 
ATOM      4  H   UNL d   1      -4.022  -1.951  -0.703  0.00  0.00     0.162 HD
ENDROOT
BRANCH   1   5
ATOM      5  C   UNL d   1      -3.065  -0.658   1.333  0.00  0.00     0.066 A 
ATOM      6  C   UNL d   1      -2.143  -0.329   0.332  0.00  0.00     0.081 A 
ATOM      7  C   UNL d   1      -1.468   0.890   0.368  0.00  0.00     0.039 A 
ATOM      8  C   UNL d   1      -1.675   1.773   1.429  0.00  0.00     0.022 A 
ATOM      9  C   UNL d   1      -2.569   1.435   2.444  0.00  0.00     0.012 A 
ATOM     10  C   UNL d   1      -3.267   0.229   2.400  0.00  0.00     0.039 A 
ATOM     11 BR   UNL d   1      -2.828   2.615   3.897  0.00  0.00    -0.051 Br
BRANCH   6  12
ATOM     12  O   UNL d   1      -1.814  -1.171  -0.695  0.00  0.00    -0.360 OA
ATOM     13  H   UNL d   1      -1.943  -2.088  -0.384  0.00  0.00     0.217 HD
ENDBRANCH   6  12
ENDBRANCH   1   5
BRANCH   3  14
ATOM     14  C   UNL d   1      -4.880  -3.749   0.061  0.00  0.00     0.124 C 
BRANCH  14  15
ATOM     15  C   UNL d   1      -6.381  -3.484  -0.013  0.00  0.00     0.050 C 
BRANCH  15  16
ATOM     16  C   UNL d   1      -7.215  -4.775  -0.022  0.00  0.00     0.273 C 
BRANCH  16  17
ATOM     17  N   UNL d   1      -7.025  -5.644   1.151  0.00  0.00     0.080 N 
ATOM     18  C   UNL d   1      -7.402  -4.977   2.401  0.00  0.00     0.309 C 
ATOM     19  C   UNL d   1      -7.798  -6.880   1.001  0.00  0.00     0.309 C 
ENDBRANCH  16  17
ENDBRANCH  15  16
ENDBRANCH  14  15
ENDBRANCH   3  14
TORSDOF 6
