REMARK  3 active torsions:
REMARK  status: ('A' for Active; 'I' for Inactive)
REMARK    1  A    between atoms: C_11  and  C_1 
REMARK       I    between atoms: C_4  and  N_12 
REMARK    2  A    between atoms: C_10  and  C_4 
REMARK    3  A    between atoms: N_12  and  N_8 
ROOT
ATOM      1  C   UNL d   1       0.080  -1.458  -0.022  0.00  0.00     0.003 A 
ATOM      2  C   UNL d   1       1.305  -0.710  -0.059  0.00  0.00    -0.013 A 
ATOM      3  C   UNL d   1      -1.200  -0.814  -0.005  0.00  0.00    -0.013 A 
ATOM      4  C   UNL d   1      -1.228   0.600   0.006  0.00  0.00    -0.024 A 
ATOM      5  C   UNL d   1       1.219   0.700  -0.020  0.00  0.00    -0.024 A 
ATOM      6  C   UNL d   1      -0.032   1.325   0.015  0.00  0.00     0.024 A 
ATOM      7  C   UNL d   1       2.613  -1.258  -0.155  0.00  0.00     0.013 A 
ATOM      8  C   UNL d   1      -2.459  -1.474   0.021  0.00  0.00     0.013 A 
ATOM      9  C   UNL d   1       2.382   1.491  -0.022  0.00  0.00     0.012 A 
ATOM     10  C   UNL d   1      -2.449   1.295   0.018  0.00  0.00     0.012 A 
ATOM     11  C   UNL d   1       3.762  -0.462  -0.168  0.00  0.00     0.001 A 
ATOM     12  C   UNL d   1      -3.668  -0.769   0.027  0.00  0.00     0.001 A 
ATOM     13  C   UNL d   1      -3.663   0.615   0.022  0.00  0.00     0.001 A 
ATOM     14  C   UNL d   1       3.647   0.915  -0.091  0.00  0.00     0.001 A 
ENDROOT
BRANCH   1  15
ATOM     15  C   UNL d   1       0.115  -2.950   0.006  0.00  0.00     0.120 C 
ATOM     16  N   UNL d   1       1.021  -3.593   0.668  0.00  0.00    -0.308 N 
ATOM     17  HN  UNL d   1       1.735  -3.096   1.200  1.00  0.00     0.186 HD
BRANCH  16  18
ATOM     18  N   UNL d   1       0.993  -4.955   0.635  0.00  0.00    -0.266 N 
ATOM     19  C   UNL d   1       2.060  -5.647   1.197  0.00  0.00     0.270 C 
ATOM     20  O   UNL d   1       3.070  -5.124   1.663  0.00  0.00    -0.266 OA
ATOM     21  H   UNL d   1       0.262  -5.427   0.119  0.00  0.00     0.190 HD
BRANCH  19  22
ATOM     22  C   UNL d   1       1.969  -7.135   1.196  0.00  0.00     0.033 A 
ATOM     23  C   UNL d   1       3.166  -7.868   1.214  0.00  0.00     0.018 A 
ATOM     24  C   UNL d   1       3.144  -9.264   1.274  0.00  0.00     0.020 A 
ATOM     25  C   UNL d   1       1.922  -9.929   1.324  0.00  0.00     0.011 A 
ATOM     26  C   UNL d   1       0.724  -9.213   1.312  0.00  0.00     0.020 A 
ATOM     27 BR   UNL d   1       1.886 -11.816   1.437  0.00  0.00    -0.051 Br
ATOM     28  C   UNL d   1       0.745  -7.814   1.251  0.00  0.00     0.018 A 
ENDBRANCH  19  22
ENDBRANCH  16  18
ENDBRANCH   1  15
TORSDOF 3
