REMARK  0 active torsions:
REMARK  status: ('A' for Active; 'I' for Inactive)
ROOT
ATOM      1  C   UNL d   1      -2.144  -0.353   0.004  0.00  0.00     0.297 A 
ATOM      2  C   UNL d   1       0.133   0.399  -0.000  0.00  0.00     0.047 A 
ATOM      3  N   UNL d   1      -1.272  -1.425  -0.016  0.00  0.00    -0.319 N 
ATOM      4  C   UNL d   1      -1.239   0.911   0.007  0.00  0.00     0.251 A 
ATOM      5  C   UNL d   1       0.050  -0.991  -0.019  0.00  0.00     0.049 A 
ATOM      6  C   UNL d   1       1.337   1.075   0.014  0.00  0.00     0.024 A 
ATOM      7  O   UNL d   1      -3.354  -0.374   0.021  0.00  0.00    -0.264 OA
ATOM      8  O   UNL d   1      -1.589   2.069   0.009  0.00  0.00    -0.281 OA
ATOM      9  C   UNL d   1       1.184  -1.772  -0.035  0.00  0.00     0.031 A 
ATOM     10  C   UNL d   1       2.506   0.302   0.007  0.00  0.00    -0.061 A 
ATOM     11  C   UNL d   1       2.420  -1.112  -0.023  0.00  0.00     0.009 A 
ATOM     12  C   UNL d   1       3.857   0.959   0.037  0.00  0.00     0.048 C 
ATOM     13  H   UNL d   1      -1.585  -2.384  -0.018  0.00  0.00     0.169 HD
ENDROOT
TORSDOF 0
