REMARK  7 active torsions:
REMARK  status: ('A' for Active; 'I' for Inactive)
REMARK    1  A    between atoms: O_9  and  C_3 
REMARK    2  A    between atoms: O_20  and  C_4 
REMARK    3  A    between atoms: S_14  and  C_5 
REMARK    4  A    between atoms: C_21  and  O_9 
REMARK    5  A    between atoms: C_10  and  C_13 
REMARK    6  A    between atoms: C_13  and  C_16 
REMARK    7  A    between atoms: C_16  and  S_14 
ROOT
ATOM      1  N   UNL d   1      -0.572   1.253   0.372  0.00  0.00    -0.315 N 
ATOM      2  HN  UNL d   1      -0.994   2.172   0.500  1.00  0.00     0.170 HD
ATOM      3  C   UNL d   1      -0.806  -1.125   0.048  0.00  0.00     0.149 A 
ATOM      4  C   UNL d   1      -1.318   0.141   0.279  0.00  0.00     0.178 A 
ATOM      5  C   UNL d   1       0.751   1.094   0.288  0.00  0.00     0.146 A 
ATOM      6  N   UNL d   1       1.365  -0.089   0.130  0.00  0.00    -0.338 N 
ATOM      7  HN  UNL d   1       2.382  -0.159   0.097  1.00  0.00     0.168 HD
ATOM      8  C   UNL d   1       0.580  -1.185   0.015  0.00  0.00     0.045 A 
ATOM      9  C   UNL d   1       1.302  -2.497  -0.084  0.00  0.00     0.071 C 
ENDROOT
BRANCH   5  10
ATOM     10  S   UNL d   1       1.750   2.542   0.516  0.00  0.00    -0.086 SA
BRANCH  10  11
ATOM     11  C   UNL d   1       3.397   1.801   0.350  0.00  0.00     0.166 C 
BRANCH  11  12
ATOM     12  C   UNL d   1       4.450   2.858   0.595  0.00  0.00     0.169 C 
ATOM     13  O   UNL d   1       4.939   3.493  -0.341  0.00  0.00    -0.291 OA
BRANCH  12  14
ATOM     14  C   UNL d   1       4.939   3.133   1.984  0.00  0.00     0.014 A 
ATOM     15  C   UNL d   1       4.444   2.469   3.115  0.00  0.00     0.060 A 
ATOM     16  C   UNL d   1       4.962   2.779   4.373  0.00  0.00     0.155 A 
ATOM     17  F   UNL d   1       4.487   2.129   5.447  0.00  0.00    -0.203 F 
ATOM     18  C   UNL d   1       5.951   3.741   4.524  0.00  0.00     0.154 A 
ATOM     19  C   UNL d   1       6.447   4.411   3.412  0.00  0.00     0.046 A 
ATOM     20  F   UNL d   1       6.438   4.027   5.738  0.00  0.00    -0.203 F 
ATOM     21  C   UNL d   1       5.941   4.108   2.147  0.00  0.00     0.018 A 
ENDBRANCH  12  14
ENDBRANCH  11  12
ENDBRANCH  10  11
ENDBRANCH   5  10
BRANCH   4  22
ATOM     22  O   UNL d   1      -2.642   0.386   0.501  0.00  0.00    -0.344 OA
ATOM     23  H   UNL d   1      -3.077  -0.452   0.717  0.00  0.00     0.219 HD
ENDBRANCH   4  22
BRANCH   3  24
ATOM     24  O   UNL d   1      -1.486  -2.309  -0.027  0.00  0.00    -0.304 OA
BRANCH  24  25
ATOM     25  C   UNL d   1      -2.716  -2.397  -0.633  0.00  0.00     0.076 A 
ATOM     26  C   UNL d   1      -3.140  -1.611  -1.708  0.00  0.00     0.040 A 
ATOM     27  C   UNL d   1      -4.453  -1.728  -2.172  0.00  0.00     0.045 A 
ATOM     28  C   UNL d   1      -5.309  -2.661  -1.596  0.00  0.00     0.116 A 
ATOM     29  C   UNL d   1      -4.872  -3.497  -0.577  0.00  0.00     0.045 A 
ATOM     30  F   UNL d   1      -6.573  -2.753  -2.028  0.00  0.00    -0.206 F 
ATOM     31  C   UNL d   1      -3.570  -3.368  -0.097  0.00  0.00     0.040 A 
ENDBRANCH  24  25
ENDBRANCH   3  24
TORSDOF 7
