REMARK  17 active torsions:
REMARK  status: ('A' for Active; 'I' for Inactive)
REMARK    1  A    between atoms: O_24  and  C_1 
REMARK    2  A    between atoms: O_23  and  C_2 
REMARK    3  A    between atoms: C_7  and  C_3 
REMARK    4  A    between atoms: C_8  and  C_4 
REMARK    5  A    between atoms: C_14  and  C_5 
REMARK    6  A    between atoms: C_13  and  C_6 
REMARK    7  A    between atoms: O_29  and  C_7 
REMARK    8  A    between atoms: O_28  and  C_8 
REMARK    9  A    between atoms: C_11  and  O_15 
REMARK   10  A    between atoms: O_16  and  C_12 
REMARK   11  A    between atoms: O_15  and  C_27 
REMARK   12  A    between atoms: C_26  and  O_16 
REMARK   13  A    between atoms: C_25  and  C_26 
REMARK   14  A    between atoms: C_27  and  C_25 
REMARK   15  A    between atoms: O_30  and  C_25 
REMARK   16  A    between atoms: C_34  and  O_28 
REMARK   17  A    between atoms: C_33  and  O_29 
ROOT
ATOM      1  C   UNL d   1       4.650   0.229   0.371  0.00  0.00     0.166 C 
ENDROOT
BRANCH   1   2
ATOM      2  C   UNL d   1       3.144   0.535   0.569  0.00  0.00     0.209 C 
BRANCH   2   3
ATOM      3  O   UNL d   1       2.913   1.316   1.742  0.00  0.00    -0.347 OA
BRANCH   3   4
ATOM      4  C   UNL d   1       1.644   1.617   2.187  0.00  0.00     0.085 A 
ATOM      5  C   UNL d   1       0.361   1.480   1.602  0.00  0.00     0.077 A 
ATOM      6  C   UNL d   1      -0.775   1.946   2.330  0.00  0.00     0.098 A 
ATOM      7  C   UNL d   1      -0.654   2.572   3.592  0.00  0.00     0.073 A 
ATOM      8  C   UNL d   1       0.612   2.685   4.159  0.00  0.00     0.023 A 
ATOM      9  C   UNL d   1       1.731   2.212   3.465  0.00  0.00     0.039 A 
BRANCH   5  10
ATOM     10  C   UNL d   1       0.089   0.813   0.280  0.00  0.00     0.161 C 
ATOM     11  O   UNL d   1       0.658  -0.234  -0.024  0.00  0.00    -0.293 OA
ATOM     12  C   UNL d   1      -0.943   1.372  -0.674  0.00  0.00     0.097 C 
ENDBRANCH   5  10
BRANCH   6  13
ATOM     13  O   UNL d   1      -2.029   1.733   1.797  0.00  0.00    -0.359 OA
ATOM     14  H   UNL d   1      -2.720   2.139   2.369  0.00  0.00     0.217 HD
ENDBRANCH   6  13
BRANCH   7  15
ATOM     15  C   UNL d   1      -1.862   3.096   4.293  0.00  0.00     0.296 C 
ATOM     16  O   UNL d   1      -2.980   3.017   3.797  0.00  0.00    -0.259 OA
BRANCH  15  17
ATOM     17  O   UNL d   1      -1.557   3.657   5.487  0.00  0.00    -0.318 OA
BRANCH  17  18
ATOM     18  C   UNL d   1      -2.649   4.244   6.215  0.00  0.00     0.174 C 
ATOM     19  C   UNL d   1      -3.376   3.192   7.035  0.00  0.00     0.034 C 
ENDBRANCH  17  18
ENDBRANCH  15  17
ENDBRANCH   7  15
ENDBRANCH   3   4
ENDBRANCH   2   3
ENDBRANCH   1   2
BRANCH   1  20
ATOM     20  C   UNL d   1       4.902  -0.697  -0.847  0.00  0.00     0.209 C 
BRANCH  20  21
ATOM     21  O   UNL d   1       4.191  -0.235  -2.009  0.00  0.00    -0.347 OA
BRANCH  21  22
ATOM     22  C   UNL d   1       4.771  -0.517  -3.220  0.00  0.00     0.085 A 
ATOM     23  C   UNL d   1       4.932  -1.791  -3.801  0.00  0.00     0.077 A 
ATOM     24  C   UNL d   1       5.492  -1.894  -5.106  0.00  0.00     0.098 A 
ATOM     25  C   UNL d   1       5.849  -0.759  -5.847  0.00  0.00     0.073 A 
ATOM     26  C   UNL d   1       5.673   0.503  -5.255  0.00  0.00     0.023 A 
ATOM     27  C   UNL d   1       5.134   0.615  -3.968  0.00  0.00     0.039 A 
BRANCH  23  28
ATOM     28  C   UNL d   1       4.562  -3.074  -3.138  0.00  0.00     0.161 C 
ATOM     29  O   UNL d   1       5.271  -4.069  -3.372  0.00  0.00    -0.293 OA
ATOM     30  C   UNL d   1       3.330  -3.227  -2.298  0.00  0.00     0.097 C 
ENDBRANCH  23  28
BRANCH  24  31
ATOM     31  O   UNL d   1       5.700  -3.130  -5.683  0.00  0.00    -0.359 OA
ATOM     32  H   UNL d   1       5.646  -3.825  -4.991  0.00  0.00     0.217 HD
ENDBRANCH  24  31
BRANCH  25  33
ATOM     33  C   UNL d   1       6.472  -0.786  -7.209  0.00  0.00     0.296 C 
ATOM     34  O   UNL d   1       7.154   0.134  -7.638  0.00  0.00    -0.259 OA
BRANCH  33  35
ATOM     35  O   UNL d   1       6.168  -1.916  -7.888  0.00  0.00    -0.318 OA
BRANCH  35  36
ATOM     36  C   UNL d   1       6.837  -2.129  -9.139  0.00  0.00     0.174 C 
ATOM     37  C   UNL d   1       8.227  -2.695  -8.904  0.00  0.00     0.034 C 
ENDBRANCH  35  36
ENDBRANCH  33  35
ENDBRANCH  25  33
ENDBRANCH  21  22
ENDBRANCH  20  21
ENDBRANCH   1  20
BRANCH   1  38
ATOM     38  O   UNL d   1       5.434   1.418   0.209  0.00  0.00    -0.391 OA
ATOM     39  H   UNL d   1       4.847   2.183   0.335  0.00  0.00     0.210 HD
ENDBRANCH   1  38
TORSDOF 17
