REMARK  4 active torsions:
REMARK  status: ('A' for Active; 'I' for Inactive)
REMARK    1  A    between atoms: N_2  and  S_1 
REMARK    2  A    between atoms: C_3  and  S_1 
REMARK    3  A    between atoms: C_8  and  N_2 
REMARK    4  A    between atoms: C_13  and  C_8 
ROOT
ATOM      1  S   UNL d   1       1.126  -0.007   0.098  0.00  0.00     0.241 S 
ATOM      2  O   UNL d   1       2.391   0.662  -0.113  0.00  0.00    -0.206 OA
ATOM      3  O   UNL d   1       0.991  -1.118   1.011  0.00  0.00    -0.206 OA
ENDROOT
BRANCH   1   4
ATOM      4  N   UNL d   1       0.518  -0.512  -1.390  0.00  0.00    -0.211 NA
ATOM      5  H   UNL d   1      -0.488  -0.673  -1.366  0.00  0.00     0.140 HD
BRANCH   4   6
ATOM      6  C   UNL d   1       0.954   0.259  -2.562  0.00  0.00     0.143 C 
BRANCH   6   7
ATOM      7  C   UNL d   1       0.366  -0.287  -3.842  0.00  0.00    -0.044 A 
ATOM      8  C   UNL d   1      -0.400   0.534  -4.683  0.00  0.00     0.008 A 
ATOM      9  C   UNL d   1      -0.905   0.039  -5.886  0.00  0.00     0.001 A 
ATOM     10  C   UNL d   1      -0.652  -1.278  -6.263  0.00  0.00     0.000 A 
ATOM     11  C   UNL d   1       0.105  -2.105  -5.436  0.00  0.00     0.001 A 
ATOM     12  C   UNL d   1       0.612  -1.612  -4.231  0.00  0.00     0.008 A 
ENDBRANCH   6   7
ENDBRANCH   4   6
ENDBRANCH   1   4
BRANCH   1  13
ATOM     13  C   UNL d   1      -0.062   1.224   0.608  0.00  0.00     0.074 A 
ATOM     14  C   UNL d   1      -1.136   0.840   1.421  0.00  0.00     0.026 A 
ATOM     15  C   UNL d   1      -2.012   1.811   1.913  0.00  0.00     0.025 A 
ATOM     16  C   UNL d   1      -1.807   3.154   1.597  0.00  0.00     0.034 A 
ATOM     17  C   UNL d   1      -0.736   3.537   0.787  0.00  0.00     0.025 A 
ATOM     18 CL   UNL d   1      -2.868   4.350   2.232  0.00  0.00    -0.084 Cl
ATOM     19  C   UNL d   1       0.146   2.571   0.295  0.00  0.00     0.026 A 
ENDBRANCH   1  13
TORSDOF 4
