REMARK  1 active torsions:
REMARK  status: ('A' for Active; 'I' for Inactive)
REMARK       I    between atoms: C_4  and  N_1 
REMARK       I    between atoms: N_7  and  C_4 
REMARK    1  A    between atoms: C_12  and  N_7 
ROOT
ATOM      1  N   UNL d   1      -0.546  -2.022  -0.392  0.00  0.00    -0.228 N 
ATOM      2  C   UNL d   1       0.824  -1.706  -0.531  0.00  0.00     0.301 A 
ATOM      3  C   UNL d   1       0.982  -0.168  -0.268  0.00  0.00     0.281 A 
ATOM      4  C   UNL d   1      -1.096  -3.302  -0.300  0.00  0.00     0.334 C 
ATOM      5  C   UNL d   1      -0.444   0.275  -0.130  0.00  0.00     0.041 A 
ATOM      6  C   UNL d   1      -1.287  -0.839  -0.155  0.00  0.00     0.059 A 
ATOM      7  N   UNL d   1      -0.260  -4.325  -0.721  0.00  0.00    -0.308 N 
ATOM      8  O   UNL d   1       1.655   0.512  -1.323  0.00  0.00    -0.342 OA
ATOM      9  O   UNL d   1       1.670   0.047   0.970  0.00  0.00    -0.342 OA
ATOM     10  O   UNL d   1       1.726  -2.493  -0.812  0.00  0.00    -0.266 OA
ATOM     11  O   UNL d   1      -2.217  -3.499   0.177  0.00  0.00    -0.246 OA
ATOM     12  C   UNL d   1      -0.953   1.556   0.043  0.00  0.00     0.015 A 
ATOM     13  C   UNL d   1      -2.658  -0.690   0.010  0.00  0.00     0.031 A 
ATOM     14  C   UNL d   1       2.797   1.119  -0.714  0.00  0.00     0.198 C 
ATOM     15  C   UNL d   1       3.001   0.353   0.566  0.00  0.00     0.198 C 
ATOM     16  C   UNL d   1      -2.333   1.710   0.198  0.00  0.00     0.001 A 
ATOM     17  C   UNL d   1      -3.179   0.593   0.190  0.00  0.00     0.002 A 
ATOM     18  H   UNL d   1       0.713  -4.074  -0.880  0.00  0.00     0.170 HD
ENDROOT
BRANCH   7  19
ATOM     19  C   UNL d   1      -0.565  -5.705  -0.658  0.00  0.00     0.036 A 
ATOM     20  C   UNL d   1      -1.865  -6.191  -0.515  0.00  0.00     0.030 A 
ATOM     21  C   UNL d   1      -2.100  -7.548  -0.292  0.00  0.00     0.009 A 
ATOM     22  C   UNL d   1      -1.036  -8.448  -0.231  0.00  0.00    -0.062 A 
ATOM     23  C   UNL d   1       0.261  -7.979  -0.468  0.00  0.00     0.009 A 
ATOM     24  C   UNL d   1      -1.295  -9.868   0.171  0.00  0.00     0.048 C 
ATOM     25  C   UNL d   1       0.494  -6.615  -0.697  0.00  0.00     0.030 A 
ENDBRANCH   7  19
TORSDOF 1
