REMARK  3 active torsions:
REMARK  status: ('A' for Active; 'I' for Inactive)
REMARK    1  A    between atoms: C_4  and  C_1 
REMARK       I    between atoms: N_8  and  C_4 
REMARK       I    between atoms: C_6  and  N_10 
REMARK       I    between atoms: N_11  and  C_6 
REMARK    2  A    between atoms: N_10  and  N_8 
REMARK    3  A    between atoms: C_14  and  N_11 
ROOT
ATOM      1  C   UNL d   1      -5.362   0.894   0.163  0.00  0.00     0.339 C 
ATOM      2  N   UNL d   1      -4.028   0.527   0.143  0.00  0.00    -0.248 N 
ATOM      3  N   UNL d   1      -5.570   2.082   0.835  0.00  0.00    -0.308 N 
ATOM      4  O   UNL d   1      -6.218   0.170  -0.335  0.00  0.00    -0.245 OA
ATOM      5  H   UNL d   1      -3.272   1.194   0.262  0.00  0.00     0.192 HD
ATOM      6  H   UNL d   1      -4.746   2.594   1.112  0.00  0.00     0.170 HD
ENDROOT
BRANCH   2   7
ATOM      7  N   UNL d   1      -3.696  -0.666  -0.523  0.00  0.00    -0.261 N 
ATOM      8  C   UNL d   1      -2.387  -1.104  -0.521  0.00  0.00     0.288 C 
ATOM      9  O   UNL d   1      -1.470  -0.419  -0.072  0.00  0.00    -0.264 OA
ATOM     10  H   UNL d   1      -4.464  -1.276  -0.811  0.00  0.00     0.190 HD
BRANCH   8  11
ATOM     11  C   UNL d   1      -2.179  -2.440  -1.077  0.00  0.00     0.126 A 
ATOM     12  N   UNL d   1      -3.173  -3.157  -1.630  0.00  0.00    -0.256 N 
ATOM     13  O   UNL d   1      -2.603  -4.358  -2.022  0.00  0.00    -0.242 OA
ATOM     14  HN  UNL d   1      -4.147  -2.875  -1.739  1.00  0.00     0.195 HD
ATOM     15  C   UNL d   1      -1.282  -4.364  -1.697  0.00  0.00     0.075 A 
ATOM     16  C   UNL d   1      -0.961  -3.167  -1.110  0.00  0.00     0.071 A 
ATOM     17  C   UNL d   1      -0.526  -5.587  -2.017  0.00  0.00     0.079 C 
ENDBRANCH   8  11
ENDBRANCH   2   7
BRANCH   3  18
ATOM     18  C   UNL d   1      -6.815   2.635   1.208  0.00  0.00     0.036 A 
ATOM     19  C   UNL d   1      -8.038   1.987   1.008  0.00  0.00     0.031 A 
ATOM     20  C   UNL d   1      -9.232   2.549   1.472  0.00  0.00     0.026 A 
ATOM     21  C   UNL d   1      -9.211   3.772   2.132  0.00  0.00     0.034 A 
ATOM     22  C   UNL d   1      -8.007   4.446   2.316  0.00  0.00     0.026 A 
ATOM     23 CL   UNL d   1     -10.675   4.443   2.735  0.00  0.00    -0.084 Cl
ATOM     24  C   UNL d   1      -6.812   3.878   1.856  0.00  0.00     0.031 A 
ENDBRANCH   3  18
TORSDOF 3
