REMARK  2 active torsions:
REMARK  status: ('A' for Active; 'I' for Inactive)
REMARK    1  A    between atoms: C_4  and  C_1 
REMARK       I    between atoms: N_7  and  C_1 
REMARK    2  A    between atoms: C_14  and  N_7 
ROOT
ATOM      1  N   UNL d   1      -2.093   3.051   3.537  0.00  0.00    -0.359 N 
ATOM      2  HN  UNL d   1      -1.895   3.980   3.908  1.00  0.00     0.166 HD
ATOM      3  C   UNL d   1       0.225   0.682   0.972  0.00  0.00     0.033 A 
ATOM      4  C   UNL d   1      -3.186   2.361   3.767  0.00  0.00     0.139 A 
ATOM      5  C   UNL d   1      -1.727   1.067   2.329  0.00  0.00     0.033 A 
ATOM      6  S   UNL d   1      -3.269   0.806   3.056  0.00  0.00    -0.083 SA
ATOM      7  C   UNL d   1      -1.001   0.219   1.475  0.00  0.00     0.038 A 
ATOM      8  C   UNL d   1      -1.250   2.323   2.715  0.00  0.00     0.049 A 
ATOM      9  C   UNL d   1       0.735   1.920   1.376  0.00  0.00     0.019 A 
ATOM     10  C   UNL d   1       0.010   2.742   2.246  0.00  0.00     0.032 A 
ENDROOT
BRANCH   3  11
ATOM     11  C   UNL d   1       1.019  -0.115  -0.010  0.00  0.00     0.256 C 
ATOM     12  N   UNL d   1       0.264  -0.858  -0.903  0.00  0.00    -0.323 N 
ATOM     13  H   UNL d   1      -0.740  -0.770  -0.852  0.00  0.00     0.169 HD
ATOM     14  O   UNL d   1       2.238  -0.015   0.020  0.00  0.00    -0.267 OA
BRANCH  12  15
ATOM     15  C   UNL d   1       0.739  -1.642  -1.977  0.00  0.00     0.035 A 
ATOM     16  C   UNL d   1       2.091  -1.820  -2.275  0.00  0.00     0.029 A 
ATOM     17  C   UNL d   1       2.479  -2.579  -3.384  0.00  0.00     0.002 A 
ATOM     18  C   UNL d   1       1.519  -3.173  -4.199  0.00  0.00     0.000 A 
ATOM     19  C   UNL d   1       0.168  -3.018  -3.901  0.00  0.00     0.002 A 
ATOM     20  C   UNL d   1      -0.219  -2.257  -2.794  0.00  0.00     0.029 A 
ENDBRANCH  12  15
ENDBRANCH   3  11
TORSDOF 2
