REMARK  3 active torsions:
REMARK  status: ('A' for Active; 'I' for Inactive)
REMARK    1  A    between atoms: C_2  and  C_1 
REMARK    2  A    between atoms: C_13  and  C_8 
REMARK    3  A    between atoms: C_15  and  C_16 
ROOT
ATOM      1  C   UNL d   1      -0.968  -2.916   0.106  0.00  0.00     0.201 A 
ATOM      2  N   UNL d   1      -0.900  -3.715   1.160  0.00  0.00    -0.317 N 
ATOM      3  HN  UNL d   1      -1.173  -3.505   2.120  1.00  0.00     0.169 HD
ATOM      4  C   UNL d   1      -0.380  -4.892   0.673  0.00  0.00     0.138 A 
ATOM      5  N   UNL d   1      -0.146  -4.860  -0.646  0.00  0.00    -0.242 N 
ATOM      6  HN  UNL d   1       0.234  -5.601  -1.235  1.00  0.00     0.196 HD
ATOM      7  O   UNL d   1      -0.542  -3.582  -1.025  0.00  0.00    -0.215 OA
ENDROOT
BRANCH   4   8
ATOM      8  C   UNL d   1      -0.131  -6.046   1.534  0.00  0.00     0.010 A 
ATOM      9  C   UNL d   1      -0.503  -6.022   2.883  0.00  0.00     0.016 A 
ATOM     10  C   UNL d   1      -0.295  -7.137   3.709  0.00  0.00     0.009 A 
ATOM     11  C   UNL d   1       0.301  -8.314   3.221  0.00  0.00    -0.051 A 
ATOM     12  C   UNL d   1       0.685  -8.318   1.870  0.00  0.00     0.009 A 
ATOM     13  C   UNL d   1       0.473  -7.206   1.040  0.00  0.00     0.016 A 
BRANCH  11  14
ATOM     14  C   UNL d   1       0.517  -9.525   4.151  0.00  0.00    -0.024 C 
ATOM     15  C   UNL d   1       1.195 -10.724   3.450  0.00  0.00     0.019 C 
ATOM     16  C   UNL d   1       1.418  -9.123   5.340  0.00  0.00     0.019 C 
ATOM     17  C   UNL d   1      -0.833 -10.028   4.703  0.00  0.00     0.019 C 
ENDBRANCH  11  14
ENDBRANCH   4   8
BRANCH   1  18
ATOM     18  C   UNL d   1      -1.399  -1.553   0.095  0.00  0.00     0.122 C 
ATOM     19  C   UNL d   1      -1.238  -0.759   1.161  0.00  0.00     0.048 C 
ATOM     20  C   UNL d   1      -1.854   0.538   0.790  0.00  0.00     0.313 C 
ATOM     21  C   UNL d   1      -0.600  -0.931   2.486  0.00  0.00     0.057 C 
ATOM     22  O   UNL d   1      -1.941   1.517   1.510  0.00  0.00    -0.258 OA
ATOM     23  O   UNL d   1      -2.328   0.429  -0.492  0.00  0.00    -0.192 OA
ATOM     24  N   UNL d   1      -1.955  -0.839  -0.950  0.00  0.00    -0.248 N 
ATOM     25  C   UNL d   1      -2.697  -1.293  -2.102  0.00  0.00     0.186 C 
ENDBRANCH   1  18
TORSDOF 3
