REMARK  4 active torsions:
REMARK  status: ('A' for Active; 'I' for Inactive)
REMARK    1  A    between atoms: C_2  and  C_1 
REMARK       I    between atoms: N_4  and  C_1 
REMARK    2  A    between atoms: C_6  and  C_3 
REMARK    3  A    between atoms: C_5  and  N_4 
REMARK       I    between atoms: N_11  and  C_6 
REMARK    4  A    between atoms: N_14  and  N_11 
ROOT
ATOM      1  C   UNL d   1      -1.903  -1.135  -0.083  0.00  0.00     0.060 A 
ATOM      2  C   UNL d   1      -1.116  -0.712   1.006  0.00  0.00     0.050 A 
ATOM      3  C   UNL d   1      -3.307  -1.125   0.015  0.00  0.00     0.019 A 
ATOM      4  C   UNL d   1      -1.764  -0.325   2.187  0.00  0.00     0.030 A 
ATOM      5  C   UNL d   1      -3.930  -0.734   1.200  0.00  0.00     0.001 A 
ATOM      6  C   UNL d   1      -3.158  -0.342   2.287  0.00  0.00     0.002 A 
ENDROOT
BRANCH   2   7
ATOM      7  N   UNL d   1       0.296  -0.629   0.890  0.00  0.00    -0.322 N 
ATOM      8  C   UNL d   1       1.183  -0.644   1.950  0.00  0.00     0.262 C 
ATOM      9  O   UNL d   1       0.883  -0.979   3.095  0.00  0.00    -0.267 OA
ATOM     10  H   UNL d   1       0.662  -0.612  -0.066  0.00  0.00     0.169 HD
BRANCH   8  11
ATOM     11  C   UNL d   1       2.579  -0.233   1.686  0.00  0.00     0.109 A 
ATOM     12  C   UNL d   1       2.896   0.719   0.717  0.00  0.00     0.135 A 
ATOM     13  F   UNL d   1       1.958   1.207  -0.107  0.00  0.00    -0.205 F 
ATOM     14  C   UNL d   1       4.194   1.223   0.598  0.00  0.00     0.043 A 
ATOM     15  C   UNL d   1       5.199   0.776   1.453  0.00  0.00     0.006 A 
ATOM     16  C   UNL d   1       4.904  -0.192   2.410  0.00  0.00     0.043 A 
ATOM     17  C   UNL d   1       3.604  -0.689   2.520  0.00  0.00     0.135 A 
ATOM     18  F   UNL d   1       3.380  -1.626   3.453  0.00  0.00    -0.205 F 
ENDBRANCH   8  11
ENDBRANCH   2   7
BRANCH   1  19
ATOM     19  C   UNL d   1      -1.256  -1.671  -1.314  0.00  0.00     0.268 C 
ATOM     20  O   UNL d   1      -0.180  -1.227  -1.710  0.00  0.00    -0.266 OA
ATOM     21  N   UNL d   1      -1.911  -2.739  -1.921  0.00  0.00    -0.290 N 
ATOM     22  H   UNL d   1      -2.740  -3.157  -1.502  0.00  0.00     0.183 HD
BRANCH  21  23
ATOM     23  N   UNL d   1      -1.349  -3.348  -3.061  0.00  0.00    -0.247 NA
ATOM     24  H   UNL d   1      -0.545  -2.769  -3.343  0.00  0.00     0.143 HD
ATOM     25  H   UNL d   1      -0.930  -4.237  -2.775  0.00  0.00     0.143 HD
ENDBRANCH  21  23
ENDBRANCH   1  19
TORSDOF 4
