REMARK  7 active torsions:
REMARK  status: ('A' for Active; 'I' for Inactive)
REMARK    1  A    between atoms: N_5  and  S_1 
REMARK    2  A    between atoms: C_14  and  S_1 
REMARK    3  A    between atoms: C_10  and  C_2 
REMARK    4  A    between atoms: C_4  and  C_3 
REMARK    5  A    between atoms: N_9  and  N_5 
REMARK    6  A    between atoms: C_8  and  N_9 
REMARK    7  A    between atoms: O_23  and  C_10 
ROOT
ATOM      1  C   UNL d   1      -0.117   1.104   6.544  0.00  0.00     0.087 A 
ATOM      2  C   UNL d   1       1.167   0.705   6.219  0.00  0.00     0.150 A 
ATOM      3  N   UNL d   1       1.475   0.311   4.946  0.00  0.00    -0.184 N 
ATOM      4  HN  UNL d   1       2.406  -0.043   4.726  1.00  0.00     0.184 HD
ATOM      5  C   UNL d   1       0.541   0.396   3.993  0.00  0.00     0.697 A 
ATOM      6  N   UNL d   1      -0.714   0.809   4.224  0.00  0.00    -0.199 N 
ATOM      7  HN  UNL d   1      -1.406   0.864   3.477  1.00  0.00     0.183 HD
ATOM      8  C   UNL d   1      -1.015   1.148   5.498  0.00  0.00     0.126 A 
ENDROOT
BRANCH   5   9
ATOM      9  N   UNL d   1       0.938   0.054   2.710  0.00  0.00    -0.122 N 
ATOM     10  H   UNL d   1       1.917  -0.209   2.635  0.00  0.00     0.206 HD
BRANCH   9  11
ATOM     11  N   UNL d   1       0.208   0.338   1.488  0.00  0.00    -0.208 N 
ATOM     12  H   UNL d   1      -0.712   0.786   1.511  0.00  0.00     0.201 HD
BRANCH  11  13
ATOM     13  S   UNL d   1       0.850  -0.107  -0.003  0.00  0.00     0.276 S 
ATOM     14  O   UNL d   1       2.276   0.145   0.040  0.00  0.00    -0.199 OA
ATOM     15  O   UNL d   1      -0.005   0.424  -1.040  0.00  0.00    -0.199 OA
BRANCH  13  16
ATOM     16  C   UNL d   1       0.601  -1.866   0.060  0.00  0.00     0.081 A 
ATOM     17  C   UNL d   1      -0.708  -2.360   0.086  0.00  0.00     0.027 A 
ATOM     18  C   UNL d   1      -0.920  -3.732   0.222  0.00  0.00     0.025 A 
ATOM     19  C   UNL d   1       0.172  -4.596   0.319  0.00  0.00     0.034 A 
ATOM     20  C   UNL d   1       1.478  -4.103   0.272  0.00  0.00     0.025 A 
ATOM     21 CL   UNL d   1      -0.094  -6.284   0.513  0.00  0.00    -0.084 Cl
ATOM     22  C   UNL d   1       1.698  -2.729   0.140  0.00  0.00     0.027 A 
ENDBRANCH  13  16
ENDBRANCH  11  13
ENDBRANCH   9  11
ENDBRANCH   5   9
BRANCH   2  23
ATOM     23  C   UNL d   1       2.317   0.718   7.202  0.00  0.00     0.434 C 
ATOM     24  F   UNL d   1       2.158   1.541   8.275  0.00  0.00    -0.165 F 
ATOM     25  F   UNL d   1       2.595  -0.518   7.703  0.00  0.00    -0.165 F 
ATOM     26  F   UNL d   1       3.478   1.146   6.619  0.00  0.00    -0.165 F 
ENDBRANCH   2  23
BRANCH   1  27
ATOM     27  C   UNL d   1      -0.584   1.548   7.857  0.00  0.00     0.296 C 
ATOM     28  O   UNL d   1      -1.350   2.486   7.995  0.00  0.00    -0.259 OA
BRANCH  27  29
ATOM     29  O   UNL d   1      -0.113   0.739   8.829  0.00  0.00    -0.322 OA
ATOM     30  C   UNL d   1      -0.448   1.178  10.149  0.00  0.00     0.213 C 
ENDBRANCH  27  29
ENDBRANCH   1  27
TORSDOF 7
