REMARK  3 active torsions:
REMARK  status: ('A' for Active; 'I' for Inactive)
REMARK    1  A    between atoms: C_7  and  C_1 
REMARK    2  A    between atoms: O_15  and  C_7 
REMARK    3  A    between atoms: C_17  and  O_15 
ROOT
ATOM      1  C   UNL d   1       2.477  -0.689   0.006  0.00  0.00     0.115 A 
ATOM      2  C   UNL d   1       2.477   0.791  -0.003  0.00  0.00     0.304 A 
ATOM      3  O   UNL d   1       1.226   1.409   0.015  0.00  0.00    -0.273 OA
ATOM      4  C   UNL d   1       1.320  -1.377   0.004  0.00  0.00     0.038 A 
ATOM      5  C   UNL d   1       0.034  -0.696   0.006  0.00  0.00     0.002 A 
ATOM      6  C   UNL d   1       0.010   0.696   0.009  0.00  0.00     0.107 A 
ATOM      7  C   UNL d   1      -1.198   1.398   0.005  0.00  0.00     0.047 A 
ATOM      8  C   UNL d   1      -2.405   0.698   0.002  0.00  0.00     0.041 A 
ATOM      9  C   UNL d   1      -1.175  -1.398   0.003  0.00  0.00     0.033 A 
ATOM     10  O   UNL d   1       3.494   1.471  -0.048  0.00  0.00    -0.259 OA
ATOM     11  C   UNL d   1      -2.385  -0.697   0.002  0.00  0.00     0.013 A 
ATOM     12 BR   UNL d   1      -1.245   3.291   0.001  0.00  0.00    -0.048 Br
ATOM     13 BR   UNL d   1      -4.018  -1.651   0.001  0.00  0.00    -0.051 Br
ENDROOT
BRANCH   1  14
ATOM     14  C   UNL d   1       3.715  -1.505  -0.006  0.00  0.00     0.299 C 
ATOM     15  O   UNL d   1       3.731  -2.691  -0.316  0.00  0.00    -0.259 OA
BRANCH  14  16
ATOM     16  O   UNL d   1       4.795  -0.800   0.401  0.00  0.00    -0.318 OA
BRANCH  16  17
ATOM     17  C   UNL d   1       6.046  -1.507   0.428  0.00  0.00     0.174 C 
ATOM     18  C   UNL d   1       6.671  -1.545  -0.956  0.00  0.00     0.034 C 
ENDBRANCH  16  17
ENDBRANCH  14  16
ENDBRANCH   1  14
TORSDOF 3
