REMARK  4 active torsions:
REMARK  status: ('A' for Active; 'I' for Inactive)
REMARK    1  A    between atoms: S_12  and  C_2 
REMARK    2  A    between atoms: C_7  and  C_10 
REMARK    3  A    between atoms: C_18  and  S_12 
REMARK    4  A    between atoms: C_19  and  C_18 
ROOT
ATOM      1  N   UNL d   1       1.523   1.150  -0.067  0.00  0.00    -0.316 N 
ATOM      2  C   UNL d   1       2.341   0.053  -0.149  0.00  0.00     0.148 A 
ATOM      3  C   UNL d   1       0.231   0.687  -0.040  0.00  0.00     0.136 A 
ATOM      4  N   UNL d   1       1.661  -1.075  -0.160  0.00  0.00    -0.334 N 
ATOM      5  HN  UNL d   1       2.032  -2.024  -0.211  1.00  0.00     0.168 HD
ATOM      6  C   UNL d   1       0.346  -0.696  -0.088  0.00  0.00     0.079 A 
ATOM      7  N   UNL d   1      -0.899   1.417   0.018  0.00  0.00    -0.349 N 
ATOM      8  HN  UNL d   1      -0.915   2.437   0.049  1.00  0.00     0.166 HD
ATOM      9  C   UNL d   1      -2.048  -0.750  -0.003  0.00  0.00     0.065 A 
ATOM     10  C   UNL d   1      -0.832  -1.450  -0.062  0.00  0.00     0.051 A 
ATOM     11  C   UNL d   1      -2.015   0.645   0.031  0.00  0.00     0.106 A 
ATOM     12  C   UNL d   1       1.861   2.550  -0.029  0.00  0.00     0.160 C 
ENDROOT
BRANCH   2  13
ATOM     13  S   UNL d   1       4.070   0.161  -0.224  0.00  0.00    -0.089 SA
BRANCH  13  14
ATOM     14  C   UNL d   1       4.474  -1.463  -0.935  0.00  0.00     0.121 C 
BRANCH  14  15
ATOM     15  C   UNL d   1       5.963  -1.646  -1.113  0.00  0.00    -0.049 A 
ATOM     16  C   UNL d   1       6.715  -2.340  -0.153  0.00  0.00     0.008 A 
ATOM     17  C   UNL d   1       8.089  -2.521  -0.321  0.00  0.00     0.001 A 
ATOM     18  C   UNL d   1       8.729  -2.005  -1.446  0.00  0.00     0.000 A 
ATOM     19  C   UNL d   1       7.996  -1.303  -2.402  0.00  0.00     0.001 A 
ATOM     20  C   UNL d   1       6.622  -1.123  -2.237  0.00  0.00     0.008 A 
ENDBRANCH  14  15
ENDBRANCH  13  14
ENDBRANCH   2  13
BRANCH   9  21
ATOM     21  C   UNL d   1      -3.371  -1.449   0.016  0.00  0.00     0.418 C 
ATOM     22  F   UNL d   1      -3.272  -2.807   0.011  0.00  0.00    -0.166 F 
ATOM     23  F   UNL d   1      -4.111  -1.134   1.115  0.00  0.00    -0.166 F 
ATOM     24  F   UNL d   1      -4.144  -1.127  -1.057  0.00  0.00    -0.166 F 
ENDBRANCH   9  21
TORSDOF 4
