REMARK  6 active torsions:
REMARK  status: ('A' for Active; 'I' for Inactive)
REMARK    1  A    between atoms: C_12  and  C_3 
REMARK    2  A    between atoms: C_14  and  C_6 
REMARK    3  A    between atoms: C_7  and  O_9 
REMARK    4  A    between atoms: O_9  and  C_12 
REMARK    5  A    between atoms: S_13  and  C_14 
REMARK    6  A    between atoms: C_15  and  S_13 
ROOT
ATOM      1  N   UNL d   1       1.262   0.079  -0.053  0.00  0.00    -0.324 N 
ATOM      2  HN  UNL d   1       2.279   0.139   0.008  1.00  0.00     0.169 HD
ATOM      3  C   UNL d   1       0.339   1.101  -0.112  0.00  0.00     0.128 A 
ATOM      4  N   UNL d   1      -0.937   0.696  -0.164  0.00  0.00    -0.245 N 
ATOM      5  HN  UNL d   1      -1.781   1.267  -0.196  1.00  0.00     0.196 HD
ATOM      6  C   UNL d   1       0.500  -0.995  -0.096  0.00  0.00     0.158 A 
ATOM      7  O   UNL d   1      -0.831  -0.697  -0.165  0.00  0.00    -0.222 OA
ENDROOT
BRANCH   3   8
ATOM      8  C   UNL d   1       0.735   2.540  -0.026  0.00  0.00     0.254 C 
BRANCH   8   9
ATOM      9  O   UNL d   1       1.203   3.034  -1.289  0.00  0.00    -0.340 OA
BRANCH   9  10
ATOM     10  C   UNL d   1       1.293   4.396  -1.451  0.00  0.00     0.112 A 
ATOM     11  C   UNL d   1       1.928   5.294  -0.575  0.00  0.00     0.069 A 
ATOM     12 CL   UNL d   1       2.653   4.845   0.927  0.00  0.00    -0.081 Cl
ATOM     13  C   UNL d   1       2.073   6.647  -0.923  0.00  0.00     0.027 A 
ATOM     14  C   UNL d   1       1.611   7.126  -2.146  0.00  0.00     0.003 A 
ATOM     15  C   UNL d   1       0.982   6.251  -3.025  0.00  0.00     0.027 A 
ATOM     16  C   UNL d   1       0.827   4.902  -2.682  0.00  0.00     0.069 A 
ATOM     17 CL   UNL d   1       0.038   3.878  -3.835  0.00  0.00    -0.081 Cl
ENDBRANCH   9  10
ENDBRANCH   8   9
ENDBRANCH   3   8
BRANCH   6  18
ATOM     18  C   UNL d   1       0.930  -2.425  -0.074  0.00  0.00     0.166 C 
BRANCH  18  19
ATOM     19  S   UNL d   1      -0.438  -3.632  -0.115  0.00  0.00    -0.122 SA
BRANCH  19  20
ATOM     20  C   UNL d   1       0.400  -5.196   0.084  0.00  0.00     0.001 A 
ATOM     21  C   UNL d   1      -0.278  -6.204   0.783  0.00  0.00     0.020 A 
ATOM     22  C   UNL d   1       0.276  -7.482   0.922  0.00  0.00     0.025 A 
ATOM     23  C   UNL d   1       1.514  -7.760   0.353  0.00  0.00     0.034 A 
ATOM     24  C   UNL d   1       2.202  -6.772  -0.345  0.00  0.00     0.025 A 
ATOM     25 CL   UNL d   1       2.186  -9.337   0.495  0.00  0.00    -0.084 Cl
ATOM     26  C   UNL d   1       1.646  -5.493  -0.485  0.00  0.00     0.020 A 
ENDBRANCH  19  20
ENDBRANCH  18  19
ENDBRANCH   6  18
TORSDOF 6
