REMARK  5 active torsions:
REMARK  status: ('A' for Active; 'I' for Inactive)
REMARK    1  A    between atoms: C_5  and  C_6 
REMARK    2  A    between atoms: C_6  and  C_10 
REMARK    3  A    between atoms: C_11  and  C_6 
REMARK    4  A    between atoms: C_10  and  C_8 
REMARK    5  A    between atoms: C_9  and  C_11 
ROOT
ATOM      1  N   UNL d   1       7.008  -2.624   2.868  0.00  0.00    -0.197 NA
ATOM      2  C   UNL d   1       6.584  -1.857   2.109  0.00  0.00     0.059 C 
ATOM      3  C   UNL d   1       6.051  -0.889   1.145  0.00  0.00     0.125 C 
ENDROOT
BRANCH   3   4
ATOM      4  C   UNL d   1       6.458  -1.255  -0.293  0.00  0.00     0.031 C 
BRANCH   4   5
ATOM      5  C   UNL d   1       5.963  -0.252  -1.378  0.00  0.00     0.018 C 
ATOM      6  C   UNL d   1       6.458  -0.720  -2.761  0.00  0.00     0.023 C 
BRANCH   5   7
ATOM      7  C   UNL d   1       6.555   1.135  -1.050  0.00  0.00     0.131 C 
ATOM      8  O   UNL d   1       5.838   2.049  -0.636  0.00  0.00    -0.298 OA
ATOM      9  C   UNL d   1       8.043   1.362  -1.182  0.00  0.00     0.091 C 
ENDBRANCH   5   7
BRANCH   5  10
ATOM     10  C   UNL d   1       4.399  -0.215  -1.363  0.00  0.00     0.031 C 
BRANCH  10  11
ATOM     11  C   UNL d   1       3.727   0.696  -2.401  0.00  0.00     0.125 C 
ATOM     12  C   UNL d   1       2.257   0.640  -2.284  0.00  0.00     0.059 C 
ATOM     13  N   UNL d   1       1.103   0.588  -2.203  0.00  0.00    -0.197 NA
ENDBRANCH  10  11
ENDBRANCH   5  10
ENDBRANCH   4   5
ENDBRANCH   3   4
TORSDOF 5
