REMARK  2 active torsions:
REMARK  status: ('A' for Active; 'I' for Inactive)
REMARK    1  A    between atoms: C_4  and  C_1 
REMARK    2  A    between atoms: C_5  and  C_2 
REMARK       I    between atoms: N_10  and  C_4 
REMARK       I    between atoms: N_9  and  C_5 
ROOT
ATOM      1  C   UNL d   1       0.216   1.219  -0.015  0.00  0.00     0.071 A 
ATOM      2  C   UNL d   1       0.201  -1.213  -0.002  0.00  0.00     0.071 A 
ATOM      3  C   UNL d   1       0.899  -0.002  -0.012  0.00  0.00     0.147 A 
ATOM      4  F   UNL d   1       2.244  -0.010  -0.019  0.00  0.00    -0.204 F 
ATOM      5  C   UNL d   1      -1.187   1.220  -0.006  0.00  0.00     0.020 A 
ATOM      6  C   UNL d   1      -1.202  -1.195   0.003  0.00  0.00     0.020 A 
ATOM      7  C   UNL d   1      -1.894   0.016   0.002  0.00  0.00     0.002 A 
ENDROOT
BRANCH   1   8
ATOM      8  C   UNL d   1       0.921   2.527  -0.027  0.00  0.00     0.252 C 
ATOM      9  O   UNL d   1       0.300   3.585  -0.026  0.00  0.00    -0.268 OA
ATOM     10  N   UNL d   1       2.287   2.531  -0.040  0.00  0.00    -0.366 N 
ATOM     11  H   UNL d   1       2.846   1.688  -0.042  0.00  0.00     0.159 HD
ATOM     12  H   UNL d   1       2.760   3.425  -0.050  0.00  0.00     0.159 HD
ENDBRANCH   1   8
BRANCH   2  13
ATOM     13  C   UNL d   1       0.888  -2.532   0.006  0.00  0.00     0.252 C 
ATOM     14  O   UNL d   1       0.254  -3.579   0.011  0.00  0.00    -0.268 OA
ATOM     15  N   UNL d   1       2.254  -2.553   0.009  0.00  0.00    -0.366 N 
ATOM     16  H   UNL d   1       2.826  -1.718   0.006  0.00  0.00     0.159 HD
ATOM     17  H   UNL d   1       2.714  -3.454   0.018  0.00  0.00     0.159 HD
ENDBRANCH   2  13
TORSDOF 2
