REMARK  2 active torsions:
REMARK  status: ('A' for Active; 'I' for Inactive)
REMARK    1  A    between atoms: C_4  and  C_3 
REMARK    2  A    between atoms: O_10  and  C_4 
ROOT
ATOM      1  N   UNL d   1       2.458  -0.583   0.013  0.00  0.00    -0.360 N 
ATOM      2  HN  UNL d   1       3.358  -1.064   0.017  1.00  0.00     0.165 HD
ATOM      3  C   UNL d   1       2.373   0.773   0.015  0.00  0.00     0.108 A 
ATOM      4  C   UNL d   1       1.164   1.463   0.008  0.00  0.00     0.048 A 
ATOM      5  C   UNL d   1      -0.032   0.738   0.001  0.00  0.00    -0.022 A 
ATOM      6  C   UNL d   1       1.288  -1.264   0.007  0.00  0.00     0.100 A 
ATOM      7  C   UNL d   1       0.021  -0.670   0.001  0.00  0.00    -0.011 A 
ATOM      8  C   UNL d   1      -1.281   1.380  -0.006  0.00  0.00     0.012 A 
ATOM      9  C   UNL d   1      -1.176  -1.409  -0.003  0.00  0.00     0.013 A 
ATOM     10  C   UNL d   1      -2.462   0.636  -0.011  0.00  0.00     0.001 A 
ATOM     11  C   UNL d   1      -2.410  -0.755  -0.008  0.00  0.00     0.001 A 
ENDROOT
BRANCH   3  12
ATOM     12  C   UNL d   1       3.635   1.572   0.027  0.00  0.00     0.309 C 
ATOM     13  O   UNL d   1       3.651   2.797   0.031  0.00  0.00    -0.258 OA
BRANCH  12  14
ATOM     14  O   UNL d   1       4.733   0.773   0.036  0.00  0.00    -0.321 OA
ATOM     15  C   UNL d   1       5.966   1.493   0.053  0.00  0.00     0.213 C 
ENDBRANCH  12  14
ENDBRANCH   3  12
TORSDOF 2
