REMARK  2 active torsions:
REMARK  status: ('A' for Active; 'I' for Inactive)
REMARK    1  A    between atoms: C_3  and  C_1 
REMARK       I    between atoms: N_5  and  C_3 
REMARK    2  A    between atoms: C_8  and  C_4 
ROOT
ATOM      1  C   UNL d   1       0.193   1.255  -0.084  0.00  0.00     0.073 A 
ATOM      2  S   UNL d   1      -1.004   0.024  -0.017  0.00  0.00    -0.083 SA
ATOM      3  C   UNL d   1       0.154  -1.239   0.007  0.00  0.00     0.032 A 
ATOM      4  C   UNL d   1       1.457   0.700  -0.141  0.00  0.00     0.026 A 
ATOM      5  C   UNL d   1       1.436  -0.721  -0.021  0.00  0.00     0.023 A 
ENDROOT
BRANCH   1   6
ATOM      6  C   UNL d   1      -0.257   2.644  -0.137  0.00  0.00     0.260 C 
ATOM      7  N   UNL d   1       0.493   3.635   0.506  0.00  0.00    -0.344 N 
ATOM      8  C   UNL d   1       1.656   3.449   1.383  0.00  0.00     0.152 C 
ATOM      9  C   UNL d   1       0.094   5.039   0.353  0.00  0.00     0.152 C 
ATOM     10  C   UNL d   1       1.502   4.230   2.695  0.00  0.00     0.187 C 
ATOM     11  O   UNL d   1       1.183   5.606   2.459  0.00  0.00    -0.388 OA
ATOM     12  C   UNL d   1      -0.043   5.716   1.718  0.00  0.00     0.187 C 
ATOM     13  O   UNL d   1      -1.292   2.956  -0.729  0.00  0.00    -0.267 OA
ENDBRANCH   1   6
BRANCH   3  14
ATOM     14  C   UNL d   1      -0.254  -2.649   0.072  0.00  0.00     0.049 A 
ATOM     15  N   UNL d   1       0.621  -3.450   0.732  0.00  0.00    -0.365 N 
ATOM     16  C   UNL d   1       0.312  -4.762   0.821  0.00  0.00     0.088 A 
ATOM     17  HN  UNL d   1       1.476  -3.076   1.143  1.00  0.00     0.165 HD
ATOM     18  C   UNL d   1      -0.824  -5.328   0.268  0.00  0.00     0.017 A 
ATOM     19  C   UNL d   1      -1.700  -4.498  -0.420  0.00  0.00     0.004 A 
ATOM     20  C   UNL d   1      -1.415  -3.139  -0.521  0.00  0.00     0.031 A 
ENDBRANCH   3  14
TORSDOF 2
