REMARK  5 active torsions:
REMARK  status: ('A' for Active; 'I' for Inactive)
REMARK    1  A    between atoms: O_4  and  S_1 
REMARK    2  A    between atoms: C_8  and  S_1 
REMARK    3  A    between atoms: C_5  and  C_2 
REMARK    4  A    between atoms: C_3  and  O_4 
REMARK    5  A    between atoms: O_15  and  C_5 
ROOT
ATOM      1  S   UNL d   1       0.696  -0.332  -0.086  0.00  0.00     0.303 S 
ATOM      2  O   UNL d   1      -0.433  -1.181   0.257  0.00  0.00    -0.193 OA
ATOM      3  O   UNL d   1       2.038  -0.873  -0.169  0.00  0.00    -0.193 OA
ENDROOT
BRANCH   1   4
ATOM      4  O   UNL d   1       0.712   0.939   0.942  0.00  0.00    -0.228 OA
BRANCH   4   5
ATOM      5  C   UNL d   1       0.969   0.784   2.269  0.00  0.00     0.113 A 
ATOM      6  C   UNL d   1       0.997   1.861   3.142  0.00  0.00     0.114 A 
ATOM      7  S   UNL d   1       1.356   1.339   4.747  0.00  0.00    -0.093 SA
ATOM      8  C   UNL d   1       1.450  -0.294   4.283  0.00  0.00     0.053 A 
ATOM      9  C   UNL d   1       1.224  -0.456   2.938  0.00  0.00     0.047 A 
BRANCH   6  10
ATOM     10  C   UNL d   1       0.782   3.285   2.942  0.00  0.00     0.302 C 
ATOM     11  O   UNL d   1       0.786   4.142   3.818  0.00  0.00    -0.259 OA
BRANCH  10  12
ATOM     12  O   UNL d   1       0.558   3.562   1.623  0.00  0.00    -0.322 OA
ATOM     13  C   UNL d   1       0.318   4.944   1.345  0.00  0.00     0.213 C 
ENDBRANCH  10  12
ENDBRANCH   6  10
ENDBRANCH   4   5
ENDBRANCH   1   4
BRANCH   1  14
ATOM     14  C   UNL d   1       0.335   0.319  -1.698  0.00  0.00     0.086 A 
ATOM     15  C   UNL d   1       0.132   1.681  -1.918  0.00  0.00     0.026 A 
ATOM     16  C   UNL d   1      -0.153   2.121  -3.216  0.00  0.00     0.008 A 
ATOM     17  C   UNL d   1      -0.236   1.211  -4.282  0.00  0.00    -0.062 A 
ATOM     18  C   UNL d   1      -0.027  -0.151  -4.040  0.00  0.00     0.008 A 
ATOM     19  C   UNL d   1      -0.545   1.697  -5.668  0.00  0.00     0.048 C 
ATOM     20  C   UNL d   1       0.258  -0.599  -2.752  0.00  0.00     0.026 A 
ENDBRANCH   1  14
TORSDOF 5
