REMARK  5 active torsions:
REMARK  status: ('A' for Active; 'I' for Inactive)
REMARK    1  A    between atoms: C_4  and  N_1 
REMARK    2  A    between atoms: C_2  and  N_3 
REMARK    3  A    between atoms: N_9  and  C_2 
REMARK    4  A    between atoms: N_5  and  C_6 
REMARK    5  A    between atoms: C_18  and  N_9 
ROOT
ATOM      1  N   UNL d   1      -3.775  -7.083   0.142  0.00  0.00    -0.357 N 
ATOM      2  N   UNL d   1      -1.901  -4.804   0.389  0.00  0.00    -0.268 NA
ATOM      3  C   UNL d   1      -2.777  -6.748  -0.892  0.00  0.00     0.140 C 
ATOM      4  C   UNL d   1      -1.522  -6.026  -0.351  0.00  0.00     0.116 C 
ATOM      5  C   UNL d   1      -3.847  -5.170   1.844  0.00  0.00     0.035 C 
ATOM      6  C   UNL d   1      -4.518  -5.963   0.727  0.00  0.00     0.126 C 
ATOM      7  C   UNL d   1      -2.332  -5.060   1.770  0.00  0.00     0.098 C 
ENDROOT
BRANCH   1   8
ATOM      8  C   UNL d   1      -3.890  -8.373   0.608  0.00  0.00     0.174 C 
ATOM      9  S   UNL d   1      -3.829  -8.796   2.229  0.00  0.00    -0.041 SA
BRANCH   8  10
ATOM     10  N   UNL d   1      -3.986  -9.387  -0.309  0.00  0.00    -0.333 N 
ATOM     11  H   UNL d   1      -3.753 -10.290   0.093  0.00  0.00     0.168 HD
BRANCH  10  12
ATOM     12  C   UNL d   1      -4.928  -9.483  -1.374  0.00  0.00     0.037 A 
ATOM     13  C   UNL d   1      -5.110 -10.754  -1.942  0.00  0.00     0.069 A 
ATOM     14  C   UNL d   1      -6.147 -10.933  -2.837  0.00  0.00     0.107 A 
ATOM     15  O   UNL d   1      -6.503 -12.111  -3.419  0.00  0.00    -0.323 OA
ATOM     16  C   UNL d   1      -6.975  -9.901  -3.203  0.00  0.00     0.105 A 
ATOM     17  C   UNL d   1      -7.694 -11.713  -4.131  0.00  0.00     0.352 A 
ATOM     18  O   UNL d   1      -7.960 -10.297  -4.051  0.00  0.00    -0.323 OA
ATOM     19  C   UNL d   1      -6.795  -8.629  -2.712  0.00  0.00     0.042 A 
ATOM     20  C   UNL d   1      -5.761  -8.424  -1.787  0.00  0.00     0.032 A 
ENDBRANCH  10  12
ENDBRANCH   8  10
ENDBRANCH   1   8
BRANCH   2  21
ATOM     21  C   UNL d   1      -1.031  -3.720   0.251  0.00  0.00     0.082 A 
ATOM     22  C   UNL d   1      -1.528  -2.431   0.484  0.00  0.00     0.045 A 
ATOM     23  C   UNL d   1      -0.727  -1.315   0.246  0.00  0.00     0.041 A 
ATOM     24  C   UNL d   1       0.572  -1.519  -0.210  0.00  0.00     0.118 A 
ATOM     25  C   UNL d   1       1.016  -2.816  -0.392  0.00  0.00     0.125 A 
ATOM     26  N   UNL d   1       0.237  -3.907  -0.178  0.00  0.00    -0.354 N 
ATOM     27  HN  UNL d   1       0.600  -4.847  -0.337  1.00  0.00     0.166 HD
BRANCH  24  28
ATOM     28  N   UNL d   1       1.441  -0.395  -0.523  0.00  0.00    -0.114 N 
ATOM     29  O   UNL d   1       2.592  -0.649  -0.910  0.00  0.00    -0.532 OA
ATOM     30  O   UNL d   1       0.981   0.745  -0.388  0.00  0.00    -0.532 OA
ENDBRANCH  24  28
ENDBRANCH   2  21
TORSDOF 5
