REMARK  4 active torsions:
REMARK  status: ('A' for Active; 'I' for Inactive)
REMARK    1  A    between atoms: N_6  and  N_1 
REMARK    2  A    between atoms: C_9  and  C_4 
REMARK    3  A    between atoms: C_5  and  N_6 
REMARK    4  A    between atoms: O_16  and  C_9 
ROOT
ATOM      1  N   UNL d   1       1.863   0.113  -0.144  0.00  0.00    -0.181 N 
ATOM      2  C   UNL d   1       1.062   1.038  -0.770  0.00  0.00     0.280 C 
ATOM      3  C   UNL d   1       1.159  -0.927   0.408  0.00  0.00     0.280 C 
ATOM      4  C   UNL d   1      -0.252  -0.547   0.272  0.00  0.00     0.050 A 
ATOM      5  C   UNL d   1      -0.304   0.651  -0.425  0.00  0.00     0.050 A 
ATOM      6  O   UNL d   1       1.325   1.980  -1.493  0.00  0.00    -0.265 OA
ATOM      7  O   UNL d   1       1.544  -1.984   0.872  0.00  0.00    -0.265 OA
ATOM      8  C   UNL d   1      -1.400  -1.178   0.709  0.00  0.00     0.018 A 
ATOM      9  C   UNL d   1      -1.495   1.295  -0.702  0.00  0.00     0.018 A 
ATOM     10  C   UNL d   1      -2.621  -0.545   0.440  0.00  0.00     0.001 A 
ATOM     11  C   UNL d   1      -2.667   0.682  -0.255  0.00  0.00     0.001 A 
ENDROOT
BRANCH   1  12
ATOM     12  N   UNL d   1       3.250   0.084  -0.276  0.00  0.00    -0.287 N 
ATOM     13  H   UNL d   1       3.586  -0.715  -0.818  0.00  0.00     0.188 HD
BRANCH  12  14
ATOM     14  C   UNL d   1       4.053   1.165  -0.074  0.00  0.00     0.072 A 
ATOM     15  C   UNL d   1       5.341   1.289  -0.575  0.00  0.00     0.108 A 
ATOM     16  S   UNL d   1       6.013   2.824  -0.173  0.00  0.00    -0.094 SA
ATOM     17  C   UNL d   1       4.615   3.303   0.674  0.00  0.00     0.053 A 
ATOM     18  C   UNL d   1       3.659   2.316   0.678  0.00  0.00     0.039 A 
BRANCH  15  19
ATOM     19  C   UNL d   1       6.156   0.385  -1.369  0.00  0.00     0.302 C 
ATOM     20  O   UNL d   1       7.279   0.612  -1.805  0.00  0.00    -0.259 OA
BRANCH  19  21
ATOM     21  O   UNL d   1       5.493  -0.796  -1.581  0.00  0.00    -0.322 OA
ATOM     22  C   UNL d   1       6.240  -1.745  -2.345  0.00  0.00     0.213 C 
ENDBRANCH  19  21
ENDBRANCH  15  19
ENDBRANCH  12  14
ENDBRANCH   1  12
TORSDOF 4
