REMARK  5 active torsions:
REMARK  status: ('A' for Active; 'I' for Inactive)
REMARK    1  A    between atoms: C_6  and  C_2 
REMARK    2  A    between atoms: C_11  and  C_3 
REMARK    3  A    between atoms: S_12  and  C_5 
REMARK    4  A    between atoms: C_8  and  C_6 
REMARK    5  A    between atoms: N_14  and  C_10 
ROOT
ATOM      1  C   UNL d   1      -0.626   0.343   0.208  0.00  0.00     0.080 A 
ATOM      2  C   UNL d   1       1.236  -1.068  -0.102  0.00  0.00     0.069 A 
ATOM      3  C   UNL d   1      -0.159  -1.028   0.032  0.00  0.00     0.018 A 
ATOM      4  S   UNL d   1       1.886   0.519  -0.185  0.00  0.00    -0.077 SA
ATOM      5  C   UNL d   1       0.384   1.269   0.066  0.00  0.00     0.063 A 
ATOM      6  C   UNL d   1      -1.989   0.726   0.469  0.00  0.00     0.102 C 
ATOM      7  N   UNL d   1      -3.093   1.033   0.652  0.00  0.00    -0.191 NA
ENDROOT
BRANCH   3   8
ATOM      8  C   UNL d   1      -1.033  -2.219  -0.013  0.00  0.00    -0.023 A 
ATOM      9  C   UNL d   1      -0.727  -3.400   0.676  0.00  0.00     0.012 A 
ATOM     10  C   UNL d   1      -1.585  -4.506   0.622  0.00  0.00     0.001 A 
ATOM     11  C   UNL d   1      -2.783  -4.435  -0.086  0.00  0.00     0.000 A 
ATOM     12  C   UNL d   1      -3.112  -3.267  -0.763  0.00  0.00     0.001 A 
ATOM     13  C   UNL d   1      -2.235  -2.177  -0.743  0.00  0.00     0.012 A 
ENDBRANCH   3   8
BRANCH   5  14
ATOM     14  S   UNL d   1       0.243   3.027   0.135  0.00  0.00    -0.126 SA
ATOM     15  C   UNL d   1       0.773   3.476  -1.537  0.00  0.00     0.096 C 
ENDBRANCH   5  14
BRANCH   2  16
ATOM     16  C   UNL d   1       2.127  -2.208  -0.340  0.00  0.00     0.191 C 
ATOM     17  O   UNL d   1       1.754  -3.197  -0.979  0.00  0.00    -0.287 OA
BRANCH  16  18
ATOM     18  C   UNL d   1       3.556  -2.284   0.138  0.00  0.00     0.073 C 
ATOM     19  C   UNL d   1       4.255  -1.508   0.980  0.00  0.00     0.088 C 
BRANCH  19  20
ATOM     20  N   UNL d   1       5.591  -1.642   1.360  0.00  0.00    -0.398 N 
ATOM     21  C   UNL d   1       6.281  -0.603   2.131  0.00  0.00     0.148 C 
ATOM     22  C   UNL d   1       6.501  -2.603   0.725  0.00  0.00     0.148 C 
ENDBRANCH  19  20
ENDBRANCH  16  18
ENDBRANCH   2  16
TORSDOF 5
