REMARK  5 active torsions:
REMARK  status: ('A' for Active; 'I' for Inactive)
REMARK    1  A    between atoms: C_2  and  N_1 
REMARK    2  A    between atoms: O_13  and  C_3 
REMARK    3  A    between atoms: S_11  and  C_10 
REMARK    4  A    between atoms: C_14  and  S_11 
REMARK    5  A    between atoms: C_15  and  O_13 
ROOT
ATOM      1  N   UNL d   1       5.069  -3.262   1.614  0.00  0.00    -0.195 NA
ATOM      2  C   UNL d   1       3.975  -3.397   1.241  0.00  0.00     0.085 C 
ATOM      3  C   UNL d   1       2.609  -3.635   0.758  0.00  0.00     0.299 C 
ENDROOT
BRANCH   3   4
ATOM      4  O   UNL d   1       1.847  -2.415   0.740  0.00  0.00    -0.335 OA
BRANCH   4   5
ATOM      5  C   UNL d   1       0.710  -2.432  -0.026  0.00  0.00     0.104 A 
ATOM      6  C   UNL d   1       0.179  -1.220  -0.487  0.00  0.00     0.136 A 
ATOM      7  C   UNL d   1      -0.963  -1.175  -1.301  0.00  0.00     0.040 A 
ATOM      8  C   UNL d   1      -1.596  -2.365  -1.653  0.00  0.00     0.021 A 
ATOM      9  C   UNL d   1      -1.118  -3.584  -1.165  0.00  0.00     0.008 A 
ATOM     10  C   UNL d   1       0.025  -3.611  -0.353  0.00  0.00     0.058 A 
BRANCH   6  11
ATOM     11  N   UNL d   1       0.801   0.050  -0.155  0.00  0.00    -0.113 N 
ATOM     12  O   UNL d   1       1.972   0.223  -0.515  0.00  0.00    -0.532 OA
ATOM     13  O   UNL d   1       0.083   0.891   0.402  0.00  0.00    -0.532 OA
ENDBRANCH   6  11
BRANCH   9  14
ATOM     14  S   UNL d   1      -1.889  -5.111  -1.649  0.00  0.00    -0.091 SA
BRANCH  14  15
ATOM     15  C   UNL d   1      -3.206  -5.365  -0.468  0.00  0.00     0.005 A 
ATOM     16  C   UNL d   1      -3.790  -4.351   0.298  0.00  0.00     0.019 A 
ATOM     17  C   UNL d   1      -4.864  -4.630   1.151  0.00  0.00     0.001 A 
ATOM     18  C   UNL d   1      -5.365  -5.926   1.246  0.00  0.00     0.000 A 
ATOM     19  C   UNL d   1      -4.790  -6.946   0.495  0.00  0.00     0.001 A 
ATOM     20  C   UNL d   1      -3.718  -6.666  -0.356  0.00  0.00     0.019 A 
ENDBRANCH  14  15
ENDBRANCH   9  14
ENDBRANCH   4   5
ENDBRANCH   3   4
TORSDOF 5
