REMARK  3 active torsions:
REMARK  status: ('A' for Active; 'I' for Inactive)
REMARK    1  A    between atoms: C_7  and  N_3 
REMARK    2  A    between atoms: N_4  and  C_8 
REMARK    3  A    between atoms: C_11  and  C_6 
ROOT
ATOM      1  N   UNL d   1       1.108   1.092   0.041  0.00  0.00    -0.294 N 
ATOM      2  HN  UNL d   1       1.580   1.991   0.142  1.00  0.00     0.187 HD
ATOM      3  N   UNL d   1      -0.268   1.044  -0.036  0.00  0.00    -0.224 N 
ATOM      4  C   UNL d   1      -1.007  -0.143   0.024  0.00  0.00     0.243 C 
ATOM      5  C   UNL d   1       1.804  -0.001  -0.013  0.00  0.00     0.037 C 
ATOM      6  C   UNL d   1      -0.217  -1.388   0.320  0.00  0.00     0.111 C 
ATOM      7  O   UNL d   1      -2.229  -0.242  -0.099  0.00  0.00    -0.271 OA
ATOM      8  C   UNL d   1       1.181  -1.351  -0.235  0.00  0.00     0.069 C 
ENDROOT
BRANCH   3   9
ATOM      9  C   UNL d   1      -0.882   2.339  -0.128  0.00  0.00     0.059 A 
ATOM     10  C   UNL d   1      -2.192   2.574   0.321  0.00  0.00     0.034 A 
ATOM     11  C   UNL d   1      -2.782   3.841   0.224  0.00  0.00     0.038 A 
ATOM     12  C   UNL d   1      -2.062   4.897  -0.342  0.00  0.00     0.103 A 
ATOM     13  C   UNL d   1      -0.754   4.696  -0.791  0.00  0.00     0.038 A 
ATOM     14  C   UNL d   1      -0.169   3.427  -0.668  0.00  0.00     0.034 A 
BRANCH  12  15
ATOM     15  N   UNL d   1      -2.686   6.220  -0.461  0.00  0.00    -0.116 N 
ATOM     16  O   UNL d   1      -2.023   7.123  -0.994  0.00  0.00    -0.532 OA
ATOM     17  O   UNL d   1      -3.836   6.359  -0.021  0.00  0.00    -0.532 OA
ENDBRANCH  12  15
ENDBRANCH   3   9
BRANCH   5  18
ATOM     18  C   UNL d   1       3.293   0.075   0.106  0.00  0.00    -0.012 A 
ATOM     19  C   UNL d   1       3.872   1.149   0.799  0.00  0.00     0.016 A 
ATOM     20  C   UNL d   1       5.259   1.219   0.952  0.00  0.00     0.043 A 
ATOM     21  C   UNL d   1       6.063   0.223   0.407  0.00  0.00     0.116 A 
ATOM     22  C   UNL d   1       5.504  -0.838  -0.298  0.00  0.00     0.043 A 
ATOM     23  F   UNL d   1       7.390   0.286   0.559  0.00  0.00    -0.206 F 
ATOM     24  C   UNL d   1       4.118  -0.912  -0.453  0.00  0.00     0.016 A 
ENDBRANCH   5  18
TORSDOF 3
