REMARK  6 active torsions:
REMARK  status: ('A' for Active; 'I' for Inactive)
REMARK    1  A    between atoms: C_9  and  C_7 
REMARK    2  A    between atoms: C_14  and  C_9 
REMARK    3  A    between atoms: C_15  and  C_14 
REMARK    4  A    between atoms: C_18  and  C_15 
REMARK    5  A    between atoms: C_16  and  C_17 
REMARK    6  A    between atoms: C_17  and  C_18 
ROOT
ATOM      1  C   UNL d   1       1.172   0.890   0.000  0.00  0.00    -0.042 A 
ATOM      2  C   UNL d   1       0.716  -0.446  -0.013  0.00  0.00    -0.019 A 
ATOM      3  C   UNL d   1      -0.731  -0.443  -0.020  0.00  0.00    -0.019 A 
ATOM      4  C   UNL d   1      -1.181   0.895  -0.013  0.00  0.00    -0.043 A 
ATOM      5  C   UNL d   1      -0.003   1.847  -0.013  0.00  0.00     0.078 A 
ATOM      6  C   UNL d   1       2.523   1.194   0.031  0.00  0.00     0.023 A 
ATOM      7  C   UNL d   1       3.436   0.130   0.044  0.00  0.00     0.010 A 
ATOM      8  C   UNL d   1       1.615  -1.497  -0.001  0.00  0.00     0.014 A 
ATOM      9  C   UNL d   1       2.983  -1.205   0.029  0.00  0.00     0.016 A 
ATOM     10  C   UNL d   1      -1.636  -1.491  -0.018  0.00  0.00     0.013 A 
ATOM     11  C   UNL d   1      -2.531   1.203  -0.002  0.00  0.00     0.008 A 
ATOM     12  C   UNL d   1      -3.001  -1.188  -0.008  0.00  0.00     0.001 A 
ATOM     13  C   UNL d   1      -3.444   0.146   0.001  0.00  0.00     0.001 A 
ENDROOT
BRANCH   7  14
ATOM     14  C   UNL d   1       4.889   0.458   0.062  0.00  0.00     0.159 C 
ATOM     15  O   UNL d   1       5.266   1.503   0.587  0.00  0.00    -0.292 OA
BRANCH  14  16
ATOM     16  C   UNL d   1       5.870  -0.489  -0.606  0.00  0.00     0.084 C 
BRANCH  16  17
ATOM     17  C   UNL d   1       5.595  -0.668  -2.099  0.00  0.00     0.008 C 
BRANCH  17  18
ATOM     18  C   UNL d   1       5.688   0.651  -2.869  0.00  0.00     0.000 C 
BRANCH  18  19
ATOM     19  C   UNL d   1       5.387   0.443  -4.351  0.00  0.00    -0.000 C 
BRANCH  19  20
ATOM     20  C   UNL d   1       5.467   1.758  -5.123  0.00  0.00    -0.005 C 
ATOM     21  C   UNL d   1       5.168   1.547  -6.597  0.00  0.00     0.005 C 
ENDBRANCH  19  20
ENDBRANCH  18  19
ENDBRANCH  17  18
ENDBRANCH  16  17
ENDBRANCH  14  16
ENDBRANCH   7  14
TORSDOF 6
