REMARK  6 active torsions:
REMARK  status: ('A' for Active; 'I' for Inactive)
REMARK    1  A    between atoms: N_10  and  S_1 
REMARK    2  A    between atoms: C_12  and  S_1 
REMARK    3  A    between atoms: C_2  and  C_9 
REMARK    4  A    between atoms: C_13  and  C_8 
REMARK    5  A    between atoms: C_11  and  N_10 
REMARK    6  A    between atoms: O_24  and  C_19 
ROOT
ATOM      1  C   UNL d   1       2.219  -1.398   2.414  0.00  0.00     0.044 A 
ATOM      2  C   UNL d   1       0.909  -0.879   2.385  0.00  0.00     0.057 A 
ATOM      3  C   UNL d   1       2.481  -2.507   3.241  0.00  0.00     0.018 A 
ATOM      4  C   UNL d   1      -0.093  -1.458   3.177  0.00  0.00     0.031 A 
ATOM      5  C   UNL d   1       1.474  -3.086   4.015  0.00  0.00     0.001 A 
ATOM      6  C   UNL d   1       0.186  -2.563   3.981  0.00  0.00     0.002 A 
ENDROOT
BRANCH   1   7
ATOM      7  C   UNL d   1       3.325  -0.851   1.640  0.00  0.00     0.177 A 
ATOM      8  O   UNL d   1       3.246   0.462   1.259  0.00  0.00    -0.273 OA
ATOM      9  C   UNL d   1       4.395   0.615   0.535  0.00  0.00     0.174 A 
ATOM     10  N   UNL d   1       5.141  -0.472   0.532  0.00  0.00    -0.277 N 
ATOM     11  N   UNL d   1       4.457  -1.418   1.267  0.00  0.00    -0.277 N 
ATOM     12  HN  UNL d   1       6.046  -0.591   0.076  1.00  0.00     0.189 HD
ATOM     13  HN  UNL d   1       4.764  -2.367   1.480  1.00  0.00     0.189 HD
BRANCH   9  14
ATOM     14  C   UNL d   1       4.599   1.892  -0.131  0.00  0.00     0.019 A 
ATOM     15  C   UNL d   1       5.633   2.008  -1.073  0.00  0.00     0.052 A 
ATOM     16  C   UNL d   1       5.845   3.203  -1.763  0.00  0.00     0.069 A 
ATOM     17  C   UNL d   1       5.028   4.302  -1.491  0.00  0.00     0.037 A 
ATOM     18  C   UNL d   1       4.002   4.208  -0.551  0.00  0.00     0.004 A 
ATOM     19  C   UNL d   1       3.785   3.005   0.123  0.00  0.00     0.016 A 
BRANCH  16  20
ATOM     20  O   UNL d   1       6.801   3.412  -2.718  0.00  0.00    -0.356 OA
ATOM     21  C   UNL d   1       7.604   2.290  -3.070  0.00  0.00     0.210 C 
ENDBRANCH  16  20
ENDBRANCH   9  14
ENDBRANCH   1   7
BRANCH   2  22
ATOM     22  N   UNL d   1       0.518   0.169   1.488  0.00  0.00    -0.280 N 
ATOM     23  H   UNL d   1      -0.146   0.855   1.843  0.00  0.00     0.179 HD
BRANCH  22  24
ATOM     24  S   UNL d   1       0.161  -0.245  -0.123  0.00  0.00     0.263 S 
ATOM     25  O   UNL d   1       1.222  -1.057  -0.671  0.00  0.00    -0.200 OA
ATOM     26  O   UNL d   1      -0.273   0.977  -0.765  0.00  0.00    -0.200 OA
BRANCH  24  27
ATOM     27  C   UNL d   1      -1.275  -1.276   0.077  0.00  0.00     0.079 A 
ATOM     28  C   UNL d   1      -2.539  -0.689   0.113  0.00  0.00     0.026 A 
ATOM     29  C   UNL d   1      -3.653  -1.482   0.389  0.00  0.00     0.008 A 
ATOM     30  C   UNL d   1      -3.505  -2.857   0.622  0.00  0.00    -0.062 A 
ATOM     31  C   UNL d   1      -2.235  -3.441   0.530  0.00  0.00     0.008 A 
ATOM     32  C   UNL d   1      -4.708  -3.682   0.977  0.00  0.00     0.048 C 
ATOM     33  C   UNL d   1      -1.118  -2.657   0.241  0.00  0.00     0.026 A 
ENDBRANCH  24  27
ENDBRANCH  22  24
ENDBRANCH   2  22
TORSDOF 6
