REMARK  3 active torsions:
REMARK  status: ('A' for Active; 'I' for Inactive)
REMARK    1  A    between atoms: C_2  and  C_1 
REMARK       I    between atoms: N_7  and  C_2 
REMARK    2  A    between atoms: C_18  and  N_7 
REMARK    3  A    between atoms: C_17  and  C_18 
ROOT
ATOM      1  C   UNL d   1       0.694   2.323  -0.056  0.00  0.00     0.260 C 
ATOM      2  N   UNL d   1       1.497   3.451  -0.073  0.00  0.00    -0.352 N 
ATOM      3  O   UNL d   1       1.211   1.208  -0.015  0.00  0.00    -0.267 OA
ATOM      4  H   UNL d   1       1.075   4.367  -0.142  0.00  0.00     0.163 HD
ENDROOT
BRANCH   2   5
ATOM      5  C   UNL d   1       2.934   3.310  -0.061  0.00  0.00     0.161 C 
BRANCH   5   6
ATOM      6  C   UNL d   1       3.650   4.633  -0.011  0.00  0.00    -0.038 A 
ATOM      7  C   UNL d   1       4.059   5.269  -1.196  0.00  0.00     0.048 A 
ATOM      8  C   UNL d   1       4.741   6.465  -1.091  0.00  0.00     0.105 A 
ATOM      9  O   UNL d   1       5.215   7.203  -2.131  0.00  0.00    -0.323 OA
ATOM     10  C   UNL d   1       5.018   7.039   0.127  0.00  0.00     0.105 A 
ATOM     11  C   UNL d   1       5.788   8.326  -1.427  0.00  0.00     0.352 A 
ATOM     12  O   UNL d   1       5.700   8.209   0.008  0.00  0.00    -0.323 OA
ATOM     13  C   UNL d   1       4.628   6.451   1.309  0.00  0.00     0.040 A 
ATOM     14  C   UNL d   1       3.931   5.240   1.236  0.00  0.00     0.012 A 
ENDBRANCH   5   6
ENDBRANCH   2   5
BRANCH   1  15
ATOM     15  C   UNL d   1      -0.750   2.537  -0.086  0.00  0.00     0.089 A 
ATOM     16  C   UNL d   1      -1.765   1.598  -0.081  0.00  0.00     0.034 A 
ATOM     17  C   UNL d   1      -3.070   2.159  -0.110  0.00  0.00     0.028 A 
ATOM     18 BR   UNL d   1      -1.579  -0.288  -0.037  0.00  0.00    -0.049 Br
ATOM     19  C   UNL d   1      -3.028   3.533  -0.139  0.00  0.00     0.052 A 
ATOM     20  S   UNL d   1      -1.422   4.124  -0.133  0.00  0.00    -0.095 SA
ENDBRANCH   1  15
TORSDOF 3
