REMARK  2 active torsions:
REMARK  status: ('A' for Active; 'I' for Inactive)
REMARK    1  A    between atoms: C_2  and  C_1 
REMARK       I    between atoms: N_3  and  C_1 
REMARK    2  A    between atoms: C_4  and  N_3 
ROOT
ATOM      1  C   UNL d   1       0.979   0.062   0.059  0.00  0.00     0.259 C 
ATOM      2  N   UNL d   1       0.196  -0.011  -1.079  0.00  0.00    -0.320 N 
ATOM      3  O   UNL d   1       2.192   0.245   0.075  0.00  0.00    -0.267 OA
ATOM      4  H   UNL d   1      -0.803   0.113  -0.962  0.00  0.00     0.169 HD
ENDROOT
BRANCH   1   5
ATOM      5  C   UNL d   1       0.270  -0.018   1.371  0.00  0.00     0.070 A 
ATOM      6  C   UNL d   1      -1.117  -0.124   1.492  0.00  0.00     0.132 A 
ATOM      7  F   UNL d   1      -1.908  -0.128   0.407  0.00  0.00    -0.205 F 
ATOM      8  C   UNL d   1      -1.726  -0.218   2.744  0.00  0.00     0.043 A 
ATOM      9  C   UNL d   1      -0.948  -0.202   3.900  0.00  0.00     0.003 A 
ATOM     10  C   UNL d   1       0.437  -0.087   3.801  0.00  0.00     0.001 A 
ATOM     11  C   UNL d   1       1.043   0.005   2.545  0.00  0.00     0.020 A 
ENDBRANCH   1   5
BRANCH   2  12
ATOM     12  C   UNL d   1       0.670  -0.054  -2.411  0.00  0.00     0.073 A 
ATOM     13  C   UNL d   1       1.933  -0.522  -2.793  0.00  0.00     0.143 A 
ATOM     14  F   UNL d   1       2.765  -1.104  -1.918  0.00  0.00    -0.204 F 
ATOM     15  C   UNL d   1       2.335  -0.499  -4.130  0.00  0.00     0.044 A 
ATOM     16  C   UNL d   1       1.469  -0.022  -5.110  0.00  0.00     0.003 A 
ATOM     17  C   UNL d   1       0.192   0.404  -4.753  0.00  0.00     0.002 A 
ATOM     18  C   UNL d   1      -0.211   0.376  -3.413  0.00  0.00     0.033 A 
ENDBRANCH   2  12
TORSDOF 2
