REMARK  2 active torsions:
REMARK  status: ('A' for Active; 'I' for Inactive)
REMARK    1  A    between atoms: N_5  and  C_1 
REMARK    2  A    between atoms: N_8  and  C_2 
ROOT
ATOM      1  C   UNL d   1      -1.364  -0.801  -0.008  0.00  0.00     0.219 A 
ATOM      2  C   UNL d   1      -0.042  -1.254   0.037  0.00  0.00     0.157 A 
ATOM      3  N   UNL d   1      -1.421   0.588   0.002  0.00  0.00    -0.330 N 
ATOM      4  HN  UNL d   1      -2.256   1.173  -0.004  1.00  0.00     0.168 HD
ATOM      5  N   UNL d   1       0.690  -0.076   0.029  0.00  0.00    -0.330 N 
ATOM      6  C   UNL d   1      -0.174   0.982   0.021  0.00  0.00     0.186 A 
ATOM      7  C   UNL d   1       2.123   0.086  -0.049  0.00  0.00     0.158 C 
ENDROOT
BRANCH   2   8
ATOM      8  N   UNL d   1       0.625  -2.452   0.016  0.00  0.00    -0.360 N 
ATOM      9  C   UNL d   1       0.071  -3.623  -0.698  0.00  0.00     0.151 C 
ATOM     10  C   UNL d   1       1.225  -4.582  -1.045  0.00  0.00     0.187 C 
ATOM     11  O   UNL d   1       1.941  -4.997   0.133  0.00  0.00    -0.388 OA
ATOM     12  C   UNL d   1       2.459  -3.858   0.841  0.00  0.00     0.187 C 
ATOM     13  C   UNL d   1       1.337  -2.885   1.243  0.00  0.00     0.151 C 
ENDBRANCH   2   8
BRANCH   1  14
ATOM     14  N   UNL d   1      -2.620  -1.527  -0.025  0.00  0.00    -0.094 N 
ATOM     15  O   UNL d   1      -2.584  -2.760   0.091  0.00  0.00    -0.530 OA
ATOM     16  O   UNL d   1      -3.660  -0.866  -0.152  0.00  0.00    -0.530 OA
ENDBRANCH   1  14
TORSDOF 2
