REMARK  5 active torsions:
REMARK  status: ('A' for Active; 'I' for Inactive)
REMARK    1  A    between atoms: C_7  and  N_1 
REMARK    2  A    between atoms: S_8  and  C_2 
REMARK    3  A    between atoms: C_17  and  S_8 
REMARK    4  A    between atoms: C_11  and  C_17 
REMARK    5  A    between atoms: O_16  and  C_13 
ROOT
ATOM      1  N   UNL d   1      -0.084  -1.379  -0.059  0.00  0.00    -0.219 N 
ATOM      2  C   UNL d   1       1.131  -0.730   0.127  0.00  0.00     0.177 C 
ATOM      3  N   UNL d   1       0.944   0.566   0.026  0.00  0.00    -0.264 N 
ATOM      4  HN  UNL d   1       1.641   1.298   0.163  1.00  0.00     0.186 HD
ATOM      5  N   UNL d   1      -0.371   0.739  -0.300  0.00  0.00    -0.006 NA
ATOM      6  N   UNL d   1      -0.987  -0.425  -0.420  0.00  0.00     0.001 NA
ENDROOT
BRANCH   1   7
ATOM      7  C   UNL d   1      -0.508  -2.722   0.120  0.00  0.00     0.057 A 
ATOM      8  C   UNL d   1       0.174  -3.608   0.963  0.00  0.00     0.034 A 
ATOM      9  C   UNL d   1      -0.342  -4.889   1.194  0.00  0.00     0.039 A 
ATOM     10  C   UNL d   1      -1.527  -5.284   0.586  0.00  0.00     0.065 A 
ATOM     11  C   UNL d   1      -2.203  -4.428  -0.273  0.00  0.00     0.039 A 
ATOM     12  C   UNL d   1      -1.702  -3.143  -0.497  0.00  0.00     0.034 A 
BRANCH  10  13
ATOM     13  O   UNL d   1      -2.005  -6.526   0.875  0.00  0.00    -0.361 OA
ATOM     14  H   UNL d   1      -2.884  -6.623   0.471  0.00  0.00     0.217 HD
ENDBRANCH  10  13
ENDBRANCH   1   7
BRANCH   2  15
ATOM     15  S   UNL d   1       2.686  -1.487   0.252  0.00  0.00    -0.087 SA
BRANCH  15  16
ATOM     16  C   UNL d   1       3.752  -0.020   0.372  0.00  0.00     0.108 C 
BRANCH  16  17
ATOM     17  C   UNL d   1       5.189  -0.447   0.413  0.00  0.00    -0.026 C 
ATOM     18  C   UNL d   1       6.008  -0.251   1.454  0.00  0.00     0.007 C 
ENDBRANCH  16  17
ENDBRANCH  15  16
ENDBRANCH   2  15
TORSDOF 5
