REMARK  4 active torsions:
REMARK  status: ('A' for Active; 'I' for Inactive)
REMARK    1  A    between atoms: C_4  and  C_1 
REMARK    2  A    between atoms: N_7  and  N_2 
REMARK    3  A    between atoms: C_5  and  C_4 
REMARK    4  A    between atoms: C_11  and  N_7 
ROOT
ATOM      1  C   UNL d   1       1.045   0.068  -0.075  0.00  0.00     0.175 C 
ATOM      2  N   UNL d   1       0.411  -0.929  -0.629  0.00  0.00    -0.287 N 
ATOM      3  HN  UNL d   1      -0.604  -0.887  -0.727  1.00  0.00     0.188 HD
ATOM      4  C   UNL d   1       2.477  -0.013   0.093  0.00  0.00     0.123 C 
ATOM      5  N   UNL d   1       3.628  -0.124   0.207  0.00  0.00    -0.190 NA
ENDROOT
BRANCH   1   6
ATOM      6  C   UNL d   1       0.277   1.280   0.371  0.00  0.00     0.192 C 
ATOM      7  O   UNL d   1       0.669   1.955   1.311  0.00  0.00    -0.290 OA
BRANCH   6   8
ATOM      8  C   UNL d   1      -0.966   1.584  -0.389  0.00  0.00     0.063 A 
ATOM      9  C   UNL d   1      -1.554   2.976  -0.389  0.00  0.00     0.013 A 
ATOM     10  C   UNL d   1      -2.243   1.876   0.365  0.00  0.00     0.013 A 
ENDBRANCH   6   8
ENDBRANCH   1   6
BRANCH   2  11
ATOM     11  N   UNL d   1       1.082  -2.025  -1.077  0.00  0.00    -0.297 N 
ATOM     12  H   UNL d   1       2.011  -2.303  -0.741  0.00  0.00     0.187 HD
BRANCH  11  13
ATOM     13  C   UNL d   1       0.335  -3.095  -1.618  0.00  0.00     0.086 A 
ATOM     14  C   UNL d   1       0.990  -4.264  -2.039  0.00  0.00     0.147 A 
ATOM     15  C   UNL d   1       0.303  -5.317  -2.638  0.00  0.00     0.086 A 
ATOM     16  F   UNL d   1       2.316  -4.377  -1.861  0.00  0.00    -0.204 F 
ATOM     17  C   UNL d   1      -1.064  -5.199  -2.831  0.00  0.00     0.119 A 
ATOM     18  C   UNL d   1      -1.746  -4.053  -2.445  0.00  0.00     0.045 A 
ATOM     19  F   UNL d   1      -1.741  -6.202  -3.405  0.00  0.00    -0.206 F 
ATOM     20  C   UNL d   1      -1.045  -2.998  -1.850  0.00  0.00     0.037 A 
ENDBRANCH  11  13
ENDBRANCH   2  11
TORSDOF 4
