REMARK  4 active torsions:
REMARK  status: ('A' for Active; 'I' for Inactive)
REMARK    1  A    between atoms: S_3  and  C_1 
REMARK    2  A    between atoms: C_4  and  C_1 
REMARK    3  A    between atoms: N_5  and  C_2 
REMARK    4  A    between atoms: C_7  and  S_3 
ROOT
ATOM      1  C   UNL d   1       1.155   0.020  -0.058  0.00  0.00     0.066 C 
ATOM      2  C   UNL d   1       0.645   1.050  -0.765  0.00  0.00     0.107 C 
ENDROOT
BRANCH   1   3
ATOM      3  S   UNL d   1       0.149  -1.280   0.568  0.00  0.00    -0.086 SA
BRANCH   3   4
ATOM      4  C   UNL d   1      -1.542  -0.837   0.252  0.00  0.00     0.005 A 
ATOM      5  C   UNL d   1      -2.222  -1.390  -0.836  0.00  0.00     0.019 A 
ATOM      6  C   UNL d   1      -3.590  -1.158  -1.009  0.00  0.00     0.008 A 
ATOM      7  C   UNL d   1      -4.297  -0.374  -0.090  0.00  0.00    -0.062 A 
ATOM      8  C   UNL d   1      -3.613   0.186   0.993  0.00  0.00     0.008 A 
ATOM      9  C   UNL d   1      -5.779  -0.188  -0.246  0.00  0.00     0.048 C 
ATOM     10  C   UNL d   1      -2.244  -0.047   1.165  0.00  0.00     0.019 A 
ENDBRANCH   3   4
ENDBRANCH   1   3
BRANCH   1  11
ATOM     11  C   UNL d   1       2.649  -0.175   0.187  0.00  0.00     0.163 C 
ATOM     12  O   UNL d   1       3.466   0.743   0.079  0.00  0.00    -0.292 OA
ATOM     13  C   UNL d   1       3.216  -1.539   0.540  0.00  0.00     0.097 C 
ENDBRANCH   1  11
BRANCH   2  14
ATOM     14  N   UNL d   1       1.116   2.216  -1.379  0.00  0.00    -0.397 N 
ATOM     15  C   UNL d   1       2.213   3.045  -0.880  0.00  0.00     0.148 C 
ATOM     16  C   UNL d   1       0.363   2.854  -2.465  0.00  0.00     0.148 C 
ENDBRANCH   2  14
TORSDOF 4
