REMARK  4 active torsions:
REMARK  status: ('A' for Active; 'I' for Inactive)
REMARK    1  A    between atoms: C_4  and  C_1 
REMARK    2  A    between atoms: C_6  and  C_12 
REMARK    3  A    between atoms: N_13  and  C_8 
REMARK    4  A    between atoms: C_18  and  N_13 
ROOT
ATOM      1  C   UNL d   1      -3.728  -0.037   0.006  0.00  0.00     0.103 C 
ATOM      2  C   UNL d   1      -4.417   1.132   0.010  0.00  0.00     0.115 C 
ATOM      3  C   UNL d   1      -2.252  -0.019  -0.003  0.00  0.00     0.104 C 
ATOM      4  N   UNL d   1      -1.091   0.006  -0.011  0.00  0.00    -0.191 NA
ENDROOT
BRANCH   1   5
ATOM      5  C   UNL d   1      -4.522  -1.248   0.015  0.00  0.00     0.128 A 
ATOM      6  N   UNL d   1      -5.839  -1.423   0.044  0.00  0.00    -0.339 N 
ATOM      7  C   UNL d   1      -6.049  -2.782   0.010  0.00  0.00     0.060 A 
ATOM      8  HN  UNL d   1      -6.551  -0.694   0.083  1.00  0.00     0.167 HD
ATOM      9  C   UNL d   1      -7.250  -3.504   0.012  0.00  0.00     0.032 A 
ATOM     10  C   UNL d   1      -4.840  -3.464  -0.035  0.00  0.00     0.060 A 
ATOM     11  C   UNL d   1      -7.189  -4.903  -0.033  0.00  0.00     0.002 A 
ATOM     12  C   UNL d   1      -5.959  -5.564  -0.078  0.00  0.00     0.002 A 
ATOM     13  C   UNL d   1      -4.750  -4.856  -0.080  0.00  0.00     0.032 A 
ATOM     14  N   UNL d   1      -3.891  -2.474  -0.025  0.00  0.00    -0.339 N 
ATOM     15  H   UNL d   1      -2.893  -2.630  -0.054  0.00  0.00     0.167 HD
ENDBRANCH   1   5
BRANCH   2  16
ATOM     16  N   UNL d   1      -3.896   2.408  -0.051  0.00  0.00    -0.364 N 
ATOM     17  H   UNL d   1      -2.900   2.499  -0.236  0.00  0.00     0.165 HD
BRANCH  16  18
ATOM     18  C   UNL d   1      -4.603   3.618  -0.000  0.00  0.00     0.032 A 
ATOM     19  C   UNL d   1      -5.830   3.738   0.660  0.00  0.00     0.045 A 
ATOM     20  C   UNL d   1      -6.569   4.930   0.618  0.00  0.00     0.050 A 
ATOM     21  C   UNL d   1      -6.066   6.015  -0.114  0.00  0.00     0.016 A 
ATOM     22  C   UNL d   1      -4.845   5.910  -0.778  0.00  0.00     0.003 A 
ATOM     23  C   UNL d   1      -4.120   4.719  -0.718  0.00  0.00     0.029 A 
BRANCH  20  24
ATOM     24  C   UNL d   1      -7.888   5.041   1.339  0.00  0.00     0.417 C 
ATOM     25  F   UNL d   1      -8.242   3.911   2.011  0.00  0.00    -0.166 F 
ATOM     26  F   UNL d   1      -7.892   6.040   2.265  0.00  0.00    -0.166 F 
ATOM     27  F   UNL d   1      -8.921   5.311   0.494  0.00  0.00    -0.166 F 
ENDBRANCH  20  24
ENDBRANCH  16  18
ENDBRANCH   2  16
TORSDOF 4
