REMARK  7 active torsions:
REMARK  status: ('A' for Active; 'I' for Inactive)
REMARK    1  A    between atoms: N_4  and  C_1 
REMARK    2  A    between atoms: C_19  and  N_7 
REMARK    3  A    between atoms: C_18  and  C_10 
REMARK    4  A    between atoms: C_13  and  C_16 
REMARK    5  A    between atoms: C_15  and  O_21 
REMARK    6  A    between atoms: C_16  and  C_19 
REMARK    7  A    between atoms: O_21  and  C_27 
ROOT
ATOM      1  N   UNL d   1      -1.884  -5.259   0.094  0.00  0.00    -0.323 N 
ATOM      2  HN  UNL d   1      -0.868  -5.265   0.180  1.00  0.00     0.169 HD
ATOM      3  C   UNL d   1      -2.713  -6.283   0.024  0.00  0.00     0.182 A 
ATOM      4  N   UNL d   1      -4.032  -4.498  -0.078  0.00  0.00    -0.247 N 
ATOM      5  HN  UNL d   1      -4.833  -3.870  -0.141  1.00  0.00     0.196 HD
ATOM      6  C   UNL d   1      -2.735  -4.184   0.022  0.00  0.00     0.105 A 
ATOM      7  O   UNL d   1      -4.023  -5.895  -0.074  0.00  0.00    -0.217 OA
ENDROOT
BRANCH   6   8
ATOM      8  C   UNL d   1      -2.261  -2.776   0.014  0.00  0.00     0.098 C 
BRANCH   8   9
ATOM      9  C   UNL d   1      -2.805  -1.971   1.193  0.00  0.00     0.137 C 
BRANCH   9  10
ATOM     10  N   UNL d   1      -2.415  -0.569   1.147  0.00  0.00    -0.343 N 
ATOM     11  C   UNL d   1      -1.304  -0.038   1.752  0.00  0.00     0.147 A 
ATOM     12  C   UNL d   1      -1.367   1.314   1.487  0.00  0.00     0.190 A 
ATOM     13  N   UNL d   1      -2.485   1.613   0.740  0.00  0.00    -0.326 N 
ATOM     14  C   UNL d   1      -3.110   0.466   0.556  0.00  0.00     0.081 A 
ATOM     15  HN  UNL d   1      -2.771   2.531   0.399  1.00  0.00     0.169 HD
ATOM     16  C   UNL d   1      -4.392   0.302  -0.176  0.00  0.00     0.089 C 
BRANCH  12  17
ATOM     17  N   UNL d   1      -0.442   2.344   1.903  0.00  0.00    -0.096 N 
ATOM     18  O   UNL d   1       0.533   1.979   2.576  0.00  0.00    -0.530 OA
ATOM     19  O   UNL d   1      -0.684   3.513   1.562  0.00  0.00    -0.530 OA
ENDBRANCH  12  17
ENDBRANCH   9  10
ENDBRANCH   8   9
ENDBRANCH   6   8
BRANCH   3  20
ATOM     20  C   UNL d   1      -2.449  -7.721   0.054  0.00  0.00     0.017 A 
ATOM     21  C   UNL d   1      -1.136  -8.195   0.190  0.00  0.00     0.018 A 
ATOM     22  C   UNL d   1      -0.857  -9.570   0.251  0.00  0.00     0.038 A 
ATOM     23  C   UNL d   1      -1.894 -10.498   0.208  0.00  0.00     0.078 A 
ATOM     24  C   UNL d   1      -3.200 -10.038   0.023  0.00  0.00     0.038 A 
ATOM     25  C   UNL d   1      -3.478  -8.668  -0.050  0.00  0.00     0.018 A 
BRANCH  23  26
ATOM     26  O   UNL d   1      -1.778 -11.851   0.280  0.00  0.00    -0.255 OA
BRANCH  26  27
ATOM     27  C   UNL d   1      -0.703 -12.439   1.000  0.00  0.00     0.530 C 
ATOM     28  F   UNL d   1       0.004 -11.569   1.750  0.00  0.00    -0.144 F 
ATOM     29  F   UNL d   1      -1.209 -13.379   1.831  0.00  0.00    -0.144 F 
ATOM     30  F   UNL d   1       0.134 -13.051   0.134  0.00  0.00    -0.144 F 
ENDBRANCH  26  27
ENDBRANCH  23  26
ENDBRANCH   3  20
TORSDOF 7
