REMARK  4 active torsions:
REMARK  status: ('A' for Active; 'I' for Inactive)
REMARK    1  A    between atoms: C_2  and  C_1 
REMARK       I    between atoms: N_4  and  C_1 
REMARK    2  A    between atoms: C_3  and  N_6 
REMARK       I    between atoms: C_5  and  N_4 
REMARK       I    between atoms: N_6  and  C_5 
REMARK    3  A    between atoms: O_21  and  C_7 
REMARK    4  A    between atoms: O_23  and  C_12 
ROOT
ATOM      1  C   UNL d   1       0.981  -0.903  -0.088  0.00  0.00     0.265 C 
ATOM      2  N   UNL d   1       0.174  -1.995   0.184  0.00  0.00    -0.274 N 
ATOM      3  C   UNL d   1       0.440  -3.344   0.123  0.00  0.00     0.341 C 
ATOM      4  N   UNL d   1       1.742  -3.731   0.166  0.00  0.00    -0.141 N 
ATOM      5  O   UNL d   1       2.208  -0.918  -0.089  0.00  0.00    -0.267 OA
ATOM      6  O   UNL d   1      -0.541  -4.077  -0.004  0.00  0.00    -0.246 OA
ATOM      7  H   UNL d   1      -0.818  -1.856   0.055  0.00  0.00     0.173 HD
ATOM      8  H   UNL d   1       2.464  -3.066  -0.073  0.00  0.00     0.189 HD
ENDROOT
BRANCH   1   9
ATOM      9  C   UNL d   1       0.202   0.339  -0.380  0.00  0.00     0.100 A 
ATOM     10  C   UNL d   1      -0.587   0.321  -1.577  0.00  0.00     0.104 A 
ATOM     11  C   UNL d   1      -1.456   1.393  -1.839  0.00  0.00     0.045 A 
ATOM     12 BR   UNL d   1      -2.729   1.502  -3.250  0.00  0.00    -0.048 Br
ATOM     13  C   UNL d   1      -1.507   2.476  -0.956  0.00  0.00     0.025 A 
ATOM     14  C   UNL d   1      -0.733   2.485   0.200  0.00  0.00     0.039 A 
ATOM     15  C   UNL d   1       0.121   1.421   0.515  0.00  0.00     0.086 A 
BRANCH  10  16
ATOM     16  O   UNL d   1      -0.443  -0.841  -2.294  0.00  0.00    -0.353 OA
ATOM     17  C   UNL d   1      -0.804  -0.932  -3.660  0.00  0.00     0.210 C 
ENDBRANCH  10  16
BRANCH  15  18
ATOM     18  O   UNL d   1       0.656   1.576   1.760  0.00  0.00    -0.355 OA
ATOM     19  C   UNL d   1       1.935   1.031   2.042  0.00  0.00     0.210 C 
ENDBRANCH  15  18
ENDBRANCH   1   9
BRANCH   4  20
ATOM     20  C   UNL d   1       2.136  -5.066   0.251  0.00  0.00     0.686 A 
ATOM     21  N   UNL d   1       3.395  -5.348  -0.121  0.00  0.00    -0.196 N 
ATOM     22  C   UNL d   1       3.769  -6.650  -0.083  0.00  0.00     0.024 A 
ATOM     23  HN  UNL d   1       4.041  -4.616  -0.417  1.00  0.00     0.184 HD
ATOM     24  C   UNL d   1       5.138  -6.993  -0.594  0.00  0.00     0.068 C 
ATOM     25  C   UNL d   1       2.925  -7.657   0.345  0.00  0.00     0.050 A 
ATOM     26  C   UNL d   1       1.673  -7.267   0.760  0.00  0.00     0.024 A 
ATOM     27  N   UNL d   1       1.275  -5.984   0.713  0.00  0.00    -0.196 N 
ATOM     28  C   UNL d   1       0.698  -8.272   1.293  0.00  0.00     0.068 C 
ATOM     29  HN  UNL d   1       0.341  -5.715   1.022  1.00  0.00     0.184 HD
ENDBRANCH   4  20
TORSDOF 4
