REMARK  6 active torsions:
REMARK  status: ('A' for Active; 'I' for Inactive)
REMARK    1  A    between atoms: C_6  and  C_1 
REMARK    2  A    between atoms: C_16  and  N_2 
REMARK    3  A    between atoms: C_18  and  C_3 
REMARK       I    between atoms: N_13  and  C_6 
REMARK    4  A    between atoms: C_8  and  N_13 
REMARK    5  A    between atoms: C_15  and  C_10 
REMARK    6  A    between atoms: C_24  and  C_18 
ROOT
ATOM      1  C   UNL d   1      -0.222   1.313   0.041  0.00  0.00     0.073 C 
ATOM      2  N   UNL d   1       0.765  -0.664   0.320  0.00  0.00    -0.260 N 
ATOM      3  C   UNL d   1       0.942   0.705   0.527  0.00  0.00     0.051 C 
ATOM      4  N   UNL d   1      -0.554  -0.952   0.177  0.00  0.00    -0.304 N 
ATOM      5  HN  UNL d   1      -1.016  -1.856   0.278  1.00  0.00     0.186 HD
ATOM      6  C   UNL d   1      -1.104   0.222  -0.126  0.00  0.00     0.126 C 
ENDROOT
BRANCH   1   7
ATOM      7  C   UNL d   1      -0.430   2.746  -0.233  0.00  0.00     0.260 C 
ATOM      8  N   UNL d   1      -1.717   3.070  -0.626  0.00  0.00    -0.307 N 
ATOM      9  H   UNL d   1      -2.437   2.369  -0.597  0.00  0.00     0.170 HD
ATOM     10  O   UNL d   1       0.501   3.537  -0.145  0.00  0.00    -0.267 OA
BRANCH   8  11
ATOM     11  C   UNL d   1      -2.097   4.282  -1.185  0.00  0.00     0.131 A 
ATOM     12  C   UNL d   1      -3.406   4.539  -1.668  0.00  0.00     0.086 A 
ATOM     13  C   UNL d   1      -3.332   5.766  -2.291  0.00  0.00     0.087 A 
ATOM     14  O   UNL d   1      -2.078   6.261  -2.101  0.00  0.00    -0.240 OA
ATOM     15  N   UNL d   1      -1.311   5.339  -1.413  0.00  0.00    -0.245 N 
ATOM     16  HN  UNL d   1      -0.336   5.444  -1.133  1.00  0.00     0.196 HD
BRANCH  13  17
ATOM     17  C   UNL d   1      -4.296   6.556  -3.143  0.00  0.00     0.000 C 
ATOM     18  C   UNL d   1      -5.504   7.011  -2.303  0.00  0.00     0.021 C 
ATOM     19  C   UNL d   1      -3.647   7.804  -3.771  0.00  0.00     0.021 C 
ATOM     20  C   UNL d   1      -4.789   5.650  -4.290  0.00  0.00     0.021 C 
ENDBRANCH  13  17
ENDBRANCH   8  11
ENDBRANCH   1   7
BRANCH   3  21
ATOM     21  C   UNL d   1       2.193   1.300   1.114  0.00  0.00     0.060 C 
BRANCH  21  22
ATOM     22  C   UNL d   1       1.953   2.142   2.376  0.00  0.00     0.002 C 
ATOM     23  C   UNL d   1       1.757   1.306   3.633  0.00  0.00     0.005 C 
ENDBRANCH  21  22
ENDBRANCH   3  21
BRANCH   2  24
ATOM     24  C   UNL d   1       1.728  -1.696   0.119  0.00  0.00     0.056 A 
ATOM     25  C   UNL d   1       1.365  -3.036   0.331  0.00  0.00     0.031 A 
ATOM     26  C   UNL d   1       2.274  -4.061   0.067  0.00  0.00     0.002 A 
ATOM     27  C   UNL d   1       3.539  -3.765  -0.438  0.00  0.00     0.000 A 
ATOM     28  C   UNL d   1       3.900  -2.439  -0.673  0.00  0.00     0.002 A 
ATOM     29  C   UNL d   1       2.999  -1.406  -0.395  0.00  0.00     0.031 A 
ENDBRANCH   2  24
TORSDOF 6
