REMARK  5 active torsions:
REMARK  status: ('A' for Active; 'I' for Inactive)
REMARK    1  A    between atoms: O_10  and  N_2 
REMARK    2  A    between atoms: C_4  and  C_9 
REMARK    3  A    between atoms: N_18  and  C_4 
REMARK    4  A    between atoms: C_7  and  O_10 
REMARK    5  A    between atoms: C_17  and  C_7 
ROOT
ATOM      1  N   UNL d   1       4.680   1.920  -1.041  0.00  0.00    -0.246 N 
ATOM      2  HN  UNL d   1       5.543   2.126  -1.543  1.00  0.00     0.196 HD
ATOM      3  C   UNL d   1       4.458   0.810  -0.404  0.00  0.00     0.109 C 
ENDROOT
BRANCH   3   4
ATOM      4  C   UNL d   1       5.541  -0.227  -0.422  0.00  0.00     0.005 A 
ATOM      5  C   UNL d   1       5.224  -1.580  -0.255  0.00  0.00     0.017 A 
ATOM      6  C   UNL d   1       6.239  -2.539  -0.264  0.00  0.00     0.038 A 
ATOM      7  C   UNL d   1       7.568  -2.147  -0.420  0.00  0.00     0.080 A 
ATOM      8  C   UNL d   1       7.893  -0.800  -0.612  0.00  0.00    -0.002 A 
ATOM      9  O   UNL d   1       8.504  -3.146  -0.409  0.00  0.00    -0.336 OA
ATOM     10  C   UNL d   1       6.875   0.160  -0.616  0.00  0.00     0.029 A 
ATOM     11  C   UNL d   1       9.284  -0.425  -0.826  0.00  0.00     0.013 C 
ATOM     12  C   UNL d   1      10.217  -1.356  -0.598  0.00  0.00     0.011 C 
ATOM     13  C   UNL d   1       9.869  -2.755  -0.135  0.00  0.00     0.078 C 
ATOM     14  C   UNL d   1      10.093  -2.877   1.379  0.00  0.00     0.051 C 
ATOM     15  C   UNL d   1      10.754  -3.774  -0.863  0.00  0.00     0.051 C 
ENDBRANCH   3   4
BRANCH   3  16
ATOM     16  N   UNL d   1       3.302   0.549   0.297  0.00  0.00    -0.286 NA
ATOM     17  H   UNL d   1       2.768   1.393   0.477  0.00  0.00     0.125 HD
ATOM     18  H   UNL d   1       3.420  -0.011   1.133  0.00  0.00     0.125 HD
ENDBRANCH   3  16
BRANCH   1  19
ATOM     19  O   UNL d   1       3.587   2.806  -0.957  0.00  0.00    -0.193 OA
BRANCH  19  20
ATOM     20  C   UNL d   1       3.886   3.961  -1.626  0.00  0.00     0.315 C 
ATOM     21  O   UNL d   1       4.925   4.253  -2.201  0.00  0.00    -0.257 OA
BRANCH  20  22
ATOM     22  C   UNL d   1       2.757   4.918  -1.497  0.00  0.00     0.041 A 
ATOM     23  C   UNL d   1       1.431   4.501  -1.317  0.00  0.00     0.017 A 
ATOM     24  C   UNL d   1       0.413   5.452  -1.206  0.00  0.00     0.001 A 
ATOM     25  C   UNL d   1       0.712   6.814  -1.276  0.00  0.00     0.000 A 
ATOM     26  C   UNL d   1       2.028   7.232  -1.466  0.00  0.00     0.001 A 
ATOM     27  C   UNL d   1       3.048   6.286  -1.582  0.00  0.00     0.017 A 
ENDBRANCH  20  22
ENDBRANCH  19  20
ENDBRANCH   1  19
TORSDOF 5
