REMARK  2 active torsions:
REMARK  status: ('A' for Active; 'I' for Inactive)
REMARK    1  A    between atoms: C_2  and  C_1 
REMARK    2  A    between atoms: C_11  and  C_5 
ROOT
ATOM      1  C   UNL d   1       2.042   1.774  -0.134  0.00  0.00     0.107 A 
ATOM      2  C   UNL d   1       2.789   1.314  -1.381  0.00  0.00     0.024 A 
ATOM      3  C   UNL d   1       2.951   1.951   1.085  0.00  0.00     0.057 A 
ATOM      4  C   UNL d   1       4.110   1.053  -1.357  0.00  0.00     0.020 A 
ATOM      5  N   UNL d   1       4.825   1.219  -0.187  0.00  0.00    -0.362 N 
ATOM      6  C   UNL d   1       4.278   1.692   0.997  0.00  0.00     0.023 A 
ATOM      7  C   UNL d   1       2.380   2.451   2.298  0.00  0.00     0.098 C 
ATOM      8  C   UNL d   1       2.043   1.271  -2.674  0.00  0.00     0.158 C 
ATOM      9  N   UNL d   1       1.954   2.854   3.297  0.00  0.00    -0.192 NA
ATOM     10  O   UNL d   1       0.877   1.654  -2.742  0.00  0.00    -0.293 OA
ATOM     11  C   UNL d   1       4.872   0.587  -2.573  0.00  0.00     0.058 C 
ATOM     12  C   UNL d   1       5.232   1.930   2.142  0.00  0.00     0.069 C 
ATOM     13  C   UNL d   1       2.782   0.857  -3.926  0.00  0.00     0.084 C 
ATOM     14  C   UNL d   1       3.955  -0.051  -3.610  0.00  0.00     0.014 C 
ATOM     15  H   UNL d   1       5.834   1.103  -0.228  0.00  0.00     0.165 HD
ENDROOT
BRANCH   1  16
ATOM     16  C   UNL d   1       0.867   0.875   0.164  0.00  0.00     0.002 A 
ATOM     17  C   UNL d   1      -0.526   1.212   0.196  0.00  0.00     0.073 A 
ATOM     18  N   UNL d   1      -1.288   0.113   0.310  0.00  0.00    -0.299 N 
ATOM     19  N   UNL d   1      -0.414  -0.894   0.410  0.00  0.00    -0.311 N 
ATOM     20  HN  UNL d   1      -2.307   0.059   0.319  1.00  0.00     0.187 HD
ATOM     21  C   UNL d   1       0.885  -0.498   0.339  0.00  0.00     0.117 A 
ATOM     22  H   UNL d   1      -0.779  -1.837   0.498  0.00  0.00     0.186 HD
BRANCH  17  23
ATOM     23  C   UNL d   1      -1.163   2.574   0.060  0.00  0.00     0.033 A 
ATOM     24  S   UNL d   1      -0.421   4.069   0.435  0.00  0.00    -0.100 SA
ATOM     25  C   UNL d   1      -1.762   4.965  -0.115  0.00  0.00     0.050 A 
ATOM     26  C   UNL d   1      -2.789   4.146  -0.525  0.00  0.00     0.008 A 
ATOM     27  C   UNL d   1      -2.458   2.765  -0.382  0.00  0.00     0.021 A 
ENDBRANCH  17  23
ENDBRANCH   1  16
TORSDOF 2
