REMARK  3 active torsions:
REMARK  status: ('A' for Active; 'I' for Inactive)
REMARK    1  A    between atoms: C_7  and  C_3 
REMARK    2  A    between atoms: C_5  and  C_8 
REMARK    3  A    between atoms: C_6  and  C_9 
ROOT
ATOM      1  N   UNL d   1      -1.232  -0.248  -0.015  0.00  0.00    -0.369 N 
ATOM      2  HN  UNL d   1      -2.224  -0.436   0.130  1.00  0.00     0.161 HD
ATOM      3  C   UNL d   1      -0.251  -1.119  -0.051  0.00  0.00     0.087 C 
ATOM      4  N   UNL d   1       1.028  -0.603  -0.141  0.00  0.00    -0.267 NA
ATOM      5  C   UNL d   1      -0.577   1.081  -0.233  0.00  0.00     0.138 C 
ATOM      6  C   UNL d   1       0.929   0.835   0.103  0.00  0.00     0.121 C 
ATOM      7  H   UNL d   1       1.753  -1.080   0.379  0.00  0.00     0.130 HD
ENDROOT
BRANCH   3   8
ATOM      8  C   UNL d   1      -0.545  -2.576  -0.013  0.00  0.00     0.002 A 
ATOM      9  C   UNL d   1      -1.876  -2.997   0.119  0.00  0.00     0.014 A 
ATOM     10  C   UNL d   1      -2.195  -4.355   0.080  0.00  0.00     0.001 A 
ATOM     11  C   UNL d   1      -1.186  -5.300  -0.089  0.00  0.00     0.000 A 
ATOM     12  C   UNL d   1       0.142  -4.888  -0.217  0.00  0.00     0.001 A 
ATOM     13  C   UNL d   1       0.465  -3.528  -0.183  0.00  0.00     0.014 A 
ENDBRANCH   3   8
BRANCH   5  14
ATOM     14  C   UNL d   1      -0.895   1.585  -1.634  0.00  0.00    -0.034 A 
ATOM     15  C   UNL d   1      -1.530   2.823  -1.813  0.00  0.00     0.009 A 
ATOM     16  C   UNL d   1      -1.807   3.301  -3.096  0.00  0.00     0.001 A 
ATOM     17  C   UNL d   1      -1.460   2.546  -4.215  0.00  0.00     0.000 A 
ATOM     18  C   UNL d   1      -0.841   1.312  -4.055  0.00  0.00     0.001 A 
ATOM     19  C   UNL d   1      -0.562   0.833  -2.775  0.00  0.00     0.009 A 
ENDBRANCH   5  14
BRANCH   6  20
ATOM     20  C   UNL d   1       1.938   1.693  -0.624  0.00  0.00    -0.038 A 
ATOM     21  C   UNL d   1       1.913   3.086  -0.415  0.00  0.00     0.009 A 
ATOM     22  C   UNL d   1       2.772   3.935  -1.113  0.00  0.00     0.001 A 
ATOM     23  C   UNL d   1       3.686   3.406  -2.019  0.00  0.00     0.000 A 
ATOM     24  C   UNL d   1       3.744   2.028  -2.221  0.00  0.00     0.001 A 
ATOM     25  C   UNL d   1       2.877   1.177  -1.528  0.00  0.00     0.009 A 
ENDBRANCH   6  20
TORSDOF 3
