REMARK  5 active torsions:
REMARK  status: ('A' for Active; 'I' for Inactive)
REMARK    1  A    between atoms: C_3  and  C_1 
REMARK    2  A    between atoms: N_4  and  C_2 
REMARK       I    between atoms: N_7  and  C_3 
REMARK    3  A    between atoms: N_11  and  N_7 
REMARK       I    between atoms: C_8  and  N_11 
REMARK    4  A    between atoms: C_10  and  C_8 
REMARK    5  A    between atoms: C_19  and  C_12 
ROOT
ATOM      1  C   UNL d   1      -0.359   2.373   0.086  0.00  0.00     0.279 C 
ATOM      2  N   UNL d   1      -1.580   3.014   0.197  0.00  0.00    -0.262 N 
ATOM      3  O   UNL d   1      -0.310   1.187  -0.247  0.00  0.00    -0.265 OA
ATOM      4  H   UNL d   1      -1.679   4.014   0.362  0.00  0.00     0.190 HD
ENDROOT
BRANCH   2   5
ATOM      5  N   UNL d   1      -2.738   2.280  -0.091  0.00  0.00    -0.264 N 
ATOM      6  C   UNL d   1      -3.870   2.943  -0.500  0.00  0.00     0.259 C 
ATOM      7  O   UNL d   1      -3.951   4.164  -0.575  0.00  0.00    -0.267 OA
ATOM      8  H   UNL d   1      -2.626   1.268  -0.134  0.00  0.00     0.190 HD
BRANCH   6   9
ATOM      9  C   UNL d   1      -4.993   2.024  -0.826  0.00  0.00     0.076 C 
ATOM     10  C   UNL d   1      -6.178   2.532  -1.201  0.00  0.00     0.017 C 
BRANCH  10  11
ATOM     11  C   UNL d   1      -7.385   1.750  -1.519  0.00  0.00    -0.036 A 
ATOM     12  C   UNL d   1      -7.652   0.491  -0.962  0.00  0.00     0.011 A 
ATOM     13  C   UNL d   1      -8.845  -0.179  -1.252  0.00  0.00     0.001 A 
ATOM     14  C   UNL d   1      -9.792   0.403  -2.092  0.00  0.00     0.000 A 
ATOM     15  C   UNL d   1      -9.545   1.656  -2.645  0.00  0.00     0.001 A 
ATOM     16  C   UNL d   1      -8.351   2.325  -2.357  0.00  0.00     0.011 A 
ENDBRANCH  10  11
ENDBRANCH   6   9
ENDBRANCH   2   5
BRANCH   1  17
ATOM     17  C   UNL d   1       0.821   3.167   0.392  0.00  0.00     0.101 A 
ATOM     18  C   UNL d   1       2.083   3.127  -0.185  0.00  0.00     0.061 A 
ATOM     19  C   UNL d   1       3.049   3.833   0.605  0.00  0.00     0.039 A 
ATOM     20  C   UNL d   1       2.480   4.465   1.688  0.00  0.00     0.053 A 
ATOM     21  S   UNL d   1       0.797   4.196   1.770  0.00  0.00    -0.094 SA
BRANCH  18  22
ATOM     22  N   UNL d   1       2.421   2.469  -1.413  0.00  0.00    -0.331 N 
ATOM     23  C   UNL d   1       1.573   2.199  -2.468  0.00  0.00     0.096 A 
ATOM     24  C   UNL d   1       2.283   1.593  -3.481  0.00  0.00     0.019 A 
ATOM     25  C   UNL d   1       3.620   1.490  -3.047  0.00  0.00     0.019 A 
ATOM     26  C   UNL d   1       3.686   2.061  -1.795  0.00  0.00     0.096 A 
ENDBRANCH  18  22
ENDBRANCH   1  17
TORSDOF 5
