REMARK  11 active torsions:
REMARK  status: ('A' for Active; 'I' for Inactive)
REMARK    1  A    between atoms: C_5  and  C_1 
REMARK    2  A    between atoms: N_6  and  C_13 
REMARK    3  A    between atoms: S_17  and  C_7 
REMARK    4  A    between atoms: C_10  and  C_19 
REMARK    5  A    between atoms: C_11  and  C_20 
REMARK    6  A    between atoms: O_18  and  C_12 
REMARK    7  A    between atoms: C_32  and  S_17 
REMARK    8  A    between atoms: C_19  and  O_18 
REMARK    9  A    between atoms: C_20  and  O_31 
REMARK   10  A    between atoms: O_31  and  C_30 
REMARK   11  A    between atoms: C_33  and  C_32 
ROOT
ATOM      1  C   UNL d   1      -0.334  -1.032   0.283  0.00  0.00     0.178 A 
ATOM      2  O   UNL d   1       0.743  -0.833   1.115  0.00  0.00    -0.267 OA
ATOM      3  N   UNL d   1      -0.829   0.112  -0.149  0.00  0.00    -0.277 N 
ATOM      4  HN  UNL d   1      -1.616   0.232  -0.786  1.00  0.00     0.189 HD
ATOM      5  C   UNL d   1       0.845   0.530   1.172  0.00  0.00     0.204 A 
ATOM      6  N   UNL d   1      -0.069   1.122   0.433  0.00  0.00    -0.272 N 
ATOM      7  HN  UNL d   1      -0.196   2.127   0.310  1.00  0.00     0.189 HD
ENDROOT
BRANCH   1   8
ATOM      8  C   UNL d   1      -0.726  -2.431   0.071  0.00  0.00     0.053 A 
ATOM      9  C   UNL d   1      -1.591  -2.857  -0.959  0.00  0.00     0.083 A 
ATOM     10  C   UNL d   1      -1.850  -4.232  -1.111  0.00  0.00     0.040 A 
ATOM     11  C   UNL d   1      -1.349  -5.174  -0.211  0.00  0.00     0.039 A 
ATOM     12  C   UNL d   1      -0.556  -4.762   0.847  0.00  0.00     0.070 A 
ATOM     13  C   UNL d   1      -0.224  -3.410   0.960  0.00  0.00     0.055 A 
BRANCH   9  14
ATOM     14  O   UNL d   1      -2.152  -1.908  -1.782  0.00  0.00    -0.341 OA
BRANCH  14  15
ATOM     15  C   UNL d   1      -3.197  -2.359  -2.663  0.00  0.00     0.293 C 
BRANCH  15  16
ATOM     16  C   UNL d   1      -3.975  -1.222  -3.315  0.00  0.00     0.408 C 
ATOM     17  F   UNL d   1      -3.299  -0.059  -3.345  0.00  0.00    -0.169 F 
ATOM     18  F   UNL d   1      -4.280  -1.548  -4.597  0.00  0.00    -0.169 F 
ATOM     19  F   UNL d   1      -5.149  -1.012  -2.674  0.00  0.00    -0.169 F 
ENDBRANCH  15  16
ENDBRANCH  14  15
ENDBRANCH   9  14
BRANCH  12  20
ATOM     20  O   UNL d   1      -0.014  -5.580   1.796  0.00  0.00    -0.342 OA
BRANCH  20  21
ATOM     21  C   UNL d   1      -0.719  -6.801   2.063  0.00  0.00     0.293 C 
BRANCH  21  22
ATOM     22  C   UNL d   1      -0.027  -7.621   3.149  0.00  0.00     0.408 C 
ATOM     23  F   UNL d   1       1.126  -7.066   3.578  0.00  0.00    -0.169 F 
ATOM     24  F   UNL d   1      -0.832  -7.776   4.226  0.00  0.00    -0.169 F 
ATOM     25  F   UNL d   1       0.268  -8.861   2.689  0.00  0.00    -0.169 F 
ENDBRANCH  21  22
ENDBRANCH  20  21
ENDBRANCH  12  20
ENDBRANCH   1   8
BRANCH   5  26
ATOM     26  S   UNL d   1       2.056   1.312   2.145  0.00  0.00    -0.080 SA
BRANCH  26  27
ATOM     27  C   UNL d   1       1.560   3.051   2.039  0.00  0.00     0.121 C 
BRANCH  27  28
ATOM     28  C   UNL d   1       2.431   3.932   2.916  0.00  0.00    -0.048 A 
ATOM     29  C   UNL d   1       3.639   4.457   2.428  0.00  0.00     0.010 A 
ATOM     30  C   UNL d   1       4.447   5.267   3.233  0.00  0.00     0.036 A 
ATOM     31  C   UNL d   1       4.049   5.554   4.544  0.00  0.00     0.102 A 
ATOM     32  C   UNL d   1       2.853   5.031   5.052  0.00  0.00     0.036 A 
ATOM     33  C   UNL d   1       2.053   4.221   4.238  0.00  0.00     0.010 A 
BRANCH  31  34
ATOM     34  N   UNL d   1       4.893   6.409   5.392  0.00  0.00    -0.116 N 
ATOM     35  O   UNL d   1       5.940   6.853   4.905  0.00  0.00    -0.532 OA
ATOM     36  O   UNL d   1       4.501   6.631   6.551  0.00  0.00    -0.532 OA
ENDBRANCH  31  34
ENDBRANCH  27  28
ENDBRANCH  26  27
ENDBRANCH   5  26
TORSDOF 11
