REMARK  3 active torsions:
REMARK  status: ('A' for Active; 'I' for Inactive)
REMARK    1  A    between atoms: N_13  and  C_3 
REMARK    2  A    between atoms: C_12  and  C_10 
REMARK    3  A    between atoms: C_14  and  C_11 
ROOT
ATOM      1  N   UNL d   1       0.313   0.624  -0.012  0.00  0.00    -0.224 N 
ATOM      2  C   UNL d   1       0.150  -0.771   0.006  0.00  0.00     0.131 A 
ATOM      3  C   UNL d   1      -0.833   1.489   0.004  0.00  0.00     0.128 A 
ATOM      4  N   UNL d   1       1.643   0.937  -0.065  0.00  0.00    -0.294 N 
ATOM      5  HN  UNL d   1       2.051   1.870  -0.122  1.00  0.00     0.187 HD
ATOM      6  C   UNL d   1      -2.048   0.892   0.015  0.00  0.00     0.084 A 
ATOM      7  N   UNL d   1      -1.068  -1.384   0.040  0.00  0.00    -0.337 N 
ATOM      8  HN  UNL d   1      -1.156  -2.400   0.056  1.00  0.00     0.167 HD
ATOM      9  C   UNL d   1       1.409  -1.317  -0.003  0.00  0.00     0.077 A 
ATOM     10  C   UNL d   1      -2.116  -0.606   0.050  0.00  0.00     0.121 A 
ATOM     11  C   UNL d   1       2.301  -0.229  -0.026  0.00  0.00     0.037 A 
ENDROOT
BRANCH  10  12
ATOM     12  C   UNL d   1      -3.511  -1.228   0.112  0.00  0.00     0.432 C 
ATOM     13  F   UNL d   1      -4.508  -0.297   0.122  0.00  0.00    -0.165 F 
ATOM     14  F   UNL d   1      -3.765  -2.038  -0.953  0.00  0.00    -0.165 F 
ATOM     15  F   UNL d   1      -3.691  -1.984   1.229  0.00  0.00    -0.165 F 
ENDBRANCH  10  12
BRANCH   3  16
ATOM     16  N   UNL d   1      -0.697   2.901   0.009  0.00  0.00    -0.374 N 
ATOM     17  C   UNL d   1      -1.665   3.815  -0.603  0.00  0.00     0.150 C 
ATOM     18  C   UNL d   1       0.471   3.603   0.558  0.00  0.00     0.150 C 
ENDBRANCH   3  16
BRANCH  11  19
ATOM     19  C   UNL d   1       3.822  -0.248  -0.016  0.00  0.00    -0.007 C 
ATOM     20  C   UNL d   1       4.350   0.461   1.248  0.00  0.00     0.021 C 
ATOM     21  C   UNL d   1       4.376  -1.689  -0.015  0.00  0.00     0.021 C 
ATOM     22  C   UNL d   1       4.376   0.472  -1.262  0.00  0.00     0.021 C 
ENDBRANCH  11  19
TORSDOF 3
