REMARK  5 active torsions:
REMARK  status: ('A' for Active; 'I' for Inactive)
REMARK    1  A    between atoms: C_6  and  C_1 
REMARK       I    between atoms: C_2  and  N_5 
REMARK    2  A    between atoms: C_11  and  C_2 
REMARK    3  A    between atoms: N_5  and  C_12 
REMARK    4  A    between atoms: S_7  and  C_11 
REMARK    5  A    between atoms: C_13  and  S_7 
ROOT
ATOM      1  C   UNL d   1       0.090  -6.526   3.998  0.00  0.00     0.231 C 
ATOM      2  N   UNL d   1      -0.208  -5.177   4.060  0.00  0.00    -0.327 N 
ATOM      3  O   UNL d   1       0.580  -7.105   3.029  0.00  0.00    -0.272 OA
ATOM      4  H   UNL d   1      -0.471  -4.815   4.971  0.00  0.00     0.169 HD
ENDROOT
BRANCH   2   5
ATOM      5  C   UNL d   1      -0.167  -4.257   2.998  0.00  0.00     0.034 A 
ATOM      6  C   UNL d   1      -0.098  -4.647   1.660  0.00  0.00     0.030 A 
ATOM      7  C   UNL d   1      -0.045  -3.693   0.639  0.00  0.00     0.011 A 
ATOM      8  C   UNL d   1      -0.053  -2.323   0.935  0.00  0.00    -0.035 A 
ATOM      9  C   UNL d   1      -0.145  -1.938   2.283  0.00  0.00     0.011 A 
ATOM     10  C   UNL d   1      -0.219  -2.894   3.302  0.00  0.00     0.030 A 
BRANCH   8  11
ATOM     11  C   UNL d   1       0.034  -1.319  -0.197  0.00  0.00     0.141 C 
ATOM     12  S   UNL d   1       1.520  -0.266  -0.069  0.00  0.00    -0.148 SA
ATOM     13  C   UNL d   1       0.702   1.305  -0.438  0.00  0.00     0.085 C 
ATOM     14  C   UNL d   1      -0.679   1.268   0.185  0.00  0.00     0.085 C 
ATOM     15  S   UNL d   1      -1.462  -0.283  -0.315  0.00  0.00    -0.148 SA
ENDBRANCH   8  11
ENDBRANCH   2   5
BRANCH   1  16
ATOM     16  C   UNL d   1      -0.104  -7.287   5.301  0.00  0.00     0.182 C 
BRANCH  16  17
ATOM     17  S   UNL d   1      -1.507  -6.646   6.276  0.00  0.00    -0.121 SA
BRANCH  17  18
ATOM     18  C   UNL d   1      -1.501  -7.832   7.601  0.00  0.00     0.001 A 
ATOM     19  C   UNL d   1      -0.427  -7.912   8.493  0.00  0.00     0.020 A 
ATOM     20  C   UNL d   1      -0.451  -8.837   9.541  0.00  0.00     0.025 A 
ATOM     21  C   UNL d   1      -1.552  -9.677   9.698  0.00  0.00     0.034 A 
ATOM     22  C   UNL d   1      -2.630  -9.598   8.818  0.00  0.00     0.025 A 
ATOM     23 CL   UNL d   1      -1.582 -10.813  10.987  0.00  0.00    -0.084 Cl
ATOM     24  C   UNL d   1      -2.606  -8.673   7.771  0.00  0.00     0.020 A 
ENDBRANCH  17  18
ENDBRANCH  16  17
ENDBRANCH   1  16
TORSDOF 5
