REMARK  8 active torsions:
REMARK  status: ('A' for Active; 'I' for Inactive)
REMARK    1  A    between atoms: C_5  and  S_1 
REMARK    2  A    between atoms: N_10  and  S_1 
REMARK       I    between atoms: C_2  and  N_3 
REMARK    3  A    between atoms: O_9  and  C_2 
REMARK       I    between atoms: C_4  and  N_6 
REMARK    4  A    between atoms: C_12  and  C_4 
REMARK    5  A    between atoms: N_6  and  N_11 
REMARK    6  A    between atoms: C_22  and  O_9 
REMARK    7  A    between atoms: N_11  and  C_21 
REMARK    8  A    between atoms: C_25  and  C_22 
ROOT
ATOM      1  C   UNL d   1      -0.585  -7.740   1.891  0.00  0.00     0.236 C 
ATOM      2  N   UNL d   1      -0.066  -6.471   1.665  0.00  0.00    -0.287 N 
ATOM      3  O   UNL d   1      -0.416  -8.664   1.095  0.00  0.00    -0.272 OA
ATOM      4  H   UNL d   1       0.132  -5.867   2.458  0.00  0.00     0.184 HD
ENDROOT
BRANCH   1   5
ATOM      5  C   UNL d   1      -1.336  -7.908   3.217  0.00  0.00     0.082 C 
ATOM      6  C   UNL d   1      -1.930  -9.328   3.352  0.00  0.00     0.034 C 
ATOM      7  C   UNL d   1      -3.141  -9.545   2.428  0.00  0.00     0.129 C 
ATOM      8  N   UNL d   1      -4.123  -8.480   2.617  0.00  0.00    -0.328 N 
ATOM      9  C   UNL d   1      -5.410  -8.663   3.109  0.00  0.00     0.363 C 
ATOM     10  C   UNL d   1      -3.614  -7.125   2.449  0.00  0.00     0.129 C 
ATOM     11  O   UNL d   1      -6.135  -7.726   3.404  0.00  0.00    -0.238 OA
ATOM     12  C   UNL d   1      -2.451  -6.869   3.409  0.00  0.00     0.034 C 
BRANCH   9  13
ATOM     13  O   UNL d   1      -5.771  -9.965   3.287  0.00  0.00    -0.299 OA
BRANCH  13  14
ATOM     14  C   UNL d   1      -6.824 -10.163   4.249  0.00  0.00     0.219 C 
BRANCH  14  15
ATOM     15  C   UNL d   1      -8.153 -10.682   3.732  0.00  0.00    -0.034 A 
ATOM     16  C   UNL d   1      -8.920 -11.513   4.572  0.00  0.00     0.009 A 
ATOM     17  C   UNL d   1     -10.211 -11.914   4.218  0.00  0.00     0.001 A 
ATOM     18  C   UNL d   1     -10.761 -11.483   3.016  0.00  0.00     0.000 A 
ATOM     19  C   UNL d   1     -10.019 -10.656   2.172  0.00  0.00     0.001 A 
ATOM     20  C   UNL d   1      -8.722 -10.252   2.529  0.00  0.00     0.009 A 
ENDBRANCH  14  15
ENDBRANCH  13  14
ENDBRANCH   9  13
ENDBRANCH   1   5
BRANCH   2  21
ATOM     21  N   UNL d   1       0.907  -6.396   0.640  0.00  0.00    -0.203 NA
ATOM     22  H   UNL d   1       0.774  -7.167  -0.031  0.00  0.00     0.153 HD
BRANCH  21  23
ATOM     23  C   UNL d   1       0.977  -5.162  -0.054  0.00  0.00     0.027 A 
ATOM     24  C   UNL d   1       2.123  -4.918  -0.833  0.00  0.00     0.026 A 
ATOM     25  C   UNL d   1       2.279  -3.724  -1.544  0.00  0.00     0.026 A 
ATOM     26  C   UNL d   1       1.267  -2.767  -1.496  0.00  0.00     0.074 A 
ATOM     27  C   UNL d   1       0.100  -3.007  -0.767  0.00  0.00     0.026 A 
ATOM     28  C   UNL d   1      -0.044  -4.203  -0.053  0.00  0.00     0.026 A 
BRANCH  26  29
ATOM     29  S   UNL d   1       1.462  -1.232  -2.352  0.00  0.00     0.239 S 
ATOM     30  O   UNL d   1       0.353  -0.364  -2.035  0.00  0.00    -0.206 OA
ATOM     31  O   UNL d   1       1.877  -1.502  -3.708  0.00  0.00    -0.206 OA
BRANCH  29  32
ATOM     32  N   UNL d   1       2.787  -0.552  -1.573  0.00  0.00    -0.225 NA
ATOM     33  H   UNL d   1       2.478   0.191  -0.944  0.00  0.00     0.136 HD
ATOM     34  H   UNL d   1       3.462  -0.237  -2.271  0.00  0.00     0.136 HD
ENDBRANCH  29  32
ENDBRANCH  26  29
ENDBRANCH  21  23
ENDBRANCH   2  21
TORSDOF 8
