REMARK  8 active torsions:
REMARK  status: ('A' for Active; 'I' for Inactive)
REMARK    1  A    between atoms: O_2  and  C_1 
REMARK    2  A    between atoms: C_5  and  C_1 
REMARK    3  A    between atoms: C_3  and  O_2 
REMARK    4  A    between atoms: C_4  and  S_6 
REMARK    5  A    between atoms: O_13  and  C_4 
REMARK    6  A    between atoms: S_6  and  C_12 
REMARK    7  A    between atoms: C_12  and  C_11 
REMARK    8  A    between atoms: C_21  and  O_13 
ROOT
ATOM      1  C   UNL d   1       0.145   0.157   1.355  0.00  0.00     0.046 A 
ATOM      2  C   UNL d   1       0.672   1.316   1.978  0.00  0.00    -0.032 A 
ATOM      3  C   UNL d   1      -1.031  -0.433   1.882  0.00  0.00     0.018 A 
ATOM      4  C   UNL d   1      -0.090   1.889   3.022  0.00  0.00     0.009 A 
ATOM      5  C   UNL d   1      -1.720   0.122   2.953  0.00  0.00     0.001 A 
ATOM      6  C   UNL d   1      -1.256   1.299   3.511  0.00  0.00     0.001 A 
ENDROOT
BRANCH   1   7
ATOM      7  C   UNL d   1       0.787  -0.525   0.181  0.00  0.00     0.299 C 
ATOM      8  O   UNL d   1       1.944  -0.424  -0.183  0.00  0.00    -0.259 OA
BRANCH   7   9
ATOM      9  O   UNL d   1      -0.175  -1.328  -0.415  0.00  0.00    -0.271 OA
BRANCH   9  10
ATOM     10  C   UNL d   1       0.219  -2.564  -0.956  0.00  0.00     0.122 A 
ATOM     11  C   UNL d   1       0.859  -3.539  -0.176  0.00  0.00     0.069 A 
ATOM     12 CL   UNL d   1       1.296  -3.290   1.479  0.00  0.00    -0.081 Cl
ATOM     13  C   UNL d   1       1.079  -4.816  -0.699  0.00  0.00     0.027 A 
ATOM     14  C   UNL d   1       0.635  -5.135  -1.981  0.00  0.00     0.003 A 
ATOM     15  C   UNL d   1      -0.031  -4.178  -2.748  0.00  0.00     0.027 A 
ATOM     16  C   UNL d   1      -0.240  -2.894  -2.236  0.00  0.00     0.069 A 
ATOM     17 CL   UNL d   1      -1.131  -1.766  -3.193  0.00  0.00    -0.081 Cl
ENDBRANCH   9  10
ENDBRANCH   7   9
ENDBRANCH   1   7
BRANCH   2  18
ATOM     18  C   UNL d   1       1.965   1.985   1.511  0.00  0.00     0.121 C 
BRANCH  18  19
ATOM     19  S   UNL d   1       2.818   2.935   2.816  0.00  0.00    -0.089 SA
BRANCH  19  20
ATOM     20  C   UNL d   1       4.204   3.662   2.020  0.00  0.00     0.175 C 
ATOM     21  S   UNL d   1       4.308   4.082   0.407  0.00  0.00    -0.045 SA
BRANCH  20  22
ATOM     22  O   UNL d   1       5.223   3.920   2.893  0.00  0.00    -0.336 OA
BRANCH  22  23
ATOM     23  C   UNL d   1       6.274   4.878   2.640  0.00  0.00     0.172 C 
ATOM     24  C   UNL d   1       6.909   5.218   3.977  0.00  0.00     0.034 C 
ENDBRANCH  22  23
ENDBRANCH  20  22
ENDBRANCH  19  20
ENDBRANCH  18  19
ENDBRANCH   2  18
TORSDOF 8
