REMARK  5 active torsions:
REMARK  status: ('A' for Active; 'I' for Inactive)
REMARK    1  A    between atoms: C_2  and  C_1 
REMARK    2  A    between atoms: C_9  and  C_13 
REMARK    3  A    between atoms: C_10  and  C_14 
REMARK    4  A    between atoms: C_15  and  C_13 
REMARK    5  A    between atoms: C_16  and  C_14 
ROOT
ATOM      1  C   UNL d   1       0.287  -1.163  -0.189  0.00  0.00     0.191 C 
ATOM      2  N   UNL d   1       0.245  -0.390   0.851  0.00  0.00    -0.360 N 
ATOM      3  HN  UNL d   1       0.376  -0.643   1.831  1.00  0.00     0.162 HD
ATOM      4  O   UNL d   1       0.166  -0.649  -1.423  0.00  0.00    -0.331 OA
ATOM      5  C   UNL d   1      -0.039   0.944   0.280  0.00  0.00     0.112 C 
ATOM      6  C   UNL d   1       0.097   0.758  -1.225  0.00  0.00     0.202 C 
ENDROOT
BRANCH   1   7
ATOM      7  C   UNL d   1       0.427  -2.666  -0.135  0.00  0.00     0.191 C 
ATOM      8  N   UNL d   1       1.112  -3.319   0.750  0.00  0.00    -0.360 N 
ATOM      9  C   UNL d   1       0.873  -4.736   0.397  0.00  0.00     0.112 C 
ATOM     10  HN  UNL d   1       1.680  -2.945   1.510  1.00  0.00     0.162 HD
ATOM     11  C   UNL d   1      -0.167  -4.695  -0.714  0.00  0.00     0.202 C 
ATOM     12  O   UNL d   1      -0.274  -3.324  -1.073  0.00  0.00    -0.331 OA
BRANCH   9  13
ATOM     13  C   UNL d   1       0.405  -5.490   1.651  0.00  0.00     0.065 C 
BRANCH  13  14
ATOM     14  C   UNL d   1       0.089  -6.964   1.516  0.00  0.00    -0.056 A 
ATOM     15  C   UNL d   1       0.740  -7.807   0.608  0.00  0.00     0.007 A 
ATOM     16  C   UNL d   1       0.454  -9.177   0.577  0.00  0.00     0.001 A 
ATOM     17  C   UNL d   1      -0.472  -9.722   1.463  0.00  0.00     0.000 A 
ATOM     18  C   UNL d   1      -1.120  -8.901   2.379  0.00  0.00     0.001 A 
ATOM     19  C   UNL d   1      -0.839  -7.533   2.407  0.00  0.00     0.007 A 
ENDBRANCH  13  14
ENDBRANCH   9  13
ENDBRANCH   1   7
BRANCH   5  20
ATOM     20  C   UNL d   1      -1.446   1.365   0.736  0.00  0.00     0.065 C 
BRANCH  20  21
ATOM     21  C   UNL d   1      -1.897   2.725   0.260  0.00  0.00    -0.056 A 
ATOM     22  C   UNL d   1      -3.045   2.845  -0.538  0.00  0.00     0.007 A 
ATOM     23  C   UNL d   1      -3.499   4.099  -0.948  0.00  0.00     0.001 A 
ATOM     24  C   UNL d   1      -2.813   5.248  -0.564  0.00  0.00     0.000 A 
ATOM     25  C   UNL d   1      -1.673   5.144   0.231  0.00  0.00     0.001 A 
ATOM     26  C   UNL d   1      -1.217   3.889   0.643  0.00  0.00     0.007 A 
ENDBRANCH  20  21
ENDBRANCH   5  20
TORSDOF 5
