REMARK  5 active torsions:
REMARK  status: ('A' for Active; 'I' for Inactive)
REMARK    1  A    between atoms: S_2  and  C_1 
REMARK    2  A    between atoms: C_12  and  S_2 
REMARK    3  A    between atoms: C_7  and  C_4 
REMARK       I    between atoms: N_11  and  C_7 
REMARK    4  A    between atoms: N_9  and  C_8 
REMARK    5  A    between atoms: C_17  and  N_11 
ROOT
ATOM      1  C   UNL d   1       0.483  -2.454   0.145  0.00  0.00     0.263 C 
ATOM      2  N   UNL d   1      -0.666  -3.241   0.099  0.00  0.00    -0.322 N 
ATOM      3  O   UNL d   1       1.618  -2.933   0.100  0.00  0.00    -0.267 OA
ATOM      4  H   UNL d   1      -1.545  -2.752  -0.014  0.00  0.00     0.169 HD
ENDROOT
BRANCH   1   5
ATOM      5  C   UNL d   1       0.301  -0.994   0.192  0.00  0.00     0.080 A 
ATOM      6  C   UNL d   1       1.313  -0.025   0.181  0.00  0.00    -0.017 A 
ATOM      7  C   UNL d   1       0.758   1.312   0.218  0.00  0.00     0.078 A 
ATOM      8  C   UNL d   1       2.773  -0.392   0.143  0.00  0.00     0.051 C 
ATOM      9  C   UNL d   1      -0.622   1.288   0.269  0.00  0.00     0.075 A 
ATOM     10  S   UNL d   1      -1.256  -0.292   0.280  0.00  0.00    -0.094 SA
BRANCH   7  11
ATOM     11  S   UNL d   1       1.626   2.833   0.215  0.00  0.00     0.207 S 
ATOM     12  O   UNL d   1       0.685   3.790   0.765  0.00  0.00    -0.217 OA
ATOM     13  O   UNL d   1       2.901   2.579   0.851  0.00  0.00    -0.217 OA
BRANCH  11  14
ATOM     14  C   UNL d   1       1.897   3.244  -1.492  0.00  0.00     0.064 A 
ATOM     15  C   UNL d   1       0.992   4.091  -2.145  0.00  0.00     0.025 A 
ATOM     16  C   UNL d   1       1.212   4.447  -3.479  0.00  0.00     0.025 A 
ATOM     17  C   UNL d   1       2.339   3.970  -4.147  0.00  0.00     0.034 A 
ATOM     18  C   UNL d   1       3.262   3.158  -3.486  0.00  0.00     0.025 A 
ATOM     19 CL   UNL d   1       2.593   4.389  -5.796  0.00  0.00    -0.084 Cl
ATOM     20  C   UNL d   1       3.048   2.799  -2.151  0.00  0.00     0.025 A 
ENDBRANCH  11  14
ENDBRANCH   7  11
ENDBRANCH   1   5
BRANCH   2  21
ATOM     21  C   UNL d   1      -0.682  -4.655   0.004  0.00  0.00     0.036 A 
ATOM     22  C   UNL d   1       0.428  -5.450   0.278  0.00  0.00     0.055 A 
ATOM     23  C   UNL d   1       0.428  -6.835   0.041  0.00  0.00     0.062 A 
ATOM     24 CL   UNL d   1       1.989  -7.583   0.221  0.00  0.00    -0.082 Cl
ATOM     25  C   UNL d   1      -0.725  -7.511  -0.414  0.00  0.00     0.052 A 
ATOM     26  C   UNL d   1      -1.857  -6.688  -0.614  0.00  0.00     0.033 A 
ATOM     27  C   UNL d   1      -1.845  -5.294  -0.413  0.00  0.00     0.032 A 
BRANCH  25  28
ATOM     28  N   UNL d   1      -0.827  -8.873  -0.640  0.00  0.00    -0.375 N 
ATOM     29  C   UNL d   1      -0.039  -9.890   0.080  0.00  0.00     0.149 C 
ATOM     30  C   UNL d   1      -0.966 -11.020   0.561  0.00  0.00     0.187 C 
ATOM     31  O   UNL d   1      -1.742 -11.582  -0.508  0.00  0.00    -0.388 OA
ATOM     32  C   UNL d   1      -2.538 -10.561  -1.133  0.00  0.00     0.187 C 
ATOM     33  C   UNL d   1      -1.653  -9.449  -1.717  0.00  0.00     0.149 C 
ENDBRANCH  25  28
ENDBRANCH   2  21
TORSDOF 5
