REMARK  2 active torsions:
REMARK  status: ('A' for Active; 'I' for Inactive)
REMARK    1  A    between atoms: C_2  and  C_1 
REMARK       I    between atoms: N_3  and  C_1 
REMARK    2  A    between atoms: C_6  and  N_3 
ROOT
ATOM      1  C   UNL d   1       0.964   0.054   0.090  0.00  0.00     0.259 C 
ATOM      2  N   UNL d   1       0.217   0.741   1.032  0.00  0.00    -0.323 N 
ATOM      3  O   UNL d   1       2.189   0.016   0.054  0.00  0.00    -0.267 OA
ATOM      4  H   UNL d   1      -0.778   0.550   1.069  0.00  0.00     0.169 HD
ENDROOT
BRANCH   1   5
ATOM      5  C   UNL d   1       0.215  -0.692  -0.963  0.00  0.00     0.070 A 
ATOM      6  C   UNL d   1      -1.175  -0.669  -1.081  0.00  0.00     0.132 A 
ATOM      7  F   UNL d   1      -1.936  -0.027  -0.180  0.00  0.00    -0.205 F 
ATOM      8  C   UNL d   1      -1.818  -1.305  -2.144  0.00  0.00     0.043 A 
ATOM      9  C   UNL d   1      -1.069  -1.980  -3.107  0.00  0.00     0.003 A 
ATOM     10  C   UNL d   1       0.319  -2.032  -2.995  0.00  0.00     0.001 A 
ATOM     11  C   UNL d   1       0.957  -1.393  -1.929  0.00  0.00     0.020 A 
ENDBRANCH   1   5
BRANCH   2  12
ATOM     12  C   UNL d   1       0.695   1.727   1.922  0.00  0.00     0.035 A 
ATOM     13  C   UNL d   1       1.970   2.293   1.827  0.00  0.00     0.031 A 
ATOM     14  C   UNL d   1       2.358   3.328   2.683  0.00  0.00     0.021 A 
ATOM     15  C   UNL d   1       1.474   3.794   3.650  0.00  0.00     0.011 A 
ATOM     16  C   UNL d   1       0.206   3.229   3.771  0.00  0.00     0.021 A 
ATOM     17 BR   UNL d   1       1.990   5.212   4.788  0.00  0.00    -0.051 Br
ATOM     18  C   UNL d   1      -0.184   2.203   2.903  0.00  0.00     0.031 A 
ENDBRANCH   2  12
TORSDOF 2
