REMARK  6 active torsions:
REMARK  status: ('A' for Active; 'I' for Inactive)
REMARK       I    between atoms: C_5  and  N_6 
REMARK    1  A    between atoms: C_17  and  C_5 
REMARK    2  A    between atoms: N_6  and  C_10 
REMARK    3  A    between atoms: C_8  and  C_18 
REMARK    4  A    between atoms: O_16  and  C_8 
REMARK    5  A    between atoms: C_19  and  C_17 
REMARK    6  A    between atoms: C_18  and  C_19 
ROOT
ATOM      1  C   UNL d   1      -2.614   3.753   0.023  0.00  0.00     0.222 C 
ATOM      2  N   UNL d   1      -2.960   2.413   0.031  0.00  0.00    -0.327 N 
ATOM      3  O   UNL d   1      -1.475   4.203   0.089  0.00  0.00    -0.273 OA
ATOM      4  H   UNL d   1      -3.949   2.190   0.038  0.00  0.00     0.169 HD
ENDROOT
BRANCH   2   5
ATOM      5  C   UNL d   1      -2.065   1.319   0.029  0.00  0.00     0.035 A 
ATOM      6  C   UNL d   1      -0.676   1.467  -0.016  0.00  0.00     0.047 A 
ATOM      7  C   UNL d   1       0.105   0.324  -0.024  0.00  0.00     0.050 A 
ATOM      8  C   UNL d   1       1.557   0.233  -0.075  0.00  0.00     0.294 A 
ATOM      9  C   UNL d   1      -0.426  -0.945   0.011  0.00  0.00    -0.018 A 
ATOM     10  O   UNL d   1       1.860  -1.101  -0.061  0.00  0.00    -0.313 OA
ATOM     11  O   UNL d   1       2.345   1.154  -0.131  0.00  0.00    -0.259 OA
ATOM     12  C   UNL d   1       0.676  -1.927  -0.006  0.00  0.00     0.218 A 
ATOM     13  C   UNL d   1      -1.796  -1.122   0.051  0.00  0.00     0.012 A 
ATOM     14  C   UNL d   1      -2.615   0.018   0.058  0.00  0.00     0.030 A 
ENDBRANCH   2   5
BRANCH   1  15
ATOM     15  C   UNL d   1      -3.804   4.687  -0.089  0.00  0.00     0.103 C 
BRANCH  15  16
ATOM     16  C   UNL d   1      -3.428   5.980  -0.829  0.00  0.00     0.019 C 
BRANCH  16  17
ATOM     17  C   UNL d   1      -3.006   5.751  -2.286  0.00  0.00     0.110 C 
BRANCH  17  18
ATOM     18  C   UNL d   1      -4.129   5.182  -3.121  0.00  0.00     0.139 C 
ATOM     19  O   UNL d   1      -5.316   5.376  -2.912  0.00  0.00    -0.650 OA
BRANCH  18  20
ATOM     20  O   UNL d   1      -3.693   4.420  -4.148  0.00  0.00    -0.776 OA
ATOM     21  H   UNL d   1      -2.721   4.352  -4.212  0.00  0.00     0.167 HD
ENDBRANCH  18  20
ENDBRANCH  17  18
ENDBRANCH  16  17
ENDBRANCH  15  16
ENDBRANCH   1  15
TORSDOF 6
