REMARK  5 active torsions:
REMARK  status: ('A' for Active; 'I' for Inactive)
REMARK    1  A    between atoms: N_3  and  C_1 
REMARK    2  A    between atoms: N_13  and  C_2 
REMARK    3  A    between atoms: C_11  and  C_9 
REMARK    4  A    between atoms: S_10  and  C_12 
REMARK    5  A    between atoms: C_14  and  S_10 
ROOT
ATOM      1  C   UNL d   1      -0.087   1.713  -0.708  0.00  0.00     0.145 C 
ATOM      2  C   UNL d   1      -0.081   3.051  -0.936  0.00  0.00     0.125 C 
ATOM      3  C   UNL d   1       0.794   1.197   0.302  0.00  0.00     0.120 C 
ATOM      4  C   UNL d   1      -0.986   3.597  -1.917  0.00  0.00     0.114 C 
ATOM      5  N   UNL d   1       1.506   0.783   1.123  0.00  0.00    -0.190 NA
ATOM      6  N   UNL d   1      -1.707   4.094  -2.679  0.00  0.00    -0.190 NA
ENDROOT
BRANCH   1   7
ATOM      7  N   UNL d   1      -0.961   0.894  -1.400  0.00  0.00    -0.355 N 
ATOM      8  C   UNL d   1      -0.642  -0.343  -1.631  0.00  0.00     0.101 C 
ATOM      9  HN  UNL d   1      -1.854   1.261  -1.729  1.00  0.00     0.166 HD
BRANCH   8  10
ATOM     10  C   UNL d   1      -1.522  -1.206  -2.464  0.00  0.00    -0.004 A 
ATOM     11  C   UNL d   1      -1.195  -2.539  -2.775  0.00  0.00     0.017 A 
ATOM     12  C   UNL d   1      -2.022  -3.242  -3.671  0.00  0.00     0.020 A 
ATOM     13  C   UNL d   1      -3.158  -2.646  -4.225  0.00  0.00     0.001 A 
ATOM     14  C   UNL d   1      -3.487  -1.337  -3.895  0.00  0.00     0.001 A 
ATOM     15  C   UNL d   1      -2.675  -0.621  -3.017  0.00  0.00     0.014 A 
BRANCH  11  16
ATOM     16  S   UNL d   1       0.288  -3.370  -2.227  0.00  0.00    -0.090 SA
BRANCH  16  17
ATOM     17  C   UNL d   1      -0.177  -4.285  -0.764  0.00  0.00     0.005 A 
ATOM     18  C   UNL d   1      -1.482  -4.681  -0.450  0.00  0.00     0.020 A 
ATOM     19  C   UNL d   1      -1.740  -5.431   0.706  0.00  0.00     0.025 A 
ATOM     20  C   UNL d   1      -0.694  -5.794   1.552  0.00  0.00     0.034 A 
ATOM     21  C   UNL d   1       0.610  -5.417   1.250  0.00  0.00     0.025 A 
ATOM     22 CL   UNL d   1      -1.014  -6.713   2.969  0.00  0.00    -0.084 Cl
ATOM     23  C   UNL d   1       0.865  -4.669   0.096  0.00  0.00     0.020 A 
ENDBRANCH  16  17
ENDBRANCH  11  16
ENDBRANCH   8  10
ENDBRANCH   1   7
BRANCH   2  24
ATOM     24  N   UNL d   1       0.711   4.024  -0.330  0.00  0.00    -0.291 NA
ATOM     25  H   UNL d   1       1.103   3.770   0.575  0.00  0.00     0.125 HD
ATOM     26  H   UNL d   1       0.301   4.958  -0.334  0.00  0.00     0.125 HD
ENDBRANCH   2  24
TORSDOF 5
