REMARK  3 active torsions:
REMARK  status: ('A' for Active; 'I' for Inactive)
REMARK    1  A    between atoms: N_2  and  S_1 
REMARK    2  A    between atoms: C_7  and  S_1 
REMARK    3  A    between atoms: C_3  and  N_2 
ROOT
ATOM      1  S   UNL d   1       1.069  -0.053   0.100  0.00  0.00     0.247 S 
ATOM      2  O   UNL d   1       1.179   1.386   0.184  0.00  0.00    -0.205 OA
ATOM      3  O   UNL d   1       0.217  -0.817   0.988  0.00  0.00    -0.205 OA
ENDROOT
BRANCH   1   4
ATOM      4  N   UNL d   1       2.669  -0.635   0.148  0.00  0.00    -0.165 NA
ATOM      5  H   UNL d   1       3.237   0.203   0.284  0.00  0.00     0.147 HD
BRANCH   4   6
ATOM      6  C   UNL d   1       2.950  -1.570   1.141  0.00  0.00     0.117 A 
ATOM      7  N   UNL d   1       3.470  -1.211   2.314  0.00  0.00    -0.249 N 
ATOM      8  O   UNL d   1       3.595  -2.388   3.038  0.00  0.00    -0.241 OA
ATOM      9  HN  UNL d   1       3.724  -0.270   2.615  1.00  0.00     0.196 HD
ATOM     10  C   UNL d   1       3.218  -3.438   2.259  0.00  0.00     0.075 A 
ATOM     11  C   UNL d   1       2.826  -2.968   1.029  0.00  0.00     0.079 A 
ATOM     12  C   UNL d   1       3.311  -4.777   2.866  0.00  0.00     0.079 C 
ENDBRANCH   4   6
ENDBRANCH   1   4
BRANCH   1  13
ATOM     13  C   UNL d   1       0.575  -0.467  -1.555  0.00  0.00     0.075 A 
ATOM     14  C   UNL d   1       0.539  -1.819  -1.922  0.00  0.00     0.034 A 
ATOM     15  C   UNL d   1       0.160  -2.124  -3.215  0.00  0.00    -0.021 A 
ATOM     16  C   UNL d   1       0.008  -3.443  -3.867  0.00  0.00     0.068 C 
ATOM     17  C   UNL d   1      -0.216  -1.127  -4.101  0.00  0.00     0.075 A 
ATOM     18  C   UNL d   1      -0.112  -2.973  -5.317  0.00  0.00     0.180 C 
ATOM     19  O   UNL d   1      -0.582  -1.603  -5.333  0.00  0.00    -0.350 OA
ATOM     20  C   UNL d   1      -0.231   0.208  -3.744  0.00  0.00     0.039 A 
ATOM     21  C   UNL d   1       0.183   0.545  -2.452  0.00  0.00     0.027 A 
ENDBRANCH   1  13
TORSDOF 3
