REMARK  6 active torsions:
REMARK  status: ('A' for Active; 'I' for Inactive)
REMARK    1  A    between atoms: C_3  and  C_1 
REMARK    2  A    between atoms: O_14  and  C_1 
REMARK    3  A    between atoms: C_2  and  C_6 
REMARK    4  A    between atoms: O_11  and  C_15 
REMARK    5  A    between atoms: C_12  and  O_11 
REMARK    6  A    between atoms: C_15  and  C_13 
ROOT
ATOM      1  O   UNL d   1       1.188   1.587  -4.657  0.00  0.00    -0.347 OA
ENDROOT
BRANCH   1   2
ATOM      2  C   UNL d   1       0.128   2.440  -4.217  0.00  0.00     0.214 C 
BRANCH   2   3
ATOM      3  C   UNL d   1      -0.286   2.014  -2.824  0.00  0.00    -0.033 A 
ATOM      4  C   UNL d   1      -1.605   1.612  -2.552  0.00  0.00     0.027 A 
ATOM      5  C   UNL d   1      -1.981   1.179  -1.267  0.00  0.00     0.040 A 
ATOM      6  C   UNL d   1      -1.025   1.173  -0.243  0.00  0.00     0.017 A 
ATOM      7  C   UNL d   1       0.282   1.594  -0.499  0.00  0.00     0.002 A 
ATOM      8  C   UNL d   1       0.649   2.010  -1.779  0.00  0.00     0.009 A 
BRANCH   5   9
ATOM      9  C   UNL d   1      -3.390   0.738  -1.051  0.00  0.00     0.292 C 
ATOM     10  O   UNL d   1      -4.256   0.804  -1.905  0.00  0.00    -0.259 OA
BRANCH   9  11
ATOM     11  O   UNL d   1      -3.552   0.259   0.213  0.00  0.00    -0.323 OA
ATOM     12  C   UNL d   1      -4.866  -0.210   0.537  0.00  0.00     0.213 C 
ENDBRANCH   9  11
ENDBRANCH   5   9
ENDBRANCH   2   3
ENDBRANCH   1   2
BRANCH   1  13
ATOM     13  C   UNL d   1       1.724   1.867  -5.884  0.00  0.00     0.069 A 
ATOM     14  C   UNL d   1       3.047   1.460  -6.066  0.00  0.00     0.037 A 
ATOM     15  C   UNL d   1       3.699   1.665  -7.287  0.00  0.00     0.012 A 
ATOM     16  C   UNL d   1       3.030   2.266  -8.364  0.00  0.00    -0.035 A 
ATOM     17  C   UNL d   1       1.692   2.656  -8.174  0.00  0.00     0.012 A 
ATOM     18  C   UNL d   1       1.046   2.459  -6.947  0.00  0.00     0.037 A 
BRANCH  16  19
ATOM     19  C   UNL d   1       3.746   2.454  -9.687  0.00  0.00     0.141 C 
ATOM     20  S   UNL d   1       3.818   4.204 -10.200  0.00  0.00    -0.148 SA
ATOM     21  C   UNL d   1       3.477   3.921 -11.954  0.00  0.00     0.085 C 
ATOM     22  C   UNL d   1       2.444   2.816 -12.048  0.00  0.00     0.085 C 
ATOM     23  S   UNL d   1       3.013   1.441 -11.018  0.00  0.00    -0.148 SA
ENDBRANCH  16  19
ENDBRANCH   1  13
TORSDOF 6
