REMARK  4 active torsions:
REMARK  status: ('A' for Active; 'I' for Inactive)
REMARK    1  A    between atoms: C_3  and  S_1 
REMARK    2  A    between atoms: N_4  and  S_1 
REMARK    3  A    between atoms: N_2  and  C_5 
REMARK    4  A    between atoms: C_7  and  N_6 
ROOT
ATOM      1  N   UNL d   1      -0.013   1.411  -0.090  0.00  0.00    -0.304 N 
ATOM      2  N   UNL d   1       0.292   3.368  -2.237  0.00  0.00    -0.364 N 
ATOM      3  C   UNL d   1      -0.734   1.262  -1.397  0.00  0.00     0.155 C 
ATOM      4  C   UNL d   1       0.247   2.854   0.216  0.00  0.00     0.155 C 
ATOM      5  C   UNL d   1       0.052   1.942  -2.539  0.00  0.00     0.145 C 
ATOM      6  C   UNL d   1       0.946   3.606  -0.936  0.00  0.00     0.145 C 
ENDROOT
BRANCH   1   7
ATOM      7  S   UNL d   1       1.245   0.312   0.214  0.00  0.00     0.261 S 
ATOM      8  O   UNL d   1       1.758  -0.179  -1.044  0.00  0.00    -0.200 OA
ATOM      9  O   UNL d   1       2.122   0.869   1.223  0.00  0.00    -0.200 OA
BRANCH   7  10
ATOM     10  C   UNL d   1       0.381  -1.030   1.003  0.00  0.00     0.083 A 
ATOM     11  C   UNL d   1       0.335  -2.294   0.408  0.00  0.00     0.049 A 
ATOM     12  C   UNL d   1      -0.254  -3.351   1.104  0.00  0.00     0.037 A 
ATOM     13 CL   UNL d   1      -0.297  -4.919   0.399  0.00  0.00    -0.084 Cl
ATOM     14  C   UNL d   1      -0.793  -3.155   2.377  0.00  0.00     0.047 A 
ATOM     15  C   UNL d   1      -0.742  -1.889   2.954  0.00  0.00     0.037 A 
ATOM     16  C   UNL d   1      -0.156  -0.822   2.279  0.00  0.00     0.049 A 
ATOM     17 CL   UNL d   1      -1.391  -1.644   4.530  0.00  0.00    -0.084 Cl
ENDBRANCH   7  10
ENDBRANCH   1   7
BRANCH   2  18
ATOM     18  C   UNL d   1      -0.557   4.295  -2.815  0.00  0.00     0.103 A 
ATOM     19  N   UNL d   1      -1.612   3.845  -3.538  0.00  0.00    -0.350 N 
ATOM     20  C   UNL d   1      -2.414   4.736  -4.179  0.00  0.00     0.125 A 
ATOM     21  HN  UNL d   1      -1.803   2.845  -3.599  1.00  0.00     0.166 HD
ATOM     22  C   UNL d   1      -2.222   6.101  -4.120  0.00  0.00     0.118 A 
ATOM     23  C   UNL d   1      -1.145   6.584  -3.388  0.00  0.00     0.041 A 
ATOM     24  C   UNL d   1      -0.306   5.668  -2.743  0.00  0.00     0.051 A 
BRANCH  22  25
ATOM     25  N   UNL d   1      -3.132   6.999  -4.813  0.00  0.00    -0.114 N 
ATOM     26  O   UNL d   1      -4.056   6.494  -5.465  0.00  0.00    -0.532 OA
ATOM     27  O   UNL d   1      -2.933   8.217  -4.701  0.00  0.00    -0.532 OA
ENDBRANCH  22  25
ENDBRANCH   2  18
TORSDOF 4
