REMARK  4 active torsions:
REMARK  status: ('A' for Active; 'I' for Inactive)
REMARK    1  A    between atoms: N_2  and  S_1 
REMARK    2  A    between atoms: C_7  and  S_1 
REMARK    3  A    between atoms: N_4  and  S_3 
REMARK       I    between atoms: C_6  and  N_4 
REMARK    4  A    between atoms: C_15  and  C_6 
ROOT
ATOM      1  N   UNL d   1       0.405   0.902   1.093  0.00  0.00    -0.205 NA
ATOM      2  S   UNL d   1      -0.750   3.738  -0.038  0.00  0.00    -0.122 SA
ATOM      3  C   UNL d   1      -1.070   1.050   0.905  0.00  0.00     0.118 C 
ATOM      4  C   UNL d   1       0.972   2.185   1.605  0.00  0.00     0.118 C 
ATOM      5  C   UNL d   1       0.904   3.305   0.576  0.00  0.00     0.100 C 
ATOM      6  C   UNL d   1      -1.450   2.056  -0.183  0.00  0.00     0.100 C 
ENDROOT
BRANCH   1   7
ATOM      7  S   UNL d   1       1.290   0.118  -0.122  0.00  0.00     0.243 S 
ATOM      8  O   UNL d   1       2.681   0.527  -0.039  0.00  0.00    -0.206 OA
ATOM      9  O   UNL d   1       0.587   0.122  -1.386  0.00  0.00    -0.206 OA
BRANCH   7  10
ATOM     10  C   UNL d   1       1.265  -1.590   0.423  0.00  0.00     0.074 A 
ATOM     11  C   UNL d   1       0.212  -2.428   0.039  0.00  0.00     0.026 A 
ATOM     12  C   UNL d   1       0.292  -3.799   0.296  0.00  0.00     0.025 A 
ATOM     13  C   UNL d   1       1.426  -4.324   0.918  0.00  0.00     0.034 A 
ATOM     14  C   UNL d   1       2.474  -3.490   1.307  0.00  0.00     0.025 A 
ATOM     15 CL   UNL d   1       1.550  -6.022   1.177  0.00  0.00    -0.084 Cl
ATOM     16  C   UNL d   1       2.395  -2.118   1.060  0.00  0.00     0.026 A 
ENDBRANCH   7  10
ENDBRANCH   1   7
BRANCH   2  17
ATOM     17  N   UNL d   1      -1.420   4.166   1.248  0.00  0.00    -0.306 N 
ATOM     18  C   UNL d   1      -2.652   4.694   1.091  0.00  0.00     0.261 C 
ATOM     19  O   UNL d   1      -3.399   4.679   0.108  0.00  0.00    -0.267 OA
ATOM     20  HN  UNL d   1      -0.977   4.064   2.160  1.00  0.00     0.176 HD
BRANCH  18  21
ATOM     21  C   UNL d   1      -3.197   5.381   2.305  0.00  0.00     0.032 A 
ATOM     22  C   UNL d   1      -2.774   5.066   3.601  0.00  0.00     0.017 A 
ATOM     23  C   UNL d   1      -3.341   5.714   4.702  0.00  0.00     0.001 A 
ATOM     24  C   UNL d   1      -4.328   6.682   4.515  0.00  0.00     0.000 A 
ATOM     25  C   UNL d   1      -4.754   7.005   3.227  0.00  0.00     0.001 A 
ATOM     26  C   UNL d   1      -4.193   6.353   2.127  0.00  0.00     0.017 A 
ENDBRANCH  18  21
ENDBRANCH   2  17
TORSDOF 4
