REMARK  4 active torsions:
REMARK  status: ('A' for Active; 'I' for Inactive)
REMARK    1  A    between atoms: C_13  and  C_1 
REMARK    2  A    between atoms: C_11  and  C_6 
REMARK    3  A    between atoms: C_16  and  C_13 
REMARK    4  A    between atoms: C_14  and  C_17 
ROOT
ATOM      1  C   UNL d   1      -2.425  -0.746   0.030  0.00  0.00     0.065 A 
ATOM      2  C   UNL d   1      -0.279   0.483  -0.006  0.00  0.00     0.089 A 
ATOM      3  C   UNL d   1      -1.327  -1.607  -0.006  0.00  0.00    -0.026 A 
ATOM      4  C   UNL d   1      -0.068  -0.883  -0.013  0.00  0.00     0.027 A 
ATOM      5  S   UNL d   1      -1.930   0.893   0.062  0.00  0.00    -0.067 SA
ATOM      6  C   UNL d   1       1.909   0.975  -0.022  0.00  0.00     0.118 A 
ATOM      7  N   UNL d   1       0.659   1.446  -0.034  0.00  0.00    -0.335 N 
ATOM      8  HN  UNL d   1       0.438   2.441  -0.062  1.00  0.00     0.168 HD
ATOM      9  N   UNL d   1       2.247  -0.331  -0.027  0.00  0.00    -0.345 N 
ATOM     10  HN  UNL d   1       3.231  -0.602  -0.037  1.00  0.00     0.167 HD
ATOM     11  C   UNL d   1       1.282  -1.285  -0.019  0.00  0.00     0.020 A 
ATOM     12  C   UNL d   1      -1.411  -3.105  -0.019  0.00  0.00     0.050 C 
ATOM     13  C   UNL d   1       1.762  -2.704  -0.010  0.00  0.00     0.069 C 
ENDROOT
BRANCH   1  14
ATOM     14  C   UNL d   1      -3.829  -1.132   0.175  0.00  0.00     0.199 C 
ATOM     15  O   UNL d   1      -4.146  -2.146   0.801  0.00  0.00    -0.286 OA
BRANCH  14  16
ATOM     16  C   UNL d   1      -4.970  -0.374  -0.433  0.00  0.00     0.016 A 
ATOM     17  C   UNL d   1      -4.852   0.443  -1.565  0.00  0.00     0.031 A 
ATOM     18  C   UNL d   1      -5.986   1.078  -2.111  0.00  0.00     0.048 A 
ATOM     19  C   UNL d   1      -7.244   0.862  -1.527  0.00  0.00     0.016 A 
ATOM     20  C   UNL d   1      -7.375   0.029  -0.420  0.00  0.00     0.002 A 
ATOM     21  C   UNL d   1      -6.246  -0.583   0.121  0.00  0.00     0.015 A 
BRANCH  18  22
ATOM     22  C   UNL d   1      -5.878   1.972  -3.324  0.00  0.00     0.417 C 
ATOM     23  F   UNL d   1      -4.606   2.100  -3.792  0.00  0.00    -0.166 F 
ATOM     24  F   UNL d   1      -6.618   1.515  -4.371  0.00  0.00    -0.166 F 
ATOM     25  F   UNL d   1      -6.317   3.237  -3.079  0.00  0.00    -0.166 F 
ENDBRANCH  18  22
ENDBRANCH  14  16
ENDBRANCH   1  14
BRANCH   6  26
ATOM     26  C   UNL d   1       3.037   1.928  -0.090  0.00  0.00     0.030 A 
ATOM     27  C   UNL d   1       3.054   3.191   0.539  0.00  0.00     0.049 A 
ATOM     28  C   UNL d   1       4.158   4.050   0.414  0.00  0.00     0.048 A 
ATOM     29 CL   UNL d   1       1.774   3.756   1.561  0.00  0.00    -0.083 Cl
ATOM     30  C   UNL d   1       5.269   3.663  -0.326  0.00  0.00     0.035 A 
ATOM     31  C   UNL d   1       5.300   2.418  -0.938  0.00  0.00     0.025 A 
ATOM     32 CL   UNL d   1       6.615   4.723  -0.476  0.00  0.00    -0.084 Cl
ATOM     33  C   UNL d   1       4.197   1.566  -0.818  0.00  0.00     0.018 A 
ENDBRANCH   6  26
TORSDOF 4
