REMARK  5 active torsions:
REMARK  status: ('A' for Active; 'I' for Inactive)
REMARK    1  A    between atoms: S_2  and  C_1 
REMARK    2  A    between atoms: C_14  and  S_2 
REMARK    3  A    between atoms: N_5  and  C_4 
REMARK       I    between atoms: C_6  and  N_5 
REMARK       I    between atoms: N_12  and  C_6 
REMARK    4  A    between atoms: C_7  and  C_13 
REMARK    5  A    between atoms: C_21  and  N_12 
ROOT
ATOM      1  N   UNL d   1      -0.054   2.164  -0.171  0.00  0.00    -0.303 N 
ATOM      2  C   UNL d   1       0.567   3.388  -0.120  0.00  0.00     0.325 C 
ATOM      3  N   UNL d   1       1.921   3.360   0.108  0.00  0.00    -0.309 N 
ATOM      4  O   UNL d   1      -0.095   4.390  -0.376  0.00  0.00    -0.247 OA
ATOM      5  H   UNL d   1      -0.948   2.167  -0.646  0.00  0.00     0.171 HD
ATOM      6  H   UNL d   1       2.357   2.463  -0.042  0.00  0.00     0.170 HD
ENDROOT
BRANCH   1   7
ATOM      7  C   UNL d   1       0.367   0.981   0.384  0.00  0.00     0.079 A 
ATOM      8  C   UNL d   1       1.277   0.677   1.367  0.00  0.00     0.061 A 
ATOM      9  C   UNL d   1       1.425  -0.736   1.526  0.00  0.00     0.068 A 
ATOM     10  C   UNL d   1       0.610  -1.444   0.668  0.00  0.00     0.075 A 
ATOM     11  S   UNL d   1      -0.405  -0.400  -0.240  0.00  0.00    -0.083 SA
BRANCH   9  12
ATOM     12  S   UNL d   1       2.578  -1.455   2.605  0.00  0.00     0.179 S 
ATOM     13  O   UNL d   1       3.527  -2.065   1.696  0.00  0.00    -0.222 OA
ATOM     14  O   UNL d   1       2.955  -0.379   3.497  0.00  0.00    -0.222 OA
BRANCH  12  15
ATOM     15  C   UNL d   1       1.718  -2.735   3.518  0.00  0.00     0.105 C 
ATOM     16  C   UNL d   1       2.687  -3.389   4.503  0.00  0.00     0.026 C 
ATOM     17  C   UNL d   1       0.492  -2.204   4.254  0.00  0.00     0.026 C 
ENDBRANCH  12  15
ENDBRANCH   9  12
ENDBRANCH   1   7
BRANCH   3  18
ATOM     18  C   UNL d   1       2.799   4.451   0.247  0.00  0.00     0.036 A 
ATOM     19  C   UNL d   1       2.381   5.769   0.431  0.00  0.00     0.030 A 
ATOM     20  C   UNL d   1       3.320   6.795   0.591  0.00  0.00     0.018 A 
ATOM     21  C   UNL d   1       4.695   6.521   0.571  0.00  0.00     0.048 A 
ATOM     22  C   UNL d   1       5.111   5.197   0.375  0.00  0.00     0.018 A 
ATOM     23  C   UNL d   1       4.172   4.173   0.221  0.00  0.00     0.030 A 
BRANCH  21  24
ATOM     24  C   UNL d   1       5.718   7.612   0.770  0.00  0.00     0.417 C 
ATOM     25  F   UNL d   1       5.174   8.843   0.978  0.00  0.00    -0.166 F 
ATOM     26  F   UNL d   1       6.524   7.377   1.843  0.00  0.00    -0.166 F 
ATOM     27  F   UNL d   1       6.552   7.747  -0.298  0.00  0.00    -0.166 F 
ENDBRANCH  21  24
ENDBRANCH   3  18
TORSDOF 5
