REMARK  2 active torsions:
REMARK  status: ('A' for Active; 'I' for Inactive)
REMARK    1  A    between atoms: C_9  and  N_2 
REMARK    2  A    between atoms: C_8  and  C_7 
ROOT
ATOM      1  C   UNL d   1       0.123  -0.784  -0.066  0.00  0.00     0.059 A 
ATOM      2  N   UNL d   1       0.579   1.424  -0.040  0.00  0.00    -0.220 N 
ATOM      3  C   UNL d   1       1.234   0.191  -0.174  0.00  0.00     0.279 A 
ATOM      4  N   UNL d   1      -0.810   1.324   0.046  0.00  0.00    -0.294 N 
ATOM      5  HN  UNL d   1      -1.476   2.094   0.116  1.00  0.00     0.187 HD
ATOM      6  C   UNL d   1      -1.086   0.047   0.020  0.00  0.00     0.038 A 
ATOM      7  C   UNL d   1       0.203  -2.119  -0.003  0.00  0.00     0.038 C 
ATOM      8  O   UNL d   1       2.409  -0.069  -0.365  0.00  0.00    -0.265 OA
ATOM      9  C   UNL d   1      -2.474  -0.499   0.063  0.00  0.00     0.071 C 
ENDROOT
BRANCH   7  10
ATOM     10  C   UNL d   1       1.461  -2.782  -0.019  0.00  0.00     0.007 A 
ATOM     11  C   UNL d   1       2.206  -3.213  -1.103  0.00  0.00     0.038 A 
ATOM     12  C   UNL d   1       3.474  -3.709  -0.709  0.00  0.00     0.018 A 
ATOM     13 BR   UNL d   1       4.749  -4.300  -1.967  0.00  0.00    -0.051 Br
ATOM     14  C   UNL d   1       3.670  -3.688   0.647  0.00  0.00     0.069 A 
ATOM     15  S   UNL d   1       2.285  -3.098   1.462  0.00  0.00    -0.101 SA
ENDBRANCH   7  10
BRANCH   2  16
ATOM     16  C   UNL d   1       1.187   2.703   0.005  0.00  0.00     0.061 A 
ATOM     17  C   UNL d   1       2.582   2.847   0.055  0.00  0.00     0.055 A 
ATOM     18  C   UNL d   1       3.167   4.113   0.103  0.00  0.00     0.036 A 
ATOM     19 CL   UNL d   1       4.882   4.255   0.170  0.00  0.00    -0.084 Cl
ATOM     20  C   UNL d   1       2.380   5.257   0.101  0.00  0.00     0.024 A 
ATOM     21  C   UNL d   1       0.993   5.134   0.057  0.00  0.00     0.004 A 
ATOM     22  C   UNL d   1       0.402   3.866   0.015  0.00  0.00     0.032 A 
ENDBRANCH   2  16
TORSDOF 2
