REMARK  4 active torsions:
REMARK  status: ('A' for Active; 'I' for Inactive)
REMARK    1  A    between atoms: N_2  and  S_1 
REMARK    2  A    between atoms: C_11  and  S_1 
REMARK       I    between atoms: C_6  and  N_2 
REMARK    3  A    between atoms: C_3  and  N_8 
REMARK       I    between atoms: N_8  and  C_6 
REMARK    4  A    between atoms: C_12  and  C_7 
ROOT
ATOM      1  N   UNL d   1       0.489  -1.649   0.015  0.00  0.00    -0.232 N 
ATOM      2  C   UNL d   1       0.770  -2.604  -0.947  0.00  0.00     0.335 C 
ATOM      3  N   UNL d   1       1.570  -2.285  -2.004  0.00  0.00    -0.288 N 
ATOM      4  O   UNL d   1       0.313  -3.743  -0.902  0.00  0.00    -0.246 OA
ATOM      5  H   UNL d   1       0.952  -0.742  -0.009  0.00  0.00     0.183 HD
ATOM      6  H   UNL d   1       1.643  -2.998  -2.715  0.00  0.00     0.172 HD
ENDROOT
BRANCH   3   7
ATOM      7  C   UNL d   1       2.046  -1.045  -2.287  0.00  0.00     0.152 A 
ATOM      8  N   UNL d   1       2.072   0.007  -1.512  0.00  0.00    -0.335 N 
ATOM      9  C   UNL d   1       2.487   1.099  -2.261  0.00  0.00     0.051 A 
ATOM     10  HN  UNL d   1       1.828   0.023  -0.521  1.00  0.00     0.168 HD
ATOM     11  C   UNL d   1       2.790   0.830  -3.584  0.00  0.00     0.083 A 
ATOM     12  S   UNL d   1       2.608  -0.851  -3.882  0.00  0.00    -0.063 SA
BRANCH   9  13
ATOM     13  C   UNL d   1       2.501   2.424  -1.667  0.00  0.00    -0.006 A 
ATOM     14  C   UNL d   1       2.977   2.583  -0.358  0.00  0.00     0.059 A 
ATOM     15  C   UNL d   1       2.845   3.813   0.278  0.00  0.00     0.155 A 
ATOM     16  F   UNL d   1       3.276   3.949   1.539  0.00  0.00    -0.203 F 
ATOM     17  C   UNL d   1       2.248   4.884  -0.376  0.00  0.00     0.154 A 
ATOM     18  C   UNL d   1       1.804   4.749  -1.687  0.00  0.00     0.046 A 
ATOM     19  F   UNL d   1       2.079   6.053   0.256  0.00  0.00    -0.203 F 
ATOM     20  C   UNL d   1       1.937   3.520  -2.338  0.00  0.00     0.017 A 
ENDBRANCH   9  13
ENDBRANCH   3   7
BRANCH   1  21
ATOM     21  S   UNL d   1      -0.630  -1.851   1.236  0.00  0.00     0.266 S 
ATOM     22  O   UNL d   1      -1.915  -2.140   0.636  0.00  0.00    -0.200 OA
ATOM     23  O   UNL d   1      -0.469  -0.724   2.134  0.00  0.00    -0.200 OA
BRANCH  21  24
ATOM     24  C   UNL d   1      -0.050  -3.291   2.098  0.00  0.00     0.080 A 
ATOM     25  C   UNL d   1       1.169  -3.225   2.777  0.00  0.00     0.026 A 
ATOM     26  C   UNL d   1       1.706  -4.387   3.331  0.00  0.00     0.008 A 
ATOM     27  C   UNL d   1       1.027  -5.609   3.220  0.00  0.00    -0.062 A 
ATOM     28  C   UNL d   1      -0.230  -5.644   2.602  0.00  0.00     0.008 A 
ATOM     29  C   UNL d   1       1.679  -6.866   3.716  0.00  0.00     0.048 C 
ATOM     30  C   UNL d   1      -0.773  -4.485   2.043  0.00  0.00     0.026 A 
ENDBRANCH  21  24
ENDBRANCH   1  21
TORSDOF 4
