REMARK  3 active torsions:
REMARK  status: ('A' for Active; 'I' for Inactive)
REMARK    1  A    between atoms: N_4  and  N_1 
REMARK    2  A    between atoms: C_8  and  C_9 
REMARK    3  A    between atoms: O_20  and  C_12 
ROOT
ATOM      1  N   UNL d   1       3.287  -0.087  -0.138  0.00  0.00    -0.298 N 
ATOM      2  HN  UNL d   1       3.760  -0.960   0.095  1.00  0.00     0.186 HD
ATOM      3  C   UNL d   1       3.962   0.987  -0.404  0.00  0.00     0.122 C 
ENDROOT
BRANCH   1   4
ATOM      4  N   UNL d   1       1.919  -0.013  -0.177  0.00  0.00    -0.182 N 
ATOM      5  C   UNL d   1       1.148   1.090   0.122  0.00  0.00     0.280 A 
ATOM      6  C   UNL d   1      -0.241   0.636   0.057  0.00  0.00     0.050 A 
ATOM      7  O   UNL d   1       1.449   2.229   0.432  0.00  0.00    -0.265 OA
ATOM      8  C   UNL d   1      -1.415   1.349   0.218  0.00  0.00     0.018 A 
ATOM      9  C   UNL d   1      -0.232  -0.724  -0.196  0.00  0.00     0.050 A 
ATOM     10  C   UNL d   1      -2.613   0.639   0.105  0.00  0.00     0.001 A 
ATOM     11  C   UNL d   1      -2.610  -0.747  -0.153  0.00  0.00     0.001 A 
ATOM     12  C   UNL d   1      -1.408  -1.447  -0.303  0.00  0.00     0.018 A 
ATOM     13  C   UNL d   1       1.155  -1.157  -0.307  0.00  0.00     0.280 A 
ATOM     14  O   UNL d   1       1.478  -2.317  -0.486  0.00  0.00    -0.265 OA
ENDBRANCH   1   4
BRANCH   3  15
ATOM     15  C   UNL d   1       5.433   1.007  -0.303  0.00  0.00     0.015 A 
ATOM     16  C   UNL d   1       6.173   2.154   0.020  0.00  0.00     0.080 A 
ATOM     17  C   UNL d   1       7.575   2.080  -0.027  0.00  0.00     0.039 A 
ATOM     18  C   UNL d   1       8.232   0.901  -0.387  0.00  0.00     0.022 A 
ATOM     19  C   UNL d   1       7.486  -0.228  -0.703  0.00  0.00     0.011 A 
ATOM     20  C   UNL d   1       6.095  -0.185  -0.654  0.00  0.00     0.034 A 
ATOM     21 BR   UNL d   1       8.361  -1.813  -1.245  0.00  0.00    -0.051 Br
BRANCH  16  22
ATOM     22  O   UNL d   1       5.722   3.412   0.312  0.00  0.00    -0.355 OA
ATOM     23  C   UNL d   1       4.557   3.557   1.115  0.00  0.00     0.210 C 
ENDBRANCH  16  22
ENDBRANCH   3  15
TORSDOF 3
