REMARK  4 active torsions:
REMARK  status: ('A' for Active; 'I' for Inactive)
REMARK    1  A    between atoms: C_4  and  C_1 
REMARK    2  A    between atoms: C_10  and  C_4 
REMARK    3  A    between atoms: O_17  and  N_11 
REMARK    4  A    between atoms: O_20  and  C_16 
ROOT
ATOM      1  C   UNL d   1       0.911  -0.145   2.372  0.00  0.00     0.065 C 
ATOM      2  C   UNL d   1       1.395   0.992   3.096  0.00  0.00     0.101 C 
ATOM      3  N   UNL d   1       1.780   1.924   3.669  0.00  0.00    -0.191 NA
ENDROOT
BRANCH   1   4
ATOM      4  C   UNL d   1       0.403  -0.041   1.113  0.00  0.00    -0.013 C 
ATOM      5  C   UNL d   1       0.380   1.240   0.396  0.00  0.00     0.039 C 
ATOM      6  C   UNL d   1      -0.301   1.394  -0.750  0.00  0.00     0.063 C 
ATOM      7 CL   UNL d   1      -0.306   2.915  -1.565  0.00  0.00    -0.082 Cl
ATOM      8  C   UNL d   1      -1.074   0.258  -1.357  0.00  0.00     0.075 C 
ATOM      9  C   UNL d   1      -0.806  -1.084  -0.748  0.00  0.00     0.034 C 
ATOM     10  N   UNL d   1      -1.901   0.471  -2.341  0.00  0.00    -0.268 N 
ATOM     11  C   UNL d   1      -0.111  -1.209   0.391  0.00  0.00     0.015 C 
ATOM     12  HN  UNL d   1      -2.055   1.387  -2.763  1.00  0.00     0.194 HD
BRANCH  10  13
ATOM     13  O   UNL d   1      -2.556  -0.696  -2.753  0.00  0.00    -0.289 OA
ATOM     14  H   UNL d   1      -3.176  -0.357  -3.426  0.00  0.00     0.244 HD
ENDBRANCH  10  13
ENDBRANCH   1   4
BRANCH   1  15
ATOM     15  C   UNL d   1       0.976  -1.435   3.090  0.00  0.00    -0.014 A 
ATOM     16  C   UNL d   1       2.112  -2.243   2.975  0.00  0.00     0.016 A 
ATOM     17  C   UNL d   1       2.176  -3.481   3.630  0.00  0.00     0.037 A 
ATOM     18  C   UNL d   1       1.101  -3.920   4.404  0.00  0.00     0.068 A 
ATOM     19  C   UNL d   1      -0.029  -3.108   4.527  0.00  0.00     0.037 A 
ATOM     20  C   UNL d   1      -0.096  -1.873   3.876  0.00  0.00     0.016 A 
BRANCH  18  21
ATOM     21  O   UNL d   1       1.030  -5.106   5.080  0.00  0.00    -0.356 OA
ATOM     22  C   UNL d   1       2.147  -5.981   4.964  0.00  0.00     0.210 C 
ENDBRANCH  18  21
ENDBRANCH   1  15
TORSDOF 4
