REMARK  8 active torsions:
REMARK  status: ('A' for Active; 'I' for Inactive)
REMARK    1  A    between atoms: O_16  and  C_1 
REMARK    2  A    between atoms: O_17  and  C_3 
REMARK    3  A    between atoms: C_4  and  C_5 
REMARK       I    between atoms: N_11  and  C_4 
REMARK    4  A    between atoms: C_6  and  C_7 
REMARK    5  A    between atoms: C_8  and  C_14 
REMARK    6  A    between atoms: O_18  and  C_8 
REMARK    7  A    between atoms: C_14  and  N_11 
REMARK    8  A    between atoms: C_19  and  O_18 
ROOT
ATOM      1  C   UNL d   1       4.578   2.544  -0.010  0.00  0.00     0.075 C 
ATOM      2  C   UNL d   1       3.240   2.405  -0.009  0.00  0.00     0.017 C 
ENDROOT
BRANCH   2   3
ATOM      3  C   UNL d   1       2.495   1.136  -0.046  0.00  0.00    -0.032 A 
ATOM      4  C   UNL d   1       2.933  -0.047   0.535  0.00  0.00     0.051 A 
ATOM      5  C   UNL d   1       2.151  -1.224   0.500  0.00  0.00     0.103 A 
ATOM      6  C   UNL d   1       0.876  -1.233  -0.128  0.00  0.00     0.118 A 
ATOM      7  C   UNL d   1       0.433  -0.026  -0.701  0.00  0.00     0.048 A 
ATOM      8  C   UNL d   1       1.237   1.132  -0.652  0.00  0.00     0.033 A 
ATOM      9 BR   UNL d   1      -1.229   0.276  -1.588  0.00  0.00    -0.048 Br
BRANCH   5  10
ATOM     10  O   UNL d   1       2.802  -2.254   1.138  0.00  0.00    -0.353 OA
ATOM     11  C   UNL d   1       2.202  -3.538   1.222  0.00  0.00     0.210 C 
ENDBRANCH   5  10
BRANCH   6  12
ATOM     12  O   UNL d   1       0.231  -2.434  -0.082  0.00  0.00    -0.352 OA
ATOM     13  C   UNL d   1      -1.032  -2.677  -0.663  0.00  0.00     0.210 C 
ENDBRANCH   6  12
ENDBRANCH   2   3
BRANCH   1  14
ATOM     14  C   UNL d   1       5.147   3.917  -0.035  0.00  0.00     0.241 C 
ATOM     15  N   UNL d   1       6.519   3.948  -0.081  0.00  0.00    -0.348 N 
ATOM     16  H   UNL d   1       7.077   3.102  -0.071  0.00  0.00     0.163 HD
ATOM     17  O   UNL d   1       4.457   4.928  -0.027  0.00  0.00    -0.269 OA
BRANCH  15  18
ATOM     18  C   UNL d   1       7.221   5.223  -0.118  0.00  0.00     0.233 C 
BRANCH  18  19
ATOM     19  C   UNL d   1       8.725   5.051  -0.014  0.00  0.00     0.276 C 
ATOM     20  O   UNL d   1       9.298   3.970   0.083  0.00  0.00    -0.263 OA
BRANCH  19  21
ATOM     21  O   UNL d   1       9.321   6.276   0.041  0.00  0.00    -0.321 OA
BRANCH  21  22
ATOM     22  C   UNL d   1      10.656   6.300   0.568  0.00  0.00     0.174 C 
ATOM     23  C   UNL d   1      10.558   6.431   2.078  0.00  0.00     0.034 C 
ENDBRANCH  21  22
ENDBRANCH  19  21
ENDBRANCH  18  19
ENDBRANCH  15  18
ENDBRANCH   1  14
TORSDOF 8
