REMARK  7 active torsions:
REMARK  status: ('A' for Active; 'I' for Inactive)
REMARK    1  A    between atoms: O_9  and  C_3 
REMARK    2  A    between atoms: O_17  and  C_4 
REMARK    3  A    between atoms: S_10  and  C_5 
REMARK    4  A    between atoms: C_18  and  O_9 
REMARK    5  A    between atoms: C_13  and  S_10 
REMARK    6  A    between atoms: C_11  and  C_13 
REMARK    7  A    between atoms: C_12  and  C_11 
ROOT
ATOM      1  N   UNL d   1      -0.571   1.270   0.387  0.00  0.00    -0.315 N 
ATOM      2  HN  UNL d   1      -0.998   2.187   0.518  1.00  0.00     0.170 HD
ATOM      3  C   UNL d   1      -0.794  -1.106   0.044  0.00  0.00     0.149 A 
ATOM      4  C   UNL d   1      -1.314   0.156   0.279  0.00  0.00     0.178 A 
ATOM      5  C   UNL d   1       0.753   1.118   0.314  0.00  0.00     0.146 A 
ATOM      6  N   UNL d   1       1.373  -0.061   0.153  0.00  0.00    -0.338 N 
ATOM      7  HN  UNL d   1       2.390  -0.126   0.129  1.00  0.00     0.168 HD
ATOM      8  C   UNL d   1       0.593  -1.158   0.024  0.00  0.00     0.045 A 
ATOM      9  C   UNL d   1       1.323  -2.468  -0.074  0.00  0.00     0.071 C 
ENDROOT
BRANCH   5  10
ATOM     10  S   UNL d   1       1.743   2.569   0.564  0.00  0.00    -0.086 SA
BRANCH  10  11
ATOM     11  C   UNL d   1       3.399   1.837   0.413  0.00  0.00     0.166 C 
BRANCH  11  12
ATOM     12  C   UNL d   1       4.449   2.883   0.715  0.00  0.00     0.169 C 
ATOM     13  O   UNL d   1       4.992   3.513  -0.190  0.00  0.00    -0.291 OA
BRANCH  12  14
ATOM     14  C   UNL d   1       4.846   3.162   2.133  0.00  0.00     0.011 A 
ATOM     15  C   UNL d   1       4.322   2.465   3.230  0.00  0.00     0.017 A 
ATOM     16  C   UNL d   1       4.710   2.803   4.532  0.00  0.00     0.025 A 
ATOM     17  C   UNL d   1       5.620   3.836   4.744  0.00  0.00     0.034 A 
ATOM     18  C   UNL d   1       6.163   4.525   3.664  0.00  0.00     0.025 A 
ATOM     19 CL   UNL d   1       6.063   4.271   6.348  0.00  0.00    -0.084 Cl
ATOM     20  C   UNL d   1       5.779   4.187   2.363  0.00  0.00     0.017 A 
ENDBRANCH  12  14
ENDBRANCH  11  12
ENDBRANCH  10  11
ENDBRANCH   5  10
BRANCH   4  21
ATOM     21  O   UNL d   1      -2.639   0.399   0.492  0.00  0.00    -0.344 OA
ATOM     22  H   UNL d   1      -3.092  -0.445   0.641  0.00  0.00     0.219 HD
ENDBRANCH   4  21
BRANCH   3  23
ATOM     23  O   UNL d   1      -1.464  -2.296  -0.043  0.00  0.00    -0.304 OA
BRANCH  23  24
ATOM     24  C   UNL d   1      -2.693  -2.389  -0.647  0.00  0.00     0.076 A 
ATOM     25  C   UNL d   1      -3.126  -1.598  -1.712  0.00  0.00     0.037 A 
ATOM     26  C   UNL d   1      -4.442  -1.710  -2.166  0.00  0.00     0.003 A 
ATOM     27  C   UNL d   1      -5.305  -2.646  -1.597  0.00  0.00     0.000 A 
ATOM     28  C   UNL d   1      -4.848  -3.493  -0.589  0.00  0.00     0.003 A 
ATOM     29  C   UNL d   1      -3.541  -3.366  -0.118  0.00  0.00     0.037 A 
ENDBRANCH  23  24
ENDBRANCH   3  23
TORSDOF 7
