REMARK  3 active torsions:
REMARK  status: ('A' for Active; 'I' for Inactive)
REMARK    1  A    between atoms: C_8  and  C_3 
REMARK    2  A    between atoms: C_14  and  C_6 
REMARK       I    between atoms: N_11  and  C_8 
REMARK    3  A    between atoms: C_15  and  N_11 
ROOT
ATOM      1  C   UNL d   1       1.133   0.806  -0.430  0.00  0.00     0.034 A 
ATOM      2  C   UNL d   1       0.744  -0.468  -0.301  0.00  0.00     0.055 A 
ATOM      3  C   UNL d   1       3.483   0.035  -0.017  0.00  0.00     0.045 C 
ATOM      4  N   UNL d   1       1.637  -1.497  -0.200  0.00  0.00    -0.358 N 
ATOM      5  C   UNL d   1      -0.052   1.667  -0.350  0.00  0.00     0.192 A 
ATOM      6  C   UNL d   1       2.571   1.194  -0.496  0.00  0.00     0.098 C 
ATOM      7  C   UNL d   1       2.992  -1.240   0.066  0.00  0.00     0.018 C 
ATOM      8  C   UNL d   1      -0.702  -0.539  -0.184  0.00  0.00     0.005 A 
ATOM      9  C   UNL d   1      -1.198   0.765  -0.207  0.00  0.00     0.027 A 
ATOM     10  O   UNL d   1      -0.076   2.881  -0.357  0.00  0.00    -0.287 OA
ATOM     11  C   UNL d   1       3.787  -2.470   0.429  0.00  0.00     0.069 C 
ATOM     12  C   UNL d   1      -1.575  -1.604  -0.048  0.00  0.00     0.014 A 
ATOM     13  C   UNL d   1      -2.542   1.068  -0.090  0.00  0.00     0.016 A 
ATOM     14  C   UNL d   1      -2.945  -1.328   0.066  0.00  0.00     0.001 A 
ATOM     15  C   UNL d   1      -3.425  -0.004   0.047  0.00  0.00     0.001 A 
ATOM     16  H   UNL d   1       1.276  -2.397   0.100  0.00  0.00     0.166 HD
ENDROOT
BRANCH   3  17
ATOM     17  C   UNL d   1       4.866   0.374   0.487  0.00  0.00     0.255 C 
ATOM     18  N   UNL d   1       5.467   1.469  -0.102  0.00  0.00    -0.323 N 
ATOM     19  H   UNL d   1       4.960   1.976  -0.813  0.00  0.00     0.169 HD
ATOM     20  O   UNL d   1       5.343  -0.268   1.420  0.00  0.00    -0.268 OA
BRANCH  18  21
ATOM     21  C   UNL d   1       6.728   2.027   0.210  0.00  0.00     0.035 A 
ATOM     22  C   UNL d   1       7.678   1.405   1.021  0.00  0.00     0.029 A 
ATOM     23  C   UNL d   1       8.893   2.037   1.304  0.00  0.00     0.002 A 
ATOM     24  C   UNL d   1       9.167   3.299   0.782  0.00  0.00     0.000 A 
ATOM     25  C   UNL d   1       8.235   3.921  -0.043  0.00  0.00     0.002 A 
ATOM     26  C   UNL d   1       7.027   3.283  -0.338  0.00  0.00     0.029 A 
ENDBRANCH  18  21
ENDBRANCH   3  17
BRANCH   6  27
ATOM     27  C   UNL d   1       2.930   1.678  -1.908  0.00  0.00    -0.045 A 
ATOM     28  C   UNL d   1       3.497   0.823  -2.871  0.00  0.00     0.008 A 
ATOM     29  C   UNL d   1       3.905   1.314  -4.112  0.00  0.00     0.001 A 
ATOM     30  C   UNL d   1       3.718   2.657  -4.425  0.00  0.00     0.000 A 
ATOM     31  C   UNL d   1       3.109   3.506  -3.505  0.00  0.00     0.001 A 
ATOM     32  C   UNL d   1       2.717   3.022  -2.255  0.00  0.00     0.008 A 
ENDBRANCH   6  27
TORSDOF 3
