REMARK  4 active torsions:
REMARK  status: ('A' for Active; 'I' for Inactive)
REMARK    1  A    between atoms: N_5  and  S_1 
REMARK       I    between atoms: C_2  and  N_5 
REMARK       I    between atoms: N_7  and  C_2 
REMARK       I    between atoms: C_3  and  N_4 
REMARK    2  A    between atoms: C_9  and  C_3 
REMARK    3  A    between atoms: C_8  and  N_7 
REMARK    4  A    between atoms: O_23  and  C_16 
ROOT
ATOM      1  S   UNL d   1       0.629   1.562   0.099  0.00  0.00    -0.120 SA
ATOM      2  C   UNL d   1      -1.778  -1.947   1.162  0.00  0.00     0.253 C 
ATOM      3  N   UNL d   1      -1.260  -1.084   0.196  0.00  0.00    -0.346 N 
ATOM      4  C   UNL d   1       0.986  -0.192   0.542  0.00  0.00     0.105 C 
ATOM      5  C   UNL d   1      -1.199   1.434   0.182  0.00  0.00     0.105 C 
ATOM      6  C   UNL d   1       0.144  -1.244  -0.182  0.00  0.00     0.137 C 
ATOM      7  C   UNL d   1      -1.843   0.142  -0.361  0.00  0.00     0.137 C 
ATOM      8  O   UNL d   1      -1.230  -3.012   1.460  0.00  0.00    -0.267 OA
ENDROOT
BRANCH   1   9
ATOM      9  N   UNL d   1       0.710   1.466  -1.401  0.00  0.00    -0.292 N 
ATOM     10  C   UNL d   1       1.826   1.702  -2.090  0.00  0.00     0.330 C 
ATOM     11  N   UNL d   1       2.782   2.528  -1.502  0.00  0.00    -0.306 N 
ATOM     12  O   UNL d   1       1.941   1.294  -3.250  0.00  0.00    -0.246 OA
ATOM     13  H   UNL d   1       2.417   2.995  -0.686  0.00  0.00     0.171 HD
ATOM     14  HN  UNL d   1      -0.132   1.208  -1.915  1.00  0.00     0.178 HD
BRANCH  11  15
ATOM     15  C   UNL d   1       3.902   3.019  -2.208  0.00  0.00     0.069 C 
ATOM     16  C   UNL d   1       4.339   4.354  -2.201  0.00  0.00     0.095 C 
ATOM     17  C   UNL d   1       5.314   4.742  -3.145  0.00  0.00     0.039 C 
ATOM     18  C   UNL d   1       5.898   3.832  -4.027  0.00  0.00     0.003 C 
ATOM     19  C   UNL d   1       5.553   2.493  -3.947  0.00  0.00     0.002 C 
ATOM     20  C   UNL d   1       4.574   2.099  -3.039  0.00  0.00     0.032 C 
BRANCH  16  21
ATOM     21  O   UNL d   1       3.913   5.436  -1.479  0.00  0.00    -0.354 OA
ATOM     22  C   UNL d   1       3.082   5.247  -0.350  0.00  0.00     0.210 C 
ENDBRANCH  16  21
ENDBRANCH  11  15
ENDBRANCH   1   9
BRANCH   2  23
ATOM     23  C   UNL d   1      -3.022  -1.629   1.923  0.00  0.00     0.032 A 
ATOM     24  C   UNL d   1      -3.828  -2.685   2.373  0.00  0.00     0.018 A 
ATOM     25  C   UNL d   1      -4.962  -2.432   3.157  0.00  0.00     0.025 A 
ATOM     26  C   UNL d   1      -5.299  -1.121   3.489  0.00  0.00     0.034 A 
ATOM     27  C   UNL d   1      -4.489  -0.070   3.086  0.00  0.00     0.025 A 
ATOM     28 CL   UNL d   1      -6.701  -0.797   4.431  0.00  0.00    -0.084 Cl
ATOM     29  C   UNL d   1      -3.340  -0.336   2.340  0.00  0.00     0.018 A 
ENDBRANCH   2  23
TORSDOF 4
