REMARK  6 active torsions:
REMARK  status: ('A' for Active; 'I' for Inactive)
REMARK    1  A    between atoms: S_15  and  C_3 
REMARK    2  A    between atoms: C_7  and  O_20 
REMARK       I    between atoms: N_13  and  C_7 
REMARK    3  A    between atoms: C_16  and  N_13 
REMARK    4  A    between atoms: C_26  and  S_15 
REMARK    5  A    between atoms: O_20  and  C_28 
REMARK    6  A    between atoms: C_28  and  C_26 
ROOT
ATOM      1  C   UNL d   1       0.056  -0.664   0.008  0.00  0.00     0.042 A 
ATOM      2  C   UNL d   1       0.368   0.753  -0.002  0.00  0.00    -0.014 A 
ATOM      3  C   UNL d   1       1.196  -1.445  -0.084  0.00  0.00     0.057 A 
ATOM      4  C   UNL d   1       1.729   0.970  -0.047  0.00  0.00     0.093 A 
ATOM      5  S   UNL d   1       2.613  -0.488  -0.081  0.00  0.00    -0.071 SA
ATOM      6  C   UNL d   1      -1.326  -1.131   0.065  0.00  0.00     0.162 C 
ATOM      7  C   UNL d   1       2.370   2.254  -0.085  0.00  0.00     0.107 C 
ATOM      8  N   UNL d   1       2.859   3.305  -0.119  0.00  0.00    -0.191 NA
ATOM      9  C   UNL d   1      -0.714   1.812  -0.006  0.00  0.00     0.050 C 
ATOM     10  C   UNL d   1      -2.119   1.257   0.372  0.00  0.00    -0.037 C 
ATOM     11  C   UNL d   1      -2.365  -0.096  -0.336  0.00  0.00     0.093 C 
ATOM     12  O   UNL d   1      -1.652  -2.259   0.426  0.00  0.00    -0.292 OA
ATOM     13  C   UNL d   1      -3.207   2.248  -0.081  0.00  0.00     0.015 C 
ATOM     14  C   UNL d   1      -2.234   1.093   1.902  0.00  0.00     0.015 C 
ENDROOT
BRANCH   3  15
ATOM     15  S   UNL d   1       1.304  -3.185  -0.330  0.00  0.00    -0.119 SA
BRANCH  15  16
ATOM     16  C   UNL d   1       1.373  -3.791   1.381  0.00  0.00     0.107 C 
BRANCH  16  17
ATOM     17  C   UNL d   1       1.455  -5.316   1.390  0.00  0.00     0.191 C 
BRANCH  17  18
ATOM     18  O   UNL d   1       1.460  -5.796   2.748  0.00  0.00    -0.303 OA
BRANCH  18  19
ATOM     19  C   UNL d   1       2.674  -5.958   3.328  0.00  0.00     0.365 C 
ATOM     20  N   UNL d   1       2.654  -6.331   4.646  0.00  0.00    -0.303 N 
ATOM     21  H   UNL d   1       3.589  -6.334   5.033  0.00  0.00     0.171 HD
ATOM     22  O   UNL d   1       3.742  -5.740   2.765  0.00  0.00    -0.238 OA
BRANCH  20  23
ATOM     23  C   UNL d   1       1.586  -6.494   5.548  0.00  0.00     0.038 A 
ATOM     24  C   UNL d   1       0.245  -6.617   5.180  0.00  0.00     0.053 A 
ATOM     25  C   UNL d   1      -0.750  -6.644   6.160  0.00  0.00     0.036 A 
ATOM     26 CL   UNL d   1      -2.404  -6.751   5.693  0.00  0.00    -0.084 Cl
ATOM     27  C   UNL d   1      -0.423  -6.570   7.511  0.00  0.00     0.024 A 
ATOM     28  C   UNL d   1       0.915  -6.511   7.889  0.00  0.00     0.004 A 
ATOM     29  C   UNL d   1       1.914  -6.489   6.912  0.00  0.00     0.029 A 
ENDBRANCH  20  23
ENDBRANCH  18  19
ENDBRANCH  17  18
ENDBRANCH  16  17
ENDBRANCH  15  16
ENDBRANCH   3  15
TORSDOF 6
