REMARK  3 active torsions:
REMARK  status: ('A' for Active; 'I' for Inactive)
REMARK    1  A    between atoms: O_13  and  C_1 
REMARK    2  A    between atoms: C_8  and  C_3 
REMARK    3  A    between atoms: O_14  and  C_6 
ROOT
ATOM      1  C   UNL d   1       1.247  -1.420   0.001  0.00  0.00     0.093 A 
ATOM      2  C   UNL d   1      -0.015  -0.766  -0.001  0.00  0.00     0.041 A 
ATOM      3  C   UNL d   1       2.459  -0.705  -0.000  0.00  0.00     0.049 A 
ATOM      4  C   UNL d   1       2.424   0.701  -0.080  0.00  0.00    -0.044 A 
ATOM      5  C   UNL d   1      -0.034   0.643  -0.061  0.00  0.00    -0.019 A 
ATOM      6  C   UNL d   1      -1.268  -1.425   0.068  0.00  0.00     0.080 A 
ATOM      7  C   UNL d   1       1.177   1.351  -0.099  0.00  0.00     0.020 A 
ATOM      8  C   UNL d   1      -2.480  -0.740   0.024  0.00  0.00     0.044 A 
ATOM      9  C   UNL d   1      -1.261   1.332  -0.079  0.00  0.00     0.019 A 
ATOM     10  C   UNL d   1      -2.485   0.652  -0.045  0.00  0.00    -0.059 A 
ATOM     11  C   UNL d   1       3.658   1.564  -0.117  0.00  0.00     0.049 C 
ATOM     12  C   UNL d   1      -3.770   1.424  -0.051  0.00  0.00     0.048 C 
ENDROOT
BRANCH   3  13
ATOM     13  C   UNL d   1       3.768  -1.419   0.120  0.00  0.00     0.159 C 
ATOM     14  O   UNL d   1       4.645  -0.958   0.847  0.00  0.00    -0.293 OA
ATOM     15  C   UNL d   1       3.995  -2.693  -0.652  0.00  0.00     0.097 C 
ENDBRANCH   3  13
BRANCH   1  16
ATOM     16  O   UNL d   1       1.272  -2.795   0.004  0.00  0.00    -0.359 OA
ATOM     17  H   UNL d   1       0.569  -3.081  -0.616  0.00  0.00     0.217 HD
ENDBRANCH   1  16
BRANCH   6  18
ATOM     18  O   UNL d   1      -1.341  -2.785   0.223  0.00  0.00    -0.360 OA
ATOM     19  H   UNL d   1      -0.698  -3.010   0.925  0.00  0.00     0.217 HD
ENDBRANCH   6  18
TORSDOF 3
