REMARK  8 active torsions:
REMARK  status: ('A' for Active; 'I' for Inactive)
REMARK    1  A    between atoms: C_16  and  N_1 
REMARK    2  A    between atoms: S_15  and  C_2 
REMARK    3  A    between atoms: C_14  and  C_3 
REMARK    4  A    between atoms: O_19  and  C_4 
REMARK    5  A    between atoms: C_12  and  C_18 
REMARK    6  A    between atoms: O_20  and  C_14 
REMARK    7  A    between atoms: C_18  and  S_15 
REMARK    8  A    between atoms: C_23  and  O_20 
ROOT
ATOM      1  N   UNL d   1       4.252   0.187  -1.689  0.00  0.00    -0.255 N 
ATOM      2  C   UNL d   1       3.430  -0.909  -1.468  0.00  0.00     0.169 A 
ATOM      3  C   UNL d   1       4.404   0.189  -3.072  0.00  0.00     0.245 A 
ATOM      4  N   UNL d   1       3.094  -1.469  -2.610  0.00  0.00    -0.276 N 
ATOM      5  HN  UNL d   1       2.488  -2.281  -2.723  1.00  0.00     0.189 HD
ATOM      6  N   UNL d   1       3.699  -0.771  -3.619  0.00  0.00    -0.263 N 
ATOM      7  HN  UNL d   1       3.616  -0.962  -4.618  1.00  0.00     0.190 HD
ENDROOT
BRANCH   2   8
ATOM      8  S   UNL d   1       2.750  -1.390   0.058  0.00  0.00    -0.085 SA
BRANCH   8   9
ATOM      9  C   UNL d   1       2.479  -3.162  -0.241  0.00  0.00     0.149 C 
BRANCH   9  10
ATOM     10  C   UNL d   1       3.716  -3.980  -0.159  0.00  0.00     0.088 A 
ATOM     11  C   UNL d   1       4.005  -5.205   0.393  0.00  0.00     0.073 A 
ATOM     12  C   UNL d   1       5.387  -5.402   0.138  0.00  0.00     0.132 A 
ATOM     13  N   UNL d   1       5.889  -4.367  -0.555  0.00  0.00    -0.255 N 
ATOM     14  O   UNL d   1       4.839  -3.497  -0.756  0.00  0.00    -0.241 OA
ATOM     15  HN  UNL d   1       6.852  -4.249  -0.869  1.00  0.00     0.195 HD
BRANCH  12  16
ATOM     16  C   UNL d   1       6.211  -6.519   0.596  0.00  0.00     0.311 C 
ATOM     17  O   UNL d   1       5.760  -7.444   1.262  0.00  0.00    -0.258 OA
BRANCH  16  18
ATOM     18  O   UNL d   1       7.530  -6.368   0.278  0.00  0.00    -0.317 OA
BRANCH  18  19
ATOM     19  C   UNL d   1       8.446  -7.193   1.006  0.00  0.00     0.175 C 
ATOM     20  C   UNL d   1       8.799  -6.485   2.303  0.00  0.00     0.034 C 
ENDBRANCH  18  19
ENDBRANCH  16  18
ENDBRANCH  12  16
ENDBRANCH   9  10
ENDBRANCH   8   9
ENDBRANCH   2   8
BRANCH   1  21
ATOM     21  C   UNL d   1       4.805   1.126  -0.773  0.00  0.00     0.045 A 
ATOM     22  C   UNL d   1       5.207   0.737   0.510  0.00  0.00     0.030 A 
ATOM     23  C   UNL d   1       5.719   1.681   1.404  0.00  0.00     0.002 A 
ATOM     24  C   UNL d   1       5.844   3.015   1.021  0.00  0.00     0.000 A 
ATOM     25  C   UNL d   1       5.463   3.408  -0.259  0.00  0.00     0.002 A 
ATOM     26  C   UNL d   1       4.945   2.470  -1.156  0.00  0.00     0.030 A 
ENDBRANCH   1  21
BRANCH   3  27
ATOM     27  O   UNL d   1       5.214   0.966  -3.781  0.00  0.00    -0.331 OA
ATOM     28  H   UNL d   1       5.931   1.267  -3.199  0.00  0.00     0.221 HD
ENDBRANCH   3  27
TORSDOF 8
