REMARK  6 active torsions:
REMARK  status: ('A' for Active; 'I' for Inactive)
REMARK    1  A    between atoms: C_9  and  C_1 
REMARK    2  A    between atoms: S_2  and  C_8 
REMARK    3  A    between atoms: C_10  and  S_2 
REMARK    4  A    between atoms: C_8  and  C_3 
REMARK    5  A    between atoms: O_16  and  C_9 
REMARK    6  A    between atoms: C_22  and  O_16 
ROOT
ATOM      1  C   UNL d   1      -0.229  -1.071  -0.164  0.00  0.00     0.104 A 
ATOM      2  C   UNL d   1       0.636   1.201  -0.022  0.00  0.00     0.066 A 
ATOM      3  N   UNL d   1      -0.672   1.213   0.107  0.00  0.00    -0.355 N 
ATOM      4  HN  UNL d   1      -1.233   2.051   0.257  1.00  0.00     0.166 HD
ATOM      5  C   UNL d   1      -1.183  -0.076   0.011  0.00  0.00     0.029 A 
ATOM      6  S   UNL d   1       1.331  -0.352  -0.231  0.00  0.00    -0.068 SA
ATOM      7  C   UNL d   1      -2.662  -0.230   0.101  0.00  0.00     0.070 C 
ENDROOT
BRANCH   2   8
ATOM      8  C   UNL d   1       1.493   2.406   0.090  0.00  0.00     0.210 C 
BRANCH   8   9
ATOM      9  S   UNL d   1       1.599   3.221  -1.481  0.00  0.00     0.181 S 
ATOM     10  O   UNL d   1       2.390   4.425  -1.287  0.00  0.00    -0.222 OA
ATOM     11  O   UNL d   1       1.999   2.264  -2.498  0.00  0.00    -0.222 OA
BRANCH   9  12
ATOM     12  C   UNL d   1      -0.049   3.770  -1.873  0.00  0.00     0.059 A 
ATOM     13  C   UNL d   1      -0.510   4.983  -1.348  0.00  0.00     0.025 A 
ATOM     14  C   UNL d   1      -1.774   5.454  -1.712  0.00  0.00     0.025 A 
ATOM     15  C   UNL d   1      -2.559   4.720  -2.602  0.00  0.00     0.034 A 
ATOM     16  C   UNL d   1      -2.092   3.518  -3.134  0.00  0.00     0.025 A 
ATOM     17 CL   UNL d   1      -4.109   5.311  -3.060  0.00  0.00    -0.084 Cl
ATOM     18  C   UNL d   1      -0.829   3.042  -2.776  0.00  0.00     0.025 A 
ENDBRANCH   9  12
ENDBRANCH   8   9
ENDBRANCH   2   8
BRANCH   1  19
ATOM     19  C   UNL d   1      -0.352  -2.506  -0.306  0.00  0.00     0.302 C 
ATOM     20  O   UNL d   1       0.551  -3.283  -0.593  0.00  0.00    -0.259 OA
BRANCH  19  21
ATOM     21  O   UNL d   1      -1.646  -2.887  -0.100  0.00  0.00    -0.317 OA
BRANCH  21  22
ATOM     22  C   UNL d   1      -1.963  -4.253  -0.402  0.00  0.00     0.174 C 
ATOM     23  C   UNL d   1      -2.391  -4.341  -1.855  0.00  0.00     0.034 C 
ENDBRANCH  21  22
ENDBRANCH  19  21
ENDBRANCH   1  19
TORSDOF 6
