REMARK  5 active torsions:
REMARK  status: ('A' for Active; 'I' for Inactive)
REMARK       I    between atoms: C_7  and  N_1 
REMARK    1  A    between atoms: C_6  and  C_4 
REMARK    2  A    between atoms: N_5  and  C_12 
REMARK    3  A    between atoms: C_15  and  C_7 
REMARK    4  A    between atoms: S_13  and  C_10 
REMARK    5  A    between atoms: C_22  and  S_13 
ROOT
ATOM      1  C   UNL d   1      -0.722   2.458  -0.034  0.00  0.00     0.011 A 
ATOM      2  C   UNL d   1      -1.491   2.870   1.077  0.00  0.00     0.018 A 
ATOM      3  C   UNL d   1      -0.260   3.441  -0.947  0.00  0.00     0.051 A 
ATOM      4  C   UNL d   1      -0.565   4.794  -0.769  0.00  0.00     0.103 A 
ATOM      5  C   UNL d   1      -1.792   4.239   1.226  0.00  0.00     0.022 A 
ATOM      6  C   UNL d   1      -1.336   5.199   0.317  0.00  0.00     0.037 A 
ENDROOT
BRANCH   1   7
ATOM      7  C   UNL d   1      -0.331   1.070  -0.312  0.00  0.00     0.061 A 
ATOM      8  N   UNL d   1       0.873   0.825  -0.854  0.00  0.00    -0.291 N 
ATOM      9  N   UNL d   1       0.961  -0.520  -0.983  0.00  0.00    -0.231 N 
ATOM     10  HN  UNL d   1       1.579   1.513  -1.115  1.00  0.00     0.187 HD
ATOM     11  C   UNL d   1       2.112  -1.133  -1.529  0.00  0.00     0.276 C 
ATOM     12  C   UNL d   1      -0.200  -1.133  -0.565  0.00  0.00     0.122 A 
ATOM     13  O   UNL d   1       2.075  -2.359  -1.644  0.00  0.00    -0.265 OA
ATOM     14  C   UNL d   1      -1.050  -0.138  -0.147  0.00  0.00     0.051 A 
BRANCH  11  15
ATOM     15  C   UNL d   1       3.341  -0.419  -2.000  0.00  0.00     0.034 A 
ATOM     16  C   UNL d   1       3.737   0.837  -1.521  0.00  0.00     0.019 A 
ATOM     17  C   UNL d   1       4.890   1.456  -2.017  0.00  0.00     0.025 A 
ATOM     18  C   UNL d   1       5.666   0.815  -2.979  0.00  0.00     0.034 A 
ATOM     19  C   UNL d   1       5.301  -0.444  -3.448  0.00  0.00     0.025 A 
ATOM     20 CL   UNL d   1       7.083   1.578  -3.582  0.00  0.00    -0.084 Cl
ATOM     21  C   UNL d   1       4.145  -1.060  -2.959  0.00  0.00     0.019 A 
ENDBRANCH  11  15
ENDBRANCH   1   7
BRANCH   2  22
ATOM     22  S   UNL d   1      -2.220   1.819   2.326  0.00  0.00    -0.090 SA
BRANCH  22  23
ATOM     23  C   UNL d   1      -0.870   1.038   3.188  0.00  0.00     0.005 A 
ATOM     24  C   UNL d   1       0.417   1.575   3.295  0.00  0.00     0.020 A 
ATOM     25  C   UNL d   1       1.413   0.893   4.007  0.00  0.00     0.025 A 
ATOM     26  C   UNL d   1       1.121  -0.320   4.628  0.00  0.00     0.034 A 
ATOM     27  C   UNL d   1      -0.161  -0.853   4.554  0.00  0.00     0.025 A 
ATOM     28 CL   UNL d   1       2.347  -1.159   5.495  0.00  0.00    -0.084 Cl
ATOM     29  C   UNL d   1      -1.151  -0.174   3.839  0.00  0.00     0.020 A 
ENDBRANCH  22  23
ENDBRANCH   2  22
BRANCH   4  30
ATOM     30  N   UNL d   1      -0.073   5.786  -1.732  0.00  0.00    -0.116 N 
ATOM     31  O   UNL d   1       0.645   5.389  -2.658  0.00  0.00    -0.532 OA
ATOM     32  O   UNL d   1      -0.404   6.967  -1.556  0.00  0.00    -0.532 OA
ENDBRANCH   4  30
TORSDOF 5
