REMARK  5 active torsions:
REMARK  status: ('A' for Active; 'I' for Inactive)
REMARK    1  A    between atoms: C_7  and  C_1 
REMARK    2  A    between atoms: S_9  and  C_4 
REMARK    3  A    between atoms: O_10  and  C_7 
REMARK    4  A    between atoms: C_11  and  S_9 
REMARK    5  A    between atoms: C_12  and  O_10 
ROOT
ATOM      1  C   UNL d   1      -0.403  -1.065   0.032  0.00  0.00     0.125 A 
ATOM      2  N   UNL d   1      -1.191   0.080   0.097  0.00  0.00    -0.331 N 
ATOM      3  HN  UNL d   1      -2.209   0.132   0.126  1.00  0.00     0.168 HD
ATOM      4  C   UNL d   1      -0.342   1.078   0.115  0.00  0.00     0.144 A 
ATOM      5  C   UNL d   1       0.935  -0.711   0.055  0.00  0.00     0.126 A 
ATOM      6  N   UNL d   1       0.954   0.653   0.093  0.00  0.00    -0.344 N 
ATOM      7  H   UNL d   1       1.760   1.259   0.084  0.00  0.00     0.167 HD
ENDROOT
BRANCH   1   8
ATOM      8  C   UNL d   1      -0.912  -2.429  -0.115  0.00  0.00     0.311 C 
ATOM      9  O   UNL d   1      -0.176  -3.407  -0.207  0.00  0.00    -0.258 OA
BRANCH   8  10
ATOM     10  O   UNL d   1      -2.272  -2.474  -0.218  0.00  0.00    -0.317 OA
BRANCH  10  11
ATOM     11  C   UNL d   1      -2.814  -3.716  -0.682  0.00  0.00     0.175 C 
ATOM     12  C   UNL d   1      -2.863  -3.691  -2.199  0.00  0.00     0.034 C 
ENDBRANCH  10  11
ENDBRANCH   8  10
ENDBRANCH   1   8
BRANCH   4  13
ATOM     13  S   UNL d   1      -0.667   2.768   0.105  0.00  0.00    -0.094 SA
BRANCH  13  14
ATOM     14  C   UNL d   1      -2.306   2.811   0.882  0.00  0.00     0.078 C 
ATOM     15  C   UNL d   1      -2.765   4.254   1.006  0.00  0.00     0.016 C 
ENDBRANCH  13  14
ENDBRANCH   4  13
TORSDOF 5
