REMARK  8 active torsions:
REMARK  status: ('A' for Active; 'I' for Inactive)
REMARK    1  A    between atoms: C_3  and  C_1 
REMARK    2  A    between atoms: C_4  and  CA_2 
REMARK       I    between atoms: N_13  and  C_3 
REMARK    3  A    between atoms: OXT_19  and  C_4 
REMARK    4  A    between atoms: C_14  and  N_5 
REMARK    5  A    between atoms: N_10  and  C_22 
REMARK    6  A    between atoms: C_21  and  N_13 
REMARK    7  A    between atoms: C_20  and  C_14 
REMARK    8  A    between atoms: C_22  and  C_21 
ROOT
ATOM      1  C   UNL d   1      -3.727  -0.707  -1.342  0.00  0.00     0.270 C 
ATOM      2  O   UNL d   1      -3.552  -1.500  -2.265  0.00  0.00    -0.266 OA
ATOM      3  N   UNL d   1      -4.806  -0.792  -0.491  0.00  0.00    -0.354 N 
ATOM      4  H   UNL d   1      -4.938  -0.051   0.192  0.00  0.00     0.162 HD
ENDROOT
BRANCH   3   5
ATOM      5  C   UNL d   1      -5.820  -1.823  -0.655  0.00  0.00     0.153 C 
BRANCH   5   6
ATOM      6  C   UNL d   1      -5.420  -3.170  -0.005  0.00  0.00     0.292 C 
BRANCH   6   7
ATOM      7  N   UNL d   1      -6.463  -4.191  -0.159  0.00  0.00     0.093 N 
ATOM      8  C   UNL d   1      -6.617  -4.698  -1.535  0.00  0.00     0.302 C 
ATOM      9  C   UNL d   1      -6.170  -6.155  -1.831  0.00  0.00     0.303 C 
ATOM     10  N   UNL d   1      -6.532  -7.144  -0.793  0.00  0.00     0.096 N 
ATOM     11  C   UNL d   1      -5.961  -6.641   0.469  0.00  0.00     0.303 C 
ATOM     12  C   UNL d   1      -6.442  -5.234   0.882  0.00  0.00     0.302 C 
BRANCH  10  13
ATOM     13  C   UNL d   1      -8.001  -7.310  -0.755  0.00  0.00     0.311 C 
BRANCH  13  14
ATOM     14  C   UNL d   1      -8.558  -8.293   0.257  0.00  0.00    -0.030 A 
ATOM     15  C   UNL d   1      -9.800  -8.020   0.858  0.00  0.00     0.009 A 
ATOM     16  C   UNL d   1     -10.390  -8.930   1.736  0.00  0.00     0.001 A 
ATOM     17  C   UNL d   1      -9.746 -10.131   2.023  0.00  0.00     0.000 A 
ATOM     18  C   UNL d   1      -8.520 -10.422   1.428  0.00  0.00     0.001 A 
ATOM     19  C   UNL d   1      -7.934  -9.514   0.541  0.00  0.00     0.009 A 
ENDBRANCH  13  14
ENDBRANCH  10  13
ENDBRANCH   6   7
ENDBRANCH   5   6
ENDBRANCH   3   5
BRANCH   1  20
ATOM     20  C   UNL d   1      -2.772   0.408  -1.104  0.00  0.00     0.134 A 
ATOM     21  CA  UNL d   1      -1.438   0.391  -1.506  0.00  0.00     0.139 A 
ATOM     22  N   UNL d   1      -0.663   1.510  -1.310  0.00  0.00    -0.357 N 
ATOM     23  C   UNL d   1      -1.234   2.585  -0.727  0.00  0.00     0.105 A 
ATOM     24  HN  UNL d   1       0.316   1.527  -1.597  1.00  0.00     0.165 HD
ATOM     25  C   UNL d   1      -2.548   2.576  -0.317  0.00  0.00     0.105 A 
ATOM     26  N   UNL d   1      -3.347   1.496  -0.482  0.00  0.00    -0.358 N 
ATOM     27  HN  UNL d   1      -4.317   1.487  -0.165  1.00  0.00     0.165 HD
BRANCH  21  28
ATOM     28  C   UNL d   1      -0.638  -0.765  -2.058  0.00  0.00     0.196 C 
ATOM     29  O   UNL d   1       0.571  -0.648  -2.238  0.00  0.00    -0.645 OA
BRANCH  28  30
ATOM     30  OXT UNL d   1      -1.213  -1.961  -2.294  0.00  0.00    -0.772 OA
ATOM     31  HXT UNL d   1      -2.190  -1.986  -2.416  0.00  0.00     0.167 HD
ENDBRANCH  28  30
ENDBRANCH  21  28
ENDBRANCH   1  20
TORSDOF 8
