REMARK  3 active torsions:
REMARK  status: ('A' for Active; 'I' for Inactive)
REMARK    1  A    between atoms: C_10  and  N_1 
REMARK    2  A    between atoms: N_11  and  N_7 
REMARK    3  A    between atoms: C_12  and  N_11 
ROOT
ATOM      1  N   UNL d   1      -0.675  -1.345   0.028  0.00  0.00    -0.218 N 
ATOM      2  C   UNL d   1      -1.200  -0.061  -0.067  0.00  0.00     0.297 A 
ATOM      3  C   UNL d   1       0.035   0.783  -0.014  0.00  0.00     0.142 A 
ATOM      4  N   UNL d   1       0.729  -1.398   0.113  0.00  0.00    -0.293 N 
ATOM      5  HN  UNL d   1       1.298  -2.240   0.195  1.00  0.00     0.187 HD
ATOM      6  C   UNL d   1       1.166  -0.174   0.066  0.00  0.00     0.056 A 
ATOM      7  N   UNL d   1       0.164   2.071  -0.013  0.00  0.00    -0.293 N 
ATOM      8  HN  UNL d   1       1.077   2.525   0.025  1.00  0.00     0.187 HD
ATOM      9  O   UNL d   1      -2.321   0.395  -0.153  0.00  0.00    -0.264 OA
ATOM     10  C   UNL d   1       2.580   0.272   0.074  0.00  0.00     0.072 C 
ENDROOT
BRANCH   7  11
ATOM     11  N   UNL d   1      -0.993   2.778  -0.066  0.00  0.00    -0.300 N 
ATOM     12  H   UNL d   1      -1.908   2.328   0.053  0.00  0.00     0.187 HD
BRANCH  11  13
ATOM     13  C   UNL d   1      -0.972   4.180  -0.012  0.00  0.00     0.048 A 
ATOM     14  C   UNL d   1       0.220   4.912  -0.080  0.00  0.00     0.032 A 
ATOM     15  C   UNL d   1       0.209   6.310  -0.072  0.00  0.00     0.021 A 
ATOM     16  C   UNL d   1      -1.004   6.989   0.002  0.00  0.00     0.011 A 
ATOM     17  C   UNL d   1      -2.202   6.283   0.072  0.00  0.00     0.021 A 
ATOM     18 BR   UNL d   1      -1.024   8.878  -0.007  0.00  0.00    -0.051 Br
ATOM     19  C   UNL d   1      -2.183   4.885   0.061  0.00  0.00     0.032 A 
ENDBRANCH  11  13
ENDBRANCH   7  11
BRANCH   1  20
ATOM     20  C   UNL d   1      -1.393  -2.564  -0.020  0.00  0.00     0.060 A 
ATOM     21  C   UNL d   1      -2.756  -2.599  -0.343  0.00  0.00     0.031 A 
ATOM     22  C   UNL d   1      -3.445  -3.812  -0.423  0.00  0.00     0.002 A 
ATOM     23  C   UNL d   1      -2.784  -5.009  -0.162  0.00  0.00     0.000 A 
ATOM     24  C   UNL d   1      -1.434  -4.993   0.178  0.00  0.00     0.002 A 
ATOM     25  C   UNL d   1      -0.743  -3.780   0.242  0.00  0.00     0.031 A 
ENDBRANCH   1  20
TORSDOF 3
