REMARK  6 active torsions:
REMARK  status: ('A' for Active; 'I' for Inactive)
REMARK    1  A    between atoms: N_4  and  S_1 
REMARK    2  A    between atoms: C_9  and  S_1 
REMARK    3  A    between atoms: S_2  and  N_5 
REMARK    4  A    between atoms: C_3  and  S_2 
REMARK    5  A    between atoms: N_5  and  C_17 
REMARK    6  A    between atoms: C_17  and  C_20 
ROOT
ATOM      1  N   UNL d   1       0.497  -0.692  -1.478  0.00  0.00    -0.206 NA
ATOM      2  C   UNL d   1       1.000   0.068  -2.660  0.00  0.00     0.108 C 
ATOM      3  C   UNL d   1       0.847  -2.137  -1.491  0.00  0.00     0.108 C 
ATOM      4  C   UNL d   1       0.580  -0.611  -3.965  0.00  0.00     0.021 C 
ATOM      5  C   UNL d   1       0.382  -2.782  -2.792  0.00  0.00     0.021 C 
ATOM      6  C   UNL d   1       0.993  -2.092  -4.019  0.00  0.00     0.002 C 
ENDROOT
BRANCH   6   7
ATOM      7  C   UNL d   1       2.525  -2.253  -4.110  0.00  0.00     0.109 C 
BRANCH   7   8
ATOM      8  N   UNL d   1       2.884  -3.676  -4.246  0.00  0.00    -0.215 NA
ATOM      9  H   UNL d   1       2.446  -4.321  -3.590  0.00  0.00     0.140 HD
BRANCH   8  10
ATOM     10  S   UNL d   1       4.540  -4.031  -4.321  0.00  0.00     0.248 S 
ATOM     11  O   UNL d   1       4.661  -5.460  -4.493  0.00  0.00    -0.205 OA
ATOM     12  O   UNL d   1       5.172  -3.080  -5.208  0.00  0.00    -0.205 OA
BRANCH  10  13
ATOM     13  C   UNL d   1       5.221  -3.685  -2.712  0.00  0.00     0.115 A 
ATOM     14  S   UNL d   1       4.555  -4.565  -1.402  0.00  0.00    -0.089 SA
ATOM     15  C   UNL d   1       5.591  -3.797  -0.277  0.00  0.00     0.051 A 
ATOM     16  C   UNL d   1       6.412  -2.869  -0.880  0.00  0.00     0.009 A 
ATOM     17  C   UNL d   1       6.196  -2.803  -2.287  0.00  0.00     0.033 A 
ENDBRANCH  10  13
ENDBRANCH   8  10
ENDBRANCH   7   8
ENDBRANCH   6   7
BRANCH   1  18
ATOM     18  S   UNL d   1       0.859   0.051   0.034  0.00  0.00     0.243 S 
ATOM     19  O   UNL d   1       2.206   0.575  -0.059  0.00  0.00    -0.206 OA
ATOM     20  O   UNL d   1       0.480  -0.861   1.092  0.00  0.00    -0.206 OA
BRANCH  18  21
ATOM     21  C   UNL d   1      -0.282   1.405   0.099  0.00  0.00     0.074 A 
ATOM     22  C   UNL d   1      -1.652   1.133   0.018  0.00  0.00     0.025 A 
ATOM     23  C   UNL d   1      -2.568   2.173   0.167  0.00  0.00     0.002 A 
ATOM     24  C   UNL d   1      -2.114   3.474   0.396  0.00  0.00     0.000 A 
ATOM     25  C   UNL d   1      -0.744   3.740   0.464  0.00  0.00     0.002 A 
ATOM     26  C   UNL d   1       0.179   2.705   0.315  0.00  0.00     0.025 A 
ENDBRANCH  18  21
ENDBRANCH   1  18
TORSDOF 6
