REMARK  5 active torsions:
REMARK  status: ('A' for Active; 'I' for Inactive)
REMARK    1  A    between atoms: N_3  and  C_1 
REMARK       I    between atoms: C_2  and  N_3 
REMARK       I    between atoms: N_5  and  C_2 
REMARK    2  A    between atoms: C_8  and  C_4 
REMARK    3  A    between atoms: C_9  and  N_5 
REMARK    4  A    between atoms: C_13  and  C_7 
REMARK    5  A    between atoms: C_14  and  C_8 
ROOT
ATOM      1  C   UNL d   1       1.997  -0.158   0.386  0.00  0.00     0.049 C 
ATOM      2  C   UNL d   1       1.144  -1.135  -0.165  0.00  0.00    -0.027 C 
ATOM      3  C   UNL d   1       1.617   1.189   0.290  0.00  0.00    -0.031 C 
ATOM      4  C   UNL d   1      -0.226  -0.824  -0.243  0.00  0.00     0.010 C 
ATOM      5  C   UNL d   1      -0.684   0.461   0.019  0.00  0.00     0.001 C 
ATOM      6  C   UNL d   1       0.244   1.478   0.189  0.00  0.00     0.009 C 
ENDROOT
BRANCH   1   7
ATOM      7  N   UNL d   1       2.905  -0.618   1.397  0.00  0.00    -0.308 N 
ATOM      8  C   UNL d   1       3.104   0.058   2.572  0.00  0.00     0.325 C 
ATOM      9  N   UNL d   1       3.538  -0.618   3.668  0.00  0.00    -0.309 N 
ATOM     10  O   UNL d   1       2.832   1.241   2.784  0.00  0.00    -0.247 OA
ATOM     11  H   UNL d   1       3.449   0.019   4.454  0.00  0.00     0.170 HD
ATOM     12  H   UNL d   1       2.901  -1.615   1.515  0.00  0.00     0.170 HD
BRANCH   9  13
ATOM     13  C   UNL d   1       3.955  -1.911   4.007  0.00  0.00     0.036 A 
ATOM     14  C   UNL d   1       4.374  -2.896   3.116  0.00  0.00     0.029 A 
ATOM     15  C   UNL d   1       4.761  -4.157   3.593  0.00  0.00     0.002 A 
ATOM     16  C   UNL d   1       4.762  -4.434   4.956  0.00  0.00     0.000 A 
ATOM     17  C   UNL d   1       4.374  -3.446   5.859  0.00  0.00     0.002 A 
ATOM     18  C   UNL d   1       3.984  -2.198   5.383  0.00  0.00     0.029 A 
ENDBRANCH   9  13
ENDBRANCH   1   7
BRANCH   2  19
ATOM     19  C   UNL d   1       1.586  -2.462  -0.770  0.00  0.00     0.016 C 
ATOM     20  C   UNL d   1       1.537  -3.636   0.203  0.00  0.00     0.015 C 
BRANCH  19  21
ATOM     21  C   UNL d   1       2.857  -2.418  -1.655  0.00  0.00     0.004 C 
ATOM     22  C   UNL d   1       4.209  -2.489  -0.963  0.00  0.00     0.006 C 
ENDBRANCH  19  21
ENDBRANCH   2  19
BRANCH   3  23
ATOM     23  C   UNL d   1       2.560   2.366   0.114  0.00  0.00     0.036 C 
ATOM     24  C   UNL d   1       4.069   2.147   0.121  0.00  0.00     0.010 C 
ENDBRANCH   3  23
TORSDOF 5
