REMARK  3 active torsions:
REMARK  status: ('A' for Active; 'I' for Inactive)
REMARK    1  A    between atoms: N_14  and  C_10 
REMARK    2  A    between atoms: N_12  and  N_14 
REMARK    3  A    between atoms: C_17  and  C_15 
ROOT
ATOM      1  C   UNL d   1       0.105  -0.581  -0.028  0.00  0.00     0.136 A 
ATOM      2  C   UNL d   1       0.186   0.812  -0.011  0.00  0.00     0.039 A 
ATOM      3  N   UNL d   1       1.398  -1.029  -0.011  0.00  0.00    -0.280 N 
ATOM      4  N   UNL d   1       2.318  -0.046   0.003  0.00  0.00    -0.301 N 
ATOM      5  HN  UNL d   1       3.334  -0.137   0.014  1.00  0.00     0.187 HD
ATOM      6  C   UNL d   1       1.589   1.081  -0.000  0.00  0.00     0.036 A 
ATOM      7  N   UNL d   1      -1.007  -1.351  -0.057  0.00  0.00    -0.326 N 
ATOM      8  HN  UNL d   1      -0.976  -2.370  -0.067  1.00  0.00     0.169 HD
ATOM      9  C   UNL d   1      -1.028   1.529  -0.013  0.00  0.00    -0.042 A 
ATOM     10  C   UNL d   1      -2.159  -0.652  -0.071  0.00  0.00     0.121 A 
ATOM     11  C   UNL d   1      -2.194   0.747  -0.046  0.00  0.00     0.057 A 
ATOM     12  C   UNL d   1       1.849  -2.397  -0.010  0.00  0.00     0.179 C 
ATOM     13  C   UNL d   1       2.327   2.368  -0.001  0.00  0.00     0.070 C 
ATOM     14  C   UNL d   1      -1.218   3.017   0.013  0.00  0.00     0.049 C 
ENDROOT
BRANCH  10  15
ATOM     15  N   UNL d   1      -3.369  -1.373  -0.129  0.00  0.00    -0.286 N 
ATOM     16  H   UNL d   1      -3.258  -2.379  -0.095  0.00  0.00     0.188 HD
BRANCH  15  17
ATOM     17  N   UNL d   1      -4.543  -0.708  -0.039  0.00  0.00    -0.309 N 
ATOM     18  C   UNL d   1      -5.632  -1.403  -0.055  0.00  0.00     0.118 C 
ATOM     19  HN  UNL d   1      -4.568   0.308   0.039  1.00  0.00     0.186 HD
BRANCH  18  20
ATOM     20  C   UNL d   1      -6.939  -0.715   0.057  0.00  0.00    -0.019 A 
ATOM     21  C   UNL d   1      -6.995   0.685   0.130  0.00  0.00     0.014 A 
ATOM     22  C   UNL d   1      -8.222   1.332   0.283  0.00  0.00     0.024 A 
ATOM     23  C   UNL d   1      -9.391   0.579   0.362  0.00  0.00     0.034 A 
ATOM     24  C   UNL d   1      -9.344  -0.814   0.273  0.00  0.00     0.024 A 
ATOM     25 CL   UNL d   1     -10.902   1.373   0.580  0.00  0.00    -0.084 Cl
ATOM     26  C   UNL d   1      -8.115  -1.465   0.118  0.00  0.00     0.014 A 
ENDBRANCH  18  20
ENDBRANCH  15  17
ENDBRANCH  10  15
TORSDOF 3
