REMARK  6 active torsions:
REMARK  status: ('A' for Active; 'I' for Inactive)
REMARK    1  A    between atoms: S_2  and  C_1 
REMARK    2  A    between atoms: C_7  and  S_2 
REMARK    3  A    between atoms: C_4  and  C_7 
REMARK    4  A    between atoms: O_10  and  C_4 
REMARK    5  A    between atoms: O_12  and  C_5 
REMARK    6  A    between atoms: O_13  and  C_9 
ROOT
ATOM      1  C   UNL d   1       1.530  -0.321   0.150  0.00  0.00     0.037 A 
ATOM      2  C   UNL d   1       0.609  -1.383   0.075  0.00  0.00     0.058 A 
ATOM      3  C   UNL d   1       1.057   1.002   0.132  0.00  0.00     0.085 A 
ATOM      4  C   UNL d   1      -0.320   1.237   0.056  0.00  0.00     0.041 A 
ATOM      5  C   UNL d   1      -0.764  -1.142   0.004  0.00  0.00     0.069 A 
ATOM      6  C   UNL d   1      -1.222   0.173  -0.015  0.00  0.00     0.039 A 
ENDROOT
BRANCH   1   7
ATOM      7  S   UNL d   1       3.249  -0.802   0.294  0.00  0.00    -0.117 SA
BRANCH   7   8
ATOM      8  C   UNL d   1       3.485  -0.500   2.080  0.00  0.00     0.189 C 
BRANCH   8   9
ATOM      9  C   UNL d   1       4.904  -0.794   2.514  0.00  0.00     0.149 C 
ATOM     10  O   UNL d   1       5.364  -0.421   3.588  0.00  0.00    -0.649 OA
BRANCH   9  11
ATOM     11  O   UNL d   1       5.630  -1.560   1.664  0.00  0.00    -0.776 OA
ATOM     12  H   UNL d   1       5.124  -1.750   0.843  0.00  0.00     0.167 HD
ENDBRANCH   9  11
ENDBRANCH   8   9
ENDBRANCH   7   8
ENDBRANCH   1   7
BRANCH   3  13
ATOM     13  O   UNL d   1       1.808   2.136   0.293  0.00  0.00    -0.355 OA
ATOM     14  C   UNL d   1       2.929   2.274  -0.575  0.00  0.00     0.210 C 
ENDBRANCH   3  13
BRANCH   5  15
ATOM     15  O   UNL d   1      -1.744  -2.095  -0.041  0.00  0.00    -0.356 OA
ATOM     16  C   UNL d   1      -1.330  -3.452   0.057  0.00  0.00     0.210 C 
ENDBRANCH   5  15
TORSDOF 6
