REMARK  3 active torsions:
REMARK  status: ('A' for Active; 'I' for Inactive)
REMARK    1  A    between atoms: C_12  and  C_7 
REMARK    2  A    between atoms: O_17  and  C_9 
REMARK    3  A    between atoms: O_18  and  C_14 
ROOT
ATOM      1  C   UNL d   1       3.310   1.250  -0.139  0.00  0.00     0.101 A 
ATOM      2  N   UNL d   1       2.648   3.520  -0.625  0.00  0.00    -0.299 N 
ATOM      3  N   UNL d   1       4.799   2.839  -1.171  0.00  0.00    -0.299 N 
ATOM      4  C   UNL d   1       2.272   2.313  -0.101  0.00  0.00     0.263 A 
ATOM      5  C   UNL d   1       4.654   1.563  -0.690  0.00  0.00     0.263 A 
ATOM      6  C   UNL d   1       3.859   3.821  -1.164  0.00  0.00     0.181 A 
ATOM      7  C   UNL d   1       2.945   0.041   0.335  0.00  0.00     0.034 C 
ATOM      8  S   UNL d   1       4.178   5.328  -1.786  0.00  0.00    -0.040 SA
ATOM      9  O   UNL d   1       5.595   0.780  -0.731  0.00  0.00    -0.267 OA
ATOM     10  O   UNL d   1       1.144   2.150   0.353  0.00  0.00    -0.267 OA
ATOM     11  H   UNL d   1       1.942   4.245  -0.610  0.00  0.00     0.171 HD
ATOM     12  H   UNL d   1       5.711   3.055  -1.554  0.00  0.00     0.171 HD
ENDROOT
BRANCH   7  13
ATOM     13  C   UNL d   1       3.765  -1.172   0.385  0.00  0.00    -0.032 A 
ATOM     14  C   UNL d   1       3.821  -2.030  -0.722  0.00  0.00     0.051 A 
ATOM     15  C   UNL d   1       4.536  -3.238  -0.667  0.00  0.00     0.102 A 
ATOM     16  C   UNL d   1       5.233  -3.559   0.512  0.00  0.00     0.101 A 
ATOM     17  C   UNL d   1       5.173  -2.693   1.613  0.00  0.00     0.040 A 
ATOM     18  C   UNL d   1       4.445  -1.506   1.554  0.00  0.00     0.014 A 
BRANCH  15  19
ATOM     19  O   UNL d   1       4.555  -4.146  -1.693  0.00  0.00    -0.353 OA
ATOM     20  C   UNL d   1       3.796  -3.857  -2.859  0.00  0.00     0.210 C 
ENDBRANCH  15  19
BRANCH  16  21
ATOM     21  O   UNL d   1       5.952  -4.698   0.770  0.00  0.00    -0.353 OA
ATOM     22  C   UNL d   1       6.612  -5.307  -0.331  0.00  0.00     0.210 C 
ENDBRANCH  16  21
ENDBRANCH   7  13
TORSDOF 3
