REMARK  5 active torsions:
REMARK  status: ('A' for Active; 'I' for Inactive)
REMARK    1  A    between atoms: N_6  and  C_1 
REMARK    2  A    between atoms: C_10  and  N_4 
REMARK    3  A    between atoms: C_7  and  N_6 
REMARK    4  A    between atoms: N_9  and  C_7 
REMARK    5  A    between atoms: C_14  and  N_9 
ROOT
ATOM      1  C   UNL d   1      -0.488  -0.930  -0.537  0.00  0.00     0.129 A 
ATOM      2  C   UNL d   1       0.836  -0.324  -0.843  0.00  0.00     0.295 A 
ATOM      3  N   UNL d   1      -0.580   1.285  -0.023  0.00  0.00    -0.289 N 
ATOM      4  N   UNL d   1       0.715   1.052  -0.582  0.00  0.00    -0.217 N 
ATOM      5  C   UNL d   1      -1.276   0.075  -0.113  0.00  0.00     0.057 A 
ATOM      6  O   UNL d   1       1.806  -0.990  -1.192  0.00  0.00    -0.264 OA
ATOM      7  C   UNL d   1      -1.196   2.596  -0.194  0.00  0.00     0.178 C 
ATOM      8  C   UNL d   1      -2.695  -0.106   0.325  0.00  0.00     0.072 C 
ENDROOT
BRANCH   1   9
ATOM      9  N   UNL d   1      -0.706  -2.266  -0.305  0.00  0.00    -0.327 N 
ATOM     10  H   UNL d   1       0.090  -2.703   0.154  0.00  0.00     0.168 HD
BRANCH   9  11
ATOM     11  C   UNL d   1      -1.212  -3.169  -1.201  0.00  0.00     0.177 C 
ATOM     12  S   UNL d   1      -1.252  -2.983  -2.864  0.00  0.00    -0.041 SA
BRANCH  11  13
ATOM     13  N   UNL d   1      -1.642  -4.364  -0.674  0.00  0.00    -0.333 N 
ATOM     14  H   UNL d   1      -1.784  -5.082  -1.378  0.00  0.00     0.168 HD
BRANCH  13  15
ATOM     15  C   UNL d   1      -2.121  -4.676   0.622  0.00  0.00     0.034 A 
ATOM     16  C   UNL d   1      -2.324  -3.739   1.638  0.00  0.00     0.029 A 
ATOM     17  C   UNL d   1      -2.860  -4.115   2.874  0.00  0.00     0.002 A 
ATOM     18  C   UNL d   1      -3.204  -5.441   3.110  0.00  0.00     0.000 A 
ATOM     19  C   UNL d   1      -3.022  -6.386   2.105  0.00  0.00     0.002 A 
ATOM     20  C   UNL d   1      -2.486  -6.006   0.868  0.00  0.00     0.029 A 
ENDBRANCH  13  15
ENDBRANCH  11  13
ENDBRANCH   9  11
ENDBRANCH   1   9
BRANCH   4  21
ATOM     21  C   UNL d   1       1.818   1.935  -0.482  0.00  0.00     0.060 A 
ATOM     22  C   UNL d   1       2.923   1.771  -1.335  0.00  0.00     0.031 A 
ATOM     23  C   UNL d   1       4.035   2.615  -1.257  0.00  0.00     0.002 A 
ATOM     24  C   UNL d   1       4.065   3.642  -0.320  0.00  0.00     0.000 A 
ATOM     25  C   UNL d   1       2.983   3.820   0.537  0.00  0.00     0.002 A 
ATOM     26  C   UNL d   1       1.871   2.973   0.458  0.00  0.00     0.031 A 
ENDBRANCH   4  21
TORSDOF 5
