REMARK  5 active torsions:
REMARK  status: ('A' for Active; 'I' for Inactive)
REMARK    1  A    between atoms: O_4  and  C_1 
REMARK    2  A    between atoms: C_3  and  C_2 
REMARK    3  A    between atoms: O_13  and  C_3 
REMARK    4  A    between atoms: C_12  and  O_4 
REMARK    5  A    between atoms: C_7  and  C_8 
ROOT
ATOM      1  C   UNL d   1      -2.687   2.179   0.851  0.00  0.00     0.165 A 
ATOM      2  C   UNL d   1      -2.874   1.080   1.683  0.00  0.00     0.089 A 
ATOM      3  N   UNL d   1      -3.627   3.141   0.650  0.00  0.00    -0.346 N 
ATOM      4  HN  UNL d   1      -3.470   3.903  -0.010  1.00  0.00     0.167 HD
ATOM      5  C   UNL d   1      -4.083   1.023   2.393  0.00  0.00     0.024 A 
ATOM      6  C   UNL d   1      -4.771   3.052   1.354  0.00  0.00     0.090 A 
ATOM      7  C   UNL d   1      -5.039   2.025   2.239  0.00  0.00     0.018 A 
ENDROOT
BRANCH   1   8
ATOM      8  O   UNL d   1      -1.490   2.318   0.163  0.00  0.00    -0.293 OA
BRANCH   8   9
ATOM      9  C   UNL d   1      -0.953   3.586   0.073  0.00  0.00     0.077 A 
ATOM     10  C   UNL d   1      -1.055   4.540   1.083  0.00  0.00     0.038 A 
ATOM     11  C   UNL d   1      -0.451   5.790   0.933  0.00  0.00     0.011 A 
ATOM     12  C   UNL d   1       0.312   6.110  -0.206  0.00  0.00    -0.050 A 
ATOM     13  C   UNL d   1       0.413   5.129  -1.207  0.00  0.00     0.011 A 
ATOM     14  C   UNL d   1      -0.208   3.878  -1.067  0.00  0.00     0.038 A 
BRANCH  12  15
ATOM     15  C   UNL d   1       1.012   7.478  -0.292  0.00  0.00    -0.024 C 
ATOM     16  C   UNL d   1       1.903   7.647  -1.541  0.00  0.00     0.019 C 
ATOM     17  C   UNL d   1      -0.040   8.607  -0.317  0.00  0.00     0.019 C 
ATOM     18  C   UNL d   1       1.923   7.663   0.943  0.00  0.00     0.019 C 
ENDBRANCH  12  15
ENDBRANCH   8   9
ENDBRANCH   1   8
BRANCH   2  19
ATOM     19  C   UNL d   1      -1.901  -0.021   1.902  0.00  0.00     0.180 C 
ATOM     20  O   UNL d   1      -2.159  -0.958   2.641  0.00  0.00    -0.646 OA
BRANCH  19  21
ATOM     21  O   UNL d   1      -0.722   0.058   1.253  0.00  0.00    -0.773 OA
ATOM     22  H   UNL d   1      -0.590   0.844   0.688  0.00  0.00     0.167 HD
ENDBRANCH  19  21
ENDBRANCH   2  19
TORSDOF 5
