REMARK  5 active torsions:
REMARK  status: ('A' for Active; 'I' for Inactive)
REMARK    1  A    between atoms: C_7  and  C_1 
REMARK    2  A    between atoms: O_10  and  C_6 
REMARK    3  A    between atoms: C_8  and  O_10 
REMARK    4  A    between atoms: C_9  and  C_8 
REMARK    5  A    between atoms: O_15  and  C_9 
ROOT
ATOM      1  C   UNL d   1       0.086  -1.271   0.072  0.00  0.00     0.138 A 
ATOM      2  N   UNL d   1      -0.590  -0.080   0.006  0.00  0.00    -0.290 N 
ATOM      3  C   UNL d   1       1.431  -0.934   0.076  0.00  0.00     0.093 A 
ATOM      4  N   UNL d   1       0.240   0.989  -0.035  0.00  0.00    -0.278 N 
ATOM      5  HN  UNL d   1      -0.011   1.977  -0.061  1.00  0.00     0.189 HD
ATOM      6  C   UNL d   1       1.455   0.457  -0.033  0.00  0.00     0.160 A 
ATOM      7  C   UNL d   1      -2.007   0.199  -0.053  0.00  0.00     0.178 C 
ENDROOT
BRANCH   6   8
ATOM      8  O   UNL d   1       2.451   1.359  -0.136  0.00  0.00    -0.313 OA
BRANCH   8   9
ATOM      9  C   UNL d   1       3.617   1.145   0.660  0.00  0.00     0.146 C 
ATOM     10  C   UNL d   1       4.549   0.103   0.024  0.00  0.00     0.058 C 
ATOM     11  C   UNL d   1       4.360   2.494   0.634  0.00  0.00     0.058 C 
BRANCH   9  12
ATOM     12  C   UNL d   1       3.344   0.846   2.150  0.00  0.00     0.175 C 
ATOM     13  O   UNL d   1       4.043   0.130   2.854  0.00  0.00    -0.648 OA
BRANCH  12  14
ATOM     14  O   UNL d   1       2.257   1.495   2.640  0.00  0.00    -0.774 OA
ATOM     15  H   UNL d   1       1.757   1.976   1.941  0.00  0.00     0.167 HD
ENDBRANCH  12  14
ENDBRANCH   9  12
ENDBRANCH   8   9
ENDBRANCH   6   8
BRANCH   1  16
ATOM     16  C   UNL d   1      -0.518  -2.620   0.105  0.00  0.00     0.434 C 
ATOM     17  F   UNL d   1      -1.866  -2.635   0.007  0.00  0.00    -0.165 F 
ATOM     18  F   UNL d   1      -0.049  -3.382  -0.916  0.00  0.00    -0.165 F 
ATOM     19  F   UNL d   1      -0.201  -3.269   1.252  0.00  0.00    -0.165 F 
ENDBRANCH   1  16
TORSDOF 5
