REMARK  3 active torsions:
REMARK  status: ('A' for Active; 'I' for Inactive)
REMARK    1  A    between atoms: C_4  and  N_1 
REMARK    2  A    between atoms: O_11  and  C_5 
REMARK    3  A    between atoms: C_12  and  O_11 
ROOT
ATOM      1  N   UNL d   1      -0.642  -4.624   1.036  0.00  0.00    -0.344 N 
ATOM      2  HN  UNL d   1      -0.274  -5.251   1.751  1.00  0.00     0.167 HD
ATOM      3  C   UNL d   1      -0.811  -2.401   0.080  0.00  0.00     0.053 A 
ATOM      4  C   UNL d   1      -1.463  -5.070   0.062  0.00  0.00     0.148 A 
ATOM      5  C   UNL d   1      -0.329  -3.307   1.020  0.00  0.00     0.120 A 
ATOM      6  C   UNL d   1      -1.704  -2.889  -0.881  0.00  0.00     0.036 A 
ATOM      7  C   UNL d   1      -2.039  -4.245  -0.889  0.00  0.00     0.059 A 
ENDROOT
BRANCH   4   8
ATOM      8  O   UNL d   1      -1.763  -6.423  -0.008  0.00  0.00    -0.292 OA
BRANCH   8   9
ATOM      9  C   UNL d   1      -0.806  -7.300   0.439  0.00  0.00     0.094 A 
ATOM     10  C   UNL d   1       0.557  -7.169   0.163  0.00  0.00     0.064 A 
ATOM     11  C   UNL d   1       1.441  -8.121   0.657  0.00  0.00     0.052 A 
ATOM     12 CL   UNL d   1       3.129  -7.964   0.386  0.00  0.00    -0.083 Cl
ATOM     13  C   UNL d   1       0.930  -9.193   1.373  0.00  0.00     0.111 A 
ATOM     14  N   UNL d   1      -0.391  -9.375   1.621  0.00  0.00    -0.371 N 
ATOM     15  C   UNL d   1      -1.227  -8.419   1.146  0.00  0.00     0.124 A 
ATOM     16  HN  UNL d   1      -0.736 -10.185   2.136  1.00  0.00     0.164 HD
ENDBRANCH   8   9
ENDBRANCH   4   8
BRANCH   3  17
ATOM     17  N   UNL d   1      -0.393  -1.040   0.096  0.00  0.00    -0.332 N 
ATOM     18  C   UNL d   1       0.561  -0.479   0.927  0.00  0.00     0.096 A 
ATOM     19  C   UNL d   1       0.698   0.859   0.631  0.00  0.00     0.019 A 
ATOM     20  C   UNL d   1      -0.194   1.145  -0.419  0.00  0.00     0.019 A 
ATOM     21  C   UNL d   1      -0.845  -0.029  -0.733  0.00  0.00     0.096 A 
ENDBRANCH   3  17
TORSDOF 3
