REMARK  1 active torsions:
REMARK  status: ('A' for Active; 'I' for Inactive)
REMARK    1  A    between atoms: C_12  and  C_7 
ROOT
ATOM      1  N   UNL d   1      -5.969   5.420  -3.274  0.00  0.00    -0.191 NA
ATOM      2  C   UNL d   1      -5.329   4.559  -2.831  0.00  0.00     0.099 C 
ATOM      3  C   UNL d   1      -3.135   1.290  -1.265  0.00  0.00    -0.035 A 
ATOM      4  C   UNL d   1      -4.559   3.478  -2.292  0.00  0.00     0.044 A 
ATOM      5  C   UNL d   1      -2.886   1.744  -2.566  0.00  0.00     0.013 A 
ATOM      6  C   UNL d   1      -4.072   1.955  -0.469  0.00  0.00     0.013 A 
ATOM      7  C   UNL d   1      -4.786   3.042  -0.983  0.00  0.00     0.023 A 
ATOM      8  C   UNL d   1      -3.597   2.835  -3.079  0.00  0.00     0.023 A 
ENDROOT
BRANCH   3   9
ATOM      9  C   UNL d   1      -2.438   0.105  -0.754  0.00  0.00     0.035 C 
ATOM     10  C   UNL d   1      -1.258   0.102  -0.105  0.00  0.00     0.115 C 
ATOM     11  C   UNL d   1      -0.647  -1.199   0.210  0.00  0.00     0.302 C 
ATOM     12  C   UNL d   1      -0.532   1.327   0.245  0.00  0.00     0.302 C 
ATOM     13  O   UNL d   1       0.696  -1.173   0.341  0.00  0.00    -0.280 OA
ATOM     14  O   UNL d   1      -1.291  -2.231   0.334  0.00  0.00    -0.259 OA
ATOM     15  C   UNL d   1       1.399  -0.029  -0.148  0.00  0.00     0.175 C 
ATOM     16  O   UNL d   1       0.810   1.205   0.258  0.00  0.00    -0.280 OA
ATOM     17  C   UNL d   1       1.532  -0.089  -1.674  0.00  0.00     0.080 C 
ATOM     18  C   UNL d   1       2.794  -0.052   0.477  0.00  0.00     0.080 C 
ATOM     19  O   UNL d   1      -1.077   2.384   0.531  0.00  0.00    -0.259 OA
ENDBRANCH   3   9
TORSDOF 1
