REMARK  4 active torsions:
REMARK  status: ('A' for Active; 'I' for Inactive)
REMARK    1  A    between atoms: C_6  and  C_1 
REMARK    2  A    between atoms: C_2  and  C_10 
REMARK    3  A    between atoms: O_12  and  C_5 
REMARK    4  A    between atoms: C_18  and  O_12 
ROOT
ATOM      1  C   UNL d   1      -5.449  -0.147   0.806  0.00  0.00    -0.003 A 
ATOM      2  C   UNL d   1      -5.300  -1.097   1.828  0.00  0.00     0.017 A 
ATOM      3  C   UNL d   1      -4.641  -0.236  -0.331  0.00  0.00     0.017 A 
ATOM      4  C   UNL d   1      -3.555  -2.209   0.566  0.00  0.00     0.077 A 
ATOM      5  C   UNL d   1      -4.347  -2.118   1.712  0.00  0.00     0.038 A 
ATOM      6  C   UNL d   1      -3.686  -1.251  -0.441  0.00  0.00     0.038 A 
ENDROOT
BRANCH   4   7
ATOM      7  O   UNL d   1      -2.619  -3.220   0.537  0.00  0.00    -0.294 OA
BRANCH   7   8
ATOM      8  C   UNL d   1      -2.329  -3.797  -0.691  0.00  0.00     0.148 A 
ATOM      9  C   UNL d   1      -1.027  -4.226  -0.892  0.00  0.00     0.072 A 
ATOM     10  C   UNL d   1      -0.693  -4.784  -2.131  0.00  0.00     0.053 A 
ATOM     11  C   UNL d   1      -1.692  -4.895  -3.107  0.00  0.00     0.033 A 
ATOM     12  C   UNL d   1      -2.971  -4.468  -2.800  0.00  0.00     0.091 A 
ATOM     13  N   UNL d   1      -3.311  -3.932  -1.612  0.00  0.00    -0.347 N 
ATOM     14  HN  UNL d   1      -4.268  -3.641  -1.415  1.00  0.00     0.167 HD
BRANCH  10  15
ATOM     15  C   UNL d   1       0.705  -5.247  -2.433  0.00  0.00     0.417 C 
ATOM     16  F   UNL d   1       1.560  -5.125  -1.380  0.00  0.00    -0.166 F 
ATOM     17  F   UNL d   1       1.269  -4.549  -3.457  0.00  0.00    -0.166 F 
ATOM     18  F   UNL d   1       0.750  -6.556  -2.803  0.00  0.00    -0.166 F 
ENDBRANCH  10  15
ENDBRANCH   7   8
ENDBRANCH   4   7
BRANCH   1  19
ATOM     19  C   UNL d   1      -6.470   0.917   0.962  0.00  0.00     0.076 C 
ATOM     20  N   UNL d   1      -7.468   0.830   1.785  0.00  0.00    -0.383 N 
ATOM     21  C   UNL d   1      -8.323   2.027   1.649  0.00  0.00     0.131 C 
ATOM     22  HN  UNL d   1      -7.637   0.055   2.427  1.00  0.00     0.160 HD
ATOM     23  C   UNL d   1      -7.487   3.204   1.181  0.00  0.00     0.100 C 
ATOM     24  S   UNL d   1      -6.325   2.414   0.059  0.00  0.00    -0.110 SA
ENDBRANCH   1  19
TORSDOF 4
