REMARK  5 active torsions:
REMARK  status: ('A' for Active; 'I' for Inactive)
REMARK    1  A    between atoms: C_12  and  C_1 
REMARK    2  A    between atoms: S_6  and  C_2 
REMARK    3  A    between atoms: C_14  and  S_6 
REMARK    4  A    between atoms: C_7  and  C_10 
REMARK    5  A    between atoms: C_10  and  C_14 
ROOT
ATOM      1  C   UNL d   1       0.524  -0.621  -0.927  0.00  0.00     0.027 A 
ATOM      2  C   UNL d   1       1.155  -1.566  -0.196  0.00  0.00     0.061 A 
ATOM      3  C   UNL d   1      -0.172   0.456  -0.141  0.00  0.00     0.091 A 
ATOM      4  S   UNL d   1       1.118  -1.440   1.544  0.00  0.00    -0.044 SA
ATOM      5  S   UNL d   1       0.062   0.287   1.592  0.00  0.00    -0.039 SA
ATOM      6  S   UNL d   1      -1.092   1.729  -0.740  0.00  0.00    -0.071 SA
ENDROOT
BRANCH   2   7
ATOM      7  S   UNL d   1       2.098  -2.854  -0.912  0.00  0.00    -0.113 SA
BRANCH   7   8
ATOM      8  C   UNL d   1       1.357  -4.341  -0.163  0.00  0.00     0.164 C 
BRANCH   8   9
ATOM      9  C   UNL d   1       2.157  -5.602  -0.475  0.00  0.00     0.169 C 
ATOM     10  O   UNL d   1       3.208  -5.611  -1.111  0.00  0.00    -0.291 OA
BRANCH   9  11
ATOM     11  C   UNL d   1       1.642  -6.911   0.048  0.00  0.00     0.014 A 
ATOM     12  C   UNL d   1       0.440  -7.021   0.755  0.00  0.00     0.060 A 
ATOM     13  C   UNL d   1       0.020  -8.270   1.212  0.00  0.00     0.155 A 
ATOM     14  F   UNL d   1      -1.137  -8.360   1.882  0.00  0.00    -0.203 F 
ATOM     15  C   UNL d   1       0.781  -9.409   0.980  0.00  0.00     0.154 A 
ATOM     16  C   UNL d   1       1.980  -9.317   0.285  0.00  0.00     0.046 A 
ATOM     17  F   UNL d   1       0.365 -10.602   1.424  0.00  0.00    -0.203 F 
ATOM     18  C   UNL d   1       2.410  -8.070  -0.180  0.00  0.00     0.018 A 
ENDBRANCH   9  11
ENDBRANCH   8   9
ENDBRANCH   7   8
ENDBRANCH   2   7
BRANCH   1  19
ATOM     19  C   UNL d   1       0.489  -0.586  -2.403  0.00  0.00    -0.022 A 
ATOM     20  C   UNL d   1      -0.510  -1.277  -3.102  0.00  0.00     0.012 A 
ATOM     21  C   UNL d   1      -0.629  -1.130  -4.486  0.00  0.00     0.001 A 
ATOM     22  C   UNL d   1       0.251  -0.300  -5.178  0.00  0.00     0.000 A 
ATOM     23  C   UNL d   1       1.266   0.367  -4.494  0.00  0.00     0.001 A 
ATOM     24  C   UNL d   1       1.390   0.222  -3.111  0.00  0.00     0.012 A 
ENDBRANCH   1  19
TORSDOF 5
