REMARK  4 active torsions:
REMARK  status: ('A' for Active; 'I' for Inactive)
REMARK    1  A    between atoms: S_2  and  C_1 
REMARK    2  A    between atoms: N_7  and  S_2 
REMARK    3  A    between atoms: C_19  and  N_7 
REMARK    4  A    between atoms: C_20  and  C_19 
ROOT
ATOM      1  N   UNL d   1       1.307  -3.922   1.380  0.00  0.00    -0.211 NA
ATOM      2  H   UNL d   1       1.633  -4.885   1.299  0.00  0.00     0.140 HD
ENDROOT
BRANCH   1   3
ATOM      3  S   UNL d   1       1.575  -3.033  -0.021  0.00  0.00     0.244 S 
ATOM      4  O   UNL d   1       1.117  -1.680   0.195  0.00  0.00    -0.206 OA
ATOM      5  O   UNL d   1       1.146  -3.827  -1.148  0.00  0.00    -0.206 OA
BRANCH   3   6
ATOM      6  C   UNL d   1       3.280  -2.879  -0.245  0.00  0.00     0.105 A 
ATOM      7  C   UNL d   1       4.145  -3.933  -0.405  0.00  0.00     0.099 A 
ATOM      8  S   UNL d   1       5.763  -3.442  -0.581  0.00  0.00    -0.064 SA
ATOM      9 CL   UNL d   1       3.803  -5.619  -0.415  0.00  0.00    -0.075 Cl
ATOM     10  C   UNL d   1       5.322  -1.814  -0.435  0.00  0.00     0.077 A 
ATOM     11  C   UNL d   1       3.974  -1.626  -0.265  0.00  0.00     0.058 A 
ATOM     12 CL   UNL d   1       6.528  -0.595  -0.495  0.00  0.00    -0.076 Cl
ENDBRANCH   3   6
ENDBRANCH   1   3
BRANCH   1  13
ATOM     13  C   UNL d   1       1.652  -3.248   2.635  0.00  0.00     0.143 C 
BRANCH  13  14
ATOM     14  C   UNL d   1       1.331  -4.092   3.845  0.00  0.00    -0.042 A 
ATOM     15  C   UNL d   1       2.353  -4.490   4.723  0.00  0.00     0.048 A 
ATOM     16  C   UNL d   1       1.999  -5.184   5.861  0.00  0.00     0.105 A 
ATOM     17  O   UNL d   1       2.856  -5.608   6.827  0.00  0.00    -0.323 OA
ATOM     18  C   UNL d   1       0.692  -5.501   6.143  0.00  0.00     0.105 A 
ATOM     19  C   UNL d   1       1.932  -6.182   7.775  0.00  0.00     0.352 A 
ATOM     20  O   UNL d   1       0.562  -6.163   7.323  0.00  0.00    -0.323 OA
ATOM     21  C   UNL d   1      -0.336  -5.151   5.295  0.00  0.00     0.040 A 
ATOM     22  C   UNL d   1      -0.010  -4.439   4.136  0.00  0.00     0.011 A 
ENDBRANCH  13  14
ENDBRANCH   1  13
TORSDOF 4
