REMARK  5 active torsions:
REMARK  status: ('A' for Active; 'I' for Inactive)
REMARK    1  A    between atoms: C_2  and  C_1 
REMARK    2  A    between atoms: O_12  and  C_2 
REMARK    3  A    between atoms: C_8  and  C_3 
REMARK    4  A    between atoms: C_9  and  C_6 
REMARK    5  A    between atoms: C_17  and  O_12 
ROOT
ATOM      1  C   UNL d   1       1.096  -1.431  -1.127  0.00  0.00     0.120 C 
ATOM      2  C   UNL d   1       0.227  -0.961  -0.211  0.00  0.00     0.040 C 
ATOM      3  C   UNL d   1       0.691  -2.038  -2.346  0.00  0.00     0.105 C 
ATOM      4  N   UNL d   1       0.357  -2.521  -3.349  0.00  0.00    -0.191 NA
ENDROOT
BRANCH   1   5
ATOM      5  C   UNL d   1       2.536  -1.218  -0.844  0.00  0.00     0.303 C 
ATOM      6  O   UNL d   1       2.967  -0.665   0.158  0.00  0.00    -0.258 OA
BRANCH   5   7
ATOM      7  O   UNL d   1       3.286  -1.637  -1.894  0.00  0.00    -0.317 OA
BRANCH   7   8
ATOM      8  C   UNL d   1       4.624  -1.122  -1.944  0.00  0.00     0.174 C 
ATOM      9  C   UNL d   1       4.585   0.204  -2.683  0.00  0.00     0.034 C 
ENDBRANCH   7   8
ENDBRANCH   5   7
ENDBRANCH   1   5
BRANCH   2  10
ATOM     10  C   UNL d   1      -1.228  -1.040  -0.335  0.00  0.00    -0.035 A 
ATOM     11  C   UNL d   1      -1.904  -2.151   0.163  0.00  0.00     0.012 A 
ATOM     12  C   UNL d   1      -3.296  -2.227   0.061  0.00  0.00     0.013 A 
ATOM     13  C   UNL d   1      -4.055  -1.194  -0.520  0.00  0.00    -0.026 A 
ATOM     14  C   UNL d   1      -3.346  -0.089  -1.026  0.00  0.00     0.013 A 
ATOM     15  C   UNL d   1      -1.949  -0.013  -0.943  0.00  0.00     0.012 A 
BRANCH  13  16
ATOM     16  C   UNL d   1      -5.535  -1.272  -0.583  0.00  0.00    -0.026 A 
ATOM     17  C   UNL d   1      -6.265  -0.697  -1.640  0.00  0.00     0.012 A 
ATOM     18  C   UNL d   1      -7.661  -0.775  -1.693  0.00  0.00     0.001 A 
ATOM     19  C   UNL d   1      -8.363  -1.443  -0.695  0.00  0.00     0.000 A 
ATOM     20  C   UNL d   1      -7.670  -2.022   0.362  0.00  0.00     0.001 A 
ATOM     21  C   UNL d   1      -6.276  -1.928   0.420  0.00  0.00     0.012 A 
ENDBRANCH  13  16
ENDBRANCH   2  10
TORSDOF 5
