REMARK  3 active torsions:
REMARK  status: ('A' for Active; 'I' for Inactive)
REMARK    1  A    between atoms: C_2  and  C_1 
REMARK       I    between atoms: N_5  and  C_2 
REMARK    2  A    between atoms: N_10  and  N_5 
REMARK    3  A    between atoms: C_13  and  N_10 
ROOT
ATOM      1  C   UNL d   1       0.604   2.200   0.864  0.00  0.00     0.274 C 
ATOM      2  N   UNL d   1       1.213   3.377   0.444  0.00  0.00    -0.282 N 
ATOM      3  O   UNL d   1       1.151   1.114   0.655  0.00  0.00    -0.266 OA
ATOM      4  H   UNL d   1       0.665   4.226   0.348  0.00  0.00     0.184 HD
ENDROOT
BRANCH   2   5
ATOM      5  N   UNL d   1       2.317   3.272  -0.416  0.00  0.00    -0.203 NA
ATOM      6  H   UNL d   1       2.654   2.304  -0.493  0.00  0.00     0.153 HD
BRANCH   5   7
ATOM      7  C   UNL d   1       3.371   4.187  -0.177  0.00  0.00     0.029 A 
ATOM      8  C   UNL d   1       4.544   4.053  -0.933  0.00  0.00     0.049 A 
ATOM      9  C   UNL d   1       5.576   4.995  -0.844  0.00  0.00     0.041 A 
ATOM     10 CL   UNL d   1       6.976   4.755  -1.829  0.00  0.00    -0.084 Cl
ATOM     11  C   UNL d   1       5.462   6.104   0.004  0.00  0.00    -0.040 A 
ATOM     12  C   UNL d   1       4.291   6.244   0.759  0.00  0.00     0.010 A 
ATOM     13  C   UNL d   1       6.533   7.153   0.099  0.00  0.00     0.050 C 
ATOM     14  C   UNL d   1       3.257   5.305   0.659  0.00  0.00     0.026 A 
ENDBRANCH   5   7
ENDBRANCH   2   5
BRANCH   1  15
ATOM     15  C   UNL d   1      -0.685   2.361   1.528  0.00  0.00     0.095 A 
ATOM     16  C   UNL d   1      -1.387   3.489   1.921  0.00  0.00     0.057 A 
ATOM     17  C   UNL d   1      -2.623   3.176   2.563  0.00  0.00     0.032 A 
ATOM     18 CL   UNL d   1      -0.922   5.129   1.723  0.00  0.00    -0.083 Cl
ATOM     19  C   UNL d   1      -2.840   1.820   2.637  0.00  0.00     0.052 A 
ATOM     20  S   UNL d   1      -1.562   0.933   1.940  0.00  0.00    -0.095 SA
ENDBRANCH   1  15
TORSDOF 3
