REMARK  5 active torsions:
REMARK  status: ('A' for Active; 'I' for Inactive)
REMARK    1  A    between atoms: S_7  and  C_1 
REMARK    2  A    between atoms: C_15  and  C_6 
REMARK    3  A    between atoms: C_11  and  S_7 
REMARK    4  A    between atoms: C_12  and  C_8 
REMARK    5  A    between atoms: O_18  and  C_12 
ROOT
ATOM      1  C   UNL d   1      -1.557  -1.288  -0.221  0.00  0.00     0.126 A 
ATOM      2  N   UNL d   1      -0.267  -0.788  -0.146  0.00  0.00    -0.149 N 
ATOM      3  C   UNL d   1      -0.365   0.598  -0.009  0.00  0.00     0.689 A 
ATOM      4  N   UNL d   1      -1.625   0.971   0.011  0.00  0.00    -0.188 N 
ATOM      5  HN  UNL d   1      -1.977   1.925   0.085  1.00  0.00     0.184 HD
ATOM      6  C   UNL d   1      -2.380  -0.181  -0.090  0.00  0.00     0.094 A 
ATOM      7  N   UNL d   1       0.751   1.383   0.074  0.00  0.00    -0.201 N 
ATOM      8  HN  UNL d   1       0.689   2.396   0.182  1.00  0.00     0.183 HD
ATOM      9  C   UNL d   1       0.975  -1.421  -0.224  0.00  0.00     0.117 A 
ATOM     10  C   UNL d   1       2.099  -0.692  -0.159  0.00  0.00     0.036 A 
ATOM     11  C   UNL d   1       1.893   0.770   0.006  0.00  0.00     0.107 A 
ENDROOT
BRANCH   1  12
ATOM     12  S   UNL d   1      -1.851  -2.999  -0.411  0.00  0.00    -0.068 SA
BRANCH  12  13
ATOM     13  C   UNL d   1      -2.208  -3.138  -2.170  0.00  0.00     0.023 A 
ATOM     14  C   UNL d   1      -3.144  -4.051  -2.706  0.00  0.00     0.056 A 
ATOM     15  C   UNL d   1      -3.234  -4.219  -4.105  0.00  0.00     0.019 A 
ATOM     16  C   UNL d   1      -2.417  -3.502  -4.975  0.00  0.00     0.001 A 
ATOM     17  C   UNL d   1      -1.502  -2.599  -4.460  0.00  0.00     0.001 A 
ATOM     18  C   UNL d   1      -1.399  -2.422  -3.077  0.00  0.00     0.020 A 
BRANCH  14  19
ATOM     19  C   UNL d   1      -4.043  -4.954  -1.933  0.00  0.00     0.294 C 
ATOM     20  O   UNL d   1      -4.390  -6.046  -2.365  0.00  0.00    -0.259 OA
BRANCH  19  21
ATOM     21  O   UNL d   1      -4.500  -4.391  -0.792  0.00  0.00    -0.322 OA
ATOM     22  C   UNL d   1      -5.433  -5.204  -0.073  0.00  0.00     0.213 C 
ENDBRANCH  19  21
ENDBRANCH  14  19
ENDBRANCH  12  13
ENDBRANCH   1  12
BRANCH   6  23
ATOM     23  C   UNL d   1      -3.836  -0.116  -0.081  0.00  0.00    -0.006 A 
ATOM     24  C   UNL d   1      -4.469   1.035  -0.572  0.00  0.00     0.014 A 
ATOM     25  C   UNL d   1      -5.862   1.142  -0.587  0.00  0.00     0.001 A 
ATOM     26  C   UNL d   1      -6.642   0.096  -0.103  0.00  0.00     0.000 A 
ATOM     27  C   UNL d   1      -6.029  -1.044   0.413  0.00  0.00     0.001 A 
ATOM     28  C   UNL d   1      -4.635  -1.143   0.436  0.00  0.00     0.014 A 
ENDBRANCH   6  23
TORSDOF 5
