REMARK  6 active torsions:
REMARK  status: ('A' for Active; 'I' for Inactive)
REMARK    1  A    between atoms: C_9  and  C_1 
REMARK    2  A    between atoms: C_8  and  N_4 
REMARK    3  A    between atoms: S_10  and  C_5 
REMARK    4  A    between atoms: O_15  and  C_9 
REMARK    5  A    between atoms: C_14  and  S_10 
REMARK    6  A    between atoms: C_25  and  O_15 
ROOT
ATOM      1  C   UNL d   1      -0.641   1.198  -0.112  0.00  0.00     0.176 A 
ATOM      2  N   UNL d   1      -1.309   0.076  -0.120  0.00  0.00    -0.285 N 
ATOM      3  HN  UNL d   1      -2.329   0.081  -0.143  1.00  0.00     0.188 HD
ATOM      4  N   UNL d   1      -0.620  -1.105  -0.097  0.00  0.00    -0.264 N 
ATOM      5  C   UNL d   1       1.556  -0.061  -0.104  0.00  0.00     0.075 A 
ATOM      6  C   UNL d   1       0.863   1.242  -0.026  0.00  0.00     0.224 A 
ATOM      7  C   UNL d   1       0.763  -1.135  -0.115  0.00  0.00     0.139 A 
ATOM      8  O   UNL d   1       1.436   2.307   0.135  0.00  0.00    -0.284 OA
ENDROOT
BRANCH   5   9
ATOM      9  S   UNL d   1       3.273  -0.125  -0.076  0.00  0.00    -0.085 SA
BRANCH   9  10
ATOM     10  C   UNL d   1       3.581  -0.080  -1.831  0.00  0.00     0.005 A 
ATOM     11  C   UNL d   1       3.660   1.139  -2.514  0.00  0.00     0.020 A 
ATOM     12  C   UNL d   1       3.921   1.160  -3.888  0.00  0.00     0.025 A 
ATOM     13  C   UNL d   1       4.107  -0.038  -4.577  0.00  0.00     0.034 A 
ATOM     14  C   UNL d   1       4.040  -1.256  -3.903  0.00  0.00     0.025 A 
ATOM     15 CL   UNL d   1       4.428  -0.016  -6.266  0.00  0.00    -0.084 Cl
ATOM     16  C   UNL d   1       3.781  -1.276  -2.530  0.00  0.00     0.020 A 
ENDBRANCH   9  10
ENDBRANCH   5   9
BRANCH   1  17
ATOM     17  C   UNL d   1      -1.430   2.487  -0.149  0.00  0.00     0.315 C 
ATOM     18  O   UNL d   1      -1.109   3.438  -0.838  0.00  0.00    -0.257 OA
BRANCH  17  19
ATOM     19  O   UNL d   1      -2.432   2.416   0.751  0.00  0.00    -0.317 OA
BRANCH  19  20
ATOM     20  C   UNL d   1      -2.999   3.664   1.163  0.00  0.00     0.175 C 
ATOM     21  C   UNL d   1      -2.398   3.985   2.518  0.00  0.00     0.034 C 
ENDBRANCH  19  20
ENDBRANCH  17  19
ENDBRANCH   1  17
BRANCH   4  22
ATOM     22  C   UNL d   1      -1.425  -2.290   0.035  0.00  0.00     0.077 A 
ATOM     23  C   UNL d   1      -2.698  -2.449  -0.564  0.00  0.00     0.062 A 
ATOM     24 CL   UNL d   1      -3.419  -1.278  -1.622  0.00  0.00    -0.082 Cl
ATOM     25  C   UNL d   1      -3.433  -3.635  -0.394  0.00  0.00     0.026 A 
ATOM     26  C   UNL d   1      -2.924  -4.687   0.363  0.00  0.00     0.002 A 
ATOM     27  C   UNL d   1      -1.680  -4.557   0.965  0.00  0.00     0.002 A 
ATOM     28  C   UNL d   1      -0.947  -3.375   0.809  0.00  0.00     0.033 A 
ENDBRANCH   4  22
TORSDOF 6
