REMARK  3 active torsions:
REMARK  status: ('A' for Active; 'I' for Inactive)
REMARK    1  A    between atoms: C_6  and  C_3 
REMARK    2  A    between atoms: C_7  and  C_6 
REMARK       I    between atoms: N_10  and  C_7 
REMARK    3  A    between atoms: N_12  and  N_10 
ROOT
ATOM      1  C   UNL d   1      -1.685  -2.693   0.104  0.00  0.00     0.144 C 
ENDROOT
BRANCH   1   2
ATOM      2  C   UNL d   1      -0.894  -1.421  -0.026  0.00  0.00    -0.023 A 
ATOM      3  C   UNL d   1      -0.141  -0.797   0.951  0.00  0.00     0.059 A 
ATOM      4  S   UNL d   1       0.675   0.592   0.408  0.00  0.00    -0.075 SA
ATOM      5 BR   UNL d   1       0.012  -1.381   2.731  0.00  0.00    -0.042 Br
ATOM      6  C   UNL d   1       0.023   0.415  -1.143  0.00  0.00     0.053 A 
ATOM      7 BR   UNL d   1       0.395   1.588  -2.554  0.00  0.00    -0.043 Br
ATOM      8  C   UNL d   1      -0.800  -0.677  -1.259  0.00  0.00     0.036 A 
ENDBRANCH   1   2
BRANCH   1   9
ATOM      9  C   UNL d   1      -3.163  -2.454   0.356  0.00  0.00     0.235 C 
ATOM     10  O   UNL d   1      -4.034  -2.805  -0.438  0.00  0.00    -0.272 OA
ATOM     11  N   UNL d   1      -3.453  -1.867   1.582  0.00  0.00    -0.294 N 
ATOM     12  H   UNL d   1      -2.713  -1.615   2.235  0.00  0.00     0.183 HD
BRANCH  11  13
ATOM     13  N   UNL d   1      -4.797  -1.706   1.978  0.00  0.00    -0.247 NA
ATOM     14  H   UNL d   1      -5.322  -2.504   1.596  0.00  0.00     0.143 HD
ATOM     15  H   UNL d   1      -5.179  -0.909   1.460  0.00  0.00     0.143 HD
ENDBRANCH  11  13
ENDBRANCH   1   9
TORSDOF 3
