REMARK  2 active torsions:
REMARK  status: ('A' for Active; 'I' for Inactive)
REMARK    1  A    between atoms: C_7  and  C_1 
REMARK    2  A    between atoms: C_8  and  C_3 
ROOT
ATOM      1  C   UNL d   1      -0.144  -1.119  -0.009  0.00  0.00     0.057 A 
ATOM      2  S   UNL d   1       1.418  -0.406  -0.047  0.00  0.00    -0.067 SA
ATOM      3  C   UNL d   1       0.724   1.163  -0.001  0.00  0.00     0.092 A 
ATOM      4  N   UNL d   1      -0.593   1.178   0.030  0.00  0.00    -0.352 N 
ATOM      5  HN  UNL d   1      -1.162   2.025   0.056  1.00  0.00     0.166 HD
ATOM      6  C   UNL d   1      -1.103  -0.115   0.023  0.00  0.00     0.025 A 
ATOM      7  C   UNL d   1      -2.582  -0.269   0.018  0.00  0.00     0.070 C 
ENDROOT
BRANCH   1   8
ATOM      8  C   UNL d   1      -0.309  -2.543  -0.014  0.00  0.00     0.068 A 
ATOM      9  N   UNL d   1       0.593  -3.405  -0.586  0.00  0.00    -0.300 N 
ATOM     10  N   UNL d   1       0.251  -4.701  -0.485  0.00  0.00    -0.311 N 
ATOM     11  H   UNL d   1       1.456  -3.167  -1.063  0.00  0.00     0.187 HD
ATOM     12  C   UNL d   1      -0.901  -4.668   0.186  0.00  0.00     0.109 A 
ATOM     13  HN  UNL d   1       0.753  -5.516  -0.839  1.00  0.00     0.186 HD
ATOM     14  C   UNL d   1      -1.299  -3.355   0.502  0.00  0.00     0.051 A 
ENDBRANCH   1   8
BRANCH   3  15
ATOM     15  C   UNL d   1       1.493   2.389  -0.008  0.00  0.00     0.038 A 
ATOM     16  S   UNL d   1       3.212   2.439  -0.052  0.00  0.00    -0.099 SA
ATOM     17  C   UNL d   1       3.243   4.146  -0.042  0.00  0.00     0.050 A 
ATOM     18  C   UNL d   1       1.977   4.684  -0.003  0.00  0.00     0.008 A 
ATOM     19  C   UNL d   1       0.973   3.673   0.018  0.00  0.00     0.022 A 
ENDBRANCH   3  15
TORSDOF 2
