REMARK  6 active torsions:
REMARK  status: ('A' for Active; 'I' for Inactive)
REMARK    1  A    between atoms: N_7  and  C_1 
REMARK       I    between atoms: C_8  and  N_7 
REMARK    2  A    between atoms: C_13  and  C_8 
REMARK    3  A    between atoms: O_18  and  C_9 
REMARK    4  A    between atoms: C_10  and  C_14 
REMARK    5  A    between atoms: O_16  and  C_10 
REMARK    6  A    between atoms: C_14  and  C_13 
ROOT
ATOM      1  C   UNL d   1      -1.050   1.718   0.079  0.00  0.00     0.138 A 
ATOM      2  N   UNL d   1      -2.084   0.878   0.161  0.00  0.00    -0.282 N 
ATOM      3  HN  UNL d   1      -3.071   1.111   0.271  1.00  0.00     0.189 HD
ATOM      4  C   UNL d   1       0.215   1.028  -0.013  0.00  0.00     0.071 A 
ATOM      5  N   UNL d   1      -1.536  -0.333   0.066  0.00  0.00    -0.294 N 
ATOM      6  C   UNL d   1      -0.167  -0.328   0.017  0.00  0.00     0.067 A 
ATOM      7  C   UNL d   1       1.619   1.291  -0.062  0.00  0.00     0.084 A 
ATOM      8  C   UNL d   1      -2.389  -1.496  -0.008  0.00  0.00     0.178 C 
ATOM      9  C   UNL d   1       0.736  -1.403  -0.006  0.00  0.00     0.032 A 
ATOM     10  C   UNL d   1       2.093  -1.116  -0.034  0.00  0.00     0.005 A 
ATOM     11  C   UNL d   1       2.522   0.204  -0.065  0.00  0.00     0.038 A 
ENDROOT
BRANCH   1  12
ATOM     12  N   UNL d   1      -1.298   3.069  -0.012  0.00  0.00    -0.311 N 
ATOM     13  C   UNL d   1      -2.033   3.759   0.932  0.00  0.00     0.223 C 
ATOM     14  O   UNL d   1      -2.540   3.311   1.959  0.00  0.00    -0.273 OA
ATOM     15  H   UNL d   1      -0.708   3.589  -0.635  0.00  0.00     0.170 HD
BRANCH  13  16
ATOM     16  C   UNL d   1      -2.091   5.248   0.635  0.00  0.00     0.113 C 
BRANCH  16  17
ATOM     17  C   UNL d   1      -2.239   6.059   1.914  0.00  0.00     0.119 C 
BRANCH  17  18
ATOM     18  C   UNL d   1      -1.032   5.879   2.797  0.00  0.00     0.139 C 
ATOM     19  O   UNL d   1      -0.023   6.565   2.705  0.00  0.00    -0.650 OA
BRANCH  18  20
ATOM     20  O   UNL d   1      -1.136   4.846   3.660  0.00  0.00    -0.776 OA
ATOM     21  H   UNL d   1      -1.915   4.263   3.490  0.00  0.00     0.167 HD
ENDBRANCH  18  20
ENDBRANCH  17  18
ENDBRANCH  16  17
ENDBRANCH  13  16
ENDBRANCH   1  12
BRANCH   7  22
ATOM     22  O   UNL d   1       2.341   2.481  -0.057  0.00  0.00    -0.355 OA
ATOM     23  C   UNL d   1       1.671   3.719  -0.069  0.00  0.00     0.210 C 
ENDBRANCH   7  22
TORSDOF 6
