REMARK  3 active torsions:
REMARK  status: ('A' for Active; 'I' for Inactive)
REMARK    1  A    between atoms: C_2  and  C_1 
REMARK       I    between atoms: N_3  and  C_2 
REMARK    2  A    between atoms: C_7  and  N_3 
REMARK    3  A    between atoms: N_10  and  C_4 
ROOT
ATOM      1  C   UNL d   1       0.926   0.034  -0.003  0.00  0.00     0.127 C 
ATOM      2  C   UNL d   1       0.277   0.782  -0.918  0.00  0.00     0.113 C 
ATOM      3  C   UNL d   1       0.259  -0.828   0.904  0.00  0.00     0.106 C 
ATOM      4  N   UNL d   1      -0.214  -1.559   1.672  0.00  0.00    -0.191 NA
ENDROOT
BRANCH   1   5
ATOM      5  C   UNL d   1       2.434   0.066  -0.042  0.00  0.00     0.268 C 
ATOM      6  N   UNL d   1       3.071  -0.601   0.995  0.00  0.00    -0.320 N 
ATOM      7  H   UNL d   1       2.521  -1.208   1.590  0.00  0.00     0.169 HD
ATOM      8  O   UNL d   1       3.007   0.598  -0.989  0.00  0.00    -0.266 OA
BRANCH   6   9
ATOM      9  C   UNL d   1       4.473  -0.696   1.173  0.00  0.00     0.073 A 
ATOM     10  C   UNL d   1       5.414   0.215   0.671  0.00  0.00     0.143 A 
ATOM     11  F   UNL d   1       5.043   1.369   0.098  0.00  0.00    -0.204 F 
ATOM     12  C   UNL d   1       6.782   0.005   0.839  0.00  0.00     0.044 A 
ATOM     13  C   UNL d   1       7.237  -1.110   1.537  0.00  0.00     0.003 A 
ATOM     14  C   UNL d   1       6.316  -1.995   2.094  0.00  0.00     0.002 A 
ATOM     15  C   UNL d   1       4.944  -1.783   1.923  0.00  0.00     0.033 A 
ENDBRANCH   6   9
ENDBRANCH   1   5
BRANCH   2  16
ATOM     16  N   UNL d   1      -1.074   0.979  -1.203  0.00  0.00    -0.397 N 
ATOM     17  C   UNL d   1      -2.136   1.003  -0.197  0.00  0.00     0.148 C 
ATOM     18  C   UNL d   1      -1.484   1.519  -2.505  0.00  0.00     0.148 C 
ENDBRANCH   2  16
TORSDOF 3
