REMARK  3 active torsions:
REMARK  status: ('A' for Active; 'I' for Inactive)
REMARK    1  A    between atoms: N_2  and  C_1 
REMARK    2  A    between atoms: O_11  and  C_1 
REMARK       I    between atoms: C_7  and  N_2 
REMARK    3  A    between atoms: C_8  and  C_7 
ROOT
ATOM      1  C   UNL d   1      -1.842  -0.024  -0.231  0.00  0.00     0.269 C 
ATOM      2  C   UNL d   1      -0.860  -1.218  -0.195  0.00  0.00     0.224 C 
ATOM      3  C   UNL d   1      -0.902   1.191  -0.397  0.00  0.00     0.224 C 
ATOM      4  C   UNL d   1       0.476   0.707  -0.277  0.00  0.00     0.029 A 
ATOM      5  C   UNL d   1       0.500  -0.679  -0.180  0.00  0.00     0.029 A 
ATOM      6  O   UNL d   1      -1.124  -2.400  -0.050  0.00  0.00    -0.286 OA
ATOM      7  O   UNL d   1      -1.189   2.367  -0.552  0.00  0.00    -0.286 OA
ATOM      8  C   UNL d   1       1.636   1.457  -0.188  0.00  0.00     0.016 A 
ATOM      9  C   UNL d   1       1.683  -1.375   0.005  0.00  0.00     0.016 A 
ATOM     10  C   UNL d   1       2.863  -0.633   0.103  0.00  0.00     0.001 A 
ATOM     11  C   UNL d   1       2.840   0.772   0.010  0.00  0.00     0.001 A 
ENDROOT
BRANCH   1  12
ATOM     12  N   UNL d   1      -2.912  -0.133  -1.167  0.00  0.00    -0.311 N 
ATOM     13  C   UNL d   1      -2.724  -0.234  -2.520  0.00  0.00     0.271 C 
ATOM     14  O   UNL d   1      -1.617  -0.297  -3.038  0.00  0.00    -0.266 OA
ATOM     15  H   UNL d   1      -3.858  -0.008  -0.827  0.00  0.00     0.166 HD
BRANCH  13  16
ATOM     16  C   UNL d   1      -4.001  -0.253  -3.314  0.00  0.00     0.100 A 
ATOM     17  N   UNL d   1      -5.156  -0.236  -2.588  0.00  0.00    -0.361 N 
ATOM     18  C   UNL d   1      -6.308  -0.253  -3.292  0.00  0.00     0.088 A 
ATOM     19  HN  UNL d   1      -5.149  -0.212  -1.569  1.00  0.00     0.165 HD
ATOM     20  C   UNL d   1      -6.365  -0.279  -4.677  0.00  0.00     0.017 A 
ATOM     21  C   UNL d   1      -5.172  -0.292  -5.391  0.00  0.00     0.004 A 
ATOM     22  C   UNL d   1      -3.960  -0.280  -4.702  0.00  0.00     0.035 A 
ENDBRANCH  13  16
ENDBRANCH   1  12
BRANCH   1  23
ATOM     23  O   UNL d   1      -2.502   0.075   1.025  0.00  0.00    -0.358 OA
ATOM     24  H   UNL d   1      -2.207  -0.673   1.572  0.00  0.00     0.213 HD
ENDBRANCH   1  23
TORSDOF 3
