REMARK  3 active torsions:
REMARK  status: ('A' for Active; 'I' for Inactive)
REMARK    1  A    between atoms: N_7  and  C_1 
REMARK    2  A    between atoms: C_8  and  C_2 
REMARK    3  A    between atoms: O_14  and  C_8 
ROOT
ATOM      1  C   UNL d   1      -0.653  -1.341  -0.050  0.00  0.00     0.160 A 
ATOM      2  C   UNL d   1       0.734  -1.332  -0.006  0.00  0.00     0.161 A 
ATOM      3  N   UNL d   1       1.064   0.003   0.010  0.00  0.00    -0.289 N 
ATOM      4  N   UNL d   1      -0.005   0.828  -0.029  0.00  0.00    -0.300 N 
ATOM      5  HN  UNL d   1      -0.005   1.848  -0.031  1.00  0.00     0.187 HD
ATOM      6  C   UNL d   1      -1.061   0.009  -0.064  0.00  0.00     0.057 A 
ATOM      7  C   UNL d   1       2.373   0.618  -0.004  0.00  0.00     0.178 C 
ATOM      8  C   UNL d   1      -2.437   0.567  -0.072  0.00  0.00     0.072 C 
ENDROOT
BRANCH   2   9
ATOM      9  C   UNL d   1       1.677  -2.416   0.018  0.00  0.00     0.314 C 
ATOM     10  O   UNL d   1       2.800  -2.365   0.499  0.00  0.00    -0.257 OA
BRANCH   9  11
ATOM     11  O   UNL d   1       1.165  -3.492  -0.636  0.00  0.00    -0.321 OA
ATOM     12  C   UNL d   1       2.047  -4.615  -0.689  0.00  0.00     0.213 C 
ENDBRANCH   9  11
ENDBRANCH   2   9
BRANCH   1  13
ATOM     13  N   UNL d   1      -1.507  -2.485  -0.034  0.00  0.00    -0.111 N 
ATOM     14  O   UNL d   1      -1.290  -3.331   0.843  0.00  0.00    -0.532 OA
ATOM     15  O   UNL d   1      -2.417  -2.511  -0.870  0.00  0.00    -0.532 OA
ENDBRANCH   1  13
TORSDOF 3
