REMARK  3 active torsions:
REMARK  status: ('A' for Active; 'I' for Inactive)
REMARK    1  A    between atoms: C_5  and  C_4 
REMARK    2  A    between atoms: C_8  and  C_5 
REMARK       I    between atoms: N_11  and  C_8 
REMARK    3  A    between atoms: O_12  and  N_11 
ROOT
ATOM      1  N   UNL d   1       0.758   1.344  -0.158  0.00  0.00    -0.325 N 
ATOM      2  C   UNL d   1       1.927   0.665   0.076  0.00  0.00     0.236 C 
ATOM      3  S   UNL d   1       0.625  -1.749  -0.057  0.00  0.00    -0.113 SA
ATOM      4  C   UNL d   1       1.841  -0.677   0.801  0.00  0.00     0.153 C 
ATOM      5  C   UNL d   1      -0.531   0.791  -0.108  0.00  0.00     0.051 A 
ATOM      6  C   UNL d   1      -0.741  -0.598  -0.064  0.00  0.00     0.028 A 
ATOM      7  O   UNL d   1       2.999   1.196  -0.209  0.00  0.00    -0.272 OA
ATOM      8  C   UNL d   1      -1.619   1.665  -0.111  0.00  0.00     0.031 A 
ATOM      9  C   UNL d   1      -2.046  -1.096  -0.020  0.00  0.00     0.021 A 
ATOM     10  C   UNL d   1      -3.130  -0.218   0.010  0.00  0.00     0.002 A 
ATOM     11  C   UNL d   1      -2.917   1.160  -0.032  0.00  0.00     0.002 A 
ATOM     12  H   UNL d   1       0.878   2.301  -0.468  0.00  0.00     0.169 HD
ENDROOT
BRANCH   4  13
ATOM     13  C   UNL d   1       1.411  -0.515   2.263  0.00  0.00     0.130 C 
BRANCH  13  14
ATOM     14  C   UNL d   1       2.356   0.365   3.039  0.00  0.00     0.242 C 
ATOM     15  O   UNL d   1       3.565   0.424   2.838  0.00  0.00    -0.271 OA
ATOM     16  N   UNL d   1       1.743   1.082   4.040  0.00  0.00    -0.237 N 
ATOM     17  H   UNL d   1       0.833   0.852   4.426  0.00  0.00     0.197 HD
BRANCH  16  18
ATOM     18  O   UNL d   1       2.596   1.857   4.857  0.00  0.00    -0.287 OA
ATOM     19  H   UNL d   1       3.471   1.731   4.429  0.00  0.00     0.244 HD
ENDBRANCH  16  18
ENDBRANCH  13  14
ENDBRANCH   4  13
TORSDOF 3
