REMARK  8 active torsions:
REMARK  status: ('A' for Active; 'I' for Inactive)
REMARK    1  A    between atoms: N_5  and  C_1 
REMARK    2  A    between atoms: N_4  and  C_2 
REMARK    3  A    between atoms: N_20  and  C_3 
REMARK    4  A    between atoms: C_6  and  C_7 
REMARK    5  A    between atoms: N_12  and  C_24 
REMARK    6  A    between atoms: C_26  and  N_20 
REMARK    7  A    between atoms: C_24  and  C_25 
REMARK    8  A    between atoms: C_25  and  C_26 
ROOT
ATOM      1  C   UNL d   1      -0.556  -0.815   0.569  0.00  0.00     0.132 A 
ATOM      2  C   UNL d   1       1.569  -0.093  -0.235  0.00  0.00     0.132 A 
ATOM      3  C   UNL d   1       0.717  -1.187   0.052  0.00  0.00     0.095 A 
ATOM      4  C   UNL d   1       0.024   1.570   0.635  0.00  0.00     0.052 A 
ATOM      5  C   UNL d   1       1.250   1.248   0.059  0.00  0.00     0.054 A 
ATOM      6  C   UNL d   1      -0.890   0.533   0.857  0.00  0.00     0.054 A 
ENDROOT
BRANCH   3   7
ATOM      7  N   UNL d   1       1.094  -2.526   0.008  0.00  0.00    -0.386 N 
ATOM      8  H   UNL d   1       0.336  -3.217  -0.058  0.00  0.00     0.159 HD
BRANCH   7   9
ATOM      9  C   UNL d   1       2.442  -3.059  -0.030  0.00  0.00     0.121 C 
BRANCH   9  10
ATOM     10  C   UNL d   1       2.592  -4.239   0.922  0.00  0.00     0.040 C 
BRANCH  10  11
ATOM     11  C   UNL d   1       4.077  -4.578   1.046  0.00  0.00     0.130 C 
BRANCH  11  12
ATOM     12  N   UNL d   1       4.337  -5.643   1.986  0.00  0.00    -0.352 N 
ATOM     13  C   UNL d   1       4.613  -5.486   3.313  0.00  0.00     0.182 A 
ATOM     14  N   UNL d   1       4.864  -6.641   3.885  0.00  0.00    -0.361 N 
ATOM     15  C   UNL d   1       4.755  -7.573   2.884  0.00  0.00     0.106 A 
ATOM     16  HN  UNL d   1       5.092  -6.810   4.865  1.00  0.00     0.166 HD
ATOM     17  C   UNL d   1       4.428  -6.971   1.690  0.00  0.00     0.108 A 
ENDBRANCH  11  12
ENDBRANCH  10  11
ENDBRANCH   9  10
ENDBRANCH   7   9
ENDBRANCH   3   7
BRANCH   2  18
ATOM     18  N   UNL d   1       2.818  -0.265  -0.956  0.00  0.00    -0.113 N 
ATOM     19  O   UNL d   1       2.755  -0.697  -2.113  0.00  0.00    -0.532 OA
ATOM     20  O   UNL d   1       3.855   0.065  -0.363  0.00  0.00    -0.532 OA
ENDBRANCH   2  18
BRANCH   1  21
ATOM     21  N   UNL d   1      -1.605  -1.825   0.837  0.00  0.00    -0.113 N 
ATOM     22  O   UNL d   1      -1.462  -2.965   0.370  0.00  0.00    -0.532 OA
ATOM     23  O   UNL d   1      -2.590  -1.464   1.498  0.00  0.00    -0.532 OA
ENDBRANCH   1  21
BRANCH   4  24
ATOM     24  C   UNL d   1      -0.320   2.994   1.005  0.00  0.00     0.417 C 
ATOM     25  F   UNL d   1       0.671   3.877   0.710  0.00  0.00    -0.166 F 
ATOM     26  F   UNL d   1      -1.429   3.439   0.358  0.00  0.00    -0.166 F 
ATOM     27  F   UNL d   1      -0.569   3.133   2.333  0.00  0.00    -0.166 F 
ENDBRANCH   4  24
TORSDOF 8
