REMARK  2 active torsions:
REMARK  status: ('A' for Active; 'I' for Inactive)
REMARK    1  A    between atoms: C_4  and  C_1 
REMARK    2  A    between atoms: O_8  and  C_4 
ROOT
ATOM      1  C   UNL d   1      -2.402  -0.195  -0.036  0.00  0.00     0.150 A 
ATOM      2  O   UNL d   1      -1.643   0.950  -0.038  0.00  0.00    -0.303 OA
ATOM      3  C   UNL d   1      -1.578  -1.302  -0.015  0.00  0.00     0.058 A 
ATOM      4  C   UNL d   1      -0.335   0.562  -0.021  0.00  0.00     0.086 A 
ATOM      5  C   UNL d   1      -0.243  -0.825  -0.008  0.00  0.00     0.001 A 
ATOM      6  C   UNL d   1       0.765   1.417  -0.019  0.00  0.00     0.038 A 
ATOM      7  C   UNL d   1       1.033  -1.415   0.008  0.00  0.00     0.014 A 
ATOM      8  C   UNL d   1       2.159  -0.581   0.008  0.00  0.00     0.001 A 
ATOM      9  C   UNL d   1       2.026   0.810  -0.005  0.00  0.00     0.003 A 
ENDROOT
BRANCH   1  10
ATOM     10  C   UNL d   1      -3.839  -0.082  -0.057  0.00  0.00     0.201 C 
ATOM     11  O   UNL d   1      -4.632  -1.012  -0.057  0.00  0.00    -0.645 OA
BRANCH  10  12
ATOM     12  O   UNL d   1      -4.233   1.218  -0.079  0.00  0.00    -0.771 OA
ATOM     13  H   UNL d   1      -3.448   1.805  -0.076  0.00  0.00     0.167 HD
ENDBRANCH  10  12
ENDBRANCH   1  10
TORSDOF 2
