REMARK  4 active torsions:
REMARK  status: ('A' for Active; 'I' for Inactive)
REMARK    1  A    between atoms: O_9  and  C_3 
REMARK    2  A    between atoms: O_11  and  C_4 
REMARK    3  A    between atoms: S_10  and  C_5 
REMARK    4  A    between atoms: C_12  and  O_9 
ROOT
ATOM      1  N   UNL d   1      -0.591   1.321   0.222  0.00  0.00    -0.315 N 
ATOM      2  HN  UNL d   1      -1.010   2.245   0.331  1.00  0.00     0.170 HD
ATOM      3  C   UNL d   1      -0.804  -1.078   0.141  0.00  0.00     0.149 A 
ATOM      4  C   UNL d   1      -1.312   0.196   0.330  0.00  0.00     0.178 A 
ATOM      5  C   UNL d   1       0.710   1.158  -0.040  0.00  0.00     0.143 A 
ATOM      6  N   UNL d   1       1.328  -0.024  -0.184  0.00  0.00    -0.338 N 
ATOM      7  HN  UNL d   1       2.330  -0.083  -0.367  1.00  0.00     0.168 HD
ATOM      8  C   UNL d   1       0.563  -1.135  -0.076  0.00  0.00     0.045 A 
ATOM      9  C   UNL d   1       1.282  -2.449  -0.180  0.00  0.00     0.071 C 
ENDROOT
BRANCH   3  10
ATOM     10  O   UNL d   1      -1.504  -2.243   0.278  0.00  0.00    -0.304 OA
BRANCH  10  11
ATOM     11  C   UNL d   1      -2.675  -2.440  -0.419  0.00  0.00     0.076 A 
ATOM     12  C   UNL d   1      -3.047  -1.772  -1.591  0.00  0.00     0.040 A 
ATOM     13  C   UNL d   1      -4.295  -2.025  -2.169  0.00  0.00     0.045 A 
ATOM     14  C   UNL d   1      -5.145  -2.962  -1.592  0.00  0.00     0.116 A 
ATOM     15  C   UNL d   1      -4.769  -3.663  -0.454  0.00  0.00     0.045 A 
ATOM     16  F   UNL d   1      -6.345  -3.193  -2.141  0.00  0.00    -0.206 F 
ATOM     17  C   UNL d   1      -3.529  -3.402   0.132  0.00  0.00     0.040 A 
ENDBRANCH  10  11
ENDBRANCH   3  10
BRANCH   4  18
ATOM     18  O   UNL d   1      -2.610   0.423   0.689  0.00  0.00    -0.344 OA
ATOM     19  H   UNL d   1      -3.011  -0.428   0.921  0.00  0.00     0.219 HD
ENDBRANCH   4  18
BRANCH   5  20
ATOM     20  S   UNL d   1       1.685   2.624  -0.178  0.00  0.00    -0.107 SA
ATOM     21  H   UNL d   1       0.645   3.435   0.049  0.00  0.00     0.110 HD
ENDBRANCH   5  20
TORSDOF 4
