REMARK  6 active torsions:
REMARK  status: ('A' for Active; 'I' for Inactive)
REMARK    1  A    between atoms: C_8  and  C_3 
REMARK    2  A    between atoms: C_14  and  C_4 
REMARK    3  A    between atoms: C_7  and  C_13 
REMARK       I    between atoms: N_10  and  C_7 
REMARK    4  A    between atoms: N_12  and  N_10 
REMARK    5  A    between atoms: S_11  and  C_14 
REMARK    6  A    between atoms: C_13  and  S_11 
ROOT
ATOM      1  N   UNL d   1       1.444  -0.582  -0.101  0.00  0.00    -0.352 N 
ATOM      2  HN  UNL d   1       2.344  -1.048  -0.216  1.00  0.00     0.166 HD
ATOM      3  C   UNL d   1       1.264   0.794  -0.014  0.00  0.00     0.049 A 
ATOM      4  C   UNL d   1       0.278  -1.196  -0.013  0.00  0.00     0.060 A 
ATOM      5  S   UNL d   1      -1.089  -0.165   0.142  0.00  0.00    -0.086 SA
ATOM      6  C   UNL d   1      -0.052   1.198   0.098  0.00  0.00     0.081 A 
ENDROOT
BRANCH   4   7
ATOM      7  C   UNL d   1       0.107  -2.684  -0.065  0.00  0.00     0.139 C 
BRANCH   7   8
ATOM      8  S   UNL d   1      -0.066  -3.302  -1.776  0.00  0.00    -0.153 SA
BRANCH   8   9
ATOM      9  C   UNL d   1       1.509  -2.734  -2.508  0.00  0.00     0.178 C 
BRANCH   9  10
ATOM     10  C   UNL d   1       2.703  -3.381  -1.829  0.00  0.00     0.240 C 
ATOM     11  O   UNL d   1       3.087  -4.518  -2.090  0.00  0.00    -0.271 OA
ATOM     12  N   UNL d   1       3.314  -2.588  -0.863  0.00  0.00    -0.293 N 
ATOM     13  H   UNL d   1       2.896  -1.694  -0.578  0.00  0.00     0.183 HD
BRANCH  12  14
ATOM     14  N   UNL d   1       4.372  -3.130  -0.099  0.00  0.00    -0.247 NA
ATOM     15  H   UNL d   1       4.701  -3.968  -0.600  0.00  0.00     0.143 HD
ATOM     16  H   UNL d   1       3.977  -3.502   0.768  0.00  0.00     0.143 HD
ENDBRANCH  12  14
ENDBRANCH   9  10
ENDBRANCH   8   9
ENDBRANCH   7   8
ENDBRANCH   4   7
BRANCH   3  17
ATOM     17  C   UNL d   1       2.396   1.711  -0.071  0.00  0.00    -0.009 A 
ATOM     18  C   UNL d   1       3.532   1.367  -0.817  0.00  0.00     0.014 A 
ATOM     19  C   UNL d   1       4.632   2.225  -0.879  0.00  0.00     0.001 A 
ATOM     20  C   UNL d   1       4.610   3.437  -0.193  0.00  0.00     0.000 A 
ATOM     21  C   UNL d   1       3.492   3.790   0.559  0.00  0.00     0.001 A 
ATOM     22  C   UNL d   1       2.389   2.932   0.621  0.00  0.00     0.014 A 
ENDBRANCH   3  17
TORSDOF 6
