REMARK  3 active torsions:
REMARK  status: ('A' for Active; 'I' for Inactive)
REMARK    1  A    between atoms: C_2  and  N_1 
REMARK    2  A    between atoms: O_4  and  C_3 
REMARK    3  A    between atoms: C_6  and  O_4 
ROOT
ATOM      1  C   UNL d   1       0.291   0.529   1.083  0.00  0.00     0.138 A 
ATOM      2  C   UNL d   1      -0.700  -0.316   1.590  0.00  0.00     0.109 A 
ATOM      3  N   UNL d   1       0.928   4.028   4.373  0.00  0.00    -0.191 NA
ATOM      4  C   UNL d   1       0.611   3.080   3.783  0.00  0.00     0.099 C 
ATOM      5  C   UNL d   1       0.750   1.644   1.799  0.00  0.00     0.061 A 
ATOM      6  C   UNL d   1      -1.184  -0.069   2.883  0.00  0.00     0.041 A 
ATOM      7  C   UNL d   1       0.200   1.919   3.053  0.00  0.00     0.047 A 
ATOM      8  C   UNL d   1      -0.760   1.058   3.596  0.00  0.00     0.025 A 
ENDROOT
BRANCH   1   9
ATOM      9  N   UNL d   1       0.865   0.285  -0.226  0.00  0.00    -0.113 N 
ATOM     10  O   UNL d   1       0.093   0.270  -1.192  0.00  0.00    -0.532 OA
ATOM     11  O   UNL d   1       2.097   0.178  -0.281  0.00  0.00    -0.532 OA
ENDBRANCH   1   9
BRANCH   2  12
ATOM     12  O   UNL d   1      -1.137  -1.385   0.841  0.00  0.00    -0.307 OA
BRANCH  12  13
ATOM     13  C   UNL d   1      -2.474  -1.730   0.913  0.00  0.00     0.098 A 
ATOM     14  C   UNL d   1      -2.815  -3.087   0.943  0.00  0.00     0.067 A 
ATOM     15 CL   UNL d   1      -1.610  -4.321   0.878  0.00  0.00    -0.081 Cl
ATOM     16  C   UNL d   1      -4.155  -3.470   1.052  0.00  0.00     0.026 A 
ATOM     17  C   UNL d   1      -5.156  -2.500   1.133  0.00  0.00     0.002 A 
ATOM     18  C   UNL d   1      -4.824  -1.148   1.069  0.00  0.00     0.003 A 
ATOM     19  C   UNL d   1      -3.490  -0.763   0.930  0.00  0.00     0.039 A 
ENDBRANCH  12  13
ENDBRANCH   2  12
TORSDOF 3
