REMARK  5 active torsions:
REMARK  status: ('A' for Active; 'I' for Inactive)
REMARK    1  A    between atoms: C_2  and  S_1 
REMARK    2  A    between atoms: C_4  and  S_1 
REMARK    3  A    between atoms: C_3  and  C_2 
REMARK    4  A    between atoms: O_5  and  C_3 
REMARK    5  A    between atoms: C_9  and  O_5 
ROOT
ATOM      1  S   UNL d   1       1.342  -0.006  -0.106  0.00  0.00     0.193 S 
ATOM      2  O   UNL d   1       2.786   0.127  -0.007  0.00  0.00    -0.221 OA
ATOM      3  O   UNL d   1       0.730  -0.405  -1.358  0.00  0.00    -0.221 OA
ENDROOT
BRANCH   1   4
ATOM      4  C   UNL d   1       0.555   1.505   0.469  0.00  0.00     0.148 C 
ATOM      5  C   UNL d   1      -0.927   1.258   0.790  0.00  0.00     0.043 C 
ATOM      6  C   UNL d   1       1.259   2.075   1.706  0.00  0.00     0.043 C 
BRANCH   4   7
ATOM      7  C   UNL d   1       0.655   2.552  -0.635  0.00  0.00     0.283 C 
ATOM      8  O   UNL d   1      -0.168   3.452  -0.772  0.00  0.00    -0.263 OA
BRANCH   7   9
ATOM      9  O   UNL d   1       1.803   2.463  -1.347  0.00  0.00    -0.310 OA
BRANCH   9  10
ATOM     10  C   UNL d   1       2.196   3.458  -2.331  0.00  0.00     0.060 C 
ATOM     11  C   UNL d   1       2.441   4.810  -1.653  0.00  0.00     0.045 C 
ATOM     12  C   UNL d   1       3.523   2.932  -2.901  0.00  0.00     0.045 C 
ATOM     13  C   UNL d   1       1.183   3.575  -3.475  0.00  0.00     0.045 C 
ENDBRANCH   9  10
ENDBRANCH   7   9
ENDBRANCH   4   7
ENDBRANCH   1   4
BRANCH   1  14
ATOM     14  C   UNL d   1       0.917  -1.289   1.071  0.00  0.00     0.060 A 
ATOM     15  C   UNL d   1      -0.175  -2.128   0.814  0.00  0.00     0.025 A 
ATOM     16  C   UNL d   1      -0.439  -3.204   1.664  0.00  0.00     0.025 A 
ATOM     17  C   UNL d   1       0.398  -3.450   2.754  0.00  0.00     0.034 A 
ATOM     18  C   UNL d   1       1.493  -2.624   3.003  0.00  0.00     0.025 A 
ATOM     19 CL   UNL d   1       0.092  -4.798   3.777  0.00  0.00    -0.084 Cl
ATOM     20  C   UNL d   1       1.761  -1.543   2.159  0.00  0.00     0.025 A 
ENDBRANCH   1  14
TORSDOF 5
