REMARK  1 active torsions:
REMARK  status: ('A' for Active; 'I' for Inactive)
REMARK    1  A    between atoms: C_14  and  C_5 
ROOT
ATOM      1  C   UNL d   1       0.202  -1.170  -0.020  0.00  0.00     0.095 A 
ATOM      2  C   UNL d   1       0.023  -2.594   0.008  0.00  0.00     0.080 A 
ATOM      3  N   UNL d   1       1.397  -0.616   0.008  0.00  0.00    -0.346 N 
ATOM      4  HN  UNL d   1       2.276  -1.133   0.041  1.00  0.00     0.167 HD
ATOM      5  C   UNL d   1       1.296   0.774  -0.013  0.00  0.00     0.085 A 
ATOM      6  N   UNL d   1      -0.761  -4.917  -0.305  0.00  0.00    -0.269 N 
ATOM      7  HN  UNL d   1      -1.247  -5.780  -0.547  1.00  0.00     0.195 HD
ATOM      8  C   UNL d   1       0.807  -3.578   0.602  0.00  0.00     0.043 A 
ATOM      9  S   UNL d   1      -1.111  -0.058  -0.056  0.00  0.00    -0.080 SA
ATOM     10  N   UNL d   1       0.344  -4.880   0.416  0.00  0.00    -0.298 N 
ATOM     11  HN  UNL d   1       0.807  -5.707   0.793  1.00  0.00     0.187 HD
ATOM     12  S   UNL d   1      -1.276  -3.405  -0.776  0.00  0.00     0.006 SA
ATOM     13  C   UNL d   1      -0.004   1.245  -0.037  0.00  0.00     0.085 A 
ATOM     14  C   UNL d   1       2.037  -3.418   1.418  0.00  0.00     0.071 C 
ENDROOT
BRANCH   5  15
ATOM     15  C   UNL d   1       2.471   1.651  -0.006  0.00  0.00     0.172 C 
ATOM     16  O   UNL d   1       2.351   2.877  -0.006  0.00  0.00    -0.291 OA
ATOM     17  C   UNL d   1       3.845   1.030  -0.005  0.00  0.00     0.098 C 
ENDBRANCH   5  15
TORSDOF 1
