REMARK  3 active torsions:
REMARK  status: ('A' for Active; 'I' for Inactive)
REMARK    1  A    between atoms: C_2  and  N_1 
REMARK    2  A    between atoms: N_3  and  C_5 
REMARK    3  A    between atoms: O_16  and  C_4 
ROOT
ATOM      1  C   UNL d   1       0.140   1.085  -0.691  0.00  0.00     0.136 A 
ATOM      2  C   UNL d   1      -0.474   2.069   0.086  0.00  0.00     0.100 A 
ATOM      3  C   UNL d   1      -1.196   3.254  -1.939  0.00  0.00     0.033 A 
ATOM      4  C   UNL d   1      -1.117   3.143  -0.543  0.00  0.00     0.068 A 
ATOM      5  C   UNL d   1       0.092   1.169  -2.085  0.00  0.00     0.041 A 
ATOM      6  C   UNL d   1      -0.576   2.242  -2.691  0.00  0.00     0.032 A 
ENDROOT
BRANCH   3   7
ATOM      7  N   UNL d   1      -1.860   4.293  -2.549  0.00  0.00    -0.376 N 
ATOM      8  C   UNL d   1      -1.948   5.647  -1.978  0.00  0.00     0.154 C 
ATOM      9  C   UNL d   1      -3.424   6.088  -1.888  0.00  0.00     0.136 C 
ATOM     10  C   UNL d   1      -3.523   7.543  -1.452  0.00  0.00     0.041 C 
ATOM     11  O   UNL d   1      -4.082   5.972  -3.167  0.00  0.00    -0.378 OA
ATOM     12  C   UNL d   1      -4.039   4.610  -3.637  0.00  0.00     0.136 C 
ATOM     13  C   UNL d   1      -2.581   4.134  -3.821  0.00  0.00     0.154 C 
ATOM     14  C   UNL d   1      -4.803   4.541  -4.951  0.00  0.00     0.041 C 
ENDBRANCH   3   7
BRANCH   2  15
ATOM     15  O   UNL d   1      -0.526   2.081   1.453  0.00  0.00    -0.358 OA
ATOM     16  H   UNL d   1      -0.110   1.267   1.810  0.00  0.00     0.217 HD
ENDBRANCH   2  15
BRANCH   1  17
ATOM     17  N   UNL d   1       0.839  -0.042  -0.079  0.00  0.00    -0.113 N 
ATOM     18  O   UNL d   1       0.849  -0.102   1.162  0.00  0.00    -0.532 OA
ATOM     19  O   UNL d   1       1.374  -0.875  -0.821  0.00  0.00    -0.532 OA
ENDBRANCH   1  17
TORSDOF 3
