REMARK  4 active torsions:
REMARK  status: ('A' for Active; 'I' for Inactive)
REMARK       I    between atoms: C_2  and  N_1 
REMARK       I    between atoms: C_3  and  N_1 
REMARK       I    between atoms: N_6  and  C_2 
REMARK    1  A    between atoms: C_4  and  C_3 
REMARK    2  A    between atoms: C_5  and  C_7 
REMARK    3  A    between atoms: O_17  and  C_5 
REMARK    4  A    between atoms: C_13  and  N_6 
ROOT
ATOM      1  N   UNL d   1      -1.056  -1.108  -1.114  0.00  0.00    -0.273 N 
ATOM      2  C   UNL d   1       0.294  -1.219  -0.919  0.00  0.00     0.327 C 
ATOM      3  C   UNL d   1      -1.781  -0.983  -2.282  0.00  0.00     0.283 C 
ATOM      4  N   UNL d   1       1.062  -1.365  -2.045  0.00  0.00    -0.309 N 
ATOM      5  O   UNL d   1       0.696  -1.147   0.242  0.00  0.00    -0.247 OA
ATOM      6  O   UNL d   1      -1.278  -1.085  -3.398  0.00  0.00    -0.265 OA
ATOM      7  H   UNL d   1      -1.566  -0.974  -0.250  0.00  0.00     0.173 HD
ATOM      8  H   UNL d   1       0.583  -1.222  -2.931  0.00  0.00     0.170 HD
ENDROOT
BRANCH   4   9
ATOM      9  C   UNL d   1       2.468  -1.484  -2.075  0.00  0.00     0.037 A 
ATOM     10  C   UNL d   1       3.217  -1.803  -0.941  0.00  0.00     0.047 A 
ATOM     11  C   UNL d   1       4.617  -1.806  -0.977  0.00  0.00     0.041 A 
ATOM     12  C   UNL d   1       5.274  -1.532  -2.181  0.00  0.00     0.018 A 
ATOM     13  C   UNL d   1       4.532  -1.268  -3.334  0.00  0.00     0.003 A 
ATOM     14  C   UNL d   1       3.133  -1.251  -3.283  0.00  0.00     0.029 A 
BRANCH  11  15
ATOM     15  C   UNL d   1       5.420  -2.047   0.253  0.00  0.00     0.293 C 
ATOM     16  O   UNL d   1       6.641  -2.052   0.280  0.00  0.00    -0.259 OA
BRANCH  15  17
ATOM     17  O   UNL d   1       4.599  -2.211   1.320  0.00  0.00    -0.323 OA
ATOM     18  C   UNL d   1       5.254  -2.310   2.582  0.00  0.00     0.213 C 
ENDBRANCH  15  17
ENDBRANCH  11  15
ENDBRANCH   4   9
BRANCH   3  19
ATOM     19  C   UNL d   1      -3.185  -0.737  -2.039  0.00  0.00     0.142 A 
ATOM     20  O   UNL d   1      -3.607  -0.536  -0.748  0.00  0.00    -0.317 OA
ATOM     21  C   UNL d   1      -4.946  -0.319  -0.791  0.00  0.00     0.143 A 
ATOM     22  C   UNL d   1      -5.401  -0.386  -2.087  0.00  0.00     0.027 A 
ATOM     23  C   UNL d   1      -4.267  -0.651  -2.893  0.00  0.00     0.045 A 
ENDBRANCH   3  19
TORSDOF 4
