REMARK  4 active torsions:
REMARK  status: ('A' for Active; 'I' for Inactive)
REMARK    1  A    between atoms: C_4  and  C_1 
REMARK       I    between atoms: N_9  and  C_4 
REMARK    2  A    between atoms: C_6  and  C_12 
REMARK       I    between atoms: C_8  and  N_10 
REMARK    3  A    between atoms: C_13  and  C_8 
REMARK    4  A    between atoms: N_10  and  N_9 
ROOT
ATOM      1  C   UNL d   1      -5.253   1.152   0.004  0.00  0.00     0.270 C 
ATOM      2  N   UNL d   1      -4.061   0.478   0.173  0.00  0.00    -0.263 N 
ATOM      3  O   UNL d   1      -5.312   2.354  -0.240  0.00  0.00    -0.266 OA
ATOM      4  H   UNL d   1      -3.994  -0.469   0.539  0.00  0.00     0.190 HD
ENDROOT
BRANCH   2   5
ATOM      5  N   UNL d   1      -2.855   1.194   0.076  0.00  0.00    -0.262 N 
ATOM      6  C   UNL d   1      -1.661   0.511   0.221  0.00  0.00     0.288 C 
ATOM      7  O   UNL d   1      -1.635  -0.693   0.491  0.00  0.00    -0.264 OA
ATOM      8  H   UNL d   1      -2.893   2.178  -0.190  0.00  0.00     0.190 HD
BRANCH   6   9
ATOM      9  C   UNL d   1      -0.442   1.295   0.035  0.00  0.00     0.126 A 
ATOM     10  N   UNL d   1      -0.452   2.612  -0.235  0.00  0.00    -0.256 N 
ATOM     11  O   UNL d   1       0.880   2.990  -0.335  0.00  0.00    -0.242 OA
ATOM     12  HN  UNL d   1      -1.270   3.211  -0.345  1.00  0.00     0.195 HD
ATOM     13  C   UNL d   1       1.679   1.907  -0.131  0.00  0.00     0.075 A 
ATOM     14  C   UNL d   1       0.892   0.811   0.107  0.00  0.00     0.071 A 
ATOM     15  C   UNL d   1       3.135   2.128  -0.203  0.00  0.00     0.079 C 
ENDBRANCH   6   9
ENDBRANCH   2   5
BRANCH   1  16
ATOM     16  C   UNL d   1      -6.502   0.349   0.154  0.00  0.00     0.033 A 
ATOM     17  C   UNL d   1      -7.661   1.000   0.593  0.00  0.00     0.018 A 
ATOM     18  C   UNL d   1      -8.869   0.303   0.706  0.00  0.00     0.017 A 
ATOM     19  C   UNL d   1      -8.943  -1.056   0.367  0.00  0.00     0.048 A 
ATOM     20  C   UNL d   1      -7.777  -1.704  -0.075  0.00  0.00     0.017 A 
ATOM     21  C   UNL d   1      -6.564  -1.009  -0.182  0.00  0.00     0.018 A 
BRANCH  19  22
ATOM     22  C   UNL d   1     -10.251  -1.811   0.451  0.00  0.00     0.417 C 
ATOM     23  F   UNL d   1     -11.287  -1.060   0.916  0.00  0.00    -0.166 F 
ATOM     24  F   UNL d   1     -10.651  -2.290  -0.760  0.00  0.00    -0.166 F 
ATOM     25  F   UNL d   1     -10.175  -2.893   1.274  0.00  0.00    -0.166 F 
ENDBRANCH  19  22
ENDBRANCH   1  16
TORSDOF 4
