REMARK  4 active torsions:
REMARK  status: ('A' for Active; 'I' for Inactive)
REMARK    1  A    between atoms: C_5  and  C_1 
REMARK    2  A    between atoms: C_7  and  C_2 
REMARK       I    between atoms: N_9  and  C_7 
REMARK    3  A    between atoms: N_10  and  N_9 
REMARK    4  A    between atoms: C_13  and  N_10 
ROOT
ATOM      1  C   UNL d   1      -1.223  -0.689  -0.512  0.00  0.00     0.088 A 
ATOM      2  C   UNL d   1      -0.106  -1.380   0.086  0.00  0.00     0.094 A 
ATOM      3  N   UNL d   1      -1.138   0.622  -0.232  0.00  0.00    -0.259 N 
ATOM      4  HN  UNL d   1      -1.770   1.351  -0.563  1.00  0.00     0.195 HD
ATOM      5  O   UNL d   1      -0.054   0.801   0.577  0.00  0.00    -0.241 OA
ATOM      6  C   UNL d   1       0.571  -0.381   0.764  0.00  0.00     0.090 A 
ATOM      7  C   UNL d   1       1.761  -0.319   1.638  0.00  0.00     0.080 C 
ENDROOT
BRANCH   2   8
ATOM      8  C   UNL d   1       0.352  -2.762   0.057  0.00  0.00     0.271 C 
ATOM      9  N   UNL d   1      -0.637  -3.732   0.097  0.00  0.00    -0.282 N 
ATOM     10  H   UNL d   1      -1.625  -3.519   0.099  0.00  0.00     0.184 HD
ATOM     11  O   UNL d   1       1.552  -3.038   0.035  0.00  0.00    -0.266 OA
BRANCH   9  12
ATOM     12  N   UNL d   1      -0.246  -5.086   0.143  0.00  0.00    -0.203 NA
ATOM     13  H   UNL d   1       0.204  -5.392  -0.716  0.00  0.00     0.153 HD
BRANCH  12  14
ATOM     14  C   UNL d   1      -1.194  -5.982   0.693  0.00  0.00     0.033 A 
ATOM     15  C   UNL d   1      -1.199  -7.354   0.348  0.00  0.00    -0.038 A 
ATOM     16  C   UNL d   1      -2.160  -8.211   0.925  0.00  0.00     0.032 A 
ATOM     17  C   UNL d   1      -0.256  -7.967  -0.655  0.00  0.00     0.050 C 
ATOM     18  C   UNL d   1      -3.056  -7.740   1.879  0.00  0.00     0.034 A 
ATOM     19  C   UNL d   1      -3.003  -6.416   2.287  0.00  0.00     0.026 A 
ATOM     20 CL   UNL d   1      -4.215  -8.804   2.572  0.00  0.00    -0.084 Cl
ATOM     21  C   UNL d   1      -2.069  -5.554   1.709  0.00  0.00     0.027 A 
ENDBRANCH  12  14
ENDBRANCH   9  12
ENDBRANCH   2   8
BRANCH   1  22
ATOM     22  C   UNL d   1      -2.321  -1.150  -1.377  0.00  0.00     0.054 A 
ATOM     23  C   UNL d   1      -3.625  -0.609  -1.321  0.00  0.00     0.049 A 
ATOM     24 CL   UNL d   1      -4.139   0.566  -0.151  0.00  0.00    -0.083 Cl
ATOM     25  C   UNL d   1      -4.624  -1.034  -2.214  0.00  0.00     0.025 A 
ATOM     26  C   UNL d   1      -4.358  -2.021  -3.156  0.00  0.00     0.005 A 
ATOM     27  C   UNL d   1      -3.084  -2.572  -3.220  0.00  0.00     0.043 A 
ATOM     28  C   UNL d   1      -2.083  -2.123  -2.356  0.00  0.00     0.130 A 
ATOM     29  F   UNL d   1      -0.862  -2.656  -2.507  0.00  0.00    -0.205 F 
ENDBRANCH   1  22
TORSDOF 4
