REMARK  6 active torsions:
REMARK  status: ('A' for Active; 'I' for Inactive)
REMARK    1  A    between atoms: C_3  and  C_1 
REMARK    2  A    between atoms: N_14  and  C_3 
REMARK    3  A    between atoms: O_9  and  N_4 
REMARK    4  A    between atoms: C_6  and  O_9 
REMARK    5  A    between atoms: C_12  and  C_6 
REMARK    6  A    between atoms: O_20  and  C_17 
ROOT
ATOM      1  C   UNL d   1       2.164   0.559  -1.886  0.00  0.00     0.127 C 
ATOM      2  N   UNL d   1       1.379   1.215  -2.697  0.00  0.00    -0.243 N 
ATOM      3  HN  UNL d   1       1.409   1.106  -3.710  1.00  0.00     0.196 HD
ENDROOT
BRANCH   1   4
ATOM      4  C   UNL d   1       2.135   0.695  -0.339  0.00  0.00     0.222 C 
ATOM      5  O   UNL d   1       2.566  -0.482   0.351  0.00  0.00    -0.333 OA
ATOM      6  C   UNL d   1       3.925  -0.550   0.498  0.00  0.00     0.103 A 
ATOM      7  C   UNL d   1       4.454  -1.806   0.792  0.00  0.00     0.040 A 
ATOM      8  C   UNL d   1       4.774   0.538   0.285  0.00  0.00     0.102 A 
ATOM      9  C   UNL d   1       5.837  -1.984   0.830  0.00  0.00     0.003 A 
ATOM     10  C   UNL d   1       6.687  -0.904   0.591  0.00  0.00     0.003 A 
ATOM     11  C   UNL d   1       6.155   0.360   0.326  0.00  0.00     0.039 A 
ATOM     12  O   UNL d   1       4.323   1.788  -0.044  0.00  0.00    -0.345 OA
ATOM     13  C   UNL d   1       2.908   1.921   0.142  0.00  0.00     0.216 C 
ENDBRANCH   1   4
BRANCH   1  14
ATOM     14  N   UNL d   1       3.058  -0.295  -2.485  0.00  0.00    -0.385 N 
ATOM     15  H   UNL d   1       3.910  -0.527  -1.992  0.00  0.00     0.157 HD
ATOM     16  H   UNL d   1       3.178  -0.129  -3.478  0.00  0.00     0.157 HD
ENDBRANCH   1  14
BRANCH   2  17
ATOM     17  O   UNL d   1       0.489   2.084  -2.046  0.00  0.00    -0.193 OA
BRANCH  17  18
ATOM     18  C   UNL d   1      -0.643   2.208  -2.807  0.00  0.00     0.315 C 
ATOM     19  O   UNL d   1      -1.026   1.460  -3.694  0.00  0.00    -0.257 OA
BRANCH  18  20
ATOM     20  C   UNL d   1      -1.399   3.432  -2.422  0.00  0.00     0.041 A 
ATOM     21  C   UNL d   1      -2.631   3.668  -3.050  0.00  0.00     0.020 A 
ATOM     22  C   UNL d   1      -3.355   4.836  -2.788  0.00  0.00     0.038 A 
ATOM     23  C   UNL d   1      -2.850   5.781  -1.895  0.00  0.00     0.068 A 
ATOM     24  C   UNL d   1      -1.641   5.533  -1.241  0.00  0.00     0.038 A 
ATOM     25  C   UNL d   1      -0.910   4.371  -1.506  0.00  0.00     0.020 A 
BRANCH  23  26
ATOM     26  O   UNL d   1      -3.462   6.958  -1.563  0.00  0.00    -0.356 OA
ATOM     27  C   UNL d   1      -4.297   7.522  -2.569  0.00  0.00     0.210 C 
ENDBRANCH  23  26
ENDBRANCH  18  20
ENDBRANCH  17  18
ENDBRANCH   2  17
TORSDOF 6
