REMARK  4 active torsions:
REMARK  status: ('A' for Active; 'I' for Inactive)
REMARK    1  A    between atoms: C_2  and  N_1 
REMARK    2  A    between atoms: C_7  and  N_3 
REMARK    3  A    between atoms: O_17  and  C_6 
REMARK    4  A    between atoms: C_10  and  C_7 
ROOT
ATOM      1  N   UNL d   1      -1.333   0.081   0.559  0.00  0.00    -0.375 N 
ATOM      2  N   UNL d   1       1.434   0.061  -0.477  0.00  0.00     0.095 N 
ATOM      3  C   UNL d   1      -0.794  -1.143  -0.047  0.00  0.00     0.153 C 
ATOM      4  C   UNL d   1      -0.778   1.310  -0.038  0.00  0.00     0.153 C 
ATOM      5  C   UNL d   1       0.768   1.276   0.064  0.00  0.00     0.292 C 
ATOM      6  C   UNL d   1       0.751  -1.136   0.076  0.00  0.00     0.292 C 
ENDROOT
BRANCH   1   7
ATOM      7  C   UNL d   1      -2.631   0.119   1.073  0.00  0.00     0.064 A 
ATOM      8  C   UNL d   1      -3.011   1.026   2.102  0.00  0.00     0.094 A 
ATOM      9  C   UNL d   1      -4.322   1.030   2.605  0.00  0.00     0.039 A 
ATOM     10  C   UNL d   1      -5.260   0.106   2.158  0.00  0.00     0.003 A 
ATOM     11  C   UNL d   1      -4.900  -0.817   1.185  0.00  0.00     0.002 A 
ATOM     12  C   UNL d   1      -3.610  -0.799   0.647  0.00  0.00     0.032 A 
BRANCH   8  13
ATOM     13  O   UNL d   1      -2.040   1.870   2.592  0.00  0.00    -0.354 OA
ATOM     14  C   UNL d   1      -2.218   2.316   3.935  0.00  0.00     0.210 C 
ENDBRANCH   8  13
ENDBRANCH   1   7
BRANCH   2  15
ATOM     15  C   UNL d   1       1.462   0.014  -1.946  0.00  0.00     0.311 C 
BRANCH  15  16
ATOM     16  C   UNL d   1       2.245   1.151  -2.573  0.00  0.00    -0.030 A 
ATOM     17  C   UNL d   1       3.592   1.368  -2.236  0.00  0.00     0.012 A 
ATOM     18  C   UNL d   1       4.294   2.441  -2.789  0.00  0.00     0.043 A 
ATOM     19  C   UNL d   1       3.654   3.289  -3.684  0.00  0.00     0.116 A 
ATOM     20  C   UNL d   1       2.329   3.080  -4.046  0.00  0.00     0.043 A 
ATOM     21  F   UNL d   1       4.322   4.327  -4.204  0.00  0.00    -0.206 F 
ATOM     22  C   UNL d   1       1.624   2.010  -3.493  0.00  0.00     0.012 A 
ENDBRANCH  15  16
ENDBRANCH   2  15
TORSDOF 4
