REMARK  9 active torsions:
REMARK  status: ('A' for Active; 'I' for Inactive)
REMARK    1  A    between atoms: C_3  and  C_1 
REMARK    2  A    between atoms: C_6  and  C_1 
REMARK    3  A    between atoms: C_2  and  C_9 
REMARK    4  A    between atoms: O_11  and  C_2 
REMARK    5  A    between atoms: C_9  and  C_6 
REMARK    6  A    between atoms: O_14  and  C_10 
REMARK    7  A    between atoms: C_15  and  O_14 
REMARK    8  A    between atoms: C_16  and  C_15 
REMARK    9  A    between atoms: C_17  and  C_16 
ROOT
ATOM      1  C   UNL d   1       0.206  -0.844   0.812  0.00  0.00     0.010 A 
ATOM      2  C   UNL d   1       0.614  -0.884   2.152  0.00  0.00     0.018 A 
ATOM      3  C   UNL d   1      -0.935  -1.553   0.427  0.00  0.00     0.018 A 
ATOM      4  C   UNL d   1      -1.258  -2.320   2.710  0.00  0.00     0.068 A 
ATOM      5  C   UNL d   1      -0.119  -1.615   3.098  0.00  0.00     0.037 A 
ATOM      6  C   UNL d   1      -1.655  -2.291   1.372  0.00  0.00     0.037 A 
ENDROOT
BRANCH   1   7
ATOM      7  C   UNL d   1       1.038  -0.076  -0.163  0.00  0.00     0.160 C 
ATOM      8  O   UNL d   1       2.235   0.085   0.067  0.00  0.00    -0.292 OA
BRANCH   7   9
ATOM      9  C   UNL d   1       0.370   0.552  -1.370  0.00  0.00     0.094 C 
BRANCH   9  10
ATOM     10  C   UNL d   1       1.336   0.666  -2.546  0.00  0.00     0.117 C 
BRANCH  10  11
ATOM     11  C   UNL d   1       0.640   1.247  -3.751  0.00  0.00     0.139 C 
ATOM     12  O   UNL d   1      -0.533   1.583  -3.789  0.00  0.00    -0.650 OA
BRANCH  11  13
ATOM     13  O   UNL d   1       1.458   1.356  -4.821  0.00  0.00    -0.776 OA
ATOM     14  H   UNL d   1       2.370   1.054  -4.653  0.00  0.00     0.167 HD
ENDBRANCH  11  13
ENDBRANCH  10  11
ENDBRANCH   9  10
ENDBRANCH   7   9
ENDBRANCH   1   7
BRANCH   4  15
ATOM     15  O   UNL d   1      -2.023  -3.111   3.522  0.00  0.00    -0.351 OA
BRANCH  15  16
ATOM     16  C   UNL d   1      -2.021  -2.775   4.909  0.00  0.00     0.175 C 
BRANCH  16  17
ATOM     17  C   UNL d   1      -2.942  -3.748   5.643  0.00  0.00     0.026 C 
BRANCH  17  18
ATOM     18  C   UNL d   1      -3.023  -3.406   7.129  0.00  0.00    -0.002 C 
ATOM     19  C   UNL d   1      -3.899  -4.384   7.893  0.00  0.00     0.005 C 
ENDBRANCH  17  18
ENDBRANCH  16  17
ENDBRANCH  15  16
ENDBRANCH   4  15
TORSDOF 9
