REMARK  6 active torsions:
REMARK  status: ('A' for Active; 'I' for Inactive)
REMARK    1  A    between atoms: N_2  and  C_1 
REMARK    2  A    between atoms: C_3  and  C_1 
REMARK    3  A    between atoms: C_5  and  C_1 
REMARK    4  A    between atoms: O_8  and  C_1 
REMARK       I    between atoms: C_4  and  N_2 
REMARK    5  A    between atoms: C_6  and  C_4 
REMARK    6  A    between atoms: O_14  and  C_5 
ROOT
ATOM      1  C   UNL d   1      -0.793   0.983   0.636  0.00  0.00     0.325 C 
ENDROOT
BRANCH   1   2
ATOM      2  N   UNL d   1       0.564   0.623   1.050  0.00  0.00    -0.309 N 
ATOM      3  C   UNL d   1       0.903   0.501   2.386  0.00  0.00     0.255 C 
ATOM      4  O   UNL d   1       0.105   0.690   3.291  0.00  0.00    -0.268 OA
ATOM      5  H   UNL d   1       1.284   0.644   0.345  0.00  0.00     0.166 HD
BRANCH   3   6
ATOM      6  C   UNL d   1       2.309   0.076   2.658  0.00  0.00     0.037 A 
ATOM      7  C   UNL d   1       3.073   0.577   3.731  0.00  0.00    -0.046 A 
ATOM      8  C   UNL d   1       2.582   1.569   4.750  0.00  0.00     0.049 C 
ATOM      9  C   UNL d   1       4.390   0.103   3.900  0.00  0.00     0.007 A 
ATOM     10  C   UNL d   1       4.925  -0.868   3.054  0.00  0.00     0.001 A 
ATOM     11  C   UNL d   1       4.153  -1.391   2.025  0.00  0.00     0.001 A 
ATOM     12  C   UNL d   1       2.856  -0.919   1.824  0.00  0.00     0.017 A 
ENDBRANCH   3   6
ENDBRANCH   1   2
BRANCH   1  13
ATOM     13  C   UNL d   1      -1.937   0.036   1.143  0.00  0.00     0.448 C 
ATOM     14  F   UNL d   1      -1.526  -0.889   2.040  0.00  0.00    -0.166 F 
ATOM     15  F   UNL d   1      -2.923   0.765   1.731  0.00  0.00    -0.166 F 
ATOM     16  F   UNL d   1      -2.524  -0.673   0.145  0.00  0.00    -0.166 F 
ENDBRANCH   1  13
BRANCH   1  17
ATOM     17  C   UNL d   1      -0.952   0.967  -0.902  0.00  0.00     0.324 C 
ATOM     18  O   UNL d   1      -1.925   1.407  -1.505  0.00  0.00    -0.259 OA
BRANCH  17  19
ATOM     19  O   UNL d   1       0.141   0.417  -1.518  0.00  0.00    -0.322 OA
ATOM     20  C   UNL d   1       0.061   0.400  -2.948  0.00  0.00     0.213 C 
ENDBRANCH  17  19
ENDBRANCH   1  17
BRANCH   1  21
ATOM     21  O   UNL d   1      -0.961   2.361   1.023  0.00  0.00    -0.356 OA
ATOM     22  H   UNL d   1      -1.914   2.485   1.197  0.00  0.00     0.213 HD
ENDBRANCH   1  21
TORSDOF 6
