REMARK  6 active torsions:
REMARK  status: ('A' for Active; 'I' for Inactive)
REMARK    1  A    between atoms: S_11  and  C_2 
REMARK    2  A    between atoms: C_5  and  C_9 
REMARK    3  A    between atoms: C_6  and  C_10 
REMARK       I    between atoms: C_7  and  N_14 
REMARK    4  A    between atoms: C_12  and  C_7 
REMARK    5  A    between atoms: C_21  and  S_11 
REMARK    6  A    between atoms: N_14  and  C_20 
ROOT
ATOM      1  C   UNL d   1      -0.534  -3.543  -0.810  0.00  0.00     0.052 A 
ATOM      2  C   UNL d   1      -0.051  -3.590   0.518  0.00  0.00     0.033 A 
ATOM      3  C   UNL d   1      -1.576  -4.406  -1.190  0.00  0.00     0.031 A 
ATOM      4  C   UNL d   1      -0.552  -4.579   1.386  0.00  0.00     0.021 A 
ATOM      5  C   UNL d   1      -2.068  -5.371  -0.309  0.00  0.00     0.002 A 
ATOM      6  C   UNL d   1      -1.536  -5.477   0.969  0.00  0.00     0.002 A 
ENDROOT
BRANCH   1   7
ATOM      7  N   UNL d   1      -0.095  -2.629  -1.807  0.00  0.00    -0.322 N 
ATOM      8  C   UNL d   1       1.219  -2.237  -1.984  0.00  0.00     0.256 C 
ATOM      9  O   UNL d   1       2.195  -2.767  -1.464  0.00  0.00    -0.267 OA
ATOM     10  H   UNL d   1      -0.698  -2.535  -2.612  0.00  0.00     0.169 HD
BRANCH   8  11
ATOM     11  C   UNL d   1       1.453  -1.112  -2.951  0.00  0.00     0.034 A 
ATOM     12  C   UNL d   1       0.422  -0.280  -3.412  0.00  0.00     0.033 A 
ATOM     13  C   UNL d   1       0.707   0.824  -4.239  0.00  0.00     0.049 A 
ATOM     14  C   UNL d   1       2.037   1.076  -4.612  0.00  0.00     0.032 A 
ATOM     15  C   UNL d   1       3.084   0.268  -4.145  0.00  0.00     0.049 A 
ATOM     16  C   UNL d   1       2.775  -0.832  -3.327  0.00  0.00     0.033 A 
BRANCH  13  17
ATOM     17  C   UNL d   1      -0.411   1.740  -4.687  0.00  0.00     0.417 C 
ATOM     18  F   UNL d   1       0.030   2.932  -5.173  0.00  0.00    -0.166 F 
ATOM     19  F   UNL d   1      -1.169   1.186  -5.670  0.00  0.00    -0.166 F 
ATOM     20  F   UNL d   1      -1.269   2.042  -3.675  0.00  0.00    -0.166 F 
ENDBRANCH  13  17
BRANCH  15  21
ATOM     21  C   UNL d   1       4.526   0.584  -4.470  0.00  0.00     0.417 C 
ATOM     22  F   UNL d   1       4.681   1.774  -5.116  0.00  0.00    -0.166 F 
ATOM     23  F   UNL d   1       5.304   0.663  -3.356  0.00  0.00    -0.166 F 
ATOM     24  F   UNL d   1       5.100  -0.354  -5.270  0.00  0.00    -0.166 F 
ENDBRANCH  15  21
ENDBRANCH   8  11
ENDBRANCH   1   7
BRANCH   2  25
ATOM     25  S   UNL d   1       0.864  -2.234   1.260  0.00  0.00    -0.069 SA
BRANCH  25  26
ATOM     26  C   UNL d   1       2.355  -2.955   1.894  0.00  0.00     0.095 A 
ATOM     27  C   UNL d   1       3.377  -2.136   2.386  0.00  0.00     0.066 A 
ATOM     28  S   UNL d   1       3.537  -0.419   2.404  0.00  0.00    -0.096 SA
ATOM     29  C   UNL d   1       4.478  -2.734   2.995  0.00  0.00     0.059 A 
ATOM     30  C   UNL d   1       5.014  -0.486   3.248  0.00  0.00     0.059 A 
ATOM     31  C   UNL d   1       5.411  -1.778   3.528  0.00  0.00    -0.027 A 
ATOM     32  C   UNL d   1       6.642  -2.121   4.299  0.00  0.00     0.051 C 
ATOM     33  N   UNL d   1       4.614  -4.081   3.090  0.00  0.00    -0.351 N 
ATOM     34  C   UNL d   1       3.603  -4.776   2.563  0.00  0.00     0.181 A 
ATOM     35  HN  UNL d   1       5.421  -4.526   3.528  1.00  0.00     0.166 HD
ATOM     36  N   UNL d   1       2.486  -4.296   2.006  0.00  0.00    -0.345 N 
ATOM     37  HN  UNL d   1       1.753  -4.924   1.676  1.00  0.00     0.167 HD
ENDBRANCH  25  26
ENDBRANCH   2  25
TORSDOF 6
