REMARK  7 active torsions:
REMARK  status: ('A' for Active; 'I' for Inactive)
REMARK    1  A    between atoms: N_5  and  C_1 
REMARK    2  A    between atoms: C_4  and  C_8 
REMARK       I    between atoms: C_6  and  N_7 
REMARK    3  A    between atoms: C_11  and  C_6 
REMARK    4  A    between atoms: C_12  and  C_11 
REMARK    5  A    between atoms: C_18  and  C_12 
REMARK    6  A    between atoms: C_13  and  C_18 
REMARK    7  A    between atoms: O_27  and  C_13 
ROOT
ATOM      1  N   UNL d   1       0.163   2.642  -0.185  0.00  0.00    -0.216 N 
ATOM      2  C   UNL d   1      -1.087   6.407   0.156  0.00  0.00     0.220 C 
ATOM      3  N   UNL d   1       0.063   5.628   0.166  0.00  0.00    -0.350 N 
ATOM      4  C   UNL d   1      -0.272   3.570  -1.241  0.00  0.00     0.161 C 
ATOM      5  C   UNL d   1       0.409   4.932  -1.077  0.00  0.00     0.146 C 
ATOM      6  O   UNL d   1      -1.822   6.416  -0.834  0.00  0.00    -0.273 OA
ATOM      7  C   UNL d   1       0.558   3.859   1.932  0.00  0.00     0.040 C 
ATOM      8  C   UNL d   1      -0.364   2.923   1.154  0.00  0.00     0.143 C 
ATOM      9  C   UNL d   1       0.851   5.246   1.338  0.00  0.00     0.127 C 
ENDROOT
BRANCH   1  10
ATOM     10  C   UNL d   1       0.136   1.300  -0.542  0.00  0.00     0.680 A 
ATOM     11  N   UNL d   1      -0.383   0.943  -1.727  0.00  0.00    -0.186 N 
ATOM     12  C   UNL d   1      -0.307  -0.352  -2.125  0.00  0.00     0.133 A 
ATOM     13  HN  UNL d   1      -0.832   1.638  -2.322  1.00  0.00     0.184 HD
ATOM     14  C   UNL d   1       0.312  -1.309  -1.347  0.00  0.00     0.052 A 
ATOM     15  C   UNL d   1       0.808  -0.866  -0.147  0.00  0.00     0.108 A 
ATOM     16  N   UNL d   1       0.720   0.405   0.273  0.00  0.00    -0.202 N 
ATOM     17  HN  UNL d   1       1.086   0.684   1.184  1.00  0.00     0.183 HD
BRANCH  12  18
ATOM     18  C   UNL d   1      -0.897  -0.742  -3.466  0.00  0.00     0.433 C 
ATOM     19  F   UNL d   1      -1.540   0.271  -4.112  0.00  0.00    -0.165 F 
ATOM     20  F   UNL d   1       0.050  -1.198  -4.340  0.00  0.00    -0.165 F 
ATOM     21  F   UNL d   1      -1.809  -1.752  -3.360  0.00  0.00    -0.165 F 
ENDBRANCH  12  18
ENDBRANCH   1  10
BRANCH   2  22
ATOM     22  C   UNL d   1      -1.370   7.317   1.351  0.00  0.00     0.112 C 
BRANCH  22  23
ATOM     23  C   UNL d   1      -2.832   7.850   1.476  0.00  0.00    -0.030 C 
ATOM     24  C   UNL d   1      -2.932   8.713   2.755  0.00  0.00     0.016 C 
ATOM     25  C   UNL d   1      -3.214   8.783   0.302  0.00  0.00     0.016 C 
BRANCH  23  26
ATOM     26  C   UNL d   1      -3.876   6.702   1.518  0.00  0.00     0.119 C 
BRANCH  26  27
ATOM     27  C   UNL d   1      -3.681   5.648   2.590  0.00  0.00     0.140 C 
ATOM     28  O   UNL d   1      -2.871   5.687   3.500  0.00  0.00    -0.650 OA
BRANCH  27  29
ATOM     29  O   UNL d   1      -4.537   4.609   2.439  0.00  0.00    -0.776 OA
ATOM     30  H   UNL d   1      -5.129   4.700   1.668  0.00  0.00     0.167 HD
ENDBRANCH  27  29
ENDBRANCH  26  27
ENDBRANCH  23  26
ENDBRANCH  22  23
ENDBRANCH   2  22
TORSDOF 7
