REMARK  5 active torsions:
REMARK  status: ('A' for Active; 'I' for Inactive)
REMARK    1  A    between atoms: C_7  and  C_1 
REMARK    2  A    between atoms: S_17  and  C_10 
REMARK    3  A    between atoms: C_12  and  C_22 
REMARK       I    between atoms: N_16  and  C_12 
REMARK    4  A    between atoms: C_23  and  N_16 
REMARK    5  A    between atoms: C_22  and  S_17 
ROOT
ATOM      1  C   UNL d   1       2.075  -2.471  -0.122  0.00  0.00     0.065 A 
ATOM      2  N   UNL d   1       2.350  -2.959   1.098  0.00  0.00    -0.335 N 
ATOM      3  HN  UNL d   1       2.269  -2.384   1.937  1.00  0.00     0.168 HD
ATOM      4  C   UNL d   1       2.737  -4.241   1.157  0.00  0.00     0.145 A 
ATOM      5  N   UNL d   1       2.881  -5.063   0.110  0.00  0.00    -0.347 N 
ATOM      6  HN  UNL d   1       3.196  -6.027   0.216  1.00  0.00     0.167 HD
ATOM      7  C   UNL d   1       2.168  -3.242  -1.263  0.00  0.00     0.049 A 
ATOM      8  C   UNL d   1       2.585  -4.538  -1.087  0.00  0.00     0.092 A 
ENDROOT
BRANCH   4   9
ATOM      9  S   UNL d   1       2.828  -4.992   2.757  0.00  0.00    -0.085 SA
BRANCH   9  10
ATOM     10  C   UNL d   1       1.088  -4.737   3.203  0.00  0.00     0.185 C 
BRANCH  10  11
ATOM     11  C   UNL d   1       0.102  -5.275   2.170  0.00  0.00     0.231 C 
ATOM     12  N   UNL d   1       0.423  -6.512   1.634  0.00  0.00    -0.327 N 
ATOM     13  H   UNL d   1       1.293  -6.931   1.949  0.00  0.00     0.169 HD
ATOM     14  O   UNL d   1      -0.940  -4.654   1.952  0.00  0.00    -0.272 OA
BRANCH  12  15
ATOM     15  C   UNL d   1      -0.371  -7.279   0.755  0.00  0.00     0.034 A 
ATOM     16  C   UNL d   1      -1.496  -6.773   0.097  0.00  0.00     0.031 A 
ATOM     17  C   UNL d   1      -2.325  -7.615  -0.650  0.00  0.00     0.026 A 
ATOM     18  C   UNL d   1      -2.024  -8.969  -0.752  0.00  0.00     0.034 A 
ATOM     19  C   UNL d   1      -0.868  -9.474  -0.162  0.00  0.00     0.026 A 
ATOM     20 CL   UNL d   1      -3.095 -10.022  -1.590  0.00  0.00    -0.084 Cl
ATOM     21  C   UNL d   1      -0.033  -8.626   0.575  0.00  0.00     0.031 A 
ENDBRANCH  12  15
ENDBRANCH  10  11
ENDBRANCH   9  10
ENDBRANCH   4   9
BRANCH   1  22
ATOM     22  C   UNL d   1       1.619  -1.081  -0.152  0.00  0.00     0.089 A 
ATOM     23  N   UNL d   1       2.112  -0.057   0.653  0.00  0.00    -0.304 N 
ATOM     24  C   UNL d   1       1.410   1.098   0.310  0.00  0.00     0.112 A 
ATOM     25  C   UNL d   1       3.123  -0.050   1.623  0.00  0.00     0.099 A 
ATOM     26  C   UNL d   1       1.734   2.303   0.996  0.00  0.00     0.049 A 
ATOM     27  N   UNL d   1       0.536   0.875  -0.643  0.00  0.00    -0.344 N 
ATOM     28  C   UNL d   1       2.699   2.304   1.934  0.00  0.00     0.005 A 
ATOM     29  C   UNL d   1       3.428   1.091   2.266  0.00  0.00     0.018 A 
ATOM     30  C   UNL d   1       0.640  -0.464  -0.930  0.00  0.00     0.036 A 
ATOM     31  HN  UNL d   1      -0.089   1.553  -1.079  1.00  0.00     0.167 HD
ATOM     32  C   UNL d   1      -0.266  -1.041  -1.954  0.00  0.00     0.070 C 
ENDBRANCH   1  22
TORSDOF 5
