REMARK  4 active torsions:
REMARK  status: ('A' for Active; 'I' for Inactive)
REMARK    1  A    between atoms: S_6  and  C_1 
REMARK    2  A    between atoms: C_5  and  S_6 
REMARK    3  A    between atoms: C_16  and  C_5 
REMARK    4  A    between atoms: C_15  and  C_9 
ROOT
ATOM      1  C   UNL d   1      -2.252   2.566  -0.299  0.00  0.00     0.124 C 
ATOM      2  N   UNL d   1      -3.587   4.769  -0.486  0.00  0.00    -0.191 NA
ATOM      3  N   UNL d   1       0.328   2.656  -0.422  0.00  0.00    -0.191 NA
ATOM      4  C   UNL d   1      -2.986   3.780  -0.403  0.00  0.00     0.110 C 
ATOM      5  C   UNL d   1      -0.830   2.631  -0.368  0.00  0.00     0.110 C 
ATOM      6  C   UNL d   1      -2.844   1.365  -0.152  0.00  0.00     0.035 C 
ENDROOT
BRANCH   6   7
ATOM      7  C   UNL d   1      -4.276   1.099  -0.069  0.00  0.00     0.022 C 
ATOM      8  C   UNL d   1      -4.849  -0.123  -0.019  0.00  0.00     0.017 C 
BRANCH   8   9
ATOM      9  S   UNL d   1      -6.553  -0.425   0.148  0.00  0.00    -0.064 SA
BRANCH   9  10
ATOM     10  C   UNL d   1      -7.311   0.712  -0.961  0.00  0.00     0.118 A 
ATOM     11  N   UNL d   1      -6.666   1.633  -1.639  0.00  0.00    -0.344 N 
ATOM     12  C   UNL d   1      -7.561   2.422  -2.345  0.00  0.00     0.050 A 
ATOM     13  HN  UNL d   1      -5.653   1.750  -1.646  1.00  0.00     0.167 HD
ATOM     14  C   UNL d   1      -7.233   3.540  -3.140  0.00  0.00     0.031 A 
ATOM     15  C   UNL d   1      -8.902   2.052  -2.233  0.00  0.00     0.034 A 
ATOM     16  C   UNL d   1      -8.243   4.242  -3.808  0.00  0.00     0.002 A 
ATOM     17  C   UNL d   1      -9.572   3.844  -3.693  0.00  0.00     0.002 A 
ATOM     18  C   UNL d   1      -9.925   2.746  -2.903  0.00  0.00     0.021 A 
ATOM     19  S   UNL d   1      -9.016   0.692  -1.185  0.00  0.00    -0.063 SA
ENDBRANCH   9  10
ENDBRANCH   8   9
BRANCH   8  20
ATOM     20  C   UNL d   1      -4.014  -1.337   0.090  0.00  0.00    -0.019 A 
ATOM     21  C   UNL d   1      -3.611  -1.790   1.358  0.00  0.00     0.014 A 
ATOM     22  C   UNL d   1      -2.678  -2.821   1.480  0.00  0.00     0.020 A 
ATOM     23  C   UNL d   1      -2.145  -3.405   0.334  0.00  0.00     0.011 A 
ATOM     24  C   UNL d   1      -2.556  -2.988  -0.932  0.00  0.00     0.020 A 
ATOM     25 BR   UNL d   1      -0.826  -4.750   0.497  0.00  0.00    -0.051 Br
ATOM     26  C   UNL d   1      -3.493  -1.957  -1.056  0.00  0.00     0.014 A 
ENDBRANCH   8  20
ENDBRANCH   6   7
TORSDOF 4
