REMARK  2 active torsions:
REMARK  status: ('A' for Active; 'I' for Inactive)
REMARK    1  A    between atoms: N_13  and  C_11 
REMARK    2  A    between atoms: C_18  and  N_13 
ROOT
ATOM      1  C   UNL d   1      -0.019  -0.737  -0.079  0.00  0.00     0.135 C 
ATOM      2  C   UNL d   1      -0.042   0.615   0.001  0.00  0.00     0.128 C 
ATOM      3  N   UNL d   1       1.229  -1.386  -0.007  0.00  0.00    -0.288 N 
ATOM      4  N   UNL d   1       2.398   0.665  -0.016  0.00  0.00    -0.270 N 
ATOM      5  N   UNL d   1      -1.242  -1.446  -0.207  0.00  0.00    -0.303 N 
ATOM      6  C   UNL d   1       2.454  -0.706  -0.070  0.00  0.00     0.332 C 
ATOM      7  C   UNL d   1       1.228   1.375   0.132  0.00  0.00     0.269 C 
ATOM      8  C   UNL d   1      -2.505   0.576  -0.388  0.00  0.00     0.094 C 
ATOM      9  C   UNL d   1      -2.498  -0.849  -0.065  0.00  0.00     0.264 C 
ATOM     10  C   UNL d   1      -1.318   1.385  -0.100  0.00  0.00     0.208 C 
ATOM     11  C   UNL d   1      -3.473   1.100  -1.158  0.00  0.00     0.083 C 
ATOM     12  O   UNL d   1       3.527  -1.306  -0.145  0.00  0.00    -0.246 OA
ATOM     13  O   UNL d   1       1.242   2.586   0.345  0.00  0.00    -0.267 OA
ATOM     14  O   UNL d   1      -3.531  -1.458   0.193  0.00  0.00    -0.267 OA
ATOM     15  O   UNL d   1      -1.399   2.603  -0.021  0.00  0.00    -0.286 OA
ATOM     16  C   UNL d   1       1.398  -2.821   0.181  0.00  0.00     0.163 C 
ATOM     17  C   UNL d   1       3.641   1.421   0.025  0.00  0.00     0.164 C 
ATOM     18  C   UNL d   1      -1.363  -2.837  -0.612  0.00  0.00     0.161 C 
ENDROOT
BRANCH  11  19
ATOM     19  N   UNL d   1      -4.563   0.508  -1.778  0.00  0.00    -0.267 NA
ATOM     20  H   UNL d   1      -5.241   0.149  -1.093  0.00  0.00     0.133 HD
BRANCH  19  21
ATOM     21  C   UNL d   1      -4.442  -0.489  -2.806  0.00  0.00     0.035 A 
ATOM     22  C   UNL d   1      -5.573  -1.235  -3.211  0.00  0.00     0.077 A 
ATOM     23  C   UNL d   1      -5.483  -2.136  -4.286  0.00  0.00     0.057 A 
ATOM     24 CL   UNL d   1      -7.073  -1.019  -2.359  0.00  0.00    -0.081 Cl
ATOM     25 CL   UNL d   1      -6.832  -3.065  -4.843  0.00  0.00    -0.082 Cl
ATOM     26  C   UNL d   1      -4.272  -2.302  -4.964  0.00  0.00     0.026 A 
ATOM     27  C   UNL d   1      -3.156  -1.562  -4.586  0.00  0.00     0.004 A 
ATOM     28  C   UNL d   1      -3.247  -0.650  -3.532  0.00  0.00     0.026 A 
ENDBRANCH  19  21
ENDBRANCH  11  19
TORSDOF 2
