REMARK  2 active torsions:
REMARK  status: ('A' for Active; 'I' for Inactive)
REMARK    1  A    between atoms: C_7  and  C_1 
REMARK    2  A    between atoms: C_10  and  C_7 
REMARK       I    between atoms: C_9  and  N_8 
ROOT
ATOM      1  C   UNL d   1      -1.227   0.691   0.118  0.00  0.00     0.023 C 
ATOM      2  C   UNL d   1      -0.120   1.575  -0.062  0.00  0.00    -0.041 C 
ATOM      3  C   UNL d   1      -0.994  -0.710   0.177  0.00  0.00    -0.041 C 
ATOM      4  C   UNL d   1       1.208   1.062  -0.084  0.00  0.00    -0.049 C 
ATOM      5  C   UNL d   1       0.325  -1.223  -0.021  0.00  0.00    -0.049 C 
ATOM      6  C   UNL d   1       1.423  -0.338  -0.093  0.00  0.00    -0.049 C 
ATOM      7  C   UNL d   1      -0.324   3.074  -0.157  0.00  0.00     0.050 C 
ATOM      8  C   UNL d   1      -2.093  -1.698   0.485  0.00  0.00     0.050 C 
ATOM      9  C   UNL d   1       0.586  -2.716  -0.081  0.00  0.00     0.049 C 
ATOM     10  C   UNL d   1       2.416   1.980  -0.076  0.00  0.00     0.049 C 
ATOM     11  C   UNL d   1       2.854  -0.854  -0.122  0.00  0.00     0.049 C 
ENDROOT
BRANCH   1  12
ATOM     12  C   UNL d   1      -2.574   1.326   0.437  0.00  0.00     0.164 C 
ATOM     13  O   UNL d   1      -2.582   2.215   1.292  0.00  0.00    -0.292 OA
BRANCH  12  14
ATOM     14  C   UNL d   1      -3.900   0.869  -0.206  0.00  0.00     0.064 C 
ATOM     15  C   UNL d   1      -3.978   0.967  -1.730  0.00  0.00     0.032 C 
ATOM     16  C   UNL d   1      -4.498   2.292  -2.282  0.00  0.00     0.126 C 
ATOM     17  N   UNL d   1      -5.626   2.845  -1.539  0.00  0.00    -0.352 N 
ATOM     18  C   UNL d   1      -5.448   2.911  -0.094  0.00  0.00     0.126 C 
ATOM     19  C   UNL d   1      -6.547   3.620  -2.238  0.00  0.00     0.215 C 
ATOM     20  C   UNL d   1      -5.112   1.539   0.472  0.00  0.00     0.032 C 
ATOM     21  O   UNL d   1      -6.572   3.671  -3.475  0.00  0.00    -0.274 OA
ATOM     22  C   UNL d   1      -7.562   4.411  -1.447  0.00  0.00     0.117 C 
ENDBRANCH  12  14
ENDBRANCH   1  12
TORSDOF 2
