REMARK  6 active torsions:
REMARK  status: ('A' for Active; 'I' for Inactive)
REMARK    1  A    between atoms: C_2  and  C_1 
REMARK    2  A    between atoms: C_8  and  C_4 
REMARK    3  A    between atoms: S_19  and  C_11 
REMARK    4  A    between atoms: C_24  and  S_19 
REMARK    5  A    between atoms: C_21  and  C_24 
REMARK       I    between atoms: N_22  and  C_21 
REMARK    6  A    between atoms: C_26  and  N_22 
ROOT
ATOM      1  C   UNL d   1       0.207   1.142  -0.045  0.00  0.00     0.143 A 
ATOM      2  N   UNL d   1       1.091   0.121   0.218  0.00  0.00    -0.315 N 
ATOM      3  N   UNL d   1      -1.015   0.640  -0.105  0.00  0.00    -0.282 N 
ATOM      4  HN  UNL d   1      -1.862   1.154  -0.348  1.00  0.00     0.188 HD
ATOM      5  C   UNL d   1       0.311  -0.974   0.461  0.00  0.00     0.163 A 
ATOM      6  N   UNL d   1      -0.947  -0.690   0.216  0.00  0.00    -0.278 N 
ATOM      7  HN  UNL d   1      -1.731  -1.341   0.257  1.00  0.00     0.189 HD
ATOM      8  C   UNL d   1       2.531   0.138   0.185  0.00  0.00     0.160 C 
ENDROOT
BRANCH   1   9
ATOM      9  C   UNL d   1       0.490   2.537  -0.206  0.00  0.00     0.074 A 
ATOM     10  S   UNL d   1       1.593   3.364   0.812  0.00  0.00    -0.064 SA
ATOM     11  C   UNL d   1       1.343   4.808  -0.073  0.00  0.00     0.104 A 
ATOM     12  N   UNL d   1       0.411   4.736  -1.005  0.00  0.00    -0.351 N 
ATOM     13  C   UNL d   1      -0.101   3.448  -1.074  0.00  0.00     0.027 A 
ATOM     14  HN  UNL d   1       0.110   5.515  -1.590  1.00  0.00     0.166 HD
ATOM     15  C   UNL d   1      -1.180   3.171  -2.068  0.00  0.00     0.070 C 
BRANCH  11  16
ATOM     16  C   UNL d   1       2.145   6.050   0.186  0.00  0.00     0.091 A 
ATOM     17  N   UNL d   1       3.143   6.098   1.082  0.00  0.00    -0.258 N 
ATOM     18  O   UNL d   1       3.653   7.380   1.007  0.00  0.00    -0.242 OA
ATOM     19  HN  UNL d   1       3.459   5.344   1.692  1.00  0.00     0.195 HD
ATOM     20  C   UNL d   1       2.956   8.091   0.083  0.00  0.00     0.074 A 
ATOM     21  C   UNL d   1       1.987   7.291  -0.470  0.00  0.00     0.068 A 
ATOM     22  C   UNL d   1       3.381   9.488  -0.113  0.00  0.00     0.079 C 
ENDBRANCH  11  16
ENDBRANCH   1   9
BRANCH   5  23
ATOM     23  S   UNL d   1       0.894  -2.446   1.147  0.00  0.00    -0.083 SA
BRANCH  23  24
ATOM     24  C   UNL d   1      -0.598  -3.483   1.159  0.00  0.00     0.185 C 
BRANCH  24  25
ATOM     25  C   UNL d   1      -1.540  -3.229   2.332  0.00  0.00     0.231 C 
ATOM     26  N   UNL d   1      -1.920  -1.914   2.519  0.00  0.00    -0.327 N 
ATOM     27  H   UNL d   1      -1.670  -1.263   1.777  0.00  0.00     0.169 HD
ATOM     28  O   UNL d   1      -1.974  -4.185   2.976  0.00  0.00    -0.272 OA
BRANCH  26  29
ATOM     29  C   UNL d   1      -2.742  -1.386   3.532  0.00  0.00     0.034 A 
ATOM     30  C   UNL d   1      -3.170  -2.113   4.644  0.00  0.00     0.031 A 
ATOM     31  C   UNL d   1      -4.015  -1.525   5.592  0.00  0.00     0.026 A 
ATOM     32  C   UNL d   1      -4.427  -0.205   5.432  0.00  0.00     0.034 A 
ATOM     33  C   UNL d   1      -3.987   0.540   4.341  0.00  0.00     0.026 A 
ATOM     34 CL   UNL d   1      -5.487   0.508   6.584  0.00  0.00    -0.084 Cl
ATOM     35  C   UNL d   1      -3.139  -0.048   3.398  0.00  0.00     0.031 A 
ENDBRANCH  26  29
ENDBRANCH  24  25
ENDBRANCH  23  24
ENDBRANCH   5  23
TORSDOF 6
