REMARK  4 active torsions:
REMARK  status: ('A' for Active; 'I' for Inactive)
REMARK    1  A    between atoms: C_20  and  C_4 
REMARK    2  A    between atoms: C_24  and  C_12 
REMARK    3  A    between atoms: C_16  and  O_21 
REMARK    4  A    between atoms: O_21  and  C_24 
ROOT
ATOM      1  N   UNL d   1       6.777   4.982   0.210  0.00  0.00    -0.191 NA
ATOM      2  C   UNL d   1       5.866   4.264   0.151  0.00  0.00     0.099 C 
ATOM      3  C   UNL d   1       2.490   1.684  -0.015  0.00  0.00    -0.009 A 
ATOM      4  C   UNL d   1       2.434   2.973  -0.565  0.00  0.00     0.015 A 
ATOM      5  C   UNL d   1       3.694   1.250   0.559  0.00  0.00     0.015 A 
ATOM      6  C   UNL d   1       4.734   3.386   0.082  0.00  0.00     0.044 A 
ATOM      7  C   UNL d   1       3.547   3.820  -0.515  0.00  0.00     0.023 A 
ATOM      8  C   UNL d   1       4.808   2.096   0.613  0.00  0.00     0.023 A 
ENDROOT
BRANCH   3   9
ATOM      9  C   UNL d   1       1.331   0.799  -0.014  0.00  0.00     0.049 A 
ATOM     10  N   UNL d   1       1.476  -0.580  -0.025  0.00  0.00    -0.351 N 
ATOM     11  C   UNL d   1       0.293  -1.163   0.014  0.00  0.00     0.075 A 
ATOM     12  HN  UNL d   1       2.368  -1.073  -0.059  1.00  0.00     0.166 HD
ATOM     13  S   UNL d   1      -1.052  -0.092   0.068  0.00  0.00    -0.084 SA
ATOM     14  C   UNL d   1       0.023   1.241   0.036  0.00  0.00     0.082 A 
BRANCH  11  15
ATOM     15  C   UNL d   1       0.068  -2.644  -0.038  0.00  0.00     0.240 C 
BRANCH  15  16
ATOM     16  O   UNL d   1       0.046  -3.129   1.307  0.00  0.00    -0.345 OA
BRANCH  16  17
ATOM     17  C   UNL d   1      -0.110  -4.486   1.476  0.00  0.00     0.071 A 
ATOM     18  C   UNL d   1      -0.117  -4.883   2.830  0.00  0.00     0.070 A 
ATOM     19  C   UNL d   1      -0.271  -6.265   3.046  0.00  0.00     0.087 A 
ATOM     20  N   UNL d   1      -0.315  -6.949   4.196  0.00  0.00    -0.239 N 
ATOM     21  C   UNL d   1      -0.416  -7.211   1.950  0.00  0.00     0.085 A 
ATOM     22  O   UNL d   1      -0.479  -8.277   3.839  0.00  0.00    -0.156 OA
ATOM     23  HN  UNL d   1      -0.243  -6.569   5.140  1.00  0.00     0.197 HD
ATOM     24  N   UNL d   1      -0.543  -8.439   2.465  0.00  0.00    -0.240 N 
ATOM     25  HN  UNL d   1      -0.662  -9.313   1.952  1.00  0.00     0.197 HD
ATOM     26  C   UNL d   1      -0.411  -6.807   0.605  0.00  0.00     0.036 A 
ATOM     27  C   UNL d   1      -0.254  -5.418   0.409  0.00  0.00     0.039 A 
ENDBRANCH  16  17
ENDBRANCH  15  16
ENDBRANCH  11  15
ENDBRANCH   3   9
TORSDOF 4
