REMARK  3 active torsions:
REMARK  status: ('A' for Active; 'I' for Inactive)
REMARK    1  A    between atoms: C_2  and  C_1 
REMARK       I    between atoms: N_12  and  C_2 
REMARK    2  A    between atoms: C_8  and  C_3 
REMARK    3  A    between atoms: C_9  and  C_6 
ROOT
ATOM      1  C   UNL d   1       1.224   0.366   1.873  0.00  0.00     0.112 C 
ATOM      2  C   UNL d   1       0.352   0.567   0.866  0.00  0.00     0.039 C 
ATOM      3  C   UNL d   1       0.816   0.096   3.205  0.00  0.00     0.105 C 
ATOM      4  N   UNL d   1       0.541  -0.133   4.312  0.00  0.00    -0.191 NA
ENDROOT
BRANCH   1   5
ATOM      5  C   UNL d   1       2.676   0.460   1.539  0.00  0.00     0.260 C 
ATOM      6  O   UNL d   1       3.087   0.700   0.408  0.00  0.00    -0.267 OA
ATOM      7  N   UNL d   1       3.564   0.277   2.556  0.00  0.00    -0.365 N 
ATOM      8  H   UNL d   1       3.319   0.086   3.520  0.00  0.00     0.159 HD
ATOM      9  H   UNL d   1       4.547   0.360   2.331  0.00  0.00     0.159 HD
ENDBRANCH   1   5
BRANCH   2  10
ATOM     10  C   UNL d   1      -1.103   0.571   1.013  0.00  0.00    -0.035 A 
ATOM     11  C   UNL d   1      -1.768   1.768   1.276  0.00  0.00     0.012 A 
ATOM     12  C   UNL d   1      -3.161   1.786   1.397  0.00  0.00     0.013 A 
ATOM     13  C   UNL d   1      -3.931   0.619   1.240  0.00  0.00    -0.026 A 
ATOM     14  C   UNL d   1      -3.234  -0.577   0.987  0.00  0.00     0.013 A 
ATOM     15  C   UNL d   1      -1.838  -0.607   0.884  0.00  0.00     0.012 A 
BRANCH  13  16
ATOM     16  C   UNL d   1      -5.412   0.652   1.329  0.00  0.00    -0.026 A 
ATOM     17  C   UNL d   1      -6.146  -0.448   1.809  0.00  0.00     0.012 A 
ATOM     18  C   UNL d   1      -7.542  -0.417   1.891  0.00  0.00     0.001 A 
ATOM     19  C   UNL d   1      -8.239   0.723   1.507  0.00  0.00     0.000 A 
ATOM     20  C   UNL d   1      -7.541   1.827   1.029  0.00  0.00     0.001 A 
ATOM     21  C   UNL d   1      -6.147   1.786   0.933  0.00  0.00     0.012 A 
ENDBRANCH  13  16
ENDBRANCH   2  10
TORSDOF 3
