REMARK  2 active torsions:
REMARK  status: ('A' for Active; 'I' for Inactive)
REMARK    1  A    between atoms: N_14  and  C_7 
REMARK    2  A    between atoms: C_17  and  N_14 
ROOT
ATOM      1  S   UNL d   1       2.289   0.883   0.505  0.00  0.00     0.270 S 
ATOM      2  C   UNL d   1       2.259  -0.654  -0.270  0.00  0.00     0.146 C 
ATOM      3  N   UNL d   1       0.819   1.564  -0.021  0.00  0.00    -0.275 N 
ATOM      4  C   UNL d   1      -0.312   0.721  -0.024  0.00  0.00     0.066 A 
ATOM      5  C   UNL d   1      -0.214  -0.660  -0.008  0.00  0.00     0.084 A 
ATOM      6  C   UNL d   1       1.014  -1.440  -0.090  0.00  0.00     0.215 C 
ATOM      7  C   UNL d   1       3.196  -1.033  -1.157  0.00  0.00     0.118 C 
ATOM      8  S   UNL d   1      -1.742  -1.416   0.030  0.00  0.00    -0.096 SA
ATOM      9  O   UNL d   1       2.182   0.696   1.938  0.00  0.00    -0.200 OA
ATOM     10  O   UNL d   1       3.370   1.689  -0.031  0.00  0.00    -0.200 OA
ATOM     11  C   UNL d   1      -1.670   1.150  -0.073  0.00  0.00     0.039 A 
ATOM     12  C   UNL d   1      -2.551   0.089  -0.039  0.00  0.00     0.053 A 
ATOM     13  O   UNL d   1       1.061  -2.666  -0.117  0.00  0.00    -0.285 OA
ATOM     14  C   UNL d   1       0.775   2.993  -0.344  0.00  0.00     0.170 C 
ENDROOT
BRANCH   7  15
ATOM     15  N   UNL d   1       4.310  -0.341  -1.567  0.00  0.00    -0.364 N 
ATOM     16  H   UNL d   1       4.428   0.591  -1.151  0.00  0.00     0.165 HD
BRANCH  15  17
ATOM     17  C   UNL d   1       5.210  -0.614  -2.611  0.00  0.00     0.033 A 
ATOM     18  C   UNL d   1       5.130  -1.739  -3.437  0.00  0.00     0.053 A 
ATOM     19  C   UNL d   1       6.103  -1.971  -4.413  0.00  0.00     0.036 A 
ATOM     20 CL   UNL d   1       5.988  -3.366  -5.415  0.00  0.00    -0.084 Cl
ATOM     21  C   UNL d   1       7.171  -1.093  -4.580  0.00  0.00     0.024 A 
ATOM     22  C   UNL d   1       7.262   0.035  -3.772  0.00  0.00     0.004 A 
ATOM     23  C   UNL d   1       6.289   0.269  -2.797  0.00  0.00     0.029 A 
ENDBRANCH  15  17
ENDBRANCH   7  15
TORSDOF 2
