REMARK  7 active torsions:
REMARK  status: ('A' for Active; 'I' for Inactive)
REMARK    1  A    between atoms: S_2  and  C_1 
REMARK    2  A    between atoms: C_16  and  S_2 
REMARK    3  A    between atoms: S_13  and  C_5 
REMARK    4  A    between atoms: C_12  and  C_6 
REMARK    5  A    between atoms: O_19  and  C_12 
REMARK    6  A    between atoms: C_18  and  S_13 
REMARK    7  A    between atoms: C_28  and  O_19 
ROOT
ATOM      1  C   UNL d   1      -0.894   1.591   0.081  0.00  0.00     0.094 A 
ATOM      2  C   UNL d   1       0.296   0.805   0.081  0.00  0.00     0.073 A 
ATOM      3  C   UNL d   1       0.025  -0.573   0.071  0.00  0.00     0.051 A 
ATOM      4  C   UNL d   1       1.081  -1.519  -0.006  0.00  0.00     0.042 A 
ATOM      5  C   UNL d   1       2.374  -0.989  -0.119  0.00  0.00     0.073 A 
ATOM      6  S   UNL d   1      -1.687  -0.840   0.122  0.00  0.00    -0.097 SA
ATOM      7  C   UNL d   1      -2.035   0.823   0.097  0.00  0.00     0.076 A 
ATOM      8  N   UNL d   1       1.565   1.293   0.053  0.00  0.00    -0.362 N 
ATOM      9  HN  UNL d   1       1.758   2.294   0.096  1.00  0.00     0.165 HD
ATOM     10  C   UNL d   1       2.553   0.382  -0.034  0.00  0.00     0.107 A 
ENDROOT
BRANCH   4  11
ATOM     11  S   UNL d   1       0.694  -3.256  -0.105  0.00  0.00    -0.088 SA
BRANCH  11  12
ATOM     12  C   UNL d   1       0.625  -3.793   1.593  0.00  0.00     0.005 A 
ATOM     13  C   UNL d   1      -0.577  -4.325   2.078  0.00  0.00     0.020 A 
ATOM     14  C   UNL d   1      -0.640  -4.901   3.352  0.00  0.00     0.025 A 
ATOM     15  C   UNL d   1       0.503  -4.951   4.144  0.00  0.00     0.034 A 
ATOM     16  C   UNL d   1       1.704  -4.416   3.678  0.00  0.00     0.025 A 
ATOM     17 CL   UNL d   1       0.442  -5.706   5.688  0.00  0.00    -0.084 Cl
ATOM     18  C   UNL d   1       1.765  -3.841   2.402  0.00  0.00     0.020 A 
ENDBRANCH  11  12
ENDBRANCH   4  11
BRANCH   5  19
ATOM     19  C   UNL d   1       3.592  -1.772  -0.408  0.00  0.00     0.296 C 
ATOM     20  O   UNL d   1       4.674  -1.543   0.099  0.00  0.00    -0.259 OA
BRANCH  19  21
ATOM     21  O   UNL d   1       3.329  -2.642  -1.410  0.00  0.00    -0.318 OA
BRANCH  21  22
ATOM     22  C   UNL d   1       4.431  -3.399  -1.928  0.00  0.00     0.174 C 
ATOM     23  C   UNL d   1       4.819  -4.526  -0.989  0.00  0.00     0.034 C 
ENDBRANCH  21  22
ENDBRANCH  19  21
ENDBRANCH   5  19
BRANCH   1  24
ATOM     24  S   UNL d   1      -0.925   3.320   0.074  0.00  0.00     0.181 S 
ATOM     25  O   UNL d   1      -2.321   3.647  -0.156  0.00  0.00    -0.222 OA
ATOM     26  O   UNL d   1      -0.263   3.688   1.308  0.00  0.00    -0.222 OA
BRANCH  24  27
ATOM     27  C   UNL d   1       0.037   3.872  -1.338  0.00  0.00     0.105 C 
ATOM     28  C   UNL d   1      -0.508   3.321  -2.652  0.00  0.00     0.026 C 
ATOM     29  C   UNL d   1       0.048   5.401  -1.380  0.00  0.00     0.026 C 
ENDBRANCH  24  27
ENDBRANCH   1  24
TORSDOF 7
