REMARK  2 active torsions:
REMARK  status: ('A' for Active; 'I' for Inactive)
REMARK    1  A    between atoms: C_6  and  C_1 
REMARK    2  A    between atoms: C_12  and  C_6 
ROOT
ATOM      1  C   UNL d   1       2.115  -0.015  -0.085  0.00  0.00     0.204 A 
ATOM      2  C   UNL d   1       1.188   1.177  -0.061  0.00  0.00     0.179 A 
ATOM      3  C   UNL d   1       1.168  -1.191  -0.073  0.00  0.00     0.179 A 
ATOM      4  C   UNL d   1      -0.193   0.698  -0.011  0.00  0.00     0.025 A 
ATOM      5  C   UNL d   1      -0.206  -0.690  -0.024  0.00  0.00     0.025 A 
ATOM      6  O   UNL d   1       1.500   2.353  -0.123  0.00  0.00    -0.291 OA
ATOM      7  O   UNL d   1       1.467  -2.370  -0.113  0.00  0.00    -0.291 OA
ATOM      8  C   UNL d   1      -1.361   1.437   0.019  0.00  0.00     0.016 A 
ATOM      9  C   UNL d   1      -1.389  -1.404  -0.007  0.00  0.00     0.016 A 
ATOM     10  C   UNL d   1      -2.568   0.733   0.037  0.00  0.00     0.001 A 
ATOM     11  C   UNL d   1      -2.583  -0.676   0.024  0.00  0.00     0.001 A 
ENDROOT
BRANCH   1  12
ATOM     12  C   UNL d   1       3.071  -0.055   1.073  0.00  0.00     0.145 C 
ATOM     13  O   UNL d   1       2.735   0.335   2.192  0.00  0.00    -0.297 OA
BRANCH  12  14
ATOM     14  C   UNL d   1       4.435  -0.666   0.803  0.00  0.00     0.075 C 
ATOM     15  C   UNL d   1       5.341  -0.629   2.021  0.00  0.00     0.013 C 
ENDBRANCH  12  14
ENDBRANCH   1  12
TORSDOF 2
