REMARK  0 active torsions:
REMARK  status: ('A' for Active; 'I' for Inactive)
ROOT
ATOM      1  N   UNL d   1       0.691   1.985   0.002  0.00  0.00    -0.300 N 
ATOM      2  HN  UNL d   1       1.195   2.872   0.002  1.00  0.00     0.187 HD
ATOM      3  N   UNL d   1      -0.682   1.986   0.001  0.00  0.00    -0.300 N 
ATOM      4  HN  UNL d   1      -1.184   2.874   0.001  1.00  0.00     0.187 HD
ATOM      5  C   UNL d   1       0.718  -0.405   0.001  0.00  0.00     0.004 A 
ATOM      6  C   UNL d   1      -0.714  -0.403   0.000  0.00  0.00     0.004 A 
ATOM      7  C   UNL d   1       1.377   0.838   0.001  0.00  0.00     0.059 A 
ATOM      8  C   UNL d   1      -1.371   0.841   0.000  0.00  0.00     0.059 A 
ATOM      9  C   UNL d   1       1.519  -1.577   0.000  0.00  0.00     0.014 A 
ATOM     10  C   UNL d   1      -1.517  -1.574  -0.000  0.00  0.00     0.014 A 
ATOM     11  C   UNL d   1       2.768   0.882   0.002  0.00  0.00     0.032 A 
ATOM     12  C   UNL d   1      -2.761   0.887  -0.001  0.00  0.00     0.032 A 
ATOM     13  C   UNL d   1       2.913  -1.514  -0.000  0.00  0.00     0.001 A 
ATOM     14  C   UNL d   1      -2.910  -1.508  -0.000  0.00  0.00     0.001 A 
ATOM     15  C   UNL d   1       3.541  -0.279   0.001  0.00  0.00     0.002 A 
ATOM     16  C   UNL d   1      -3.536  -0.273  -0.001  0.00  0.00     0.002 A 
ENDROOT
TORSDOF 0
