REMARK  5 active torsions:
REMARK  status: ('A' for Active; 'I' for Inactive)
REMARK    1  A    between atoms: N_2  and  S_1 
REMARK    2  A    between atoms: C_4  and  S_1 
REMARK    3  A    between atoms: C_5  and  N_3 
REMARK       I    between atoms: C_10  and  N_13 
REMARK    4  A    between atoms: N_13  and  C_18 
REMARK    5  A    between atoms: O_21  and  C_14 
ROOT
ATOM      1  N   UNL d   1       0.370   1.185  -0.591  0.00  0.00    -0.203 NA
ATOM      2  N   UNL d   1      -0.958   2.802   1.440  0.00  0.00    -0.376 N 
ATOM      3  C   UNL d   1       0.957   2.494  -0.123  0.00  0.00     0.127 C 
ATOM      4  C   UNL d   1      -1.114   1.198  -0.420  0.00  0.00     0.127 C 
ATOM      5  C   UNL d   1      -1.510   1.492   1.033  0.00  0.00     0.138 C 
ATOM      6  C   UNL d   1       0.509   2.885   1.316  0.00  0.00     0.138 C 
ENDROOT
BRANCH   1   7
ATOM      7  S   UNL d   1       1.149  -0.239  -0.084  0.00  0.00     0.243 S 
ATOM      8  O   UNL d   1       0.217  -1.344  -0.216  0.00  0.00    -0.206 OA
ATOM      9  O   UNL d   1       1.823   0.019   1.165  0.00  0.00    -0.206 OA
BRANCH   7  10
ATOM     10  C   UNL d   1       2.398  -0.462  -1.336  0.00  0.00     0.074 A 
ATOM     11  C   UNL d   1       3.647   0.145  -1.194  0.00  0.00     0.027 A 
ATOM     12  C   UNL d   1       4.644  -0.092  -2.149  0.00  0.00     0.031 A 
ATOM     13  C   UNL d   1       4.412  -0.949  -3.235  0.00  0.00     0.034 A 
ATOM     14  C   UNL d   1       3.166  -1.573  -3.344  0.00  0.00     0.031 A 
ATOM     15  C   UNL d   1       2.161  -1.333  -2.400  0.00  0.00     0.027 A 
BRANCH  13  16
ATOM     16  N   UNL d   1       5.464  -1.129  -4.160  0.00  0.00    -0.328 N 
ATOM     17  C   UNL d   1       5.441  -1.898  -5.312  0.00  0.00     0.218 C 
ATOM     18  O   UNL d   1       4.507  -2.568  -5.728  0.00  0.00    -0.274 OA
ATOM     19  C   UNL d   1       6.735  -1.846  -6.091  0.00  0.00     0.117 C 
ATOM     20  H   UNL d   1       6.319  -0.625  -3.960  0.00  0.00     0.169 HD
ENDBRANCH  13  16
ENDBRANCH   7  10
ENDBRANCH   1   7
BRANCH   2  21
ATOM     21  C   UNL d   1      -1.726   3.666   2.220  0.00  0.00     0.064 C 
ATOM     22  C   UNL d   1      -1.597   5.080   2.228  0.00  0.00     0.094 C 
ATOM     23  C   UNL d   1      -2.592   5.877   2.835  0.00  0.00     0.039 C 
ATOM     24  C   UNL d   1      -3.675   5.309   3.499  0.00  0.00     0.003 C 
ATOM     25  C   UNL d   1      -3.757   3.935   3.604  0.00  0.00     0.002 C 
ATOM     26  C   UNL d   1      -2.791   3.138   2.987  0.00  0.00     0.032 C 
BRANCH  22  27
ATOM     27  O   UNL d   1      -0.547   5.665   1.551  0.00  0.00    -0.354 OA
ATOM     28  C   UNL d   1      -0.163   6.959   2.024  0.00  0.00     0.210 C 
ENDBRANCH  22  27
ENDBRANCH   2  21
TORSDOF 5
