REMARK  4 active torsions:
REMARK  status: ('A' for Active; 'I' for Inactive)
REMARK    1  A    between atoms: C_11  and  N_3 
REMARK    2  A    between atoms: C_13  and  C_5 
REMARK    3  A    between atoms: C_8  and  O_12 
REMARK    4  A    between atoms: O_12  and  C_19 
ROOT
ATOM      1  C   UNL d   1      -3.066  -8.217  -1.216  0.00  0.00     0.100 A 
ATOM      2  C   UNL d   1      -2.965  -6.972  -0.571  0.00  0.00     0.098 A 
ATOM      3  C   UNL d   1      -1.906  -9.051  -1.369  0.00  0.00     0.104 C 
ATOM      4  N   UNL d   1      -0.979  -9.737  -1.482  0.00  0.00    -0.191 NA
ATOM      5  C   UNL d   1      -4.319  -8.631  -1.688  0.00  0.00     0.057 A 
ATOM      6 CL   UNL d   1      -4.541 -10.131  -2.521  0.00  0.00    -0.083 Cl
ATOM      7  C   UNL d   1      -4.119  -6.213  -0.322  0.00  0.00     0.039 A 
ATOM      8  C   UNL d   1      -5.354  -6.627  -0.810  0.00  0.00     0.005 A 
ATOM      9  C   UNL d   1      -5.452  -7.830  -1.502  0.00  0.00     0.025 A 
ENDROOT
BRANCH   2  10
ATOM     10  O   UNL d   1      -1.717  -6.554  -0.150  0.00  0.00    -0.309 OA
BRANCH  10  11
ATOM     11  C   UNL d   1      -1.424  -5.207  -0.153  0.00  0.00     0.076 A 
ATOM     12  C   UNL d   1      -0.597  -4.756   0.872  0.00  0.00     0.038 A 
ATOM     13  C   UNL d   1      -0.243  -3.405   0.947  0.00  0.00     0.016 A 
ATOM     14  C   UNL d   1      -0.707  -2.485  -0.007  0.00  0.00    -0.008 A 
ATOM     15  C   UNL d   1      -1.529  -2.955  -1.041  0.00  0.00     0.016 A 
ATOM     16  C   UNL d   1      -1.865  -4.310  -1.130  0.00  0.00     0.038 A 
BRANCH  14  17
ATOM     17  C   UNL d   1      -0.318  -1.070   0.050  0.00  0.00     0.060 A 
ATOM     18  N   UNL d   1      -0.726  -0.183  -0.872  0.00  0.00    -0.293 N 
ATOM     19  N   UNL d   1      -0.132   0.991  -0.545  0.00  0.00    -0.267 N 
ATOM     20  HN  UNL d   1      -1.354  -0.357  -1.657  1.00  0.00     0.187 HD
ATOM     21  C   UNL d   1       0.611   0.870   0.605  0.00  0.00     0.119 A 
ATOM     22  C   UNL d   1       0.512  -0.437   1.008  0.00  0.00     0.051 A 
BRANCH  19  23
ATOM     23  C   UNL d   1      -0.299   2.154  -1.351  0.00  0.00     0.056 A 
ATOM     24  C   UNL d   1      -1.135   2.111  -2.478  0.00  0.00     0.033 A 
ATOM     25  C   UNL d   1      -1.296   3.249  -3.278  0.00  0.00     0.026 A 
ATOM     26  C   UNL d   1      -0.619   4.424  -2.958  0.00  0.00     0.034 A 
ATOM     27  C   UNL d   1       0.214   4.476  -1.843  0.00  0.00     0.026 A 
ATOM     28 CL   UNL d   1      -0.807   5.821  -3.944  0.00  0.00    -0.084 Cl
ATOM     29  C   UNL d   1       0.373   3.345  -1.037  0.00  0.00     0.033 A 
ENDBRANCH  19  23
ENDBRANCH  14  17
ENDBRANCH  10  11
ENDBRANCH   2  10
TORSDOF 4
