REMARK  3 active torsions:
REMARK  status: ('A' for Active; 'I' for Inactive)
REMARK    1  A    between atoms: N_3  and  C_1 
REMARK       I    between atoms: C_2  and  N_5 
REMARK    2  A    between atoms: C_4  and  C_2 
REMARK    3  A    between atoms: N_5  and  N_3 
ROOT
ATOM      1  N   UNL d   1      -0.058  -2.214   0.151  0.00  0.00    -0.200 NA
ATOM      2  H   UNL d   1       0.803  -2.725  -0.086  0.00  0.00     0.153 HD
ENDROOT
BRANCH   1   3
ATOM      3  C   UNL d   1      -0.035  -0.868  -0.316  0.00  0.00     0.073 A 
ATOM      4  C   UNL d   1       0.818   0.038   0.352  0.00  0.00     0.073 A 
ATOM      5 CL   UNL d   1       1.813  -0.452   1.679  0.00  0.00    -0.081 Cl
ATOM      6  C   UNL d   1       0.851   1.373  -0.036  0.00  0.00     0.113 A 
ATOM      7  N   UNL d   1       0.128   1.879  -1.058  0.00  0.00    -0.372 N 
ATOM      8  C   UNL d   1      -0.646   0.997  -1.728  0.00  0.00     0.113 A 
ATOM      9  HN  UNL d   1       0.165   2.867  -1.309  1.00  0.00     0.164 HD
ATOM     10  C   UNL d   1      -0.756  -0.359  -1.416  0.00  0.00     0.073 A 
ATOM     11 CL   UNL d   1      -1.758  -1.304  -2.462  0.00  0.00    -0.081 Cl
ENDBRANCH   1   3
BRANCH   1  12
ATOM     12  N   UNL d   1      -1.203  -2.954  -0.124  0.00  0.00    -0.282 N 
ATOM     13  C   UNL d   1      -1.126  -4.334  -0.249  0.00  0.00     0.273 C 
ATOM     14  O   UNL d   1      -0.046  -4.923  -0.230  0.00  0.00    -0.266 OA
ATOM     15  H   UNL d   1      -2.103  -2.491  -0.053  0.00  0.00     0.184 HD
BRANCH  13  16
ATOM     16  C   UNL d   1      -2.412  -5.006  -0.410  0.00  0.00     0.073 A 
ATOM     17  S   UNL d   1      -3.890  -4.131  -0.482  0.00  0.00    -0.097 SA
ATOM     18  C   UNL d   1      -4.809  -5.553  -0.699  0.00  0.00     0.050 A 
ATOM     19  C   UNL d   1      -4.020  -6.680  -0.699  0.00  0.00     0.009 A 
ATOM     20  C   UNL d   1      -2.639  -6.366  -0.528  0.00  0.00     0.025 A 
ENDBRANCH  13  16
ENDBRANCH   1  12
TORSDOF 3
