REMARK  6 active torsions:
REMARK  status: ('A' for Active; 'I' for Inactive)
REMARK    1  A    between atoms: C_5  and  C_1 
REMARK    2  A    between atoms: N_18  and  C_4 
REMARK    3  A    between atoms: C_6  and  C_7 
REMARK       I    between atoms: C_7  and  N_19 
REMARK    4  A    between atoms: C_23  and  N_18 
REMARK    5  A    between atoms: N_19  and  C_22 
REMARK    6  A    between atoms: C_22  and  C_23 
ROOT
ATOM      1  N   UNL d   1       1.018   4.737  -0.708  0.00  0.00    -0.224 N 
ATOM      2  H   UNL d   1       0.651   4.612   0.226  0.00  0.00     0.177 HD
ENDROOT
BRANCH   1   3
ATOM      3  C   UNL d   1       2.144   3.988  -0.932  0.00  0.00     0.678 A 
ATOM      4  N   UNL d   1       2.317   2.935  -0.125  0.00  0.00    -0.187 N 
ATOM      5  C   UNL d   1       3.366   2.104  -0.374  0.00  0.00     0.133 A 
ATOM      6  HN  UNL d   1       1.681   2.760   0.653  1.00  0.00     0.184 HD
ATOM      7  C   UNL d   1       4.261   2.351  -1.397  0.00  0.00     0.052 A 
ATOM      8  C   UNL d   1       4.021   3.475  -2.143  0.00  0.00     0.108 A 
ATOM      9  N   UNL d   1       2.978   4.297  -1.932  0.00  0.00    -0.202 N 
ATOM     10  HN  UNL d   1       2.828   5.123  -2.512  1.00  0.00     0.183 HD
BRANCH   5  11
ATOM     11  C   UNL d   1       3.550   0.853   0.469  0.00  0.00     0.433 C 
ATOM     12  F   UNL d   1       2.621   0.687   1.451  0.00  0.00    -0.165 F 
ATOM     13  F   UNL d   1       4.763   0.825   1.096  0.00  0.00    -0.165 F 
ATOM     14  F   UNL d   1       3.507  -0.288  -0.282  0.00  0.00    -0.165 F 
ENDBRANCH   5  11
ENDBRANCH   1   3
BRANCH   1  15
ATOM     15  C   UNL d   1       0.791   5.986  -1.405  0.00  0.00     0.157 C 
BRANCH  15  16
ATOM     16  C   UNL d   1       1.532   7.166  -0.764  0.00  0.00     0.143 C 
BRANCH  16  17
ATOM     17  N   UNL d   1       1.319   8.414  -1.477  0.00  0.00    -0.354 N 
ATOM     18  C   UNL d   1       0.279   9.274  -1.195  0.00  0.00     0.275 C 
ATOM     19  O   UNL d   1      -0.551   9.033  -0.322  0.00  0.00    -0.265 OA
ATOM     20  H   UNL d   1       1.917   8.652  -2.261  0.00  0.00     0.162 HD
BRANCH  18  21
ATOM     21  C   UNL d   1       0.258  10.473  -2.011  0.00  0.00     0.142 A 
ATOM     22  O   UNL d   1       1.243  10.673  -2.947  0.00  0.00    -0.317 OA
ATOM     23  C   UNL d   1       0.990  11.867  -3.545  0.00  0.00     0.143 A 
ATOM     24  C   UNL d   1      -0.143  12.441  -3.021  0.00  0.00     0.027 A 
ATOM     25  C   UNL d   1      -0.614  11.545  -2.034  0.00  0.00     0.045 A 
ENDBRANCH  18  21
ENDBRANCH  16  17
ENDBRANCH  15  16
ENDBRANCH   1  15
TORSDOF 6
