REMARK  0 active torsions:
REMARK  status: ('A' for Active; 'I' for Inactive)
ROOT
ATOM      1  C   UNL d   1       0.176   0.818   0.459  0.00  0.00     0.024 C 
ATOM      2  N   UNL d   1       1.425   1.183   0.914  0.00  0.00    -0.330 N 
ATOM      3  C   UNL d   1      -0.885   1.579   0.761  0.00  0.00     0.076 C 
ATOM      4  C   UNL d   1       0.078  -0.454  -0.367  0.00  0.00    -0.001 C 
ATOM      5  C   UNL d   1       2.581   0.452   0.835  0.00  0.00     0.222 C 
ATOM      6  C   UNL d   1      -2.249   1.219   0.304  0.00  0.00     0.151 C 
ATOM      7  C   UNL d   1       1.082  -1.482   0.192  0.00  0.00     0.025 C 
ATOM      8  C   UNL d   1      -1.343  -1.056  -0.271  0.00  0.00     0.023 C 
ATOM      9  O   UNL d   1       3.646   0.933   1.219  0.00  0.00    -0.273 OA
ATOM     10  O   UNL d   1      -3.182   1.979   0.560  0.00  0.00    -0.293 OA
ATOM     11  C   UNL d   1       2.503  -0.936   0.239  0.00  0.00     0.104 C 
ATOM     12  C   UNL d   1      -2.447  -0.035  -0.515  0.00  0.00     0.084 C 
ATOM     13  C   UNL d   1       0.406  -0.112  -1.838  0.00  0.00     0.022 C 
ATOM     14  H   UNL d   1       1.547   2.079   1.377  0.00  0.00     0.168 HD
ENDROOT
TORSDOF 0
