REMARK  2 active torsions:
REMARK  status: ('A' for Active; 'I' for Inactive)
REMARK    1  A    between atoms: C_2  and  C_1 
REMARK    2  A    between atoms: N_4  and  C_2 
REMARK       I    between atoms: C_3  and  N_4 
ROOT
ATOM      1  C   UNL d   1      -0.126   0.670   0.047  0.00  0.00     0.003 A 
ATOM      2  C   UNL d   1      -0.127  -0.132  -1.111  0.00  0.00     0.043 A 
ATOM      3  C   UNL d   1      -0.185   0.011   1.290  0.00  0.00     0.043 A 
ATOM      4 CL   UNL d   1      -0.118   0.549  -2.701  0.00  0.00    -0.084 Cl
ATOM      5 CL   UNL d   1      -0.250   0.878   2.787  0.00  0.00    -0.084 Cl
ATOM      6  C   UNL d   1      -0.179  -2.158   0.215  0.00  0.00     0.003 A 
ATOM      7  C   UNL d   1      -0.146  -1.530  -1.026  0.00  0.00     0.024 A 
ATOM      8  C   UNL d   1      -0.205  -1.387   1.372  0.00  0.00     0.024 A 
ENDROOT
BRANCH   1   9
ATOM      9  C   UNL d   1      -0.082   2.174  -0.037  0.00  0.00     0.164 C 
BRANCH   9  10
ATOM     10  N   UNL d   1      -1.402   2.764  -0.042  0.00  0.00    -0.357 N 
ATOM     11  C   UNL d   1      -1.552   4.129  -0.053  0.00  0.00     0.213 C 
ATOM     12  O   UNL d   1      -0.607   4.913  -0.054  0.00  0.00    -0.274 OA
ATOM     13  C   UNL d   1      -2.979   4.605  -0.062  0.00  0.00     0.117 C 
ATOM     14  H   UNL d   1      -2.216   2.164  -0.059  0.00  0.00     0.162 HD
ENDBRANCH   9  10
ENDBRANCH   1   9
TORSDOF 2
