REMARK  5 active torsions:
REMARK  status: ('A' for Active; 'I' for Inactive)
REMARK    1  A    between atoms: C_2  and  C_1 
REMARK    2  A    between atoms: C_6  and  C_1 
REMARK    3  A    between atoms: O_11  and  C_4 
REMARK    4  A    between atoms: O_12  and  C_5 
REMARK    5  A    between atoms: C_10  and  C_6 
ROOT
ATOM      1  C   UNL d   1       0.219   0.911   0.759  0.00  0.00     0.013 A 
ATOM      2  C   UNL d   1       0.571   2.254   0.547  0.00  0.00     0.054 A 
ATOM      3  C   UNL d   1      -0.153   3.300   1.143  0.00  0.00     0.102 A 
ATOM      4  C   UNL d   1      -1.257   2.981   1.953  0.00  0.00     0.101 A 
ATOM      5  C   UNL d   1      -0.860   0.599   1.581  0.00  0.00     0.018 A 
ATOM      6  C   UNL d   1      -1.594   1.633   2.162  0.00  0.00     0.040 A 
ENDROOT
BRANCH   1   7
ATOM      7  C   UNL d   1       1.002  -0.143   0.055  0.00  0.00     0.163 C 
ATOM      8  O   UNL d   1       1.492   0.120  -1.046  0.00  0.00    -0.292 OA
BRANCH   7   9
ATOM      9  C   UNL d   1       1.230  -1.479   0.732  0.00  0.00     0.122 C 
BRANCH   9  10
ATOM     10  C   UNL d   1       0.212  -2.551   0.423  0.00  0.00    -0.051 A 
ATOM     11  C   UNL d   1      -0.130  -2.877  -0.897  0.00  0.00     0.007 A 
ATOM     12  C   UNL d   1      -1.012  -3.928  -1.161  0.00  0.00     0.001 A 
ATOM     13  C   UNL d   1      -1.557  -4.667  -0.114  0.00  0.00     0.000 A 
ATOM     14  C   UNL d   1      -1.225  -4.354   1.202  0.00  0.00     0.001 A 
ATOM     15  C   UNL d   1      -0.343  -3.305   1.468  0.00  0.00     0.007 A 
ENDBRANCH   9  10
ENDBRANCH   7   9
ENDBRANCH   1   7
BRANCH   3  16
ATOM     16  O   UNL d   1       0.155   4.621   0.956  0.00  0.00    -0.353 OA
ATOM     17  C   UNL d   1       1.262   4.949   0.124  0.00  0.00     0.210 C 
ENDBRANCH   3  16
BRANCH   4  18
ATOM     18  O   UNL d   1      -2.136   3.827   2.578  0.00  0.00    -0.353 OA
ATOM     19  C   UNL d   1      -1.776   5.191   2.743  0.00  0.00     0.210 C 
ENDBRANCH   4  18
TORSDOF 5
