REMARK  3 active torsions:
REMARK  status: ('A' for Active; 'I' for Inactive)
REMARK    1  A    between atoms: C_7  and  C_1 
REMARK    2  A    between atoms: O_15  and  C_12 
REMARK    3  A    between atoms: O_17  and  C_14 
ROOT
ATOM      1  C   UNL d   1      -2.678  -0.490  -0.057  0.00  0.00     0.048 A 
ATOM      2  C   UNL d   1      -1.828   0.727  -0.054  0.00  0.00     0.197 A 
ATOM      3  C   UNL d   1      -0.371   0.504  -0.026  0.00  0.00     0.049 A 
ATOM      4  C   UNL d   1      -2.063  -1.683  -0.071  0.00  0.00     0.159 A 
ATOM      5  C   UNL d   1       0.116  -0.804  -0.045  0.00  0.00     0.091 A 
ATOM      6  O   UNL d   1      -0.707  -1.902  -0.078  0.00  0.00    -0.321 OA
ATOM      7  C   UNL d   1       0.514   1.586   0.016  0.00  0.00     0.021 A 
ATOM      8  C   UNL d   1       1.492  -1.041  -0.033  0.00  0.00     0.074 A 
ATOM      9  O   UNL d   1      -2.296   1.859  -0.080  0.00  0.00    -0.286 OA
ATOM     10  C   UNL d   1       2.366   0.043   0.002  0.00  0.00     0.068 A 
ATOM     11  C   UNL d   1       1.889   1.350   0.032  0.00  0.00     0.037 A 
ENDROOT
BRANCH   1  12
ATOM     12  C   UNL d   1      -4.142  -0.417  -0.052  0.00  0.00    -0.017 A 
ATOM     13  C   UNL d   1      -4.849  -0.387  -1.264  0.00  0.00     0.049 A 
ATOM     14  C   UNL d   1      -6.245  -0.362  -1.266  0.00  0.00     0.069 A 
ATOM     15  C   UNL d   1      -6.932  -0.359  -0.049  0.00  0.00     0.037 A 
ATOM     16  C   UNL d   1      -6.237  -0.380   1.160  0.00  0.00     0.004 A 
ATOM     17  C   UNL d   1      -4.843  -0.412   1.159  0.00  0.00     0.012 A 
BRANCH  14  18
ATOM     18  O   UNL d   1      -7.045  -0.350  -2.377  0.00  0.00    -0.356 OA
ATOM     19  C   UNL d   1      -6.386  -0.356  -3.638  0.00  0.00     0.210 C 
ENDBRANCH  14  18
ENDBRANCH   1  12
BRANCH  10  20
ATOM     20  O   UNL d   1       3.718  -0.135   0.005  0.00  0.00    -0.361 OA
ATOM     21  H   UNL d   1       3.914  -1.084  -0.067  0.00  0.00     0.217 HD
ENDBRANCH  10  20
TORSDOF 3
