REMARK  3 active torsions:
REMARK  status: ('A' for Active; 'I' for Inactive)
REMARK    1  A    between atoms: N_4  and  C_1 
REMARK    2  A    between atoms: S_12  and  C_1 
REMARK    3  A    between atoms: C_7  and  C_8 
REMARK       I    between atoms: N_15  and  C_7 
ROOT
ATOM      1  C   UNL d   1       0.956   0.001  -0.114  0.00  0.00     0.150 C 
ATOM      2  N   UNL d   1       0.572  -0.004  -1.358  0.00  0.00    -0.274 N 
ATOM      3  HN  UNL d   1      -0.145  -0.668  -1.650  1.00  0.00     0.180 HD
ATOM      4  C   UNL d   1       1.083   0.831  -2.260  0.00  0.00     0.183 C 
ATOM      5  N   UNL d   1       1.512   1.538  -3.074  0.00  0.00    -0.172 NA
ENDROOT
BRANCH   1   6
ATOM      6  N   UNL d   1       0.311  -0.819   0.813  0.00  0.00    -0.361 N 
ATOM      7  C   UNL d   1      -0.846  -1.638   0.415  0.00  0.00     0.126 C 
ATOM      8  C   UNL d   1      -2.076  -1.235   1.232  0.00  0.00     0.034 C 
ATOM      9  C   UNL d   1      -1.812  -1.329   2.740  0.00  0.00     0.081 C 
ATOM     10  C   UNL d   1      -0.540  -0.547   3.096  0.00  0.00     0.034 C 
ATOM     11  C   UNL d   1       0.655  -0.960   2.231  0.00  0.00     0.126 C 
BRANCH   9  12
ATOM     12  C   UNL d   1      -1.728  -2.775   3.221  0.00  0.00     0.219 C 
ATOM     13  O   UNL d   1      -0.758  -3.255   3.796  0.00  0.00    -0.273 OA
ATOM     14  N   UNL d   1      -2.832  -3.540   2.990  0.00  0.00    -0.370 N 
ATOM     15  H   UNL d   1      -3.729  -3.143   2.747  0.00  0.00     0.159 HD
ATOM     16  H   UNL d   1      -2.821  -4.476   3.379  0.00  0.00     0.159 HD
ENDBRANCH   9  12
ENDBRANCH   1   6
BRANCH   1  17
ATOM     17  S   UNL d   1       2.224   1.088   0.490  0.00  0.00    -0.098 SA
ATOM     18  C   UNL d   1       3.708   0.412  -0.293  0.00  0.00     0.099 C 
ENDBRANCH   1  17
TORSDOF 3
