REMARK  3 active torsions:
REMARK  status: ('A' for Active; 'I' for Inactive)
REMARK    1  A    between atoms: C_3  and  C_1 
REMARK    2  A    between atoms: C_2  and  C_3 
REMARK    3  A    between atoms: C_14  and  C_5 
ROOT
ATOM      1  C   UNL d   1       0.985  -0.006   0.020  0.00  0.00     0.097 C 
ATOM      2  C   UNL d   1       0.328  -0.783   0.908  0.00  0.00     0.038 C 
ATOM      3  C   UNL d   1       0.283   0.883  -0.838  0.00  0.00     0.103 C 
ATOM      4  N   UNL d   1      -0.318   1.595  -1.532  0.00  0.00    -0.191 NA
ENDROOT
BRANCH   1   5
ATOM      5  C   UNL d   1       2.492  -0.096  -0.010  0.00  0.00     0.219 C 
ATOM      6  O   UNL d   1       3.055  -0.426   1.036  0.00  0.00    -0.284 OA
BRANCH   5   7
ATOM      7  C   UNL d   1       3.249   0.178  -1.244  0.00  0.00     0.086 A 
ATOM      8  N   UNL d   1       4.638   0.168  -1.365  0.00  0.00    -0.358 N 
ATOM      9  C   UNL d   1       5.009   0.559  -2.632  0.00  0.00     0.091 A 
ATOM     10  C   UNL d   1       5.639  -0.200  -0.385  0.00  0.00     0.156 C 
ATOM     11  C   UNL d   1       3.876   0.745  -3.376  0.00  0.00     0.020 A 
ATOM     12  C   UNL d   1       2.784   0.464  -2.527  0.00  0.00     0.035 A 
ENDBRANCH   5   7
ENDBRANCH   1   5
BRANCH   2  13
ATOM     13  C   UNL d   1      -1.137  -0.890   0.983  0.00  0.00    -0.035 A 
ATOM     14  C   UNL d   1      -1.771  -1.937   0.303  0.00  0.00     0.013 A 
ATOM     15  C   UNL d   1      -3.164  -2.051   0.318  0.00  0.00     0.023 A 
ATOM     16  C   UNL d   1      -3.937  -1.117   1.015  0.00  0.00     0.044 A 
ATOM     17  C   UNL d   1      -5.368  -1.237   1.034  0.00  0.00     0.099 C 
ATOM     18  C   UNL d   1      -3.307  -0.068   1.692  0.00  0.00     0.023 A 
ATOM     19  N   UNL d   1      -6.521  -1.339   1.055  0.00  0.00    -0.191 NA
ATOM     20  C   UNL d   1      -1.909   0.047   1.676  0.00  0.00     0.013 A 
ENDBRANCH   2  13
TORSDOF 3
