REMARK  4 active torsions:
REMARK  status: ('A' for Active; 'I' for Inactive)
REMARK    1  A    between atoms: S_6  and  C_2 
REMARK    2  A    between atoms: C_11  and  C_5 
REMARK    3  A    between atoms: O_20  and  C_11 
REMARK    4  A    between atoms: C_21  and  O_20 
ROOT
ATOM      1  C   UNL d   1      -0.752  -0.550  -0.016  0.00  0.00     0.037 A 
ATOM      2  C   UNL d   1      -1.504  -1.694   0.083  0.00  0.00     0.114 A 
ATOM      3  C   UNL d   1      -1.520   0.663  -0.100  0.00  0.00    -0.019 A 
ATOM      4  S   UNL d   1      -3.164  -1.301   0.068  0.00  0.00    -0.071 SA
ATOM      5  C   UNL d   1      -2.880   0.394  -0.051  0.00  0.00     0.088 A 
ATOM      6  C   UNL d   1       0.725  -0.462  -0.023  0.00  0.00     0.119 A 
ATOM      7  C   UNL d   1       1.337   0.767   0.086  0.00  0.00    -0.004 A 
ATOM      8  N   UNL d   1       2.923  -0.853  -0.103  0.00  0.00    -0.271 N 
ATOM      9  HN  UNL d   1       3.824  -1.326  -0.177  1.00  0.00     0.194 HD
ATOM     10  O   UNL d   1       1.660  -1.438  -0.113  0.00  0.00    -0.237 OA
ATOM     11  C   UNL d   1      -0.836   2.011  -0.268  0.00  0.00     0.046 C 
ATOM     12  C   UNL d   1       0.605   2.047   0.298  0.00  0.00     0.048 C 
ATOM     13  C   UNL d   1       2.707   0.461   0.025  0.00  0.00     0.124 A 
ENDROOT
BRANCH   5  14
ATOM     14  C   UNL d   1      -3.978   1.353  -0.057  0.00  0.00     0.300 C 
ATOM     15  O   UNL d   1      -3.845   2.570  -0.130  0.00  0.00    -0.259 OA
BRANCH  14  16
ATOM     16  O   UNL d   1      -5.177   0.729   0.129  0.00  0.00    -0.317 OA
BRANCH  16  17
ATOM     17  C   UNL d   1      -6.249   1.565   0.587  0.00  0.00     0.174 C 
ATOM     18  C   UNL d   1      -6.209   1.585   2.104  0.00  0.00     0.034 C 
ENDBRANCH  16  17
ENDBRANCH  14  16
ENDBRANCH   5  14
BRANCH   2  19
ATOM     19  S   UNL d   1      -1.036  -3.396   0.258  0.00  0.00     0.179 S 
ATOM     20  O   UNL d   1      -0.367  -3.721  -0.988  0.00  0.00    -0.222 OA
ATOM     21  O   UNL d   1      -0.360  -3.454   1.540  0.00  0.00    -0.222 OA
ATOM     22  C   UNL d   1      -2.498  -4.383   0.365  0.00  0.00     0.167 C 
ENDBRANCH   2  19
TORSDOF 4
