REMARK  3 active torsions:
REMARK  status: ('A' for Active; 'I' for Inactive)
REMARK    1  A    between atoms: C_3  and  C_1 
REMARK    2  A    between atoms: N_4  and  C_2 
REMARK    3  A    between atoms: O_12  and  C_3 
REMARK       I    between atoms: C_7  and  N_4 
ROOT
ATOM      1  C   UNL d   1       2.497   0.128   0.202  0.00  0.00     0.066 A 
ATOM      2  C   UNL d   1       1.887  -1.143   0.240  0.00  0.00     0.052 A 
ATOM      3  C   UNL d   1       0.493  -1.228   0.120  0.00  0.00     0.054 A 
ATOM      4  C   UNL d   1       1.711   1.284   0.042  0.00  0.00     0.022 A 
ATOM      5  C   UNL d   1      -0.278  -0.075  -0.032  0.00  0.00     0.036 A 
ATOM      6  C   UNL d   1       0.324   1.179  -0.074  0.00  0.00     0.025 A 
ATOM      7 CL   UNL d   1      -1.988  -0.201  -0.177  0.00  0.00    -0.084 Cl
ENDROOT
BRANCH   2   8
ATOM      8  N   UNL d   1       2.686  -2.307   0.374  0.00  0.00    -0.326 N 
ATOM      9  C   UNL d   1       2.269  -3.526   0.869  0.00  0.00     0.218 C 
ATOM     10  O   UNL d   1       1.177  -3.757   1.380  0.00  0.00    -0.274 OA
ATOM     11  C   UNL d   1       3.306  -4.612   0.751  0.00  0.00     0.117 C 
ATOM     12  H   UNL d   1       3.690  -2.173   0.246  0.00  0.00     0.169 HD
ENDBRANCH   2   8
BRANCH   1  13
ATOM     13  C   UNL d   1       3.966   0.256   0.413  0.00  0.00     0.295 C 
ATOM     14  O   UNL d   1       4.763  -0.627   0.138  0.00  0.00    -0.259 OA
BRANCH  13  15
ATOM     15  O   UNL d   1       4.230   1.423   1.045  0.00  0.00    -0.322 OA
ATOM     16  C   UNL d   1       5.578   1.586   1.504  0.00  0.00     0.213 C 
ENDBRANCH  13  15
ENDBRANCH   1  13
TORSDOF 3
