REMARK  1 active torsions:
REMARK  status: ('A' for Active; 'I' for Inactive)
REMARK    1  A    between atoms: C_12  and  C_5 
ROOT
ATOM      1  C   UNL d   1       1.634  -1.870  -0.144  0.00  0.00     0.026 A 
ATOM      2  C   UNL d   1       1.701  -0.983   0.920  0.00  0.00     0.026 A 
ATOM      3  C   UNL d   1       2.631  -2.929   0.037  0.00  0.00     0.176 C 
ATOM      4  C   UNL d   1       2.749  -1.403   1.850  0.00  0.00     0.176 C 
ATOM      5  C   UNL d   1       3.188  -2.797   1.443  0.00  0.00     0.168 C 
ATOM      6  C   UNL d   1       0.644  -1.778  -1.105  0.00  0.00     0.028 A 
ATOM      7  C   UNL d   1       0.777   0.033   1.081  0.00  0.00     0.028 A 
ATOM      8  C   UNL d   1      -0.347  -0.796  -0.941  0.00  0.00    -0.025 A 
ATOM      9  C   UNL d   1      -0.281   0.114   0.161  0.00  0.00    -0.025 A 
ATOM     10  O   UNL d   1       2.848  -3.792  -0.793  0.00  0.00    -0.291 OA
ATOM     11  O   UNL d   1       3.097  -0.740   2.809  0.00  0.00    -0.291 OA
ATOM     12  C   UNL d   1      -1.439  -0.721  -1.819  0.00  0.00     0.012 A 
ATOM     13  C   UNL d   1      -1.307   1.052   0.337  0.00  0.00     0.012 A 
ATOM     14  C   UNL d   1      -2.461   0.206  -1.610  0.00  0.00     0.001 A 
ATOM     15  C   UNL d   1      -2.395   1.089  -0.535  0.00  0.00     0.001 A 
ENDROOT
BRANCH   5  16
ATOM     16  C   UNL d   1       4.633  -3.175   1.633  0.00  0.00    -0.039 A 
ATOM     17  C   UNL d   1       5.688  -2.259   1.560  0.00  0.00     0.008 A 
ATOM     18  C   UNL d   1       7.000  -2.669   1.823  0.00  0.00     0.001 A 
ATOM     19  C   UNL d   1       7.272  -3.997   2.151  0.00  0.00     0.000 A 
ATOM     20  C   UNL d   1       6.238  -4.925   2.197  0.00  0.00     0.001 A 
ATOM     21  C   UNL d   1       4.931  -4.518   1.932  0.00  0.00     0.008 A 
ENDBRANCH   5  16
TORSDOF 1
