REMARK  8 active torsions:
REMARK  status: ('A' for Active; 'I' for Inactive)
REMARK    1  A    between atoms: C_9  and  C_2 
REMARK       I    between atoms: C_3  and  N_4 
REMARK    2  A    between atoms: C_12  and  C_3 
REMARK    3  A    between atoms: N_4  and  C_9 
REMARK    4  A    between atoms: S_10  and  C_12 
REMARK    5  A    between atoms: C_14  and  S_10 
REMARK    6  A    between atoms: C_11  and  O_13 
REMARK    7  A    between atoms: O_13  and  C_15 
REMARK    8  A    between atoms: C_15  and  C_14 
ROOT
ATOM      1  C   UNL d   1       2.127   5.871   0.011  0.00  0.00     0.176 C 
ENDROOT
BRANCH   1   2
ATOM      2  S   UNL d   1       1.791   7.671   0.052  0.00  0.00    -0.158 SA
BRANCH   2   3
ATOM      3  C   UNL d   1       3.499   8.317  -0.101  0.00  0.00     0.101 C 
BRANCH   3   4
ATOM      4  C   UNL d   1       4.164   7.867  -1.397  0.00  0.00     0.186 C 
BRANCH   4   5
ATOM      5  O   UNL d   1       5.445   8.481  -1.551  0.00  0.00    -0.350 OA
BRANCH   5   6
ATOM      6  C   UNL d   1       6.132   8.100  -2.679  0.00  0.00     0.068 A 
ATOM      7  C   UNL d   1       5.671   7.205  -3.650  0.00  0.00     0.037 A 
ATOM      8  C   UNL d   1       6.457   6.900  -4.764  0.00  0.00     0.003 A 
ATOM      9  C   UNL d   1       7.708   7.488  -4.915  0.00  0.00     0.000 A 
ATOM     10  C   UNL d   1       8.178   8.377  -3.952  0.00  0.00     0.003 A 
ATOM     11  C   UNL d   1       7.392   8.681  -2.836  0.00  0.00     0.037 A 
ENDBRANCH   5   6
ENDBRANCH   4   5
ENDBRANCH   3   4
ENDBRANCH   2   3
ENDBRANCH   1   2
BRANCH   1  12
ATOM     12  C   UNL d   1       0.856   5.040   0.055  0.00  0.00     0.227 C 
ATOM     13  N   UNL d   1      -0.215   5.549  -0.641  0.00  0.00    -0.356 N 
ATOM     14  H   UNL d   1      -0.183   6.532  -0.894  0.00  0.00     0.162 HD
ATOM     15  O   UNL d   1       0.830   3.932   0.592  0.00  0.00    -0.273 OA
BRANCH  13  16
ATOM     16  C   UNL d   1      -1.480   4.859  -0.641  0.00  0.00     0.168 C 
BRANCH  16  17
ATOM     17  C   UNL d   1      -2.486   5.666  -1.393  0.00  0.00     0.000 A 
ATOM     18  S   UNL d   1      -2.674   5.464  -3.085  0.00  0.00    -0.105 SA
ATOM     19  C   UNL d   1      -3.948   6.603  -3.144  0.00  0.00     0.050 A 
ATOM     20  C   UNL d   1      -4.217   7.143  -1.907  0.00  0.00     0.008 A 
ATOM     21  C   UNL d   1      -3.367   6.608  -0.896  0.00  0.00     0.017 A 
ENDBRANCH  16  17
ENDBRANCH  13  16
ENDBRANCH   1  12
TORSDOF 8
