REMARK  4 active torsions:
REMARK  status: ('A' for Active; 'I' for Inactive)
REMARK    1  A    between atoms: S_3  and  C_1 
REMARK    2  A    between atoms: C_4  and  C_1 
REMARK    3  A    between atoms: N_5  and  C_2 
REMARK    4  A    between atoms: C_7  and  S_3 
ROOT
ATOM      1  C   UNL d   1       1.127  -0.009   0.213  0.00  0.00     0.066 C 
ATOM      2  C   UNL d   1       0.580   0.191  -1.007  0.00  0.00     0.107 C 
ENDROOT
BRANCH   1   3
ATOM      3  S   UNL d   1       0.151  -0.159   1.658  0.00  0.00    -0.086 SA
BRANCH   3   4
ATOM      4  C   UNL d   1      -1.260  -1.102   1.129  0.00  0.00     0.005 A 
ATOM      5  C   UNL d   1      -1.190  -2.493   1.001  0.00  0.00     0.020 A 
ATOM      6  C   UNL d   1      -2.339  -3.229   0.691  0.00  0.00     0.025 A 
ATOM      7  C   UNL d   1      -3.555  -2.573   0.508  0.00  0.00     0.034 A 
ATOM      8  C   UNL d   1      -3.634  -1.187   0.624  0.00  0.00     0.025 A 
ATOM      9 CL   UNL d   1      -4.974  -3.481   0.157  0.00  0.00    -0.084 Cl
ATOM     10  C   UNL d   1      -2.488  -0.454   0.941  0.00  0.00     0.020 A 
ENDBRANCH   3   4
ENDBRANCH   1   3
BRANCH   1  11
ATOM     11  C   UNL d   1       2.620  -0.105   0.433  0.00  0.00     0.163 C 
ATOM     12  O   UNL d   1       3.372  -0.581  -0.422  0.00  0.00    -0.292 OA
ATOM     13  C   UNL d   1       3.219   0.353   1.749  0.00  0.00     0.097 C 
ENDBRANCH   1  11
BRANCH   2  14
ATOM     14  N   UNL d   1       1.075   0.423  -2.286  0.00  0.00    -0.397 N 
ATOM     15  C   UNL d   1       2.318   1.137  -2.577  0.00  0.00     0.148 C 
ATOM     16  C   UNL d   1       0.291   0.095  -3.478  0.00  0.00     0.148 C 
ENDBRANCH   2  14
TORSDOF 4
