REMARK  4 active torsions:
REMARK  status: ('A' for Active; 'I' for Inactive)
REMARK    1  A    between atoms: C_5  and  C_1 
REMARK    2  A    between atoms: C_10  and  N_4 
REMARK    3  A    between atoms: C_13  and  C_5 
REMARK    4  A    between atoms: C_6  and  C_11 
ROOT
ATOM      1  C   UNL d   1       1.173   0.632  -0.056  0.00  0.00     0.150 C 
ATOM      2  N   UNL d   1       1.148  -0.653   0.171  0.00  0.00    -0.287 N 
ATOM      3  HN  UNL d   1       2.012  -1.165   0.346  1.00  0.00     0.188 HD
ATOM      4  N   UNL d   1      -0.058  -1.302   0.171  0.00  0.00    -0.267 N 
ATOM      5  C   UNL d   1      -0.099   1.420  -0.273  0.00  0.00     0.205 C 
ATOM      6  C   UNL d   1      -1.367   0.699  -0.094  0.00  0.00     0.076 C 
ATOM      7  C   UNL d   1      -1.254  -0.618   0.095  0.00  0.00     0.120 C 
ATOM      8  O   UNL d   1      -0.077   2.591  -0.614  0.00  0.00    -0.286 OA
ENDROOT
BRANCH   4   9
ATOM      9  C   UNL d   1       0.046  -2.727   0.252  0.00  0.00     0.056 A 
ATOM     10  C   UNL d   1       1.177  -3.326   0.840  0.00  0.00     0.032 A 
ATOM     11  C   UNL d   1       1.318  -4.716   0.920  0.00  0.00     0.018 A 
ATOM     12  C   UNL d   1       0.332  -5.557   0.397  0.00  0.00     0.048 A 
ATOM     13  C   UNL d   1      -0.794  -4.978  -0.205  0.00  0.00     0.018 A 
ATOM     14  C   UNL d   1      -0.934  -3.584  -0.274  0.00  0.00     0.032 A 
BRANCH  12  15
ATOM     15  C   UNL d   1       0.469  -7.058   0.464  0.00  0.00     0.417 C 
ATOM     16  F   UNL d   1       1.601  -7.477   1.093  0.00  0.00    -0.166 F 
ATOM     17  F   UNL d   1      -0.567  -7.645   1.129  0.00  0.00    -0.166 F 
ATOM     18  F   UNL d   1       0.493  -7.634  -0.770  0.00  0.00    -0.166 F 
ENDBRANCH  12  15
ENDBRANCH   4   9
BRANCH   1  19
ATOM     19  C   UNL d   1       2.538   1.270  -0.069  0.00  0.00     0.214 C 
ATOM     20  O   UNL d   1       2.705   2.297   0.578  0.00  0.00    -0.285 OA
BRANCH  19  21
ATOM     21  C   UNL d   1       3.673   0.597  -0.760  0.00  0.00     0.017 A 
ATOM     22  C   UNL d   1       3.482  -0.381  -1.746  0.00  0.00     0.015 A 
ATOM     23  C   UNL d   1       4.585  -1.040  -2.300  0.00  0.00     0.001 A 
ATOM     24  C   UNL d   1       5.875  -0.720  -1.883  0.00  0.00     0.000 A 
ATOM     25  C   UNL d   1       6.072   0.271  -0.923  0.00  0.00     0.001 A 
ATOM     26  C   UNL d   1       4.975   0.932  -0.368  0.00  0.00     0.015 A 
ENDBRANCH  19  21
ENDBRANCH   1  19
TORSDOF 4
