REMARK  6 active torsions:
REMARK  status: ('A' for Active; 'I' for Inactive)
REMARK    1  A    between atoms: C_2  and  C_1 
REMARK       I    between atoms: N_5  and  C_2 
REMARK    2  A    between atoms: C_4  and  N_6 
REMARK    3  A    between atoms: C_14  and  C_4 
REMARK    4  A    between atoms: N_6  and  N_5 
REMARK    5  A    between atoms: S_13  and  C_14 
REMARK    6  A    between atoms: C_15  and  S_13 
ROOT
ATOM      1  C   UNL d   1      -2.954   4.436  -0.077  0.00  0.00     0.099 C 
ATOM      2  N   UNL d   1      -2.647   5.687  -0.241  0.00  0.00    -0.387 N 
ATOM      3  HN  UNL d   1      -3.295   6.440  -0.472  1.00  0.00     0.157 HD
ATOM      4  H   UNL d   1      -1.638   5.779  -0.098  0.00  0.00     0.157 HD
ENDROOT
BRANCH   1   5
ATOM      5  N   UNL d   1      -2.003   3.460   0.109  0.00  0.00    -0.286 N 
ATOM      6  H   UNL d   1      -2.311   2.483   0.183  0.00  0.00     0.188 HD
BRANCH   5   7
ATOM      7  N   UNL d   1      -0.713   3.626  -0.420  0.00  0.00    -0.263 N 
ATOM      8  C   UNL d   1       0.112   2.505  -0.390  0.00  0.00     0.286 C 
ATOM      9  O   UNL d   1      -0.290   1.462   0.125  0.00  0.00    -0.264 OA
ATOM     10  H   UNL d   1      -0.567   4.371  -1.089  0.00  0.00     0.190 HD
BRANCH   8  11
ATOM     11  C   UNL d   1       1.424   2.663  -1.006  0.00  0.00     0.104 A 
ATOM     12  N   UNL d   1       2.428   1.704  -1.034  0.00  0.00    -0.357 N 
ATOM     13  C   UNL d   1       3.543   2.201  -1.669  0.00  0.00     0.091 A 
ATOM     14  C   UNL d   1       2.419   0.364  -0.480  0.00  0.00     0.156 C 
ATOM     15  C   UNL d   1       3.278   3.487  -2.065  0.00  0.00     0.020 A 
ATOM     16  C   UNL d   1       1.958   3.778  -1.653  0.00  0.00     0.037 A 
ENDBRANCH   8  11
ENDBRANCH   5   7
ENDBRANCH   1   5
BRANCH   1  17
ATOM     17  C   UNL d   1      -4.441   4.052  -0.107  0.00  0.00     0.156 C 
BRANCH  17  18
ATOM     18  S   UNL d   1      -4.734   2.527   0.856  0.00  0.00    -0.122 SA
BRANCH  18  19
ATOM     19  C   UNL d   1      -6.487   2.222   0.705  0.00  0.00     0.001 A 
ATOM     20  C   UNL d   1      -7.404   3.041   0.038  0.00  0.00     0.020 A 
ATOM     21  C   UNL d   1      -8.763   2.696  -0.009  0.00  0.00     0.025 A 
ATOM     22  C   UNL d   1      -9.211   1.532   0.610  0.00  0.00     0.034 A 
ATOM     23  C   UNL d   1      -8.314   0.707   1.278  0.00  0.00     0.025 A 
ATOM     24 CL   UNL d   1     -10.878   1.112   0.551  0.00  0.00    -0.084 Cl
ATOM     25  C   UNL d   1      -6.961   1.053   1.324  0.00  0.00     0.020 A 
ENDBRANCH  18  19
ENDBRANCH  17  18
ENDBRANCH   1  17
TORSDOF 6
