REMARK  5 active torsions:
REMARK  status: ('A' for Active; 'I' for Inactive)
REMARK    1  A    between atoms: C_6  and  S_1 
REMARK    2  A    between atoms: C_10  and  S_1 
REMARK    3  A    between atoms: C_7  and  C_2 
REMARK    4  A    between atoms: C_5  and  C_6 
REMARK       I    between atoms: N_14  and  C_7 
REMARK    5  A    between atoms: N_18  and  N_14 
ROOT
ATOM      1  C   UNL d   1       1.021   0.641   4.551  0.00  0.00     0.109 A 
ATOM      2  N   UNL d   1       0.277   0.537   3.368  0.00  0.00    -0.348 N 
ATOM      3  HN  UNL d   1      -0.595   0.017   3.269  1.00  0.00     0.166 HD
ATOM      4  C   UNL d   1       0.870   1.210   2.401  0.00  0.00     0.065 A 
ATOM      5  C   UNL d   1       2.140   1.446   4.450  0.00  0.00     0.086 A 
ATOM      6  S   UNL d   1       2.283   2.073   2.866  0.00  0.00    -0.085 SA
ENDROOT
BRANCH   4   7
ATOM      7  C   UNL d   1       0.363   1.296   1.007  0.00  0.00     0.210 C 
BRANCH   7   8
ATOM      8  S   UNL d   1       0.977  -0.090   0.080  0.00  0.00     0.181 S 
ATOM      9  O   UNL d   1       2.427  -0.114   0.160  0.00  0.00    -0.222 OA
ATOM     10  O   UNL d   1       0.327  -0.071  -1.221  0.00  0.00    -0.222 OA
BRANCH   8  11
ATOM     11  C   UNL d   1       0.360  -1.541   0.906  0.00  0.00     0.059 A 
ATOM     12  C   UNL d   1      -1.022  -1.750   0.969  0.00  0.00     0.025 A 
ATOM     13  C   UNL d   1      -1.516  -2.881   1.620  0.00  0.00     0.025 A 
ATOM     14  C   UNL d   1      -0.629  -3.800   2.185  0.00  0.00     0.034 A 
ATOM     15  C   UNL d   1       0.750  -3.600   2.101  0.00  0.00     0.025 A 
ATOM     16 CL   UNL d   1      -1.243  -5.193   2.986  0.00  0.00    -0.084 Cl
ATOM     17  C   UNL d   1       1.251  -2.466   1.458  0.00  0.00     0.025 A 
ENDBRANCH   8  11
ENDBRANCH   7   8
ENDBRANCH   4   7
BRANCH   1  18
ATOM     18  C   UNL d   1       0.634  -0.064   5.774  0.00  0.00     0.282 C 
ATOM     19  O   UNL d   1       1.287  -0.026   6.815  0.00  0.00    -0.265 OA
ATOM     20  N   UNL d   1      -0.540  -0.795   5.634  0.00  0.00    -0.288 N 
ATOM     21  H   UNL d   1      -1.058  -0.707   4.760  0.00  0.00     0.183 HD
BRANCH  20  22
ATOM     22  N   UNL d   1      -1.082  -1.512   6.724  0.00  0.00    -0.247 NA
ATOM     23  H   UNL d   1      -0.510  -1.286   7.551  0.00  0.00     0.143 HD
ATOM     24  H   UNL d   1      -0.909  -2.508   6.564  0.00  0.00     0.143 HD
ENDBRANCH  20  22
ENDBRANCH   1  18
TORSDOF 5
