REMARK  4 active torsions:
REMARK  status: ('A' for Active; 'I' for Inactive)
REMARK    1  A    between atoms: C_6  and  C_1 
REMARK    2  A    between atoms: C_2  and  C_5 
REMARK    3  A    between atoms: C_3  and  C_8 
REMARK    4  A    between atoms: C_8  and  C_4 
ROOT
ATOM      1  N   UNL d   1      -4.301  -0.912  -0.397  0.00  0.00    -0.196 NA
ATOM      2  C   UNL d   1      -2.832  -3.081  -0.024  0.00  0.00     0.158 C 
ATOM      3  C   UNL d   1      -3.659  -1.868  -0.241  0.00  0.00     0.073 C 
ENDROOT
BRANCH   2   4
ATOM      4  C   UNL d   1      -3.163  -3.808   1.282  0.00  0.00    -0.035 A 
ATOM      5  C   UNL d   1      -3.171  -5.216   1.313  0.00  0.00     0.025 A 
ATOM      6  C   UNL d   1      -3.401  -5.918   2.508  0.00  0.00     0.048 A 
ATOM      7  C   UNL d   1      -3.635  -5.194   3.685  0.00  0.00     0.016 A 
ATOM      8  C   UNL d   1      -3.630  -3.801   3.671  0.00  0.00     0.001 A 
ATOM      9  C   UNL d   1      -3.388  -3.112   2.482  0.00  0.00     0.009 A 
BRANCH   6  10
ATOM     10  C   UNL d   1      -3.382  -7.427   2.544  0.00  0.00     0.417 C 
ATOM     11  F   UNL d   1      -3.133  -7.994   1.329  0.00  0.00    -0.166 F 
ATOM     12  F   UNL d   1      -2.428  -7.917   3.384  0.00  0.00    -0.166 F 
ATOM     13  F   UNL d   1      -4.562  -7.955   2.967  0.00  0.00    -0.166 F 
ENDBRANCH   6  10
ENDBRANCH   2   4
BRANCH   2  14
ATOM     14  C   UNL d   1      -1.327  -2.821  -0.128  0.00  0.00    -0.035 A 
ATOM     15  C   UNL d   1      -0.731  -1.660   0.400  0.00  0.00     0.025 A 
ATOM     16  C   UNL d   1       0.661  -1.473   0.359  0.00  0.00     0.048 A 
ATOM     17  C   UNL d   1       1.465  -2.470  -0.211  0.00  0.00     0.016 A 
ATOM     18  C   UNL d   1       0.891  -3.626  -0.736  0.00  0.00     0.001 A 
ATOM     19  C   UNL d   1      -0.492  -3.801  -0.695  0.00  0.00     0.009 A 
BRANCH  16  20
ATOM     20  C   UNL d   1       1.298  -0.228   0.931  0.00  0.00     0.417 C 
ATOM     21  F   UNL d   1       0.401   0.651   1.456  0.00  0.00    -0.166 F 
ATOM     22  F   UNL d   1       2.006   0.469   0.000  0.00  0.00    -0.166 F 
ATOM     23  F   UNL d   1       2.175  -0.509   1.935  0.00  0.00    -0.166 F 
ENDBRANCH  16  20
ENDBRANCH   2  14
TORSDOF 4
