REMARK  3 active torsions:
REMARK  status: ('A' for Active; 'I' for Inactive)
REMARK    1  A    between atoms: C_3  and  C_1 
REMARK    2  A    between atoms: C_11  and  C_2 
REMARK    3  A    between atoms: O_15  and  C_11 
ROOT
ATOM      1  C   UNL d   1      -1.270  -0.903  -0.089  0.00  0.00     0.145 A 
ATOM      2  C   UNL d   1       0.037  -1.354   0.019  0.00  0.00     0.101 A 
ATOM      3  O   UNL d   1      -1.243   0.444  -0.317  0.00  0.00    -0.234 OA
ATOM      4  N   UNL d   1       0.051   0.911  -0.252  0.00  0.00    -0.264 N 
ATOM      5  HN  UNL d   1       0.359   1.880  -0.335  1.00  0.00     0.194 HD
ATOM      6  C   UNL d   1       0.820  -0.165  -0.057  0.00  0.00     0.048 A 
ATOM      7  C   UNL d   1       2.291   0.024  -0.001  0.00  0.00     0.071 C 
ENDROOT
BRANCH   1   8
ATOM      8  C   UNL d   1      -2.548  -1.665   0.034  0.00  0.00     0.094 A 
ATOM      9  N   UNL d   1      -3.697  -1.187  -0.460  0.00  0.00    -0.258 N 
ATOM     10  O   UNL d   1      -4.656  -2.149  -0.195  0.00  0.00    -0.242 OA
ATOM     11  HN  UNL d   1      -3.837  -0.295  -0.935  1.00  0.00     0.195 HD
ATOM     12  C   UNL d   1      -4.091  -3.164   0.512  0.00  0.00     0.074 A 
ATOM     13  C   UNL d   1      -2.760  -2.893   0.701  0.00  0.00     0.068 A 
ATOM     14  C   UNL d   1      -4.972  -4.275   0.906  0.00  0.00     0.079 C 
ENDBRANCH   1   8
BRANCH   2  15
ATOM     15  C   UNL d   1       0.465  -2.731   0.102  0.00  0.00     0.297 C 
ATOM     16  O   UNL d   1      -0.173  -3.667  -0.366  0.00  0.00    -0.259 OA
BRANCH  15  17
ATOM     17  O   UNL d   1       1.653  -2.889   0.753  0.00  0.00    -0.322 OA
ATOM     18  C   UNL d   1       2.084  -4.250   0.826  0.00  0.00     0.213 C 
ENDBRANCH  15  17
ENDBRANCH   2  15
TORSDOF 3
