REMARK  2 active torsions:
REMARK  status: ('A' for Active; 'I' for Inactive)
REMARK    1  A    between atoms: C_3  and  S_1 
REMARK    2  A    between atoms: C_7  and  S_1 
ROOT
ATOM      1  N   UNL d   1       1.062   2.452  -2.711  0.00  0.00    -0.196 NA
ATOM      2  C   UNL d   1       0.357   0.160  -1.679  0.00  0.00     0.269 C 
ATOM      3  C   UNL d   1       0.751   1.445  -2.226  0.00  0.00     0.074 C 
ENDROOT
BRANCH   2   4
ATOM      4  S   UNL d   1       0.845   0.102   0.018  0.00  0.00     0.187 S 
ATOM      5  O   UNL d   1       0.429  -1.192   0.529  0.00  0.00    -0.222 OA
ATOM      6  O   UNL d   1       0.406   1.310   0.691  0.00  0.00    -0.222 OA
BRANCH   4   7
ATOM      7  C   UNL d   1       2.625   0.098   0.015  0.00  0.00     0.060 A 
ATOM      8  C   UNL d   1       3.321   1.310   0.051  0.00  0.00     0.023 A 
ATOM      9  C   UNL d   1       4.714   1.300   0.131  0.00  0.00     0.002 A 
ATOM     10  C   UNL d   1       5.404   0.088   0.191  0.00  0.00     0.000 A 
ATOM     11  C   UNL d   1       4.705  -1.119   0.169  0.00  0.00     0.002 A 
ATOM     12  C   UNL d   1       3.312  -1.119   0.084  0.00  0.00     0.023 A 
ENDBRANCH   4   7
ENDBRANCH   2   4
TORSDOF 2
