REMARK  1 active torsions:
REMARK  status: ('A' for Active; 'I' for Inactive)
REMARK    1  A    between atoms: C_2  and  S_1 
ROOT
ATOM      1  C   UNL d   1       0.553  -1.047   1.228  0.00  0.00     0.065 A 
ATOM      2  C   UNL d   1       0.757  -2.460   1.246  0.00  0.00     0.031 A 
ATOM      3  C   UNL d   1      -0.043  -0.592   2.385  0.00  0.00     0.072 A 
ATOM      4  S   UNL d   1      -0.335  -1.862   3.494  0.00  0.00    -0.112 SA
ATOM      5  C   UNL d   1       0.320  -3.027   2.423  0.00  0.00     0.051 A 
ENDROOT
BRANCH   1   6
ATOM      6  S   UNL d   1       1.015  -0.021  -0.092  0.00  0.00     0.172 S 
ATOM      7  O   UNL d   1       0.148   1.133   0.013  0.00  0.00    -0.223 OA
ATOM      8  O   UNL d   1       1.024  -0.890  -1.250  0.00  0.00    -0.223 OA
ATOM      9  C   UNL d   1       2.678   0.452   0.301  0.00  0.00     0.167 C 
ENDBRANCH   1   6
TORSDOF 1
