REMARK  6 active torsions:
REMARK  status: ('A' for Active; 'I' for Inactive)
REMARK    1  A    between atoms: C_2  and  C_1 
REMARK    2  A    between atoms: C_8  and  C_2 
REMARK    3  A    between atoms: C_12  and  N_3 
REMARK    4  A    between atoms: C_13  and  C_8 
REMARK    5  A    between atoms: C_9  and  C_11 
REMARK    6  A    between atoms: N_15  and  C_10 
ROOT
ATOM      1  C   UNL d   1      -0.395  -2.994   0.389  0.00  0.00     0.077 C 
ATOM      2  C   UNL d   1       0.677  -3.813   0.372  0.00  0.00     0.104 C 
ENDROOT
BRANCH   1   3
ATOM      3  C   UNL d   1      -1.717  -3.422   0.158  0.00  0.00     0.154 A 
ATOM      4  N   UNL d   1      -2.571  -3.934   1.141  0.00  0.00    -0.224 N 
ATOM      5  N   UNL d   1      -3.733  -4.276   0.511  0.00  0.00     0.001 NA
ATOM      6  N   UNL d   1      -3.596  -3.949  -0.761  0.00  0.00    -0.007 NA
ATOM      7  N   UNL d   1      -2.365  -3.422  -0.997  0.00  0.00    -0.269 N 
ATOM      8  HN  UNL d   1      -2.008  -3.090  -1.893  1.00  0.00     0.185 HD
BRANCH   4   9
ATOM      9  C   UNL d   1      -2.438  -4.206   2.540  0.00  0.00     0.056 A 
ATOM     10  C   UNL d   1      -1.318  -3.833   3.290  0.00  0.00     0.031 A 
ATOM     11  C   UNL d   1      -1.215  -4.194   4.641  0.00  0.00     0.002 A 
ATOM     12  C   UNL d   1      -2.231  -4.915   5.262  0.00  0.00     0.000 A 
ATOM     13  C   UNL d   1      -3.369  -5.259   4.542  0.00  0.00     0.002 A 
ATOM     14  C   UNL d   1      -3.476  -4.903   3.194  0.00  0.00     0.031 A 
ENDBRANCH   4   9
ENDBRANCH   1   3
BRANCH   1  15
ATOM     15  C   UNL d   1      -0.169  -1.519   0.547  0.00  0.00     0.197 C 
ATOM     16  O   UNL d   1      -0.911  -0.854   1.265  0.00  0.00    -0.286 OA
BRANCH  15  17
ATOM     17  C   UNL d   1       0.982  -0.866  -0.160  0.00  0.00     0.015 A 
ATOM     18  C   UNL d   1       1.573  -1.411  -1.310  0.00  0.00     0.016 A 
ATOM     19  C   UNL d   1       2.703  -0.816  -1.881  0.00  0.00     0.017 A 
ATOM     20  C   UNL d   1       3.237   0.362  -1.341  0.00  0.00     0.048 A 
ATOM     21  C   UNL d   1       2.611   0.936  -0.223  0.00  0.00     0.017 A 
ATOM     22  C   UNL d   1       1.494   0.327   0.363  0.00  0.00     0.016 A 
BRANCH  20  23
ATOM     23  C   UNL d   1       4.450   1.020  -1.958  0.00  0.00     0.417 C 
ATOM     24  F   UNL d   1       4.988   0.309  -2.987  0.00  0.00    -0.166 F 
ATOM     25  F   UNL d   1       4.173   2.254  -2.460  0.00  0.00    -0.166 F 
ATOM     26  F   UNL d   1       5.459   1.196  -1.061  0.00  0.00    -0.166 F 
ENDBRANCH  20  23
ENDBRANCH  15  17
ENDBRANCH   1  15
BRANCH   2  27
ATOM     27  N   UNL d   1       0.891  -5.151   0.065  0.00  0.00    -0.398 N 
ATOM     28  C   UNL d   1       2.260  -5.649  -0.136  0.00  0.00     0.148 C 
ATOM     29  C   UNL d   1      -0.154  -6.072  -0.384  0.00  0.00     0.148 C 
ENDBRANCH   2  27
TORSDOF 6
