REMARK  7 active torsions:
REMARK  status: ('A' for Active; 'I' for Inactive)
REMARK    1  A    between atoms: C_6  and  C_1 
REMARK    2  A    between atoms: C_9  and  C_3 
REMARK    3  A    between atoms: S_10  and  C_5 
REMARK    4  A    between atoms: O_14  and  C_6 
REMARK    5  A    between atoms: C_19  and  S_10 
REMARK    6  A    between atoms: C_21  and  C_19 
REMARK    7  A    between atoms: C_22  and  C_21 
ROOT
ATOM      1  C   UNL d   1       1.344  -1.278   0.001  0.00  0.00     0.094 A 
ATOM      2  C   UNL d   1      -0.656  -0.051  -0.092  0.00  0.00     0.081 A 
ATOM      3  C   UNL d   1      -0.051  -1.371  -0.048  0.00  0.00     0.020 A 
ATOM      4  S   UNL d   1       1.869   0.357  -0.061  0.00  0.00    -0.075 SA
ATOM      5  C   UNL d   1       0.276   0.967  -0.087  0.00  0.00     0.063 A 
ATOM      6  C   UNL d   1      -2.072   0.209  -0.129  0.00  0.00     0.102 C 
ATOM      7  N   UNL d   1      -3.215   0.392  -0.133  0.00  0.00    -0.191 NA
ENDROOT
BRANCH   3   8
ATOM      8  C   UNL d   1      -0.767  -2.662  -0.043  0.00  0.00    -0.023 A 
ATOM      9  C   UNL d   1      -0.289  -3.765  -0.768  0.00  0.00     0.014 A 
ATOM     10  C   UNL d   1      -0.950  -4.997  -0.729  0.00  0.00     0.024 A 
ATOM     11  C   UNL d   1      -2.142  -5.120  -0.027  0.00  0.00     0.034 A 
ATOM     12  C   UNL d   1      -2.664  -4.029   0.658  0.00  0.00     0.024 A 
ATOM     13 CL   UNL d   1      -2.974  -6.624  -0.008  0.00  0.00    -0.084 Cl
ATOM     14  C   UNL d   1      -1.964  -2.817   0.674  0.00  0.00     0.014 A 
ENDBRANCH   3   8
BRANCH   5  15
ATOM     15  S   UNL d   1      -0.079   2.699  -0.034  0.00  0.00    -0.121 SA
BRANCH  15  16
ATOM     16  C   UNL d   1       0.696   3.335  -1.551  0.00  0.00     0.080 C 
BRANCH  16  17
ATOM     17  C   UNL d   1       0.096   2.733  -2.821  0.00  0.00     0.010 C 
BRANCH  17  18
ATOM     18  C   UNL d   1       0.766   3.314  -4.070  0.00  0.00    -0.004 C 
ATOM     19  C   UNL d   1       0.203   2.689  -5.338  0.00  0.00     0.005 C 
ENDBRANCH  17  18
ENDBRANCH  16  17
ENDBRANCH  15  16
ENDBRANCH   5  15
BRANCH   1  20
ATOM     20  C   UNL d   1       2.333  -2.345   0.166  0.00  0.00     0.300 C 
ATOM     21  O   UNL d   1       2.147  -3.377   0.796  0.00  0.00    -0.259 OA
BRANCH  20  22
ATOM     22  O   UNL d   1       3.469  -2.105  -0.559  0.00  0.00    -0.322 OA
ATOM     23  C   UNL d   1       4.377  -3.214  -0.556  0.00  0.00     0.213 C 
ENDBRANCH  20  22
ENDBRANCH   1  20
TORSDOF 7
