REMARK  7 active torsions:
REMARK  status: ('A' for Active; 'I' for Inactive)
REMARK    1  A    between atoms: C_6  and  C_1 
REMARK    2  A    between atoms: S_22  and  C_2 
REMARK    3  A    between atoms: C_18  and  C_4 
REMARK       I    between atoms: C_10  and  N_7 
REMARK    4  A    between atoms: C_11  and  C_10 
REMARK    5  A    between atoms: C_12  and  C_15 
REMARK    6  A    between atoms: C_13  and  C_16 
REMARK    7  A    between atoms: O_32  and  C_18 
ROOT
ATOM      1  C   UNL d   1       1.468   2.501  -0.020  0.00  0.00     0.062 A 
ATOM      2  N   UNL d   1       2.283   4.391   0.542  0.00  0.00    -0.231 N 
ATOM      3  N   UNL d   1       1.249   3.545   0.782  0.00  0.00    -0.291 N 
ATOM      4  HN  UNL d   1       0.475   3.678   1.433  1.00  0.00     0.187 HD
ATOM      5  C   UNL d   1       2.447   5.563   1.311  0.00  0.00     0.276 C 
ATOM      6  C   UNL d   1       2.587   2.702  -0.854  0.00  0.00     0.051 A 
ATOM      7  C   UNL d   1       3.085   3.928  -0.481  0.00  0.00     0.122 A 
ATOM      8  O   UNL d   1       3.490   6.198   1.159  0.00  0.00    -0.265 OA
ENDROOT
BRANCH   5   9
ATOM      9  C   UNL d   1       1.438   6.075   2.279  0.00  0.00     0.035 A 
ATOM     10  C   UNL d   1       1.868   6.710   3.453  0.00  0.00     0.033 A 
ATOM     11  C   UNL d   1       0.933   7.235   4.361  0.00  0.00     0.049 A 
ATOM     12  C   UNL d   1      -0.437   7.123   4.065  0.00  0.00     0.032 A 
ATOM     13  C   UNL d   1      -0.882   6.509   2.883  0.00  0.00     0.049 A 
ATOM     14  C   UNL d   1       0.071   5.991   1.994  0.00  0.00     0.033 A 
BRANCH  11  15
ATOM     15  C   UNL d   1       1.371   7.920   5.635  0.00  0.00     0.417 C 
ATOM     16  F   UNL d   1       2.722   7.995   5.781  0.00  0.00    -0.166 F 
ATOM     17  F   UNL d   1       0.912   9.200   5.715  0.00  0.00    -0.166 F 
ATOM     18  F   UNL d   1       0.907   7.287   6.747  0.00  0.00    -0.166 F 
ENDBRANCH  11  15
BRANCH  13  19
ATOM     19  C   UNL d   1      -2.356   6.422   2.568  0.00  0.00     0.417 C 
ATOM     20  F   UNL d   1      -2.623   5.843   1.365  0.00  0.00    -0.166 F 
ATOM     21  F   UNL d   1      -3.045   5.704   3.495  0.00  0.00    -0.166 F 
ATOM     22  F   UNL d   1      -2.944   7.649   2.528  0.00  0.00    -0.166 F 
ENDBRANCH  13  19
ENDBRANCH   5   9
BRANCH   1  23
ATOM     23  C   UNL d   1       0.619   1.294  -0.011  0.00  0.00     0.023 A 
ATOM     24  C   UNL d   1       0.315   0.557   1.127  0.00  0.00     0.054 A 
ATOM     25  S   UNL d   1      -0.675  -0.775   0.739  0.00  0.00    -0.076 SA
ATOM     26  C   UNL d   1      -0.724  -0.398  -0.930  0.00  0.00     0.088 A 
ATOM     27  C   UNL d   1      -0.002   0.763  -1.213  0.00  0.00    -0.024 A 
ATOM     28  C   UNL d   1       0.099   1.379  -2.580  0.00  0.00     0.050 C 
BRANCH  24  29
ATOM     29  S   UNL d   1       0.899   0.887   2.771  0.00  0.00    -0.126 SA
ATOM     30  C   UNL d   1       0.035  -0.302   3.816  0.00  0.00     0.096 C 
ENDBRANCH  24  29
BRANCH  26  31
ATOM     31  C   UNL d   1      -1.490  -1.298  -1.789  0.00  0.00     0.300 C 
ATOM     32  O   UNL d   1      -2.151  -2.262  -1.423  0.00  0.00    -0.259 OA
BRANCH  31  33
ATOM     33  O   UNL d   1      -1.369  -0.927  -3.096  0.00  0.00    -0.322 OA
ATOM     34  C   UNL d   1      -2.107  -1.730  -4.016  0.00  0.00     0.213 C 
ENDBRANCH  31  33
ENDBRANCH  26  31
ENDBRANCH   1  23
TORSDOF 7
