REMARK  3 active torsions:
REMARK  status: ('A' for Active; 'I' for Inactive)
REMARK    1  A    between atoms: O_13  and  C_5 
REMARK    2  A    between atoms: C_11  and  C_7 
REMARK       I    between atoms: N_17  and  C_11 
REMARK    3  A    between atoms: C_18  and  O_13 
ROOT
ATOM      1  C   UNL d   1       0.086  -0.764   0.024  0.00  0.00     0.068 A 
ATOM      2  C   UNL d   1       0.130   0.621  -0.049  0.00  0.00     0.137 A 
ATOM      3  N   UNL d   1       2.265  -0.121  -0.299  0.00  0.00    -0.301 N 
ATOM      4  HN  UNL d   1       3.276  -0.131  -0.436  1.00  0.00     0.187 HD
ATOM      5  C   UNL d   1      -1.163  -1.381   0.247  0.00  0.00     0.109 A 
ATOM      6  N   UNL d   1       1.446   0.950  -0.224  0.00  0.00    -0.280 N 
ATOM      7  C   UNL d   1      -2.263  -0.528   0.446  0.00  0.00     0.082 A 
ATOM      8  C   UNL d   1       1.440  -1.168  -0.151  0.00  0.00     0.039 A 
ATOM      9  N   UNL d   1      -0.908   1.475   0.056  0.00  0.00    -0.349 N 
ATOM     10  HN  UNL d   1      -0.819   2.487  -0.039  1.00  0.00     0.167 HD
ATOM     11  C   UNL d   1      -2.083   0.846   0.300  0.00  0.00     0.109 A 
ATOM     12  C   UNL d   1       2.006   2.277  -0.273  0.00  0.00     0.179 C 
ATOM     13  C   UNL d   1       1.987  -2.548  -0.171  0.00  0.00     0.071 C 
ENDROOT
BRANCH   5  14
ATOM     14  O   UNL d   1      -1.196  -2.749   0.380  0.00  0.00    -0.307 OA
BRANCH  14  15
ATOM     15  C   UNL d   1      -2.059  -3.487  -0.391  0.00  0.00     0.091 A 
ATOM     16  C   UNL d   1      -2.617  -3.109  -1.605  0.00  0.00     0.124 A 
ATOM     17  N   UNL d   1      -3.506  -3.869  -2.293  0.00  0.00    -0.373 N 
ATOM     18  C   UNL d   1      -3.844  -5.059  -1.750  0.00  0.00     0.088 A 
ATOM     19  HN  UNL d   1      -3.900  -3.556  -3.180  1.00  0.00     0.164 HD
ATOM     20  C   UNL d   1      -3.312  -5.541  -0.567  0.00  0.00     0.020 A 
ATOM     21  C   UNL d   1      -2.396  -4.744   0.114  0.00  0.00     0.040 A 
ENDBRANCH  14  15
ENDBRANCH   5  14
BRANCH   7  22
ATOM     22  C   UNL d   1      -3.619  -0.960   0.840  0.00  0.00     0.253 C 
ATOM     23  O   UNL d   1      -4.611  -0.380   0.418  0.00  0.00    -0.268 OA
ATOM     24  N   UNL d   1      -3.723  -1.982   1.736  0.00  0.00    -0.366 N 
ATOM     25  H   UNL d   1      -2.928  -2.495   2.092  0.00  0.00     0.159 HD
ATOM     26  H   UNL d   1      -4.653  -2.303   1.973  0.00  0.00     0.159 HD
ENDBRANCH   7  22
TORSDOF 3
