REMARK  3 active torsions:
REMARK  status: ('A' for Active; 'I' for Inactive)
REMARK    1  A    between atoms: C_7  and  C_1 
REMARK       I    between atoms: N_10  and  C_7 
REMARK       I    between atoms: C_8  and  N_11 
REMARK    2  A    between atoms: C_9  and  C_8 
REMARK    3  A    between atoms: N_11  and  N_10 
ROOT
ATOM      1  C   UNL d   1      -0.444  -2.546  -0.028  0.00  0.00     0.289 C 
ATOM      2  N   UNL d   1      -1.716  -3.087  -0.084  0.00  0.00    -0.262 N 
ATOM      3  O   UNL d   1       0.559  -3.261  -0.028  0.00  0.00    -0.264 OA
ATOM      4  H   UNL d   1      -2.542  -2.488  -0.081  0.00  0.00     0.190 HD
ENDROOT
BRANCH   1   5
ATOM      5  C   UNL d   1      -0.414  -1.075   0.021  0.00  0.00     0.137 A 
ATOM      6  N   UNL d   1      -1.556  -0.351   0.015  0.00  0.00    -0.292 N 
ATOM      7  N   UNL d   1      -1.144   0.931   0.099  0.00  0.00    -0.299 N 
ATOM      8  HN  UNL d   1      -2.514  -0.697  -0.041  1.00  0.00     0.187 HD
ATOM      9  C   UNL d   1      -2.127   1.990   0.174  0.00  0.00     0.177 C 
ATOM     10  C   UNL d   1       0.218   1.076   0.133  0.00  0.00     0.044 A 
ATOM     11  C   UNL d   1       0.707  -0.210   0.081  0.00  0.00     0.068 A 
ATOM     12  C   UNL d   1       0.892   2.396   0.227  0.00  0.00     0.071 C 
ATOM     13 BR   UNL d   1       2.513  -0.719   0.106  0.00  0.00    -0.046 Br
ENDBRANCH   1   5
BRANCH   2  14
ATOM     14  N   UNL d   1      -1.866  -4.476  -0.169  0.00  0.00    -0.263 N 
ATOM     15  C   UNL d   1      -3.041  -5.086   0.233  0.00  0.00     0.277 C 
ATOM     16  O   UNL d   1      -4.004  -4.423   0.627  0.00  0.00    -0.265 OA
ATOM     17  H   UNL d   1      -1.022  -5.020  -0.343  0.00  0.00     0.190 HD
BRANCH  15  18
ATOM     18  C   UNL d   1      -3.063  -6.542   0.145  0.00  0.00     0.074 A 
ATOM     19  S   UNL d   1      -1.774  -7.439  -0.551  0.00  0.00    -0.097 SA
ATOM     20  C   UNL d   1      -2.592  -8.924  -0.340  0.00  0.00     0.050 A 
ATOM     21  C   UNL d   1      -3.813  -8.757   0.272  0.00  0.00     0.009 A 
ATOM     22  C   UNL d   1      -4.081  -7.387   0.557  0.00  0.00     0.025 A 
ENDBRANCH  15  18
ENDBRANCH   2  14
TORSDOF 3
