REMARK  7 active torsions:
REMARK  status: ('A' for Active; 'I' for Inactive)
REMARK    1  A    between atoms: C_3  and  C_1 
REMARK    2  A    between atoms: S_4  and  C_1 
REMARK    3  A    between atoms: C_5  and  C_2 
REMARK    4  A    between atoms: O_13  and  C_3 
REMARK    5  A    between atoms: C_10  and  S_4 
REMARK    6  A    between atoms: O_14  and  C_5 
REMARK    7  A    between atoms: C_6  and  C_7 
ROOT
ATOM      1  S   UNL d   1       0.149   0.883  -1.220  0.00  0.00    -0.084 SA
ENDROOT
BRANCH   1   2
ATOM      2  C   UNL d   1       0.564   2.556  -1.667  0.00  0.00     0.085 C 
ATOM      3  C   UNL d   1      -0.388   3.512  -1.689  0.00  0.00     0.107 C 
BRANCH   3   4
ATOM      4  C   UNL d   1      -0.256   4.935  -2.032  0.00  0.00     0.166 C 
ATOM      5  O   UNL d   1       0.788   5.463  -2.365  0.00  0.00    -0.647 OA
BRANCH   4   6
ATOM      6  O   UNL d   1      -1.414   5.613  -1.935  0.00  0.00    -0.773 OA
ATOM      7  H   UNL d   1      -2.208   5.120  -1.658  0.00  0.00     0.167 HD
ENDBRANCH   4   6
ENDBRANCH   3   4
BRANCH   2   8
ATOM      8  C   UNL d   1       2.048   2.654  -1.979  0.00  0.00     0.183 C 
ATOM      9  O   UNL d   1       2.787   1.675  -1.963  0.00  0.00    -0.646 OA
BRANCH   8  10
ATOM     10  O   UNL d   1       2.582   3.853  -2.263  0.00  0.00    -0.772 OA
ATOM     11  H   UNL d   1       1.993   4.636  -2.331  0.00  0.00     0.167 HD
ENDBRANCH   8  10
ENDBRANCH   2   8
ENDBRANCH   1   2
BRANCH   1  12
ATOM     12  C   UNL d   1      -1.595   0.848  -0.904  0.00  0.00     0.005 A 
ATOM     13  C   UNL d   1      -2.493   0.514  -1.917  0.00  0.00     0.019 A 
ATOM     14  C   UNL d   1      -3.856   0.358  -1.633  0.00  0.00     0.009 A 
ATOM     15  C   UNL d   1      -4.360   0.515  -0.328  0.00  0.00    -0.051 A 
ATOM     16  C   UNL d   1      -3.444   0.886   0.671  0.00  0.00     0.009 A 
ATOM     17  C   UNL d   1      -2.080   1.042   0.389  0.00  0.00     0.019 A 
BRANCH  15  18
ATOM     18  C   UNL d   1      -5.847   0.240  -0.029  0.00  0.00    -0.024 C 
ATOM     19  C   UNL d   1      -6.215   0.394   1.464  0.00  0.00     0.019 C 
ATOM     20  C   UNL d   1      -6.733   1.217  -0.828  0.00  0.00     0.019 C 
ATOM     21  C   UNL d   1      -6.209  -1.207  -0.433  0.00  0.00     0.019 C 
ENDBRANCH  15  18
ENDBRANCH   1  12
TORSDOF 7
