REMARK  4 active torsions:
REMARK  status: ('A' for Active; 'I' for Inactive)
REMARK       I    between atoms: C_2  and  N_1 
REMARK       I    between atoms: C_3  and  N_1 
REMARK       I    between atoms: N_6  and  C_2 
REMARK    1  A    between atoms: C_4  and  C_3 
REMARK    2  A    between atoms: C_10  and  N_6 
REMARK    3  A    between atoms: C_18  and  C_10 
REMARK    4  A    between atoms: C_19  and  C_10 
ROOT
ATOM      1  C   UNL d   1       2.540  -0.579  -3.887  0.00  0.00    -0.086 C 
ATOM      2  C   UNL d   1       2.612  -1.119  -4.959  0.00  0.00     0.015 C 
ATOM      3  C   UNL d   1       2.431   0.028  -2.535  0.00  0.00     0.096 C 
ENDROOT
BRANCH   3   4
ATOM      4  N   UNL d   1       1.006   0.120  -2.208  0.00  0.00    -0.323 N 
ATOM      5  C   UNL d   1       0.534   0.507  -0.999  0.00  0.00     0.324 C 
ATOM      6  N   UNL d   1      -0.822   0.517  -0.826  0.00  0.00    -0.275 N 
ATOM      7  O   UNL d   1       1.231   0.824  -0.043  0.00  0.00    -0.247 OA
ATOM      8  C   UNL d   1      -1.866   0.293  -1.706  0.00  0.00     0.259 C 
ATOM      9  H   UNL d   1      -1.035   0.730   0.137  0.00  0.00     0.173 HD
ATOM     10  O   UNL d   1      -1.753  -0.068  -2.870  0.00  0.00    -0.267 OA
ATOM     11  H   UNL d   1       0.323  -0.037  -2.943  0.00  0.00     0.166 HD
BRANCH   8  12
ATOM     12  C   UNL d   1      -3.207   0.459  -1.075  0.00  0.00     0.034 A 
ATOM     13  C   UNL d   1      -3.427   1.481  -0.137  0.00  0.00     0.044 A 
ATOM     14  C   UNL d   1      -4.627   1.524   0.573  0.00  0.00     0.073 A 
ATOM     15 CL   UNL d   1      -4.847   2.736   1.774  0.00  0.00    -0.081 Cl
ATOM     16  C   UNL d   1      -5.612   0.572   0.326  0.00  0.00     0.138 A 
ATOM     17  C   UNL d   1      -5.424  -0.409  -0.646  0.00  0.00     0.045 A 
ATOM     18  F   UNL d   1      -6.754   0.574   1.028  0.00  0.00    -0.204 F 
ATOM     19  C   UNL d   1      -4.221  -0.465  -1.357  0.00  0.00     0.020 A 
ENDBRANCH   8  12
ENDBRANCH   3   4
BRANCH   3  20
ATOM     20  C   UNL d   1       3.103   1.433  -2.518  0.00  0.00     0.040 C 
ATOM     21  C   UNL d   1       2.582   2.428  -3.550  0.00  0.00     0.009 C 
ENDBRANCH   3  20
BRANCH   3  22
ATOM     22  C   UNL d   1       3.212  -0.877  -1.533  0.00  0.00     0.040 C 
ATOM     23  C   UNL d   1       2.626  -2.271  -1.318  0.00  0.00     0.009 C 
ENDBRANCH   3  22
TORSDOF 4
