REMARK  2 active torsions:
REMARK  status: ('A' for Active; 'I' for Inactive)
REMARK    1  A    between atoms: N_18  and  C_10 
REMARK    2  A    between atoms: C_11  and  N_18 
ROOT
ATOM      1  S   UNL d   1      -1.018  -1.453   0.058  0.00  0.00     0.270 S 
ATOM      2  C   UNL d   1      -1.711  -0.205   2.287  0.00  0.00     0.101 A 
ATOM      3  N   UNL d   1      -1.429  -1.481   1.693  0.00  0.00    -0.269 N 
ATOM      4  C   UNL d   1      -1.999   0.955   1.568  0.00  0.00     0.057 A 
ATOM      5  C   UNL d   1      -2.095  -0.283  -0.553  0.00  0.00     0.146 C 
ATOM      6  C   UNL d   1      -2.037   1.020   0.101  0.00  0.00     0.210 C 
ATOM      7  S   UNL d   1      -1.782   0.046   3.968  0.00  0.00    -0.075 SA
ATOM      8  C   UNL d   1      -2.332   2.056   2.464  0.00  0.00    -0.032 A 
ATOM      9  C   UNL d   1      -2.221   1.679   3.793  0.00  0.00    -0.012 A 
ATOM     10  C   UNL d   1      -3.089  -0.594  -1.394  0.00  0.00     0.135 C 
ATOM     11  O   UNL d   1      -1.329  -2.761  -0.488  0.00  0.00    -0.200 OA
ATOM     12  O   UNL d   1       0.341  -0.953  -0.033  0.00  0.00    -0.200 OA
ATOM     13  O   UNL d   1      -2.135   2.058  -0.549  0.00  0.00    -0.286 OA
ATOM     14  C   UNL d   1      -1.148  -2.720   2.421  0.00  0.00     0.170 C 
ATOM     15  C   UNL d   1      -2.782   3.430   2.057  0.00  0.00     0.050 C 
ATOM     16  C   UNL d   1      -2.465   2.518   5.006  0.00  0.00     0.057 C 
ENDROOT
BRANCH  10  17
ATOM     17  N   UNL d   1      -4.054   0.246  -1.888  0.00  0.00    -0.200 N 
ATOM     18  H   UNL d   1      -3.876   1.246  -1.898  0.00  0.00     0.183 HD
BRANCH  17  19
ATOM     19  C   UNL d   1      -5.135  -0.108  -2.684  0.00  0.00     0.682 A 
ATOM     20  N   UNL d   1      -5.612  -1.362  -2.648  0.00  0.00    -0.196 N 
ATOM     21  C   UNL d   1      -6.668  -1.649  -3.432  0.00  0.00     0.024 A 
ATOM     22  HN  UNL d   1      -5.189  -2.072  -2.049  1.00  0.00     0.184 HD
ATOM     23  C   UNL d   1      -7.228  -3.037  -3.348  0.00  0.00     0.068 C 
ATOM     24  C   UNL d   1      -7.222  -0.720  -4.287  0.00  0.00     0.050 A 
ATOM     25  C   UNL d   1      -6.663   0.541  -4.267  0.00  0.00     0.024 A 
ATOM     26  N   UNL d   1      -5.645   0.865  -3.448  0.00  0.00    -0.196 N 
ATOM     27  C   UNL d   1      -7.158   1.611  -5.191  0.00  0.00     0.068 C 
ATOM     28  HN  UNL d   1      -5.276   1.816  -3.411  1.00  0.00     0.184 HD
ENDBRANCH  17  19
ENDBRANCH  10  17
TORSDOF 2
