REMARK  2 active torsions:
REMARK  status: ('A' for Active; 'I' for Inactive)
REMARK    1  A    between atoms: C_7  and  C_3 
REMARK    2  A    between atoms: C_8  and  N_4 
ROOT
ATOM      1  N   UNL d   1      -1.375  -0.698  -0.104  0.00  0.00    -0.290 N 
ATOM      2  HN  UNL d   1      -2.135  -1.364  -0.246  1.00  0.00     0.187 HD
ATOM      3  C   UNL d   1      -1.480   0.597  -0.019  0.00  0.00     0.118 A 
ATOM      4  N   UNL d   1      -0.031  -0.992   0.037  0.00  0.00    -0.224 N 
ATOM      5  C   UNL d   1       0.778   0.142   0.209  0.00  0.00     0.248 A 
ATOM      6  C   UNL d   1      -0.174   1.296   0.157  0.00  0.00     0.168 A 
ATOM      7  O   UNL d   1       1.982   0.256   0.369  0.00  0.00    -0.271 OA
ENDROOT
BRANCH   4   8
ATOM      8  C   UNL d   1       0.365  -2.353   0.070  0.00  0.00     0.059 A 
ATOM      9  C   UNL d   1       1.681  -2.734   0.366  0.00  0.00     0.031 A 
ATOM     10  C   UNL d   1       2.041  -4.084   0.438  0.00  0.00     0.002 A 
ATOM     11  C   UNL d   1       1.094  -5.076   0.202  0.00  0.00     0.000 A 
ATOM     12  C   UNL d   1      -0.213  -4.719  -0.111  0.00  0.00     0.002 A 
ATOM     13  C   UNL d   1      -0.574  -3.369  -0.174  0.00  0.00     0.031 A 
ENDBRANCH   4   8
BRANCH   3  14
ATOM     14  C   UNL d   1      -2.754   1.378  -0.073  0.00  0.00     0.430 C 
ATOM     15  F   UNL d   1      -2.539   2.711   0.100  0.00  0.00    -0.165 F 
ATOM     16  F   UNL d   1      -3.397   1.247  -1.263  0.00  0.00    -0.165 F 
ATOM     17  F   UNL d   1      -3.633   1.006   0.895  0.00  0.00    -0.165 F 
ENDBRANCH   3  14
TORSDOF 2
