REMARK  2 active torsions:
REMARK  status: ('A' for Active; 'I' for Inactive)
REMARK    1  A    between atoms: C_9  and  C_6 
REMARK    2  A    between atoms: C_12  and  C_8 
ROOT
ATOM      1  C   UNL d   1      -1.010  -2.940  -0.312  0.00  0.00     0.045 A 
ATOM      2  C   UNL d   1       0.463  -2.841  -0.008  0.00  0.00     0.257 A 
ATOM      3  N   UNL d   1       1.006  -4.024  -0.477  0.00  0.00    -0.322 N 
ATOM      4  C   UNL d   1      -1.222  -4.207  -1.012  0.00  0.00     0.006 A 
ATOM      5  C   UNL d   1       0.032  -4.828  -1.066  0.00  0.00     0.046 A 
ATOM      6  C   UNL d   1      -1.847  -1.985   0.115  0.00  0.00     0.029 C 
ATOM      7  O   UNL d   1       1.048  -1.928   0.546  0.00  0.00    -0.267 OA
ATOM      8  C   UNL d   1      -2.323  -4.817  -1.585  0.00  0.00     0.015 A 
ATOM      9  C   UNL d   1       0.228  -6.066  -1.644  0.00  0.00     0.030 A 
ATOM     10  C   UNL d   1      -2.147  -6.070  -2.186  0.00  0.00     0.001 A 
ATOM     11  C   UNL d   1      -0.885  -6.691  -2.208  0.00  0.00     0.002 A 
ATOM     12  H   UNL d   1       1.986  -4.243  -0.399  0.00  0.00     0.169 HD
ENDROOT
BRANCH   6  13
ATOM     13  C   UNL d   1      -3.304  -2.012   0.008  0.00  0.00    -0.035 A 
ATOM     14  C   UNL d   1      -4.059  -2.552   1.053  0.00  0.00     0.012 A 
ATOM     15  C   UNL d   1      -5.454  -2.543   0.994  0.00  0.00     0.008 A 
ATOM     16  C   UNL d   1      -6.124  -1.997  -0.111  0.00  0.00    -0.055 A 
ATOM     17  C   UNL d   1      -5.357  -1.477  -1.165  0.00  0.00     0.008 A 
ATOM     18  C   UNL d   1      -3.958  -1.484  -1.107  0.00  0.00     0.012 A 
BRANCH  16  19
ATOM     19  C   UNL d   1      -7.642  -1.948  -0.168  0.00  0.00     0.010 C 
ATOM     20  C   UNL d   1      -8.255  -3.350  -0.108  0.00  0.00     0.015 C 
ATOM     21  C   UNL d   1      -8.222  -1.065   0.941  0.00  0.00     0.015 C 
ENDBRANCH  16  19
ENDBRANCH   6  13
TORSDOF 2
