REMARK  4 active torsions:
REMARK  status: ('A' for Active; 'I' for Inactive)
REMARK    1  A    between atoms: N_4  and  C_1 
REMARK    2  A    between atoms: N_5  and  C_2 
REMARK    3  A    between atoms: N_10  and  C_3 
REMARK    4  A    between atoms: C_6  and  C_7 
ROOT
ATOM      1  C   UNL d   1       1.342  -0.253   0.056  0.00  0.00     0.132 A 
ATOM      2  C   UNL d   1      -0.863  -1.093   0.104  0.00  0.00     0.132 A 
ATOM      3  C   UNL d   1       0.521  -1.410   0.017  0.00  0.00     0.097 A 
ATOM      4  C   UNL d   1      -0.524   1.322   0.220  0.00  0.00     0.052 A 
ATOM      5  C   UNL d   1      -1.379   0.222   0.207  0.00  0.00     0.054 A 
ATOM      6  C   UNL d   1       0.846   1.073   0.145  0.00  0.00     0.054 A 
ENDROOT
BRANCH   3   7
ATOM      7  N   UNL d   1       0.970  -2.724  -0.153  0.00  0.00    -0.375 N 
ATOM      8  C   UNL d   1       2.219  -3.048  -0.884  0.00  0.00     0.133 C 
ATOM      9  C   UNL d   1       2.079  -4.320  -1.728  0.00  0.00     0.093 C 
ATOM     10  S   UNL d   1       1.680  -5.789  -0.729  0.00  0.00    -0.166 SA
ATOM     11  C   UNL d   1       0.246  -5.092   0.156  0.00  0.00     0.093 C 
ATOM     12  C   UNL d   1       0.594  -3.762   0.845  0.00  0.00     0.133 C 
ENDBRANCH   3   7
BRANCH   2  13
ATOM     13  N   UNL d   1      -1.887  -2.124   0.026  0.00  0.00    -0.113 N 
ATOM     14  O   UNL d   1      -1.988  -2.758  -1.031  0.00  0.00    -0.532 OA
ATOM     15  O   UNL d   1      -2.618  -2.252   1.019  0.00  0.00    -0.532 OA
ENDBRANCH   2  13
BRANCH   1  16
ATOM     16  N   UNL d   1       2.791  -0.332   0.081  0.00  0.00    -0.113 N 
ATOM     17  O   UNL d   1       3.317  -0.841   1.079  0.00  0.00    -0.532 OA
ATOM     18  O   UNL d   1       3.395   0.165  -0.881  0.00  0.00    -0.532 OA
ENDBRANCH   1  16
BRANCH   4  19
ATOM     19  C   UNL d   1      -1.046   2.736   0.315  0.00  0.00     0.417 C 
ATOM     20  F   UNL d   1      -2.402   2.806   0.379  0.00  0.00    -0.166 F 
ATOM     21  F   UNL d   1      -0.579   3.380   1.417  0.00  0.00    -0.166 F 
ATOM     22  F   UNL d   1      -0.677   3.492  -0.753  0.00  0.00    -0.166 F 
ENDBRANCH   4  19
TORSDOF 4
