REMARK  4 active torsions:
REMARK  status: ('A' for Active; 'I' for Inactive)
REMARK    1  A    between atoms: C_11  and  C_6 
REMARK    2  A    between atoms: C_12  and  C_8 
REMARK    3  A    between atoms: O_15  and  C_11 
REMARK    4  A    between atoms: C_19  and  O_15 
ROOT
ATOM      1  N   UNL d   1      -0.276  -0.603   0.013  0.00  0.00    -0.203 N 
ATOM      2  C   UNL d   1      -0.216   0.776   0.011  0.00  0.00     0.132 A 
ATOM      3  N   UNL d   1      -1.554  -1.054  -0.005  0.00  0.00    -0.293 N 
ATOM      4  HN  UNL d   1      -1.871  -2.023  -0.014  1.00  0.00     0.187 HD
ATOM      5  C   UNL d   1       0.837  -1.466   0.017  0.00  0.00     0.285 A 
ATOM      6  C   UNL d   1       2.146  -0.748   0.037  0.00  0.00     0.124 A 
ATOM      7  C   UNL d   1      -1.508   1.229  -0.009  0.00  0.00     0.077 A 
ATOM      8  C   UNL d   1      -2.310   0.053  -0.008  0.00  0.00     0.037 A 
ATOM      9  C   UNL d   1       2.143   0.600   0.028  0.00  0.00     0.113 A 
ATOM     10  N   UNL d   1       0.998   1.370   0.024  0.00  0.00    -0.350 N 
ATOM     11  O   UNL d   1       0.682  -2.677  -0.029  0.00  0.00    -0.265 OA
ATOM     12  H   UNL d   1       1.116   2.382  -0.002  0.00  0.00     0.166 HD
ENDROOT
BRANCH   6  13
ATOM     13  C   UNL d   1       3.446  -1.442  -0.026  0.00  0.00     0.300 C 
ATOM     14  O   UNL d   1       4.481  -0.913  -0.404  0.00  0.00    -0.259 OA
BRANCH  13  15
ATOM     15  O   UNL d   1       3.308  -2.739   0.329  0.00  0.00    -0.318 OA
BRANCH  15  16
ATOM     16  C   UNL d   1       4.290  -3.645  -0.187  0.00  0.00     0.174 C 
ATOM     17  C   UNL d   1       3.848  -4.080  -1.574  0.00  0.00     0.034 C 
ENDBRANCH  15  16
ENDBRANCH  13  15
ENDBRANCH   6  13
BRANCH   8  18
ATOM     18  C   UNL d   1      -3.829  -0.045   0.012  0.00  0.00    -0.007 C 
ATOM     19  C   UNL d   1      -4.314  -1.513   0.011  0.00  0.00     0.021 C 
ATOM     20  C   UNL d   1      -4.377   0.637   1.281  0.00  0.00     0.021 C 
ATOM     21  C   UNL d   1      -4.430   0.650  -1.225  0.00  0.00     0.021 C 
ENDBRANCH   8  18
TORSDOF 4
