REMARK  3 active torsions:
REMARK  status: ('A' for Active; 'I' for Inactive)
REMARK       I    between atoms: C_2  and  N_4 
REMARK    1  A    between atoms: C_3  and  C_2 
REMARK    2  A    between atoms: N_4  and  N_6 
REMARK    3  A    between atoms: N_6  and  C_5 
ROOT
ATOM      1  C   UNL d   1       1.268   0.950   1.237  0.00  0.00     0.111 C 
ATOM      2  C   UNL d   1       0.105   1.440   0.596  0.00  0.00     0.074 C 
ATOM      3  C   UNL d   1       2.520   1.642   1.249  0.00  0.00     0.105 C 
ATOM      4  N   UNL d   1       3.534   2.211   1.283  0.00  0.00    -0.191 NA
ATOM      5  C   UNL d   1       1.241  -0.284   1.906  0.00  0.00     0.139 C 
ATOM      6  F   UNL d   1       2.320  -0.706   2.587  0.00  0.00    -0.204 F 
ATOM      7  C   UNL d   1      -0.982   0.531   0.515  0.00  0.00     0.033 C 
ATOM      8  C   UNL d   1      -0.986  -0.708   1.163  0.00  0.00     0.005 C 
ATOM      9  C   UNL d   1       0.120  -1.101   1.897  0.00  0.00     0.044 C 
ENDROOT
BRANCH   2  10
ATOM     10  N   UNL d   1      -0.035   2.738   0.027  0.00  0.00    -0.292 N 
ATOM     11  C   UNL d   1      -1.402   3.269  -0.117  0.00  0.00     0.178 C 
BRANCH  10  12
ATOM     12  N   UNL d   1       0.893   3.716   0.440  0.00  0.00    -0.264 N 
ATOM     13  C   UNL d   1       1.231   4.742  -0.433  0.00  0.00     0.271 C 
ATOM     14  O   UNL d   1       0.898   4.763  -1.617  0.00  0.00    -0.266 OA
ATOM     15  H   UNL d   1       1.036   3.822   1.440  0.00  0.00     0.190 HD
BRANCH  13  16
ATOM     16  C   UNL d   1       2.005   5.899   0.121  0.00  0.00     0.055 A 
ATOM     17  C   UNL d   1       2.080   6.271   1.473  0.00  0.00     0.049 A 
ATOM     18 CL   UNL d   1       1.293   5.428   2.764  0.00  0.00    -0.083 Cl
ATOM     19  C   UNL d   1       2.791   7.423   1.848  0.00  0.00     0.025 A 
ATOM     20  C   UNL d   1       3.425   8.214   0.890  0.00  0.00     0.002 A 
ATOM     21  C   UNL d   1       3.361   7.855  -0.450  0.00  0.00     0.001 A 
ATOM     22  C   UNL d   1       2.658   6.709  -0.830  0.00  0.00     0.019 A 
ENDBRANCH  13  16
ENDBRANCH  10  12
ENDBRANCH   2  10
TORSDOF 3
