REMARK  4 active torsions:
REMARK  status: ('A' for Active; 'I' for Inactive)
REMARK    1  A    between atoms: N_2  and  S_1 
REMARK    2  A    between atoms: C_4  and  S_1 
REMARK    3  A    between atoms: C_6  and  C_9 
REMARK    4  A    between atoms: C_7  and  C_10 
ROOT
ATOM      1  C   UNL d   1       0.452   1.402   0.921  0.00  0.00     0.076 A 
ATOM      2  C   UNL d   1       0.469   2.715   2.960  0.00  0.00     0.050 A 
ATOM      3  C   UNL d   1      -0.387   3.687   0.875  0.00  0.00     0.050 A 
ATOM      4  C   UNL d   1       0.757   1.518   2.281  0.00  0.00     0.041 A 
ATOM      5  C   UNL d   1      -0.123   2.474   0.224  0.00  0.00     0.041 A 
ATOM      6  C   UNL d   1      -0.106   3.788   2.247  0.00  0.00     0.032 A 
ENDROOT
BRANCH   1   7
ATOM      7  S   UNL d   1       0.965  -0.024  -0.008  0.00  0.00     0.244 S 
ATOM      8  O   UNL d   1       0.369   0.070  -1.323  0.00  0.00    -0.206 OA
ATOM      9  O   UNL d   1       2.405  -0.101   0.134  0.00  0.00    -0.206 OA
BRANCH   7  10
ATOM     10  N   UNL d   1       0.306  -1.399   0.743  0.00  0.00    -0.198 NA
ATOM     11  C   UNL d   1      -1.150  -1.415   1.130  0.00  0.00     0.104 C 
ATOM     12  C   UNL d   1      -1.476  -2.765   1.759  0.00  0.00    -0.026 A 
ATOM     13  C   UNL d   1      -2.107  -1.110  -0.021  0.00  0.00     0.032 C 
ATOM     14  C   UNL d   1      -2.630  -3.083   2.548  0.00  0.00     0.017 A 
ATOM     15  C   UNL d   1      -0.666  -3.877   1.625  0.00  0.00    -0.009 A 
ATOM     16  C   UNL d   1      -2.651  -4.405   2.946  0.00  0.00     0.051 A 
ATOM     17  S   UNL d   1      -1.280  -5.264   2.390  0.00  0.00    -0.106 SA
ATOM     18  C   UNL d   1       0.640  -3.884   0.909  0.00  0.00     0.062 C 
ATOM     19  C   UNL d   1       0.728  -2.653   0.006  0.00  0.00     0.113 C 
ENDBRANCH   7  10
ENDBRANCH   1   7
BRANCH   2  20
ATOM     20  C   UNL d   1       0.790   2.893   4.428  0.00  0.00     0.417 C 
ATOM     21  F   UNL d   1       1.443   1.833   4.975  0.00  0.00    -0.166 F 
ATOM     22  F   UNL d   1       1.575   3.981   4.659  0.00  0.00    -0.166 F 
ATOM     23  F   UNL d   1      -0.331   3.074   5.178  0.00  0.00    -0.166 F 
ENDBRANCH   2  20
BRANCH   3  24
ATOM     24  C   UNL d   1      -0.908   4.883   0.109  0.00  0.00     0.417 C 
ATOM     25  F   UNL d   1      -1.048   4.654  -1.225  0.00  0.00    -0.166 F 
ATOM     26  F   UNL d   1      -2.126   5.292   0.552  0.00  0.00    -0.166 F 
ATOM     27  F   UNL d   1      -0.084   5.961   0.219  0.00  0.00    -0.166 F 
ENDBRANCH   3  24
TORSDOF 4
