REMARK  2 active torsions:
REMARK  status: ('A' for Active; 'I' for Inactive)
REMARK    1  A    between atoms: C_13  and  C_7 
REMARK    2  A    between atoms: N_12  and  C_11 
ROOT
ATOM      1  C   UNL d   1       2.770  -1.072   0.541  0.00  0.00     0.101 A 
ATOM      2  N   UNL d   1       2.061  -3.368   0.785  0.00  0.00    -0.275 N 
ATOM      3  N   UNL d   1       4.066  -2.713   1.734  0.00  0.00    -0.275 N 
ATOM      4  C   UNL d   1       1.763  -2.135   0.276  0.00  0.00     0.265 A 
ATOM      5  C   UNL d   1       3.964  -1.403   1.359  0.00  0.00     0.265 A 
ATOM      6  C   UNL d   1       3.166  -3.705   1.498  0.00  0.00     0.329 A 
ATOM      7  C   UNL d   1       2.532   0.136  -0.004  0.00  0.00     0.034 C 
ATOM      8  O   UNL d   1       4.817  -0.600   1.714  0.00  0.00    -0.267 OA
ATOM      9  O   UNL d   1       0.731  -1.949  -0.358  0.00  0.00    -0.267 OA
ATOM     10  O   UNL d   1       3.340  -4.847   1.914  0.00  0.00    -0.246 OA
ATOM     11  H   UNL d   1       1.391  -4.104   0.612  0.00  0.00     0.173 HD
ATOM     12  H   UNL d   1       4.874  -2.958   2.288  0.00  0.00     0.173 HD
ENDROOT
BRANCH   7  13
ATOM     13  C   UNL d   1       3.388   1.320   0.069  0.00  0.00    -0.035 A 
ATOM     14  C   UNL d   1       4.333   1.562  -0.924  0.00  0.00     0.013 A 
ATOM     15  C   UNL d   1       5.135   2.713  -0.875  0.00  0.00     0.030 A 
ATOM     16  C   UNL d   1       5.021   3.666   0.150  0.00  0.00     0.029 A 
ATOM     17  C   UNL d   1       4.059   3.388   1.138  0.00  0.00     0.030 A 
ATOM     18  C   UNL d   1       3.256   2.237   1.107  0.00  0.00     0.013 A 
BRANCH  16  19
ATOM     19  N   UNL d   1       5.764   4.838   0.172  0.00  0.00    -0.390 N 
ATOM     20  C   UNL d   1       6.172   5.451   1.434  0.00  0.00     0.149 C 
ATOM     21  C   UNL d   1       6.477   5.331  -1.002  0.00  0.00     0.149 C 
ENDBRANCH  16  19
ENDBRANCH   7  13
TORSDOF 2
