REMARK  5 active torsions:
REMARK  status: ('A' for Active; 'I' for Inactive)
REMARK    1  A    between atoms: N_2  and  S_1 
REMARK    2  A    between atoms: C_3  and  S_1 
REMARK       I    between atoms: C_4  and  N_7 
REMARK    3  A    between atoms: C_15  and  C_4 
REMARK    4  A    between atoms: N_7  and  C_16 
REMARK    5  A    between atoms: C_21  and  C_15 
ROOT
ATOM      1  N   UNL d   1       0.462  -1.481  -0.327  0.00  0.00    -0.206 NA
ATOM      2  C   UNL d   1       0.249  -1.789  -1.771  0.00  0.00     0.109 C 
ATOM      3  C   UNL d   1       1.322  -2.515   0.335  0.00  0.00     0.109 C 
ATOM      4  C   UNL d   1      -0.397  -3.161  -1.930  0.00  0.00     0.041 C 
ATOM      5  C   UNL d   1       0.710  -3.904   0.193  0.00  0.00     0.041 C 
ATOM      6  C   UNL d   1       0.427  -4.264  -1.264  0.00  0.00     0.086 C 
ENDROOT
BRANCH   6   7
ATOM      7  N   UNL d   1       1.664  -4.532  -2.000  0.00  0.00    -0.356 N 
ATOM      8  C   UNL d   1       1.892  -5.724  -2.662  0.00  0.00     0.222 C 
ATOM      9  O   UNL d   1       1.094  -6.657  -2.666  0.00  0.00    -0.273 OA
ATOM     10  H   UNL d   1       2.346  -3.792  -2.108  0.00  0.00     0.162 HD
BRANCH   8  11
ATOM     11  C   UNL d   1       3.226  -5.795  -3.385  0.00  0.00     0.141 C 
BRANCH  11  12
ATOM     12  C   UNL d   1       3.144  -5.409  -4.842  0.00  0.00    -0.050 A 
ATOM     13  C   UNL d   1       3.872  -4.317  -5.337  0.00  0.00     0.007 A 
ATOM     14  C   UNL d   1       3.840  -4.003  -6.697  0.00  0.00     0.001 A 
ATOM     15  C   UNL d   1       3.083  -4.775  -7.577  0.00  0.00     0.000 A 
ATOM     16  C   UNL d   1       2.348  -5.856  -7.095  0.00  0.00     0.001 A 
ATOM     17  C   UNL d   1       2.376  -6.170  -5.736  0.00  0.00     0.007 A 
ENDBRANCH  11  12
ENDBRANCH   8  11
ENDBRANCH   6   7
BRANCH   1  18
ATOM     18  S   UNL d   1       1.078   0.104  -0.034  0.00  0.00     0.243 S 
ATOM     19  O   UNL d   1       2.208   0.282  -0.923  0.00  0.00    -0.206 OA
ATOM     20  O   UNL d   1       1.221   0.270   1.397  0.00  0.00    -0.206 OA
BRANCH  18  21
ATOM     21  C   UNL d   1      -0.222   1.200  -0.553  0.00  0.00     0.074 A 
ATOM     22  C   UNL d   1      -1.435   1.210   0.147  0.00  0.00     0.026 A 
ATOM     23  C   UNL d   1      -2.409   2.156  -0.179  0.00  0.00     0.025 A 
ATOM     24  C   UNL d   1      -2.168   3.084  -1.196  0.00  0.00     0.034 A 
ATOM     25  C   UNL d   1      -0.965   3.065  -1.901  0.00  0.00     0.025 A 
ATOM     26 CL   UNL d   1      -3.353   4.276  -1.564  0.00  0.00    -0.084 Cl
ATOM     27  C   UNL d   1       0.014   2.121  -1.580  0.00  0.00     0.026 A 
ENDBRANCH  18  21
ENDBRANCH   1  18
TORSDOF 5
