REMARK  3 active torsions:
REMARK  status: ('A' for Active; 'I' for Inactive)
REMARK    1  A    between atoms: C_2  and  S_1 
REMARK    2  A    between atoms: N_4  and  S_1 
REMARK    3  A    between atoms: C_13  and  N_4 
ROOT
ATOM      1  S   UNL d   1       0.994  -0.086   0.080  0.00  0.00     0.265 S 
ATOM      2  O   UNL d   1       0.453   1.233   0.326  0.00  0.00    -0.200 OA
ATOM      3  O   UNL d   1       2.431  -0.291   0.075  0.00  0.00    -0.200 OA
ENDROOT
BRANCH   1   4
ATOM      4  C   UNL d   1       0.376  -0.631  -1.490  0.00  0.00     0.107 A 
ATOM      5  C   UNL d   1      -1.004  -0.740  -1.685  0.00  0.00     0.066 A 
ATOM      6  N   UNL d   1      -1.906  -0.549  -0.693  0.00  0.00    -0.364 N 
ATOM      7  C   UNL d   1      -1.432  -1.084  -2.993  0.00  0.00    -0.008 A 
ATOM      8  C   UNL d   1      -3.226  -0.647  -0.980  0.00  0.00     0.088 A 
ATOM      9  HN  UNL d   1      -1.597  -0.334   0.255  1.00  0.00     0.165 HD
ATOM     10  C   UNL d   1      -3.721  -0.968  -2.229  0.00  0.00     0.018 A 
ATOM     11  C   UNL d   1      -2.806  -1.194  -3.247  0.00  0.00     0.015 A 
ATOM     12  C   UNL d   1      -0.509  -1.309  -4.028  0.00  0.00     0.014 A 
ATOM     13  C   UNL d   1       0.856  -1.193  -3.795  0.00  0.00     0.003 A 
ATOM     14  C   UNL d   1       1.303  -0.849  -2.526  0.00  0.00     0.028 A 
ENDBRANCH   1   4
BRANCH   1  15
ATOM     15  N   UNL d   1       0.344  -1.121   1.239  0.00  0.00    -0.281 N 
ATOM     16  H   UNL d   1      -0.626  -0.868   1.452  0.00  0.00     0.179 HD
BRANCH  15  17
ATOM     17  C   UNL d   1       0.693  -2.495   1.270  0.00  0.00     0.043 A 
ATOM     18  C   UNL d   1      -0.125  -3.449   0.671  0.00  0.00     0.048 A 
ATOM     19  C   UNL d   1       0.218  -4.778   0.850  0.00  0.00     0.050 A 
ATOM     20  C   UNL d   1      -0.480  -5.961   0.373  0.00  0.00     0.294 A 
ATOM     21  C   UNL d   1       1.313  -5.181   1.586  0.00  0.00    -0.018 A 
ATOM     22  O   UNL d   1       0.207  -7.044   0.846  0.00  0.00    -0.313 OA
ATOM     23  O   UNL d   1      -1.483  -5.980  -0.314  0.00  0.00    -0.259 OA
ATOM     24  C   UNL d   1       1.349  -6.655   1.641  0.00  0.00     0.218 A 
ATOM     25  C   UNL d   1       2.154  -4.241   2.156  0.00  0.00     0.012 A 
ATOM     26  C   UNL d   1       1.844  -2.887   1.981  0.00  0.00     0.031 A 
ENDBRANCH  15  17
ENDBRANCH   1  15
TORSDOF 3
