REMARK  4 active torsions:
REMARK  status: ('A' for Active; 'I' for Inactive)
REMARK    1  A    between atoms: C_4  and  C_1 
REMARK    2  A    between atoms: C_3  and  C_5 
REMARK       I    between atoms: N_8  and  C_4 
REMARK    3  A    between atoms: N_10  and  N_8 
REMARK    4  A    between atoms: C_11  and  N_10 
ROOT
ATOM      1  C   UNL d   1       3.402  -1.473  -0.126  0.00  0.00     0.277 C 
ATOM      2  N   UNL d   1       3.724  -2.814  -0.297  0.00  0.00    -0.265 N 
ATOM      3  O   UNL d   1       2.255  -1.094   0.106  0.00  0.00    -0.265 OA
ATOM      4  H   UNL d   1       4.685  -3.124  -0.397  0.00  0.00     0.190 HD
ENDROOT
BRANCH   2   5
ATOM      5  N   UNL d   1       2.724  -3.786  -0.165  0.00  0.00    -0.297 N 
ATOM      6  H   UNL d   1       2.486  -3.987   0.810  0.00  0.00     0.187 HD
BRANCH   5   7
ATOM      7  C   UNL d   1       2.841  -4.899  -1.028  0.00  0.00     0.063 A 
ATOM      8  C   UNL d   1       2.349  -6.171  -0.667  0.00  0.00     0.075 A 
ATOM      9  C   UNL d   1       2.415  -7.235  -1.596  0.00  0.00     0.018 A 
ATOM     10  C   UNL d   1       2.939  -7.047  -2.872  0.00  0.00     0.001 A 
ATOM     11  C   UNL d   1       3.398  -5.792  -3.244  0.00  0.00     0.002 A 
ATOM     12  C   UNL d   1       3.339  -4.732  -2.335  0.00  0.00     0.032 A 
BRANCH   8  13
ATOM     13  C   UNL d   1       1.748  -6.475   0.681  0.00  0.00     0.419 C 
ATOM     14  F   UNL d   1       1.784  -5.435   1.564  0.00  0.00    -0.166 F 
ATOM     15  F   UNL d   1       0.442  -6.853   0.602  0.00  0.00    -0.166 F 
ATOM     16  F   UNL d   1       2.390  -7.501   1.311  0.00  0.00    -0.166 F 
ENDBRANCH   8  13
ENDBRANCH   5   7
ENDBRANCH   2   5
BRANCH   1  17
ATOM     17  C   UNL d   1       4.523  -0.542  -0.223  0.00  0.00     0.075 A 
ATOM     18  S   UNL d   1       6.130  -1.053  -0.496  0.00  0.00    -0.084 SA
ATOM     19  C   UNL d   1       6.747   0.553  -0.452  0.00  0.00     0.016 A 
ATOM     20  C   UNL d   1       8.089   0.954  -0.606  0.00  0.00     0.019 A 
ATOM     21  C   UNL d   1       5.728   1.483  -0.235  0.00  0.00    -0.018 A 
ATOM     22  C   UNL d   1       8.401   2.314  -0.539  0.00  0.00     0.001 A 
ATOM     23  C   UNL d   1       7.405   3.257  -0.325  0.00  0.00     0.001 A 
ATOM     24  C   UNL d   1       6.074   2.854  -0.173  0.00  0.00     0.013 A 
ATOM     25  C   UNL d   1       4.457   0.834  -0.108  0.00  0.00     0.037 A 
ENDBRANCH   1  17
TORSDOF 4
