REMARK  2 active torsions:
REMARK  status: ('A' for Active; 'I' for Inactive)
REMARK    1  A    between atoms: C_2  and  S_1 
REMARK    2  A    between atoms: N_7  and  S_1 
ROOT
ATOM      1  S   UNL d   1       1.013  -0.234   0.019  0.00  0.00     0.246 S 
ATOM      2  O   UNL d   1       0.104  -1.357   0.105  0.00  0.00    -0.206 OA
ATOM      3  O   UNL d   1       1.442   0.271  -1.266  0.00  0.00    -0.206 OA
ENDROOT
BRANCH   1   4
ATOM      4  C   UNL d   1       2.441  -0.824   0.799  0.00  0.00     0.105 A 
ATOM      5  C   UNL d   1       3.733  -0.400   0.595  0.00  0.00     0.099 A 
ATOM      6  S   UNL d   1       4.872  -1.270   1.518  0.00  0.00    -0.064 SA
ATOM      7 CL   UNL d   1       4.346   0.840  -0.430  0.00  0.00    -0.075 Cl
ATOM      8  C   UNL d   1       3.655  -2.232   2.188  0.00  0.00     0.077 A 
ATOM      9  C   UNL d   1       2.399  -1.899   1.754  0.00  0.00     0.058 A 
ATOM     10 CL   UNL d   1       4.062  -3.487   3.286  0.00  0.00    -0.076 Cl
ENDBRANCH   1   4
BRANCH   1  11
ATOM     11  N   UNL d   1       0.349   1.036   0.933  0.00  0.00    -0.202 NA
ATOM     12  C   UNL d   1       1.073   2.346   0.917  0.00  0.00     0.134 C 
ATOM     13  C   UNL d   1       0.738   3.166  -0.337  0.00  0.00     0.183 C 
ATOM     14  O   UNL d   1      -0.677   3.374  -0.452  0.00  0.00    -0.389 OA
ATOM     15  C   UNL d   1      -1.368   2.120  -0.538  0.00  0.00     0.183 C 
ATOM     16  C   UNL d   1      -1.118   1.271   0.713  0.00  0.00     0.134 C 
ENDBRANCH   1  11
TORSDOF 2
