REMARK  5 active torsions:
REMARK  status: ('A' for Active; 'I' for Inactive)
REMARK    1  A    between atoms: C_4  and  S_1 
REMARK    2  A    between atoms: O_8  and  S_1 
REMARK    3  A    between atoms: S_3  and  C_2 
REMARK    4  A    between atoms: C_13  and  S_3 
REMARK    5  A    between atoms: C_14  and  O_8 
ROOT
ATOM      1  C   UNL d   1      -1.220   3.346   0.028  0.00  0.00     0.072 A 
ATOM      2  C   UNL d   1       0.262   1.541  -0.052  0.00  0.00     0.128 A 
ATOM      3  C   UNL d   1      -1.068   1.925  -0.014  0.00  0.00     0.057 A 
ATOM      4  S   UNL d   1       1.304   2.900  -0.077  0.00  0.00    -0.086 SA
ATOM      5  C   UNL d   1      -0.006   3.997  -0.026  0.00  0.00     0.075 A 
ENDROOT
BRANCH   2   6
ATOM      6  S   UNL d   1       1.039  -0.069  -0.046  0.00  0.00     0.309 S 
ATOM      7  O   UNL d   1       2.326   0.090  -0.691  0.00  0.00    -0.192 OA
ATOM      8  O   UNL d   1       0.018  -0.961  -0.556  0.00  0.00    -0.192 OA
BRANCH   6   9
ATOM      9  O   UNL d   1       1.221  -0.292   1.561  0.00  0.00    -0.229 OA
BRANCH   9  10
ATOM     10  C   UNL d   1       1.744  -1.456   2.068  0.00  0.00     0.089 A 
ATOM     11  C   UNL d   1       2.670  -2.260   1.402  0.00  0.00     0.040 A 
ATOM     12  C   UNL d   1       3.167  -3.414   2.016  0.00  0.00     0.026 A 
ATOM     13  C   UNL d   1       2.744  -3.760   3.298  0.00  0.00     0.034 A 
ATOM     14  C   UNL d   1       1.833  -2.953   3.976  0.00  0.00     0.026 A 
ATOM     15 CL   UNL d   1       3.355  -5.183   4.045  0.00  0.00    -0.084 Cl
ATOM     16  C   UNL d   1       1.337  -1.799   3.362  0.00  0.00     0.040 A 
ENDBRANCH   9  10
ENDBRANCH   6   9
ENDBRANCH   2   6
BRANCH   1  17
ATOM     17  S   UNL d   1      -2.746   4.159   0.191  0.00  0.00     0.207 S 
ATOM     18  O   UNL d   1      -3.573   3.218   0.922  0.00  0.00    -0.217 OA
ATOM     19  O   UNL d   1      -2.411   5.465   0.722  0.00  0.00    -0.217 OA
BRANCH  17  20
ATOM     20  C   UNL d   1      -3.389   4.346  -1.445  0.00  0.00     0.064 A 
ATOM     21  C   UNL d   1      -4.227   3.359  -1.974  0.00  0.00     0.024 A 
ATOM     22  C   UNL d   1      -4.800   3.545  -3.232  0.00  0.00     0.002 A 
ATOM     23  C   UNL d   1      -4.547   4.715  -3.950  0.00  0.00     0.000 A 
ATOM     24  C   UNL d   1      -3.723   5.705  -3.412  0.00  0.00     0.002 A 
ATOM     25  C   UNL d   1      -3.144   5.526  -2.155  0.00  0.00     0.024 A 
ENDBRANCH  17  20
ENDBRANCH   1  17
TORSDOF 5
