REMARK  5 active torsions:
REMARK  status: ('A' for Active; 'I' for Inactive)
REMARK    1  A    between atoms: C_2  and  C_1 
REMARK    2  A    between atoms: S_4  and  C_3 
REMARK    3  A    between atoms: C_9  and  S_4 
REMARK    4  A    between atoms: C_5  and  C_9 
REMARK    5  A    between atoms: C_8  and  C_5 
ROOT
ATOM      1  C   UNL d   1       0.567  -2.254  -2.270  0.00  0.00     0.081 A 
ATOM      2  C   UNL d   1       0.365  -0.967  -1.782  0.00  0.00     0.085 A 
ATOM      3  N   UNL d   1       0.786  -0.597  -0.541  0.00  0.00    -0.360 N 
ATOM      4  HN  UNL d   1       0.634   0.354  -0.205  1.00  0.00     0.166 HD
ATOM      5  C   UNL d   1       1.220  -3.175  -1.422  0.00  0.00     0.020 A 
ATOM      6  C   UNL d   1       1.408  -1.506   0.239  0.00  0.00     0.089 A 
ATOM      7  C   UNL d   1       1.644  -2.802  -0.154  0.00  0.00     0.018 A 
ENDROOT
BRANCH   2   8
ATOM      8  S   UNL d   1      -0.469   0.327  -2.692  0.00  0.00    -0.104 SA
BRANCH   8   9
ATOM      9  C   UNL d   1      -0.317   1.700  -1.510  0.00  0.00     0.164 C 
BRANCH   9  10
ATOM     10  C   UNL d   1      -0.999   2.976  -1.966  0.00  0.00     0.169 C 
ATOM     11  O   UNL d   1      -1.664   3.079  -2.993  0.00  0.00    -0.291 OA
BRANCH  10  12
ATOM     12  C   UNL d   1      -0.848   4.182  -1.084  0.00  0.00     0.011 A 
ATOM     13  C   UNL d   1      -0.160   4.136   0.138  0.00  0.00     0.017 A 
ATOM     14  C   UNL d   1      -0.035   5.287   0.923  0.00  0.00     0.025 A 
ATOM     15  C   UNL d   1      -0.597   6.487   0.493  0.00  0.00     0.034 A 
ATOM     16  C   UNL d   1      -1.289   6.546  -0.714  0.00  0.00     0.025 A 
ATOM     17 CL   UNL d   1      -0.432   7.900   1.459  0.00  0.00    -0.084 Cl
ATOM     18  C   UNL d   1      -1.415   5.396  -1.500  0.00  0.00     0.017 A 
ENDBRANCH  10  12
ENDBRANCH   9  10
ENDBRANCH   8   9
ENDBRANCH   2   8
BRANCH   1  19
ATOM     19  C   UNL d   1       0.156  -2.751  -3.626  0.00  0.00     0.420 C 
ATOM     20  F   UNL d   1      -0.472  -1.877  -4.451  0.00  0.00    -0.166 F 
ATOM     21  F   UNL d   1      -0.682  -3.826  -3.531  0.00  0.00    -0.166 F 
ATOM     22  F   UNL d   1       1.232  -3.206  -4.335  0.00  0.00    -0.166 F 
ENDBRANCH   1  19
TORSDOF 5
