REMARK  6 active torsions:
REMARK  status: ('A' for Active; 'I' for Inactive)
REMARK    1  A    between atoms: C_6  and  S_1 
REMARK    2  A    between atoms: C_23  and  S_1 
REMARK    3  A    between atoms: C_2  and  N_4 
REMARK       I    between atoms: C_3  and  N_9 
REMARK       I    between atoms: N_4  and  C_3 
REMARK    4  A    between atoms: N_9  and  C_5 
REMARK    5  A    between atoms: C_22  and  C_11 
REMARK    6  A    between atoms: O_24  and  C_16 
ROOT
ATOM      1  C   UNL d   1      -2.920  -4.843  -1.780  0.00  0.00     0.325 C 
ATOM      2  N   UNL d   1      -2.102  -5.869  -1.369  0.00  0.00    -0.306 N 
ATOM      3  N   UNL d   1      -2.505  -3.565  -1.537  0.00  0.00    -0.306 N 
ATOM      4  O   UNL d   1      -3.945  -5.148  -2.395  0.00  0.00    -0.247 OA
ATOM      5  H   UNL d   1      -2.285  -6.676  -1.958  0.00  0.00     0.171 HD
ATOM      6  H   UNL d   1      -1.742  -3.428  -0.885  0.00  0.00     0.171 HD
ENDROOT
BRANCH   3   7
ATOM      7  C   UNL d   1      -3.194  -2.367  -1.837  0.00  0.00     0.071 A 
ATOM      8  C   UNL d   1      -4.260  -2.274  -2.736  0.00  0.00     0.055 A 
ATOM      9  C   UNL d   1      -4.938  -1.056  -2.874  0.00  0.00     0.061 A 
ATOM     10  C   UNL d   1      -4.566   0.065  -2.120  0.00  0.00     0.026 A 
ATOM     11  C   UNL d   1      -3.462  -0.008  -1.274  0.00  0.00     0.040 A 
ATOM     12  C   UNL d   1      -2.769  -1.211  -1.161  0.00  0.00     0.092 A 
BRANCH   9  13
ATOM     13  S   UNL d   1      -6.229  -0.877  -4.087  0.00  0.00     0.175 S 
ATOM     14  O   UNL d   1      -5.590  -1.028  -5.381  0.00  0.00    -0.223 OA
ATOM     15  O   UNL d   1      -6.950   0.339  -3.749  0.00  0.00    -0.223 OA
BRANCH  13  16
ATOM     16  C   UNL d   1      -7.354  -2.235  -3.844  0.00  0.00     0.141 C 
ATOM     17  C   UNL d   1      -8.514  -2.157  -4.824  0.00  0.00     0.021 C 
ENDBRANCH  13  16
ENDBRANCH   9  13
BRANCH  12  18
ATOM     18  O   UNL d   1      -1.654  -1.293  -0.365  0.00  0.00    -0.358 OA
ATOM     19  H   UNL d   1      -1.405  -0.391  -0.099  0.00  0.00     0.217 HD
ENDBRANCH  12  18
ENDBRANCH   3   7
BRANCH   2  20
ATOM     20  C   UNL d   1      -0.788  -5.766  -0.855  0.00  0.00     0.071 C 
ATOM     21  C   UNL d   1      -0.495  -5.166   0.379  0.00  0.00     0.039 C 
ATOM     22  C   UNL d   1       0.834  -4.969   0.777  0.00  0.00     0.029 C 
ATOM     23 BR   UNL d   1      -1.852  -4.654   1.610  0.00  0.00    -0.049 Br
ATOM     24  C   UNL d   1       1.897  -5.346  -0.055  0.00  0.00    -0.052 C 
ATOM     25  C   UNL d   1       1.599  -6.083  -1.211  0.00  0.00     0.029 C 
ATOM     26  C   UNL d   1       0.273  -6.308  -1.595  0.00  0.00     0.039 C 
ATOM     27 BR   UNL d   1      -0.031  -7.277  -3.203  0.00  0.00    -0.049 Br
BRANCH  24  28
ATOM     28  C   UNL d   1       3.337  -4.933   0.211  0.00  0.00     0.010 C 
ATOM     29  C   UNL d   1       3.456  -3.600   0.962  0.00  0.00     0.015 C 
ATOM     30  C   UNL d   1       4.138  -6.021   0.922  0.00  0.00     0.015 C 
ENDBRANCH  24  28
ENDBRANCH   2  20
TORSDOF 6
