REMARK  1 active torsions:
REMARK  status: ('A' for Active; 'I' for Inactive)
REMARK    1  A    between atoms: O_9  and  C_6 
ROOT
ATOM      1  C   UNL d   1       0.275  -0.879  -0.001  0.00  0.00     0.116 A 
ATOM      2  C   UNL d   1      -0.112   0.449   0.004  0.00  0.00     0.048 A 
ATOM      3  O   UNL d   1      -0.770  -1.771   0.011  0.00  0.00    -0.340 OA
ATOM      4  C   UNL d   1      -1.551   0.449   0.026  0.00  0.00     0.186 A 
ATOM      5  C   UNL d   1      -1.983  -0.988   0.067  0.00  0.00     0.259 A 
ATOM      6  C   UNL d   1       1.623  -1.204  -0.014  0.00  0.00     0.102 A 
ATOM      7  O   UNL d   1      -2.252   1.441   0.022  0.00  0.00    -0.290 OA
ATOM      8  C   UNL d   1       0.772   1.511  -0.001  0.00  0.00     0.018 A 
ATOM      9  C   UNL d   1       2.129   1.201  -0.009  0.00  0.00     0.004 A 
ATOM     10  C   UNL d   1       2.547  -0.143  -0.016  0.00  0.00     0.040 A 
ENDROOT
BRANCH   6  11
ATOM     11  O   UNL d   1       2.187  -2.447  -0.021  0.00  0.00    -0.353 OA
ATOM     12  C   UNL d   1       1.300  -3.560  -0.018  0.00  0.00     0.210 C 
ENDBRANCH   6  11
TORSDOF 1
