REMARK  2 active torsions:
REMARK  status: ('A' for Active; 'I' for Inactive)
REMARK    1  A    between atoms: C_7  and  N_1 
REMARK    2  A    between atoms: C_8  and  C_2 
ROOT
ATOM      1  N   UNL d   1       1.024  -0.559  -0.053  0.00  0.00    -0.260 N 
ATOM      2  C   UNL d   1      -0.327   1.220   0.045  0.00  0.00     0.050 C 
ATOM      3  C   UNL d   1       1.010   0.833   0.031  0.00  0.00     0.046 C 
ATOM      4  N   UNL d   1      -0.231  -1.047  -0.241  0.00  0.00    -0.304 N 
ATOM      5  HN  UNL d   1      -0.502  -2.011  -0.436  1.00  0.00     0.186 HD
ATOM      6  C   UNL d   1      -1.028   0.008  -0.116  0.00  0.00     0.124 C 
ATOM      7  C   UNL d   1       2.239   1.677  -0.007  0.00  0.00     0.071 C 
ENDROOT
BRANCH   1   8
ATOM      8  C   UNL d   1       2.129  -1.462  -0.020  0.00  0.00     0.057 A 
ATOM      9  C   UNL d   1       2.028  -2.693  -0.690  0.00  0.00     0.038 A 
ATOM     10  C   UNL d   1       3.128  -3.562  -0.757  0.00  0.00    -0.060 A 
ATOM     11  C   UNL d   1       3.058  -4.844  -1.532  0.00  0.00     0.048 C 
ATOM     12  C   UNL d   1       4.316  -3.211  -0.107  0.00  0.00     0.007 A 
ATOM     13  C   UNL d   1       4.402  -2.022   0.612  0.00  0.00     0.003 A 
ATOM     14  C   UNL d   1       3.312  -1.150   0.660  0.00  0.00     0.031 A 
ENDBRANCH   1   8
BRANCH   2  15
ATOM     15  C   UNL d   1      -0.851   2.584   0.153  0.00  0.00     0.159 C 
ATOM     16  O   UNL d   1      -0.106   3.549   0.321  0.00  0.00    -0.293 OA
ATOM     17  C   UNL d   1      -2.336   2.833   0.039  0.00  0.00     0.097 C 
ENDBRANCH   2  15
TORSDOF 2
