REMARK  0 active torsions:
REMARK  status: ('A' for Active; 'I' for Inactive)
ROOT
ATOM      1  C   UNL d   1       1.915   1.176   1.609  0.00  0.00     0.085 A 
ATOM      2  C   UNL d   1       2.170  -0.013   3.755  0.00  0.00     0.085 A 
ATOM      3  C   UNL d   1       0.655   0.375   1.402  0.00  0.00     0.026 A 
ATOM      4  C   UNL d   1       1.981   1.317   4.433  0.00  0.00     0.026 A 
ATOM      5  N   UNL d   1       0.386   0.112   0.159  0.00  0.00    -0.305 N 
ATOM      6  HN  UNL d   1      -0.414  -0.408  -0.202  1.00  0.00     0.186 HD
ATOM      7  N   UNL d   1       2.606   1.439   5.560  0.00  0.00    -0.305 N 
ATOM      8  HN  UNL d   1       2.606   2.249   6.180  1.00  0.00     0.186 HD
ATOM      9  C   UNL d   1       2.854   0.285   2.420  0.00  0.00     0.051 C 
ATOM     10  C   UNL d   1       3.089  -0.686   4.739  0.00  0.00     0.250 A 
ATOM     11  C   UNL d   1       2.366   1.339   0.181  0.00  0.00     0.250 A 
ATOM     12  N   UNL d   1       1.400   0.679  -0.568  0.00  0.00    -0.269 N 
ATOM     13  N   UNL d   1       3.269   0.251   5.748  0.00  0.00    -0.269 N 
ATOM     14  C   UNL d   1       1.631   2.521   2.289  0.00  0.00     0.036 C 
ATOM     15  C   UNL d   1       0.843  -0.763   3.595  0.00  0.00     0.036 C 
ATOM     16  C   UNL d   1      -0.123  -0.117   2.587  0.00  0.00     0.036 C 
ATOM     17  C   UNL d   1       1.183   2.397   3.756  0.00  0.00     0.036 C 
ATOM     18  O   UNL d   1       3.360   1.913  -0.222  0.00  0.00    -0.271 OA
ATOM     19  O   UNL d   1       3.572  -1.800   4.664  0.00  0.00    -0.271 OA
ATOM     20  C   UNL d   1      -0.316   2.151   3.934  0.00  0.00     0.011 C 
ATOM     21  C   UNL d   1      -0.986   1.001   3.174  0.00  0.00     0.011 C 
ATOM     22  H   UNL d   1       1.439   0.581  -1.577  0.00  0.00     0.190 HD
ATOM     23  H   UNL d   1       3.870   0.109   6.550  0.00  0.00     0.190 HD
ENDROOT
TORSDOF 0
