REMARK  3 active torsions:
REMARK  status: ('A' for Active; 'I' for Inactive)
REMARK    1  A    between atoms: O_2  and  S_1 
REMARK    2  A    between atoms: C_3  and  S_1 
REMARK    3  A    between atoms: C_12  and  O_2 
ROOT
ATOM      1  N   UNL d   1       1.811   5.448   5.581  0.00  0.00    -0.191 NA
ATOM      2  C   UNL d   1       1.615   4.779   4.652  0.00  0.00     0.099 C 
ATOM      3  C   UNL d   1       0.828   2.272   1.318  0.00  0.00     0.089 A 
ATOM      4  C   UNL d   1       1.363   3.940   3.518  0.00  0.00     0.044 A 
ATOM      5  C   UNL d   1       0.909   3.659   1.150  0.00  0.00     0.040 A 
ATOM      6  C   UNL d   1       1.009   1.729   2.591  0.00  0.00     0.040 A 
ATOM      7  C   UNL d   1       1.278   2.557   3.685  0.00  0.00     0.025 A 
ATOM      8  C   UNL d   1       1.182   4.491   2.245  0.00  0.00     0.025 A 
ENDROOT
BRANCH   3   9
ATOM      9  O   UNL d   1       0.519   1.534   0.198  0.00  0.00    -0.229 OA
BRANCH   9  10
ATOM     10  S   UNL d   1       1.000  -0.024   0.058  0.00  0.00     0.303 S 
ATOM     11  O   UNL d   1       0.319  -0.824   1.062  0.00  0.00    -0.193 OA
ATOM     12  O   UNL d   1       2.441  -0.064  -0.074  0.00  0.00    -0.193 OA
BRANCH  10  13
ATOM     13  C   UNL d   1       0.344  -0.555  -1.515  0.00  0.00     0.086 A 
ATOM     14  C   UNL d   1       0.763   0.078  -2.688  0.00  0.00     0.027 A 
ATOM     15  C   UNL d   1       0.300  -0.394  -3.921  0.00  0.00     0.024 A 
ATOM     16  C   UNL d   1      -0.572  -1.491  -3.980  0.00  0.00     0.044 A 
ATOM     17  C   UNL d   1      -1.034  -1.980  -5.247  0.00  0.00     0.099 C 
ATOM     18  C   UNL d   1      -0.984  -2.117  -2.798  0.00  0.00     0.024 A 
ATOM     19  N   UNL d   1      -1.410  -2.376  -6.270  0.00  0.00    -0.191 NA
ATOM     20  C   UNL d   1      -0.527  -1.651  -1.564  0.00  0.00     0.027 A 
ENDBRANCH  10  13
ENDBRANCH   9  10
ENDBRANCH   3   9
TORSDOF 3
