REMARK  4 active torsions:
REMARK  status: ('A' for Active; 'I' for Inactive)
REMARK    1  A    between atoms: C_6  and  C_1 
REMARK    2  A    between atoms: C_2  and  C_3 
REMARK       I    between atoms: N_10  and  C_6 
REMARK    3  A    between atoms: C_16  and  N_10 
REMARK    4  A    between atoms: C_17  and  C_16 
ROOT
ATOM      1  C   UNL d   1       1.860   2.454  -0.025  0.00  0.00     0.122 A 
ATOM      2  C   UNL d   1       4.611   2.751   0.025  0.00  0.00     0.065 A 
ATOM      3  N   UNL d   1       2.392   3.720  -0.023  0.00  0.00    -0.359 N 
ATOM      4  HN  UNL d   1       1.792   4.545  -0.040  1.00  0.00     0.165 HD
ATOM      5  C   UNL d   1       2.654   1.308   0.002  0.00  0.00     0.067 A 
ATOM      6  C   UNL d   1       4.044   1.473   0.026  0.00  0.00     0.044 A 
ATOM      7  C   UNL d   1       3.744   3.834   0.001  0.00  0.00     0.105 A 
ATOM      8 CL   UNL d   1       2.075  -0.315   0.008  0.00  0.00    -0.082 Cl
ENDROOT
BRANCH   1   9
ATOM      9  C   UNL d   1       0.351   2.410  -0.055  0.00  0.00     0.270 C 
ATOM     10  N   UNL d   1      -0.267   3.647  -0.094  0.00  0.00    -0.351 N 
ATOM     11  H   UNL d   1       0.327   4.470  -0.101  0.00  0.00     0.163 HD
ATOM     12  O   UNL d   1      -0.284   1.365  -0.044  0.00  0.00    -0.266 OA
BRANCH  10  13
ATOM     13  C   UNL d   1      -1.705   3.796  -0.078  0.00  0.00     0.161 C 
BRANCH  13  14
ATOM     14  C   UNL d   1      -2.223   4.498  -1.308  0.00  0.00    -0.041 A 
ATOM     15  C   UNL d   1      -2.013   3.948  -2.581  0.00  0.00     0.009 A 
ATOM     16  C   UNL d   1      -2.538   4.565  -3.718  0.00  0.00     0.001 A 
ATOM     17  C   UNL d   1      -3.284   5.735  -3.596  0.00  0.00     0.000 A 
ATOM     18  C   UNL d   1      -3.505   6.290  -2.336  0.00  0.00     0.001 A 
ATOM     19  C   UNL d   1      -2.978   5.675  -1.198  0.00  0.00     0.009 A 
ENDBRANCH  13  14
ENDBRANCH  10  13
ENDBRANCH   1   9
BRANCH   2  20
ATOM     20  C   UNL d   1       6.094   2.972   0.043  0.00  0.00     0.418 C 
ATOM     21  F   UNL d   1       6.812   1.817   0.074  0.00  0.00    -0.166 F 
ATOM     22  F   UNL d   1       6.529   3.656  -1.048  0.00  0.00    -0.166 F 
ATOM     23  F   UNL d   1       6.497   3.691   1.125  0.00  0.00    -0.166 F 
ENDBRANCH   2  20
TORSDOF 4
