REMARK  4 active torsions:
REMARK  status: ('A' for Active; 'I' for Inactive)
REMARK    1  A    between atoms: C_4  and  C_1 
REMARK       I    between atoms: N_11  and  C_4 
REMARK    2  A    between atoms: C_5  and  C_9 
REMARK    3  A    between atoms: N_12  and  N_11 
REMARK    4  A    between atoms: C_13  and  N_12 
ROOT
ATOM      1  C   UNL d   1       0.082  -2.413   0.994  0.00  0.00     0.276 C 
ATOM      2  N   UNL d   1       0.806  -3.400   0.331  0.00  0.00    -0.282 N 
ATOM      3  O   UNL d   1       0.601  -1.322   1.233  0.00  0.00    -0.266 OA
ATOM      4  H   UNL d   1       0.347  -4.201  -0.091  0.00  0.00     0.184 HD
ENDROOT
BRANCH   2   5
ATOM      5  N   UNL d   1       2.046  -3.042  -0.235  0.00  0.00    -0.202 NA
ATOM      6  H   UNL d   1       2.345  -2.127   0.139  0.00  0.00     0.153 HD
BRANCH   5   7
ATOM      7  C   UNL d   1       3.074  -4.001  -0.034  0.00  0.00     0.042 A 
ATOM      8  C   UNL d   1       4.184  -4.038  -0.902  0.00  0.00     0.070 A 
ATOM      9  C   UNL d   1       5.217  -4.972  -0.664  0.00  0.00     0.018 A 
ATOM     10  C   UNL d   1       5.175  -5.837   0.426  0.00  0.00     0.001 A 
ATOM     11  C   UNL d   1       4.102  -5.773   1.306  0.00  0.00     0.002 A 
ATOM     12  C   UNL d   1       3.071  -4.860   1.084  0.00  0.00     0.026 A 
BRANCH   8  13
ATOM     13  C   UNL d   1       4.330  -3.151  -2.116  0.00  0.00     0.419 C 
ATOM     14  F   UNL d   1       3.351  -2.225  -2.310  0.00  0.00    -0.166 F 
ATOM     15  F   UNL d   1       5.495  -2.437  -2.081  0.00  0.00    -0.166 F 
ATOM     16  F   UNL d   1       4.387  -3.873  -3.274  0.00  0.00    -0.166 F 
ENDBRANCH   8  13
ENDBRANCH   5   7
ENDBRANCH   2   5
BRANCH   1  17
ATOM     17  C   UNL d   1      -1.270  -2.756   1.372  0.00  0.00     0.115 A 
ATOM     18  C   UNL d   1      -2.277  -1.983   1.941  0.00  0.00     0.046 A 
ATOM     19  N   UNL d   1      -3.462  -2.671   2.195  0.00  0.00    -0.298 N 
ATOM     20  C   UNL d   1      -2.256  -0.542   2.303  0.00  0.00     0.071 C 
ATOM     21  N   UNL d   1      -3.388  -3.940   1.839  0.00  0.00    -0.269 N 
ATOM     22  HN  UNL d   1      -4.290  -2.244   2.609  1.00  0.00     0.187 HD
ATOM     23  S   UNL d   1      -1.909  -4.340   1.190  0.00  0.00     0.009 SA
ATOM     24  HN  UNL d   1      -4.154  -4.603   1.949  1.00  0.00     0.195 HD
ENDBRANCH   1  17
TORSDOF 4
