REMARK  3 active torsions:
REMARK  status: ('A' for Active; 'I' for Inactive)
REMARK    1  A    between atoms: C_6  and  C_14 
REMARK    2  A    between atoms: O_13  and  C_7 
REMARK    3  A    between atoms: C_14  and  O_13 
ROOT
ATOM      1  C   UNL d   1      -0.718   1.348   0.011  0.00  0.00    -0.015 A 
ATOM      2  C   UNL d   1      -1.466   0.142  -0.013  0.00  0.00     0.075 A 
ATOM      3  C   UNL d   1       0.697   1.281   0.019  0.00  0.00     0.047 A 
ATOM      4  C   UNL d   1      -0.808  -1.103   0.021  0.00  0.00     0.092 A 
ATOM      5  C   UNL d   1       1.364   0.045   0.009  0.00  0.00    -0.037 A 
ATOM      6  C   UNL d   1       0.592  -1.129   0.010  0.00  0.00     0.047 A 
ATOM      7 CL   UNL d   1      -3.193   0.240  -0.182  0.00  0.00    -0.081 Cl
ATOM      8 CL   UNL d   1       1.623   2.754   0.020  0.00  0.00    -0.083 Cl
ATOM      9  C   UNL d   1      -1.382   2.709   0.008  0.00  0.00     0.052 C 
ATOM     10  C   UNL d   1       2.861  -0.110  -0.007  0.00  0.00     0.050 C 
ENDROOT
BRANCH   4  11
ATOM     11  O   UNL d   1      -1.346  -2.365  -0.008  0.00  0.00    -0.344 OA
BRANCH  11  12
ATOM     12  C   UNL d   1      -2.589  -2.590   0.668  0.00  0.00     0.233 C 
BRANCH  12  13
ATOM     13  C   UNL d   1      -2.708  -3.990   1.201  0.00  0.00     0.041 A 
ATOM     14  N   UNL d   1      -3.527  -4.205   2.306  0.00  0.00    -0.355 N 
ATOM     15  C   UNL d   1      -3.545  -5.481   2.622  0.00  0.00     0.047 A 
ATOM     16  HN  UNL d   1      -4.041  -3.476   2.800  1.00  0.00     0.166 HD
ATOM     17  C   UNL d   1      -4.322  -6.054   3.754  0.00  0.00     0.076 C 
ATOM     18  S   UNL d   1      -2.590  -6.499   1.623  0.00  0.00    -0.087 SA
ATOM     19  C   UNL d   1      -2.124  -5.137   0.697  0.00  0.00     0.078 A 
ENDBRANCH  12  13
ENDBRANCH  11  12
ENDBRANCH   4  11
TORSDOF 3
