REMARK  6 active torsions:
REMARK  status: ('A' for Active; 'I' for Inactive)
REMARK    1  A    between atoms: C_5  and  C_1 
REMARK    2  A    between atoms: C_2  and  C_6 
REMARK       I    between atoms: N_13  and  C_5 
REMARK    3  A    between atoms: C_6  and  S_14 
REMARK    4  A    between atoms: C_23  and  N_13 
REMARK    5  A    between atoms: S_14  and  C_24 
REMARK    6  A    between atoms: C_24  and  C_23 
ROOT
ATOM      1  C   UNL d   1      -5.083  -2.198   0.110  0.00  0.00     0.133 C 
ENDROOT
BRANCH   1   2
ATOM      2  N   UNL d   1      -3.812  -1.488   0.051  0.00  0.00    -0.356 N 
ATOM      3  C   UNL d   1      -3.351  -0.734   1.107  0.00  0.00     0.253 C 
ATOM      4  O   UNL d   1      -4.001  -0.560   2.135  0.00  0.00    -0.268 OA
ATOM      5  H   UNL d   1      -3.185  -1.696  -0.717  0.00  0.00     0.162 HD
BRANCH   3   6
ATOM      6  C   UNL d   1      -2.039  -0.048   0.953  0.00  0.00     0.053 A 
ATOM      7  C   UNL d   1      -0.926  -0.567   0.277  0.00  0.00     0.051 A 
ATOM      8  C   UNL d   1       0.263   0.177   0.206  0.00  0.00     0.048 A 
ATOM      9 CL   UNL d   1      -0.903  -2.131  -0.457  0.00  0.00    -0.083 Cl
ATOM     10  C   UNL d   1       0.341   1.431   0.808  0.00  0.00     0.035 A 
ATOM     11  C   UNL d   1      -0.751   1.954   1.490  0.00  0.00     0.025 A 
ATOM     12 CL   UNL d   1       1.800   2.336   0.711  0.00  0.00    -0.084 Cl
ATOM     13  C   UNL d   1      -1.934   1.216   1.566  0.00  0.00     0.020 A 
ENDBRANCH   3   6
ENDBRANCH   1   2
BRANCH   1  14
ATOM     14  C   UNL d   1      -6.298  -1.262   0.106  0.00  0.00     0.102 C 
BRANCH  14  15
ATOM     15  S   UNL d   1      -7.844  -2.215  -0.055  0.00  0.00    -0.086 SA
BRANCH  15  16
ATOM     16  C   UNL d   1      -9.021  -0.950   0.285  0.00  0.00     0.220 C 
ATOM     17  O   UNL d   1      -8.690   0.228   0.357  0.00  0.00    -0.280 OA
BRANCH  16  18
ATOM     18  C   UNL d   1     -10.465  -1.312   0.313  0.00  0.00     0.043 A 
ATOM     19  C   UNL d   1     -11.018  -2.435   0.948  0.00  0.00     0.050 A 
ATOM     20  C   UNL d   1     -12.395  -2.690   0.853  0.00  0.00     0.048 A 
ATOM     21 CL   UNL d   1     -10.122  -3.510   1.961  0.00  0.00    -0.083 Cl
ATOM     22  C   UNL d   1     -13.229  -1.808   0.170  0.00  0.00     0.035 A 
ATOM     23  C   UNL d   1     -12.707  -0.658  -0.411  0.00  0.00     0.025 A 
ATOM     24 CL   UNL d   1     -14.915  -2.132   0.064  0.00  0.00    -0.084 Cl
ATOM     25  C   UNL d   1     -11.332  -0.413  -0.341  0.00  0.00     0.019 A 
ENDBRANCH  16  18
ENDBRANCH  15  16
ENDBRANCH  14  15
ENDBRANCH   1  14
TORSDOF 6
