REMARK  6 active torsions:
REMARK  status: ('A' for Active; 'I' for Inactive)
REMARK       I    between atoms: C_3  and  N_1 
REMARK    1  A    between atoms: S_4  and  N_1 
REMARK    2  A    between atoms: C_8  and  C_3 
REMARK    3  A    between atoms: C_7  and  S_4 
REMARK    4  A    between atoms: C_5  and  O_6 
REMARK    5  A    between atoms: C_9  and  C_5 
REMARK    6  A    between atoms: O_6  and  C_18 
ROOT
ATOM      1  C   UNL d   1       3.502  -1.480  -0.991  0.00  0.00     0.009 A 
ATOM      2  C   UNL d   1       4.877  -1.666  -0.794  0.00  0.00     0.022 A 
ATOM      3  C   UNL d   1       2.763  -2.473  -1.641  0.00  0.00     0.022 A 
ATOM      4  C   UNL d   1       4.689  -3.913  -1.631  0.00  0.00     0.079 A 
ATOM      5  C   UNL d   1       3.351  -3.694  -1.950  0.00  0.00     0.039 A 
ATOM      6  C   UNL d   1       5.480  -2.889  -1.109  0.00  0.00     0.039 A 
ENDROOT
BRANCH   1   7
ATOM      7  S   UNL d   1       2.517  -0.175  -0.207  0.00  0.00    -0.094 SA
ATOM      8  C   UNL d   1       2.651  -0.874   1.469  0.00  0.00     0.107 C 
BRANCH   7   9
ATOM      9  N   UNL d   1       3.615   0.856  -0.086  0.00  0.00    -0.302 N 
ATOM     10  C   UNL d   1       3.466   1.935  -0.877  0.00  0.00     0.261 C 
ATOM     11  O   UNL d   1       2.506   2.282  -1.565  0.00  0.00    -0.267 OA
ATOM     12  HN  UNL d   1       4.407   0.743   0.546  1.00  0.00     0.176 HD
BRANCH  10  13
ATOM     13  C   UNL d   1       4.665   2.847  -0.913  0.00  0.00     0.032 A 
ATOM     14  C   UNL d   1       4.570   4.036  -1.655  0.00  0.00     0.018 A 
ATOM     15  C   UNL d   1       5.662   4.900  -1.766  0.00  0.00     0.025 A 
ATOM     16  C   UNL d   1       6.859   4.580  -1.130  0.00  0.00     0.034 A 
ATOM     17  C   UNL d   1       6.968   3.414  -0.372  0.00  0.00     0.025 A 
ATOM     18 CL   UNL d   1       8.216   5.627  -1.289  0.00  0.00    -0.084 Cl
ATOM     19  C   UNL d   1       5.873   2.551  -0.263  0.00  0.00     0.018 A 
ENDBRANCH  10  13
ENDBRANCH   7   9
ENDBRANCH   1   7
BRANCH   4  20
ATOM     20  O   UNL d   1       5.077  -5.272  -1.643  0.00  0.00    -0.275 OA
BRANCH  20  21
ATOM     21  C   UNL d   1       6.383  -5.708  -1.643  0.00  0.00     0.298 C 
ATOM     22  O   UNL d   1       7.373  -5.103  -2.035  0.00  0.00    -0.259 OA
BRANCH  21  23
ATOM     23  C   UNL d   1       6.430  -7.088  -1.090  0.00  0.00     0.040 A 
ATOM     24  C   UNL d   1       5.457  -7.565  -0.200  0.00  0.00     0.019 A 
ATOM     25  C   UNL d   1       5.600  -8.827   0.388  0.00  0.00     0.025 A 
ATOM     26  C   UNL d   1       6.711  -9.612   0.085  0.00  0.00     0.034 A 
ATOM     27  C   UNL d   1       7.671  -9.157  -0.819  0.00  0.00     0.025 A 
ATOM     28 CL   UNL d   1       6.916 -11.138   0.854  0.00  0.00    -0.084 Cl
ATOM     29  C   UNL d   1       7.534  -7.895  -1.404  0.00  0.00     0.019 A 
ENDBRANCH  21  23
ENDBRANCH  20  21
ENDBRANCH   4  20
TORSDOF 6
