REMARK  3 active torsions:
REMARK  status: ('A' for Active; 'I' for Inactive)
REMARK    1  A    between atoms: N_4  and  N_15 
REMARK    2  A    between atoms: C_12  and  C_6 
REMARK    3  A    between atoms: N_15  and  C_17 
ROOT
ATOM      1  C   UNL d   1       0.858   6.461   3.716  0.00  0.00     0.209 C 
ATOM      2  N   UNL d   1       1.030   5.594   2.763  0.00  0.00    -0.282 N 
ATOM      3  HN  UNL d   1       0.262   4.985   2.480  1.00  0.00     0.188 HD
ATOM      4  N   UNL d   1       2.821   7.956   4.524  0.00  0.00    -0.189 NA
ATOM      5  N   UNL d   1      -1.540   6.580   4.706  0.00  0.00    -0.189 NA
ATOM      6  C   UNL d   1       1.928   7.296   4.175  0.00  0.00     0.130 C 
ATOM      7  C   UNL d   1      -0.472   6.511   4.256  0.00  0.00     0.130 C 
ENDROOT
BRANCH   2   8
ATOM      8  N   UNL d   1       2.239   5.500   2.141  0.00  0.00    -0.299 N 
ATOM      9  H   UNL d   1       3.043   6.102   2.325  0.00  0.00     0.187 HD
BRANCH   8  10
ATOM     10  C   UNL d   1       2.417   4.557   1.112  0.00  0.00     0.049 A 
ATOM     11  C   UNL d   1       1.630   3.398   1.022  0.00  0.00     0.044 A 
ATOM     12  C   UNL d   1       1.799   2.451  -0.010  0.00  0.00    -0.007 A 
ATOM     13  C   UNL d   1       2.758   2.742  -0.997  0.00  0.00     0.014 A 
ATOM     14  C   UNL d   1       3.519   3.912  -0.950  0.00  0.00     0.003 A 
ATOM     15  C   UNL d   1       3.352   4.809   0.103  0.00  0.00     0.031 A 
BRANCH  12  16
ATOM     16  C   UNL d   1       1.037   1.183  -0.040  0.00  0.00     0.045 A 
ATOM     17  N   UNL d   1       1.666   0.135  -0.625  0.00  0.00    -0.345 N 
ATOM     18  C   UNL d   1       1.031  -1.052  -0.625  0.00  0.00     0.077 A 
ATOM     19  HN  UNL d   1       2.587   0.242  -1.049  1.00  0.00     0.167 HD
ATOM     20  N   UNL d   1      -0.184  -1.270  -0.095  0.00  0.00    -0.356 N 
ATOM     21  C   UNL d   1       1.727  -2.219  -1.251  0.00  0.00     0.089 C 
ATOM     22  C   UNL d   1      -0.785  -0.208   0.463  0.00  0.00     0.091 A 
ATOM     23  HN  UNL d   1      -0.623  -2.191  -0.115  1.00  0.00     0.166 HD
ATOM     24  C   UNL d   1      -0.222   1.045   0.515  0.00  0.00     0.047 A 
ENDBRANCH  12  16
ENDBRANCH   8  10
ENDBRANCH   2   8
TORSDOF 3
