REMARK  2 active torsions:
REMARK  status: ('A' for Active; 'I' for Inactive)
REMARK    1  A    between atoms: C_3  and  C_1 
REMARK       I    between atoms: N_7  and  C_3 
REMARK    2  A    between atoms: N_11  and  N_7 
ROOT
ATOM      1  C   UNL d   1      -1.309  -1.353  -0.044  0.00  0.00     0.055 A 
ATOM      2  C   UNL d   1      -1.212   0.049  -0.021  0.00  0.00     0.051 A 
ATOM      3  C   UNL d   1      -0.110  -2.099  -0.021  0.00  0.00     0.020 A 
ATOM      4  C   UNL d   1       0.045   0.674   0.010  0.00  0.00     0.048 A 
ATOM      5  C   UNL d   1       1.210  -0.087   0.021  0.00  0.00     0.035 A 
ATOM      6 CL   UNL d   1      -2.566   1.126  -0.037  0.00  0.00    -0.083 Cl
ATOM      7  C   UNL d   1       1.140  -1.474   0.009  0.00  0.00     0.025 A 
ATOM      8 CL   UNL d   1       2.742   0.693   0.042  0.00  0.00    -0.084 Cl
ENDROOT
BRANCH   1   9
ATOM      9  C   UNL d   1      -2.569  -2.165  -0.112  0.00  0.00     0.267 C 
ATOM     10  O   UNL d   1      -2.505  -3.392  -0.199  0.00  0.00    -0.266 OA
ATOM     11  N   UNL d   1      -3.791  -1.512  -0.083  0.00  0.00    -0.290 N 
ATOM     12  H   UNL d   1      -3.851  -0.505   0.070  0.00  0.00     0.183 HD
BRANCH  11  13
ATOM     13  N   UNL d   1      -4.983  -2.265  -0.111  0.00  0.00    -0.247 NA
ATOM     14  H   UNL d   1      -4.713  -3.249   0.037  0.00  0.00     0.143 HD
ATOM     15  H   UNL d   1      -5.339  -2.252  -1.071  0.00  0.00     0.143 HD
ENDBRANCH  11  13
ENDBRANCH   1   9
TORSDOF 2
