REMARK  12 active torsions:
REMARK  status: ('A' for Active; 'I' for Inactive)
REMARK    1  A    between atoms: C_1  and  O_13 
REMARK    2  A    between atoms: C_2  and  O_14 
REMARK    3  A    between atoms: C_3  and  O_16 
REMARK    4  A    between atoms: C_4  and  O_15 
REMARK    5  A    between atoms: C_7  and  C_24 
REMARK    6  A    between atoms: C_26  and  C_11 
REMARK    7  A    between atoms: C_19  and  O_13 
REMARK    8  A    between atoms: C_20  and  O_14 
REMARK    9  A    between atoms: C_21  and  O_15 
REMARK   10  A    between atoms: C_22  and  O_16 
REMARK   11  A    between atoms: C_23  and  O_27 
REMARK   12  A    between atoms: O_27  and  C_24 
ROOT
ATOM      1  C   UNL d   1       0.804  -1.271  -0.116  0.00  0.00     0.219 C 
ATOM      2  C   UNL d   1       1.611   0.014   0.159  0.00  0.00     0.198 C 
ATOM      3  C   UNL d   1      -0.676  -1.156   0.303  0.00  0.00     0.299 C 
ATOM      4  C   UNL d   1       0.839   1.267  -0.300  0.00  0.00     0.195 C 
ATOM      5  O   UNL d   1      -1.253   0.031  -0.236  0.00  0.00    -0.348 OA
ATOM      6  C   UNL d   1      -0.595   1.212   0.252  0.00  0.00     0.181 C 
ENDROOT
BRANCH   3   7
ATOM      7  O   UNL d   1      -1.363  -2.312  -0.219  0.00  0.00    -0.318 OA
BRANCH   7   8
ATOM      8  C   UNL d   1      -2.274  -2.907   0.612  0.00  0.00     0.074 A 
ATOM      9  C   UNL d   1      -2.987  -2.237   1.604  0.00  0.00     0.074 A 
ATOM     10  C   UNL d   1      -3.779  -2.961   2.495  0.00  0.00     0.086 A 
ATOM     11  O   UNL d   1      -4.261  -2.260   3.571  0.00  0.00    -0.340 OA
ATOM     12  C   UNL d   1      -3.969  -4.329   2.318  0.00  0.00     0.043 A 
ATOM     13  C   UNL d   1      -4.511  -3.080   4.731  0.00  0.00     0.169 C 
ATOM     14  C   UNL d   1      -5.456  -4.224   4.364  0.00  0.00     0.121 C 
ATOM     15  C   UNL d   1      -4.856  -5.043   3.255  0.00  0.00     0.165 C 
ATOM     16  O   UNL d   1      -5.141  -6.224   3.080  0.00  0.00    -0.292 OA
ATOM     17  C   UNL d   1      -3.330  -4.994   1.272  0.00  0.00     0.021 A 
ATOM     18  C   UNL d   1      -2.469  -4.281   0.431  0.00  0.00     0.038 A 
BRANCH  13  19
ATOM     19  C   UNL d   1      -3.256  -3.482   5.516  0.00  0.00    -0.029 A 
ATOM     20  C   UNL d   1      -1.958  -3.111   5.122  0.00  0.00     0.010 A 
ATOM     21  C   UNL d   1      -0.841  -3.445   5.892  0.00  0.00     0.001 A 
ATOM     22  C   UNL d   1      -1.000  -4.138   7.087  0.00  0.00     0.000 A 
ATOM     23  C   UNL d   1      -2.274  -4.510   7.503  0.00  0.00     0.001 A 
ATOM     24  C   UNL d   1      -3.390  -4.188   6.725  0.00  0.00     0.010 A 
ENDBRANCH  13  19
ENDBRANCH   7   8
ENDBRANCH   3   7
BRANCH   1  25
ATOM     25  O   UNL d   1       1.423  -2.460   0.445  0.00  0.00    -0.308 OA
BRANCH  25  26
ATOM     26  C   UNL d   1       1.405  -2.599   1.800  0.00  0.00     0.255 C 
ATOM     27  O   UNL d   1       1.075  -1.730   2.594  0.00  0.00    -0.266 OA
ATOM     28  C   UNL d   1       1.680  -4.020   2.172  0.00  0.00     0.126 C 
ENDBRANCH  25  26
ENDBRANCH   1  25
BRANCH   2  29
ATOM     29  O   UNL d   1       2.840  -0.081  -0.613  0.00  0.00    -0.311 OA
BRANCH  29  30
ATOM     30  C   UNL d   1       3.883  -0.704   0.002  0.00  0.00     0.255 C 
ATOM     31  O   UNL d   1       3.980  -0.915   1.202  0.00  0.00    -0.266 OA
ATOM     32  C   UNL d   1       4.841  -1.230  -1.020  0.00  0.00     0.126 C 
ENDBRANCH  29  30
ENDBRANCH   2  29
BRANCH   6  33
ATOM     33  C   UNL d   1      -1.440   2.417  -0.186  0.00  0.00     0.213 C 
BRANCH  33  34
ATOM     34  O   UNL d   1      -2.759   2.352   0.402  0.00  0.00    -0.319 OA
BRANCH  34  35
ATOM     35  C   UNL d   1      -2.840   2.717   1.709  0.00  0.00     0.254 C 
ATOM     36  O   UNL d   1      -1.904   3.123   2.382  0.00  0.00    -0.266 OA
ATOM     37  C   UNL d   1      -4.238   2.559   2.225  0.00  0.00     0.126 C 
ENDBRANCH  34  35
ENDBRANCH  33  34
ENDBRANCH   6  33
BRANCH   4  38
ATOM     38  O   UNL d   1       1.517   2.428   0.230  0.00  0.00    -0.311 OA
BRANCH  38  39
ATOM     39  C   UNL d   1       2.000   3.329  -0.667  0.00  0.00     0.255 C 
ATOM     40  O   UNL d   1       1.854   3.268  -1.873  0.00  0.00    -0.266 OA
ATOM     41  C   UNL d   1       2.723   4.444   0.028  0.00  0.00     0.126 C 
ENDBRANCH  38  39
ENDBRANCH   4  38
TORSDOF 12
