REMARK  4 active torsions:
REMARK  status: ('A' for Active; 'I' for Inactive)
REMARK    1  A    between atoms: S_11  and  C_4 
REMARK    2  A    between atoms: C_10  and  C_15 
REMARK       I    between atoms: N_13  and  C_10 
REMARK    3  A    between atoms: C_15  and  S_11 
REMARK    4  A    between atoms: C_17  and  N_13 
ROOT
ATOM      1  S   UNL d   1       3.774   0.839   1.244  0.00  0.00    -0.096 SA
ENDROOT
BRANCH   1   2
ATOM      2  C   UNL d   1       4.673   1.241   2.688  0.00  0.00     0.113 A 
ATOM      3  N   UNL d   1       5.139   2.454   2.855  0.00  0.00    -0.343 N 
ATOM      4  C   UNL d   1       5.963   2.492   3.971  0.00  0.00     0.072 A 
ATOM      5  HN  UNL d   1       4.928   3.251   2.254  1.00  0.00     0.167 HD
ATOM      6  C   UNL d   1       6.064   1.282   4.668  0.00  0.00     0.037 A 
ATOM      7  C   UNL d   1       6.720   3.582   4.448  0.00  0.00     0.063 A 
ATOM      8  C   UNL d   1       6.897   1.139   5.793  0.00  0.00     0.045 A 
ATOM      9  S   UNL d   1       5.054   0.109   3.906  0.00  0.00    -0.063 SA
ATOM     10  C   UNL d   1       7.655   2.243   6.198  0.00  0.00     0.037 A 
ATOM     11  C   UNL d   1       7.567   3.466   5.544  0.00  0.00     0.050 A 
ATOM     12 CL   UNL d   1       8.738   2.076   7.527  0.00  0.00    -0.084 Cl
ATOM     13 CL   UNL d   1       6.568   5.045   3.572  0.00  0.00    -0.082 Cl
ENDBRANCH   1   2
BRANCH   1  14
ATOM     14  C   UNL d   1       4.673   1.889   0.052  0.00  0.00     0.184 C 
BRANCH  14  15
ATOM     15  C   UNL d   1       6.165   1.546   0.008  0.00  0.00     0.231 C 
ATOM     16  N   UNL d   1       6.978   2.667  -0.132  0.00  0.00    -0.327 N 
ATOM     17  H   UNL d   1       6.533   3.572  -0.052  0.00  0.00     0.169 HD
ATOM     18  O   UNL d   1       6.559   0.388   0.081  0.00  0.00    -0.272 OA
BRANCH  16  19
ATOM     19  C   UNL d   1       8.391   2.680  -0.178  0.00  0.00     0.034 A 
ATOM     20  C   UNL d   1       9.176   1.530  -0.316  0.00  0.00     0.031 A 
ATOM     21  C   UNL d   1      10.572   1.608  -0.267  0.00  0.00     0.026 A 
ATOM     22  C   UNL d   1      11.193   2.840  -0.096  0.00  0.00     0.034 A 
ATOM     23  C   UNL d   1      10.430   4.000  -0.009  0.00  0.00     0.026 A 
ATOM     24 CL   UNL d   1      12.908   2.926   0.024  0.00  0.00    -0.084 Cl
ATOM     25  C   UNL d   1       9.033   3.921  -0.060  0.00  0.00     0.031 A 
ENDBRANCH  16  19
ENDBRANCH  14  15
ENDBRANCH   1  14
TORSDOF 4
