REMARK  5 active torsions:
REMARK  status: ('A' for Active; 'I' for Inactive)
REMARK    1  A    between atoms: C_13  and  C_1 
REMARK    2  A    between atoms: C_3  and  C_2 
REMARK    3  A    between atoms: O_16  and  C_13 
REMARK    4  A    between atoms: C_17  and  N_14 
REMARK    5  A    between atoms: C_18  and  O_16 
ROOT
ATOM      1  C   UNL d   1      -1.523   2.188  -0.093  0.00  0.00     0.077 A 
ATOM      2  N   UNL d   1      -2.513   2.390   0.839  0.00  0.00    -0.334 N 
ATOM      3  HN  UNL d   1      -2.810   1.696   1.526  1.00  0.00     0.168 HD
ATOM      4  C   UNL d   1      -3.026   3.593   0.729  0.00  0.00     0.149 A 
ATOM      5  S   UNL d   1      -2.399   4.505  -0.601  0.00  0.00    -0.063 SA
ATOM      6  C   UNL d   1      -1.297   3.237  -0.953  0.00  0.00     0.085 A 
ATOM      7  N   UNL d   1      -3.968   4.134   1.539  0.00  0.00    -0.337 N 
ATOM      8  H   UNL d   1      -4.330   5.042   1.276  0.00  0.00     0.168 HD
ENDROOT
BRANCH   1   9
ATOM      9  C   UNL d   1      -0.777   0.909  -0.128  0.00  0.00     0.128 A 
ATOM     10  C   UNL d   1      -1.009  -0.170   0.691  0.00  0.00     0.079 A 
ATOM     11  C   UNL d   1      -0.068  -1.146   0.284  0.00  0.00     0.132 A 
ATOM     12  N   UNL d   1       0.696  -0.675  -0.718  0.00  0.00    -0.255 N 
ATOM     13  O   UNL d   1       0.246   0.608  -0.971  0.00  0.00    -0.235 OA
ATOM     14  HN  UNL d   1       1.453  -1.165  -1.194  1.00  0.00     0.195 HD
BRANCH  11  15
ATOM     15  C   UNL d   1       0.131  -2.466   0.877  0.00  0.00     0.311 C 
ATOM     16  O   UNL d   1      -0.522  -2.874   1.829  0.00  0.00    -0.258 OA
BRANCH  15  17
ATOM     17  O   UNL d   1       1.179  -3.137   0.315  0.00  0.00    -0.317 OA
BRANCH  17  18
ATOM     18  C   UNL d   1       1.747  -4.176   1.118  0.00  0.00     0.175 C 
ATOM     19  C   UNL d   1       2.748  -3.542   2.067  0.00  0.00     0.034 C 
ENDBRANCH  17  18
ENDBRANCH  15  17
ENDBRANCH  11  15
ENDBRANCH   1   9
BRANCH   7  20
ATOM     20  C   UNL d   1      -4.204   3.804   2.892  0.00  0.00     0.034 A 
ATOM     21  C   UNL d   1      -3.461   2.850   3.602  0.00  0.00     0.029 A 
ATOM     22  C   UNL d   1      -3.747   2.545   4.935  0.00  0.00     0.002 A 
ATOM     23  C   UNL d   1      -4.799   3.180   5.582  0.00  0.00     0.000 A 
ATOM     24  C   UNL d   1      -5.571   4.110   4.891  0.00  0.00     0.002 A 
ATOM     25  C   UNL d   1      -5.281   4.411   3.555  0.00  0.00     0.029 A 
ENDBRANCH   7  20
TORSDOF 5
