REMARK  5 active torsions:
REMARK  status: ('A' for Active; 'I' for Inactive)
REMARK       I    between atoms: N_2  and  C_1 
REMARK       I    between atoms: N_3  and  C_1 
REMARK    1  A    between atoms: C_4  and  N_3 
REMARK    2  A    between atoms: C_15  and  N_5 
REMARK    3  A    between atoms: O_19  and  C_8 
REMARK    4  A    between atoms: C_18  and  C_15 
REMARK    5  A    between atoms: C_20  and  C_18 
ROOT
ATOM      1  C   UNL d   1       0.911  -0.244   0.141  0.00  0.00     0.323 C 
ATOM      2  N   UNL d   1       0.365  -0.973  -0.904  0.00  0.00    -0.331 N 
ATOM      3  N   UNL d   1       0.542   1.078   0.214  0.00  0.00    -0.306 N 
ATOM      4  N   UNL d   1      -0.416  -2.617  -3.238  0.00  0.00     0.091 N 
ATOM      5  O   UNL d   1       1.677  -0.778   0.945  0.00  0.00    -0.247 OA
ATOM      6  C   UNL d   1       0.688  -2.404  -0.953  0.00  0.00     0.158 C 
ATOM      7  C   UNL d   1      -0.749  -0.568  -1.770  0.00  0.00     0.158 C 
ATOM      8  C   UNL d   1      -0.613  -1.154  -3.188  0.00  0.00     0.292 C 
ATOM      9  C   UNL d   1       0.759  -2.945  -2.395  0.00  0.00     0.292 C 
ATOM     10  H   UNL d   1      -0.225   1.392  -0.354  0.00  0.00     0.171 HD
ENDROOT
BRANCH   3  11
ATOM     11  C   UNL d   1       0.985   2.023   1.164  0.00  0.00     0.071 A 
ATOM     12  C   UNL d   1       2.205   1.874   1.836  0.00  0.00     0.056 A 
ATOM     13  C   UNL d   1       2.635   2.843   2.744  0.00  0.00     0.036 A 
ATOM     14 CL   UNL d   1       4.165   2.668   3.514  0.00  0.00    -0.084 Cl
ATOM     15  C   UNL d   1       1.856   3.964   3.003  0.00  0.00     0.026 A 
ATOM     16  C   UNL d   1       0.649   4.136   2.322  0.00  0.00     0.041 A 
ATOM     17  C   UNL d   1       0.213   3.175   1.403  0.00  0.00     0.095 A 
BRANCH  17  18
ATOM     18  O   UNL d   1      -0.923   3.488   0.699  0.00  0.00    -0.354 OA
ATOM     19  C   UNL d   1      -2.016   2.596   0.911  0.00  0.00     0.210 C 
ENDBRANCH  17  18
ENDBRANCH   3  11
BRANCH   4  20
ATOM     20  C   UNL d   1      -1.599  -3.393  -2.817  0.00  0.00     0.277 C 
BRANCH  20  21
ATOM     21  C   UNL d   1      -2.815  -3.200  -3.739  0.00  0.00     0.068 C 
BRANCH  21  22
ATOM     22  C   UNL d   1      -4.027  -3.962  -3.261  0.00  0.00    -0.057 A 
ATOM     23  C   UNL d   1      -4.874  -3.405  -2.292  0.00  0.00     0.007 A 
ATOM     24  C   UNL d   1      -6.017  -4.087  -1.875  0.00  0.00     0.001 A 
ATOM     25  C   UNL d   1      -6.320  -5.334  -2.418  0.00  0.00     0.000 A 
ATOM     26  C   UNL d   1      -5.473  -5.904  -3.368  0.00  0.00     0.001 A 
ATOM     27  C   UNL d   1      -4.329  -5.224  -3.785  0.00  0.00     0.007 A 
ENDBRANCH  21  22
ENDBRANCH  20  21
ENDBRANCH   4  20
TORSDOF 5
