REMARK  0 active torsions:
REMARK  status: ('A' for Active; 'I' for Inactive)
ROOT
ATOM      1  C   UNL d   1      -0.037  -0.742  -0.175  0.00  0.00     0.159 A 
ATOM      2  C   UNL d   1      -0.021   0.661  -0.141  0.00  0.00     0.193 A 
ATOM      3  N   UNL d   1       1.173  -1.431  -0.217  0.00  0.00    -0.337 N 
ATOM      4  N   UNL d   1      -1.189  -1.441  -0.136  0.00  0.00    -0.337 N 
ATOM      5  HN  UNL d   1      -1.202  -2.460  -0.174  1.00  0.00     0.167 HD
ATOM      6  N   UNL d   1      -1.152   1.401  -0.073  0.00  0.00    -0.332 N 
ATOM      7  HN  UNL d   1      -1.133   2.420  -0.066  1.00  0.00     0.168 HD
ATOM      8  O   UNL d   1       1.165   1.379  -0.141  0.00  0.00    -0.288 OA
ATOM      9  C   UNL d   1       2.375  -0.745  -0.070  0.00  0.00     0.068 A 
ATOM     10  C   UNL d   1       2.346   0.662  -0.041  0.00  0.00     0.104 A 
ATOM     11  C   UNL d   1      -2.304   0.705  -0.016  0.00  0.00     0.061 A 
ATOM     12  C   UNL d   1      -2.321  -0.716  -0.044  0.00  0.00     0.060 A 
ATOM     13  C   UNL d   1       3.595  -1.408   0.049  0.00  0.00     0.032 A 
ATOM     14  C   UNL d   1       3.523   1.393   0.108  0.00  0.00     0.040 A 
ATOM     15  C   UNL d   1      -3.507   1.391   0.088  0.00  0.00     0.032 A 
ATOM     16  C   UNL d   1      -3.540  -1.377   0.039  0.00  0.00     0.032 A 
ATOM     17  C   UNL d   1       4.774  -0.675   0.215  0.00  0.00     0.002 A 
ATOM     18  C   UNL d   1       4.738   0.721   0.243  0.00  0.00     0.003 A 
ATOM     19  C   UNL d   1      -4.725   0.713   0.175  0.00  0.00     0.002 A 
ATOM     20  C   UNL d   1      -4.741  -0.675   0.152  0.00  0.00     0.002 A 
ATOM     21  H   UNL d   1       1.114  -2.435  -0.182  0.00  0.00     0.168 HD
ENDROOT
TORSDOF 0
