REMARK  5 active torsions:
REMARK  status: ('A' for Active; 'I' for Inactive)
REMARK       I    between atoms: N_2  and  C_1 
REMARK    1  A    between atoms: C_3  and  C_1 
REMARK       I    between atoms: C_4  and  N_2 
REMARK       I    between atoms: N_11  and  C_4 
REMARK    2  A    between atoms: N_7  and  C_5 
REMARK    3  A    between atoms: O_13  and  C_8 
REMARK    4  A    between atoms: C_9  and  N_11 
REMARK    5  A    between atoms: C_22  and  O_13 
ROOT
ATOM      1  C   UNL d   1       4.535  -1.158   0.396  0.00  0.00     0.063 A 
ATOM      2  C   UNL d   1       3.562  -1.385  -0.594  0.00  0.00     0.071 A 
ATOM      3  C   UNL d   1       2.925  -0.319  -1.236  0.00  0.00     0.105 A 
ATOM      4  C   UNL d   1       3.204   0.999  -0.853  0.00  0.00     0.072 A 
ATOM      5  C   UNL d   1       4.842   0.167   0.750  0.00  0.00     0.063 A 
ATOM      6  C   UNL d   1       4.163   1.235   0.135  0.00  0.00     0.058 A 
ATOM      7 CL   UNL d   1       6.115   0.627   1.826  0.00  0.00    -0.082 Cl
ENDROOT
BRANCH   4   8
ATOM      8  N   UNL d   1       2.446   2.032  -1.429  0.00  0.00    -0.306 N 
ATOM      9  C   UNL d   1       2.773   3.304  -1.819  0.00  0.00     0.327 C 
ATOM     10  N   UNL d   1       4.111   3.579  -1.933  0.00  0.00    -0.275 N 
ATOM     11  O   UNL d   1       1.860   4.081  -2.073  0.00  0.00    -0.247 OA
ATOM     12  C   UNL d   1       4.597   4.399  -2.936  0.00  0.00     0.263 C 
ATOM     13  H   UNL d   1       4.714   2.814  -1.689  0.00  0.00     0.173 HD
ATOM     14  O   UNL d   1       3.949   5.205  -3.592  0.00  0.00    -0.267 OA
ATOM     15  H   UNL d   1       1.512   1.783  -1.745  0.00  0.00     0.171 HD
BRANCH  12  16
ATOM     16  C   UNL d   1       6.055   4.279  -3.214  0.00  0.00     0.075 A 
ATOM     17  C   UNL d   1       6.654   3.032  -3.469  0.00  0.00     0.051 A 
ATOM     18 CL   UNL d   1       5.774   1.542  -3.475  0.00  0.00    -0.083 Cl
ATOM     19  C   UNL d   1       8.021   2.941  -3.752  0.00  0.00     0.025 A 
ATOM     20  C   UNL d   1       8.799   4.089  -3.807  0.00  0.00     0.003 A 
ATOM     21  C   UNL d   1       8.219   5.334  -3.573  0.00  0.00     0.025 A 
ATOM     22  C   UNL d   1       6.855   5.434  -3.273  0.00  0.00     0.051 A 
ATOM     23 CL   UNL d   1       6.262   7.022  -2.930  0.00  0.00    -0.083 Cl
ENDBRANCH  12  16
ENDBRANCH   4   8
BRANCH   3  24
ATOM     24  O   UNL d   1       1.988  -0.502  -2.232  0.00  0.00    -0.308 OA
BRANCH  24  25
ATOM     25  C   UNL d   1       2.171  -1.498  -3.167  0.00  0.00     0.076 A 
ATOM     26  C   UNL d   1       1.000  -2.052  -3.689  0.00  0.00     0.039 A 
ATOM     27  C   UNL d   1       1.066  -3.081  -4.630  0.00  0.00     0.026 A 
ATOM     28  C   UNL d   1       2.307  -3.553  -5.053  0.00  0.00     0.034 A 
ATOM     29  C   UNL d   1       3.481  -2.979  -4.568  0.00  0.00     0.026 A 
ATOM     30 CL   UNL d   1       2.390  -4.846  -6.183  0.00  0.00    -0.084 Cl
ATOM     31  C   UNL d   1       3.414  -1.933  -3.642  0.00  0.00     0.039 A 
ENDBRANCH  24  25
ENDBRANCH   3  24
BRANCH   1  32
ATOM     32  N   UNL d   1       5.128  -2.310   0.996  0.00  0.00    -0.331 N 
ATOM     33  C   UNL d   1       5.547  -2.463   2.301  0.00  0.00     0.096 A 
ATOM     34  C   UNL d   1       5.976  -3.760   2.494  0.00  0.00     0.019 A 
ATOM     35  C   UNL d   1       5.823  -4.438   1.270  0.00  0.00     0.019 A 
ATOM     36  C   UNL d   1       5.303  -3.535   0.371  0.00  0.00     0.096 A 
ENDBRANCH   1  32
TORSDOF 5
