REMARK  6 active torsions:
REMARK  status: ('A' for Active; 'I' for Inactive)
REMARK    1  A    between atoms: C_6  and  S_1 
REMARK    2  A    between atoms: C_7  and  S_1 
REMARK    3  A    between atoms: C_2  and  C_3 
REMARK    4  A    between atoms: C_20  and  C_7 
REMARK    5  A    between atoms: C_10  and  S_18 
REMARK    6  A    between atoms: S_18  and  C_20 
ROOT
ATOM      1  S   UNL d   1       0.236   1.732   3.959  0.00  0.00    -0.111 SA
ENDROOT
BRANCH   1   2
ATOM      2  C   UNL d   1       1.032   1.040   5.400  0.00  0.00     0.069 A 
ATOM      3  N   UNL d   1       1.791  -0.066   5.250  0.00  0.00    -0.360 N 
ATOM      4  C   UNL d   1       2.412  -0.556   6.349  0.00  0.00     0.105 A 
ATOM      5  HN  UNL d   1       1.892  -0.517   4.341  1.00  0.00     0.166 HD
ATOM      6  C   UNL d   1       2.320   0.009   7.612  0.00  0.00     0.063 A 
ATOM      7  C   UNL d   1       1.514   1.142   7.748  0.00  0.00     0.020 A 
ATOM      8  C   UNL d   1       0.862   1.665   6.630  0.00  0.00     0.038 A 
BRANCH   6   9
ATOM      9  C   UNL d   1       3.068  -0.573   8.772  0.00  0.00     0.418 C 
ATOM     10  F   UNL d   1       3.813  -1.666   8.449  0.00  0.00    -0.166 F 
ATOM     11  F   UNL d   1       3.935   0.318   9.327  0.00  0.00    -0.166 F 
ATOM     12  F   UNL d   1       2.243  -0.968   9.781  0.00  0.00    -0.166 F 
ENDBRANCH   6   9
ENDBRANCH   1   2
BRANCH   1  13
ATOM     13  C   UNL d   1       0.887   0.638   2.644  0.00  0.00     0.096 C 
BRANCH  13  14
ATOM     14  C   UNL d   1       0.393   1.130   1.294  0.00  0.00     0.156 C 
BRANCH  14  15
ATOM     15  S   UNL d   1       0.976   0.056  -0.000  0.00  0.00     0.176 S 
ATOM     16  O   UNL d   1       2.420   0.168  -0.076  0.00  0.00    -0.223 OA
ATOM     17  O   UNL d   1       0.337  -1.237   0.153  0.00  0.00    -0.223 OA
BRANCH  15  18
ATOM     18  C   UNL d   1       0.319   0.790  -1.488  0.00  0.00     0.059 A 
ATOM     19  C   UNL d   1       1.079   1.735  -2.186  0.00  0.00     0.025 A 
ATOM     20  C   UNL d   1       0.590   2.266  -3.382  0.00  0.00     0.025 A 
ATOM     21  C   UNL d   1      -0.645   1.843  -3.876  0.00  0.00     0.034 A 
ATOM     22  C   UNL d   1      -1.397   0.893  -3.184  0.00  0.00     0.025 A 
ATOM     23 CL   UNL d   1      -1.237   2.489  -5.357  0.00  0.00    -0.084 Cl
ATOM     24  C   UNL d   1      -0.914   0.357  -1.987  0.00  0.00     0.025 A 
ENDBRANCH  15  18
ENDBRANCH  14  15
ENDBRANCH  13  14
ENDBRANCH   1  13
TORSDOF 6
