REMARK  4 active torsions:
REMARK  status: ('A' for Active; 'I' for Inactive)
REMARK    1  A    between atoms: N_4  and  C_1 
REMARK    2  A    between atoms: C_10  and  N_7 
REMARK    3  A    between atoms: C_12  and  C_10 
REMARK    4  A    between atoms: C_13  and  C_12 
ROOT
ATOM      1  C   UNL d   1       0.262  -0.960   0.597  0.00  0.00     0.190 A 
ATOM      2  N   UNL d   1       0.261  -0.952  -0.782  0.00  0.00    -0.326 N 
ATOM      3  HN  UNL d   1       0.500  -1.724  -1.403  1.00  0.00     0.169 HD
ATOM      4  C   UNL d   1      -0.116   0.264  -1.129  0.00  0.00     0.081 A 
ATOM      5  C   UNL d   1      -0.120   0.267   1.096  0.00  0.00     0.147 A 
ATOM      6  N   UNL d   1      -0.359   1.036  -0.013  0.00  0.00    -0.343 N 
ATOM      7  C   UNL d   1      -0.266   0.751  -2.525  0.00  0.00     0.089 C 
ENDROOT
BRANCH   6   8
ATOM      8  C   UNL d   1      -0.779   2.427   0.013  0.00  0.00     0.130 C 
BRANCH   8   9
ATOM      9  C   UNL d   1      -2.300   2.568   0.009  0.00  0.00     0.020 C 
BRANCH   9  10
ATOM     10  C   UNL d   1      -2.726   4.035   0.007  0.00  0.00    -0.003 C 
ATOM     11  C   UNL d   1      -4.241   4.170   0.004  0.00  0.00     0.005 C 
ENDBRANCH   9  10
ENDBRANCH   8   9
ENDBRANCH   6   8
BRANCH   1  12
ATOM     12  N   UNL d   1       0.631  -2.141   1.345  0.00  0.00    -0.096 N 
ATOM     13  O   UNL d   1       0.601  -2.046   2.583  0.00  0.00    -0.530 OA
ATOM     14  O   UNL d   1       0.948  -3.156   0.711  0.00  0.00    -0.530 OA
ENDBRANCH   1  12
TORSDOF 4
