REMARK  4 active torsions:
REMARK  status: ('A' for Active; 'I' for Inactive)
REMARK    1  A    between atoms: C_2  and  C_1 
REMARK    2  A    between atoms: O_3  and  C_1 
REMARK    3  A    between atoms: C_5  and  O_3 
REMARK    4  A    between atoms: C_6  and  C_4 
ROOT
ATOM      1  C   UNL d   1       1.000   0.731  -1.644  0.00  0.00     0.303 C 
ATOM      2  O   UNL d   1       0.984   1.635  -2.465  0.00  0.00    -0.259 OA
ENDROOT
BRANCH   1   3
ATOM      3  C   UNL d   1       1.764  -0.527  -1.808  0.00  0.00     0.100 A 
ATOM      4  C   UNL d   1       1.207  -1.733  -1.361  0.00  0.00     0.134 A 
ATOM      5  F   UNL d   1       0.045  -1.758  -0.692  0.00  0.00    -0.205 F 
ATOM      6  C   UNL d   1       1.812  -2.960  -1.624  0.00  0.00     0.043 A 
ATOM      7  C   UNL d   1       2.990  -3.005  -2.360  0.00  0.00     0.005 A 
ATOM      8  C   UNL d   1       3.571  -1.815  -2.798  0.00  0.00     0.025 A 
ATOM      9  C   UNL d   1       2.970  -0.578  -2.519  0.00  0.00     0.053 A 
ATOM     10 CL   UNL d   1       3.816   0.830  -3.057  0.00  0.00    -0.083 Cl
ENDBRANCH   1   3
BRANCH   1  11
ATOM     11  O   UNL d   1       0.289   0.694  -0.453  0.00  0.00    -0.274 OA
BRANCH  11  12
ATOM     12  C   UNL d   1      -1.057   1.135  -0.336  0.00  0.00     0.093 A 
ATOM     13  C   UNL d   1      -1.762   0.730   0.808  0.00  0.00     0.043 A 
ATOM     14  C   UNL d   1      -3.155   0.890   0.854  0.00  0.00     0.018 A 
ATOM     15  C   UNL d   1      -3.829   1.505  -0.201  0.00  0.00     0.001 A 
ATOM     16  C   UNL d   1      -3.113   1.979  -1.298  0.00  0.00     0.003 A 
ATOM     17  C   UNL d   1      -1.731   1.790  -1.372  0.00  0.00     0.038 A 
BRANCH  13  18
ATOM     18  C   UNL d   1      -1.117   0.103   1.992  0.00  0.00     0.158 C 
ATOM     19  O   UNL d   1      -1.725  -0.756   2.630  0.00  0.00    -0.293 OA
ATOM     20  C   UNL d   1       0.238   0.586   2.439  0.00  0.00     0.097 C 
ENDBRANCH  13  18
ENDBRANCH  11  12
ENDBRANCH   1  11
TORSDOF 4
