REMARK  6 active torsions:
REMARK  status: ('A' for Active; 'I' for Inactive)
REMARK       I    between atoms: N_2  and  C_1 
REMARK    1  A    between atoms: C_3  and  C_1 
REMARK       I    between atoms: C_4  and  N_2 
REMARK    2  A    between atoms: O_8  and  C_4 
REMARK    3  A    between atoms: C_13  and  O_8 
REMARK    4  A    between atoms: O_9  and  C_10 
REMARK    5  A    between atoms: C_15  and  O_9 
REMARK    6  A    between atoms: C_14  and  C_13 
ROOT
ATOM      1  O   UNL d   1       0.568  -3.972  -0.991  0.00  0.00    -0.299 OA
ENDROOT
BRANCH   1   2
ATOM      2  C   UNL d   1       1.062  -4.369  -2.196  0.00  0.00     0.367 C 
ATOM      3  N   UNL d   1       0.644  -3.486  -3.162  0.00  0.00    -0.269 N 
ATOM      4  C   UNL d   1       0.898  -3.631  -4.511  0.00  0.00     0.261 C 
ATOM      5  H   UNL d   1       0.068  -2.731  -2.829  0.00  0.00     0.174 HD
ATOM      6  O   UNL d   1       1.552  -4.552  -4.990  0.00  0.00    -0.267 OA
ATOM      7  O   UNL d   1       1.783  -5.338  -2.347  0.00  0.00    -0.238 OA
BRANCH   4   8
ATOM      8  C   UNL d   1       0.380  -2.589  -5.454  0.00  0.00     0.054 A 
ATOM      9  C   UNL d   1      -0.685  -1.706  -5.223  0.00  0.00     0.049 A 
ATOM     10 CL   UNL d   1      -1.588  -1.650  -3.750  0.00  0.00    -0.083 Cl
ATOM     11  C   UNL d   1      -1.093  -0.815  -6.231  0.00  0.00     0.025 A 
ATOM     12  C   UNL d   1      -0.451  -0.791  -7.470  0.00  0.00     0.002 A 
ATOM     13  C   UNL d   1       0.612  -1.652  -7.709  0.00  0.00     0.001 A 
ATOM     14  C   UNL d   1       1.021  -2.540  -6.711  0.00  0.00     0.019 A 
ENDBRANCH   4   8
ENDBRANCH   1   2
BRANCH   1  15
ATOM     15  C   UNL d   1       0.961  -4.798   0.123  0.00  0.00     0.219 C 
BRANCH  15  16
ATOM     16  C   UNL d   1      -0.003  -5.945   0.300  0.00  0.00    -0.031 A 
ATOM     17  C   UNL d   1      -1.348  -5.685   0.589  0.00  0.00     0.046 A 
ATOM     18  C   UNL d   1      -2.288  -6.721   0.600  0.00  0.00     0.076 A 
ATOM     19  C   UNL d   1      -1.861  -8.042   0.460  0.00  0.00     0.037 A 
ATOM     20  C   UNL d   1      -0.512  -8.318   0.234  0.00  0.00     0.003 A 
ATOM     21  C   UNL d   1       0.409  -7.273   0.130  0.00  0.00     0.009 A 
BRANCH  18  22
ATOM     22  O   UNL d   1      -3.641  -6.529   0.768  0.00  0.00    -0.311 OA
BRANCH  22  23
ATOM     23  C   UNL d   1      -4.225  -5.378   0.285  0.00  0.00     0.076 A 
ATOM     24  C   UNL d   1      -3.823  -4.723  -0.885  0.00  0.00     0.037 A 
ATOM     25  C   UNL d   1      -4.428  -3.523  -1.258  0.00  0.00     0.003 A 
ATOM     26  C   UNL d   1      -5.480  -3.009  -0.501  0.00  0.00     0.000 A 
ATOM     27  C   UNL d   1      -5.935  -3.702   0.621  0.00  0.00     0.003 A 
ATOM     28  C   UNL d   1      -5.307  -4.885   1.014  0.00  0.00     0.037 A 
ENDBRANCH  22  23
ENDBRANCH  18  22
ENDBRANCH  15  16
ENDBRANCH   1  15
TORSDOF 6
