REMARK  3 active torsions:
REMARK  status: ('A' for Active; 'I' for Inactive)
REMARK    1  A    between atoms: C_3  and  C_1 
REMARK    2  A    between atoms: C_4  and  C_2 
REMARK       I    between atoms: N_15  and  C_4 
REMARK    3  A    between atoms: C_16  and  N_15 
ROOT
ATOM      1  C   UNL d   1      -1.135  -0.551   0.156  0.00  0.00     0.137 A 
ATOM      2  C   UNL d   1       0.071  -1.232  -0.021  0.00  0.00     0.093 A 
ATOM      3  O   UNL d   1      -0.871   0.789   0.064  0.00  0.00    -0.235 OA
ATOM      4  N   UNL d   1       0.470   1.015  -0.076  0.00  0.00    -0.264 N 
ATOM      5  HN  UNL d   1       0.935   1.921  -0.142  1.00  0.00     0.194 HD
ATOM      6  C   UNL d   1       1.046  -0.186  -0.109  0.00  0.00     0.047 A 
ATOM      7  C   UNL d   1       2.526  -0.210  -0.234  0.00  0.00     0.071 C 
ENDROOT
BRANCH   2   8
ATOM      8  C   UNL d   1       0.221  -2.685  -0.122  0.00  0.00     0.261 C 
ATOM      9  N   UNL d   1       1.424  -3.175   0.377  0.00  0.00    -0.323 N 
ATOM     10  H   UNL d   1       2.018  -2.513   0.852  0.00  0.00     0.169 HD
ATOM     11  O   UNL d   1      -0.658  -3.377  -0.612  0.00  0.00    -0.267 OA
BRANCH   9  12
ATOM     12  C   UNL d   1       1.881  -4.514   0.401  0.00  0.00     0.038 A 
ATOM     13  C   UNL d   1       1.169  -5.611  -0.092  0.00  0.00     0.053 A 
ATOM     14  C   UNL d   1       1.687  -6.904   0.052  0.00  0.00     0.037 A 
ATOM     15 CL   UNL d   1       0.787  -8.255  -0.525  0.00  0.00    -0.084 Cl
ATOM     16  C   UNL d   1       2.915  -7.123   0.668  0.00  0.00     0.048 A 
ATOM     17  C   UNL d   1       3.641  -6.030   1.122  0.00  0.00     0.037 A 
ATOM     18  C   UNL d   1       3.137  -4.735   0.987  0.00  0.00     0.053 A 
ATOM     19 CL   UNL d   1       5.169  -6.269   1.876  0.00  0.00    -0.084 Cl
ENDBRANCH   9  12
ENDBRANCH   2   8
BRANCH   1  20
ATOM     20  C   UNL d   1      -2.478  -0.968   0.464  0.00  0.00     0.083 A 
ATOM     21  C   UNL d   1      -3.683  -0.328   0.186  0.00  0.00     0.043 A 
ATOM     22  N   UNL d   1      -4.803  -0.917   0.766  0.00  0.00    -0.298 N 
ATOM     23  C   UNL d   1      -3.909   0.911  -0.606  0.00  0.00     0.071 C 
ATOM     24  N   UNL d   1      -4.489  -1.986   1.474  0.00  0.00    -0.269 N 
ATOM     25  HN  UNL d   1      -5.754  -0.564   0.657  1.00  0.00     0.187 HD
ATOM     26  S   UNL d   1      -2.855  -2.313   1.461  0.00  0.00     0.006 SA
ATOM     27  HN  UNL d   1      -5.173  -2.551   1.975  1.00  0.00     0.195 HD
ENDBRANCH   1  20
TORSDOF 3
