REMARK  4 active torsions:
REMARK  status: ('A' for Active; 'I' for Inactive)
REMARK    1  A    between atoms: C_3  and  C_1 
REMARK    2  A    between atoms: C_8  and  C_2 
REMARK    3  A    between atoms: C_17  and  C_9 
REMARK    4  A    between atoms: C_18  and  C_19 
ROOT
ATOM      1  C   UNL d   1       0.266  -2.692  -0.048  0.00  0.00     0.054 A 
ATOM      2  N   UNL d   1       1.026  -3.262   0.957  0.00  0.00    -0.349 N 
ATOM      3  HN  UNL d   1       1.353  -2.772   1.789  1.00  0.00     0.166 HD
ATOM      4  C   UNL d   1       1.269  -4.532   0.686  0.00  0.00     0.084 A 
ATOM      5  S   UNL d   1       0.530  -5.107  -0.767  0.00  0.00    -0.081 SA
ATOM      6  C   UNL d   1      -0.098  -3.550  -1.064  0.00  0.00     0.082 A 
ENDROOT
BRANCH   1   7
ATOM      7  C   UNL d   1      -0.063  -1.271   0.017  0.00  0.00     0.052 A 
ATOM      8  C   UNL d   1       0.741  -0.201   0.528  0.00  0.00     0.081 A 
ATOM      9  N   UNL d   1       0.094   0.965   0.343  0.00  0.00    -0.259 N 
ATOM     10  O   UNL d   1      -1.117   0.670  -0.234  0.00  0.00    -0.241 OA
ATOM     11  HN  UNL d   1       0.438   1.894   0.587  1.00  0.00     0.195 HD
ATOM     12  C   UNL d   1      -1.209  -0.665  -0.449  0.00  0.00     0.087 A 
ATOM     13  C   UNL d   1      -2.445  -1.133  -1.104  0.00  0.00     0.080 C 
BRANCH   8  14
ATOM     14  C   UNL d   1       2.107  -0.209   1.075  0.00  0.00     0.015 A 
ATOM     15  C   UNL d   1       2.517   0.606   2.150  0.00  0.00     0.048 A 
ATOM     16  C   UNL d   1       3.847   0.589   2.596  0.00  0.00     0.048 A 
ATOM     17 CL   UNL d   1       1.443   1.647   3.026  0.00  0.00    -0.083 Cl
ATOM     18  C   UNL d   1       4.774  -0.257   1.995  0.00  0.00     0.035 A 
ATOM     19  C   UNL d   1       4.393  -1.075   0.941  0.00  0.00     0.025 A 
ATOM     20 CL   UNL d   1       6.399  -0.289   2.558  0.00  0.00    -0.084 Cl
ATOM     21  C   UNL d   1       3.077  -1.035   0.473  0.00  0.00     0.017 A 
ENDBRANCH   8  14
ENDBRANCH   1   7
BRANCH   4  22
ATOM     22  C   UNL d   1       2.061  -5.443   1.532  0.00  0.00    -0.002 A 
ATOM     23  C   UNL d   1       2.153  -5.222   2.912  0.00  0.00     0.015 A 
ATOM     24  C   UNL d   1       2.856  -6.112   3.740  0.00  0.00     0.009 A 
ATOM     25  C   UNL d   1       3.506  -7.247   3.215  0.00  0.00    -0.051 A 
ATOM     26  C   UNL d   1       3.442  -7.432   1.829  0.00  0.00     0.009 A 
ATOM     27  C   UNL d   1       2.735  -6.548   1.004  0.00  0.00     0.015 A 
BRANCH  25  28
ATOM     28  C   UNL d   1       4.255  -8.224   4.138  0.00  0.00    -0.024 C 
ATOM     29  C   UNL d   1       4.896  -9.412   3.382  0.00  0.00     0.019 C 
ATOM     30  C   UNL d   1       5.389  -7.481   4.872  0.00  0.00     0.019 C 
ATOM     31  C   UNL d   1       3.281  -8.822   5.175  0.00  0.00     0.019 C 
ENDBRANCH  25  28
ENDBRANCH   4  22
TORSDOF 4
