REMARK  2 active torsions:
REMARK  status: ('A' for Active; 'I' for Inactive)
REMARK    1  A    between atoms: C_15  and  C_6 
REMARK    2  A    between atoms: C_13  and  C_16 
ROOT
ATOM      1  C   UNL d   1       0.691  -1.277  -0.018  0.00  0.00     0.105 A 
ATOM      2  C   UNL d   1       1.597  -2.375  -0.033  0.00  0.00     0.200 A 
ATOM      3  N   UNL d   1       1.603  -3.328  -0.939  0.00  0.00    -0.317 N 
ATOM      4  HN  UNL d   1       0.989  -3.437  -1.747  1.00  0.00     0.169 HD
ATOM      5  N   UNL d   1      -0.574  -1.272  -0.544  0.00  0.00    -0.292 N 
ATOM      6  C   UNL d   1       2.637  -4.144  -0.536  0.00  0.00     0.138 A 
ATOM      7  N   UNL d   1      -1.208  -0.089  -0.387  0.00  0.00    -0.303 N 
ATOM      8  HN  UNL d   1      -2.146   0.163  -0.697  1.00  0.00     0.186 HD
ATOM      9  N   UNL d   1       3.254  -3.721   0.578  0.00  0.00    -0.242 N 
ATOM     10  HN  UNL d   1       4.033  -4.159   1.071  1.00  0.00     0.196 HD
ATOM     11  C   UNL d   1       0.869  -0.022   0.528  0.00  0.00     0.061 A 
ATOM     12  O   UNL d   1       2.583  -2.547   0.903  0.00  0.00    -0.215 OA
ATOM     13  C   UNL d   1      -0.328   0.677   0.265  0.00  0.00     0.024 A 
ATOM     14  C   UNL d   1      -1.322  -2.347  -1.154  0.00  0.00     0.178 C 
ATOM     15  C   UNL d   1      -0.674   2.072   0.625  0.00  0.00     0.070 C 
ENDROOT
BRANCH   6  16
ATOM     16  C   UNL d   1       2.994  -5.358  -1.260  0.00  0.00     0.010 A 
ATOM     17  C   UNL d   1       2.325  -5.706  -2.442  0.00  0.00     0.016 A 
ATOM     18  C   UNL d   1       2.652  -6.880  -3.129  0.00  0.00     0.017 A 
ATOM     19  C   UNL d   1       3.657  -7.731  -2.647  0.00  0.00     0.048 A 
ATOM     20  C   UNL d   1       4.334  -7.377  -1.470  0.00  0.00     0.017 A 
ATOM     21  C   UNL d   1       4.007  -6.205  -0.785  0.00  0.00     0.016 A 
BRANCH  19  22
ATOM     22  C   UNL d   1       4.015  -9.012  -3.361  0.00  0.00     0.417 C 
ATOM     23  F   UNL d   1       3.253  -9.254  -4.463  0.00  0.00    -0.166 F 
ATOM     24  F   UNL d   1       5.308  -9.025  -3.789  0.00  0.00    -0.166 F 
ATOM     25  F   UNL d   1       3.875 -10.107  -2.563  0.00  0.00    -0.166 F 
ENDBRANCH  19  22
ENDBRANCH   6  16
TORSDOF 2
