REMARK  3 active torsions:
REMARK  status: ('A' for Active; 'I' for Inactive)
REMARK    1  A    between atoms: C_5  and  N_1 
REMARK    2  A    between atoms: C_14  and  C_12 
REMARK    3  A    between atoms: O_13  and  C_14 
ROOT
ATOM      1  C   UNL d   1      -0.713   2.454   0.035  0.00  0.00     0.039 A 
ATOM      2  C   UNL d   1      -1.597   2.891   1.031  0.00  0.00     0.030 A 
ATOM      3  C   UNL d   1      -0.235   3.383  -0.899  0.00  0.00     0.030 A 
ATOM      4  C   UNL d   1      -0.629   4.724  -0.832  0.00  0.00     0.011 A 
ATOM      5  C   UNL d   1      -1.983   4.235   1.094  0.00  0.00     0.011 A 
ATOM      6  C   UNL d   1      -1.513   5.165   0.160  0.00  0.00    -0.035 A 
ENDROOT
BRANCH   1   7
ATOM      7  N   UNL d   1      -0.291   1.093  -0.016  0.00  0.00    -0.317 N 
ATOM      8  C   UNL d   1      -0.696   0.057   0.801  0.00  0.00     0.188 A 
ATOM      9  N   UNL d   1      -0.090  -1.078   0.526  0.00  0.00    -0.360 N 
ATOM     10  C   UNL d   1       0.737  -0.791  -0.520  0.00  0.00     0.106 A 
ATOM     11  HN  UNL d   1      -0.212  -1.977   0.992  1.00  0.00     0.166 HD
ATOM     12  C   UNL d   1       0.623   0.530  -0.883  0.00  0.00     0.115 A 
ENDBRANCH   1   7
BRANCH   6  13
ATOM     13  C   UNL d   1      -1.879   6.624   0.246  0.00  0.00     0.202 C 
BRANCH  13  14
ATOM     14  O   UNL d   1      -3.178   6.793   0.796  0.00  0.00    -0.396 OA
ATOM     15  H   UNL d   1      -3.367   7.746   0.773  0.00  0.00     0.209 HD
ENDBRANCH  13  14
ENDBRANCH   6  13
TORSDOF 3
