REMARK  8 active torsions:
REMARK  status: ('A' for Active; 'I' for Inactive)
REMARK    1  A    between atoms: N_2  and  C_1 
REMARK    2  A    between atoms: C_3  and  C_1 
REMARK    3  A    between atoms: N_5  and  C_1 
REMARK    4  A    between atoms: C_7  and  C_1 
REMARK       I    between atoms: C_4  and  N_2 
REMARK    5  A    between atoms: C_6  and  C_4 
REMARK    6  A    between atoms: C_8  and  N_5 
REMARK    7  A    between atoms: O_18  and  C_7 
REMARK    8  A    between atoms: C_25  and  O_18 
ROOT
ATOM      1  C   UNL d   1       1.032  -0.035   0.170  0.00  0.00     0.281 C 
ENDROOT
BRANCH   1   2
ATOM      2  N   UNL d   1       0.663  -0.480  -1.184  0.00  0.00    -0.319 N 
ATOM      3  C   UNL d   1       1.099   0.061  -2.357  0.00  0.00     0.255 C 
ATOM      4  O   UNL d   1       1.917   0.972  -2.388  0.00  0.00    -0.268 OA
ATOM      5  H   UNL d   1      -0.251  -0.922  -1.201  0.00  0.00     0.165 HD
BRANCH   3   6
ATOM      6  C   UNL d   1       0.536  -0.522  -3.626  0.00  0.00     0.053 A 
ATOM      7  C   UNL d   1      -0.083  -1.781  -3.744  0.00  0.00     0.049 A 
ATOM      8 CL   UNL d   1      -0.414  -2.848  -2.424  0.00  0.00    -0.083 Cl
ATOM      9  C   UNL d   1      -0.469  -2.266  -5.003  0.00  0.00     0.025 A 
ATOM     10  C   UNL d   1      -0.265  -1.506  -6.152  0.00  0.00     0.002 A 
ATOM     11  C   UNL d   1       0.312  -0.246  -6.047  0.00  0.00     0.001 A 
ATOM     12  C   UNL d   1       0.716   0.240  -4.797  0.00  0.00     0.019 A 
ENDBRANCH   3   6
ENDBRANCH   1   2
BRANCH   1  13
ATOM     13  C   UNL d   1       0.586  -1.105   1.253  0.00  0.00     0.436 C 
ATOM     14  F   UNL d   1      -0.197  -2.068   0.685  0.00  0.00    -0.166 F 
ATOM     15  F   UNL d   1       1.623  -1.780   1.816  0.00  0.00    -0.166 F 
ATOM     16  F   UNL d   1      -0.128  -0.586   2.280  0.00  0.00    -0.166 F 
ENDBRANCH   1  13
BRANCH   1  17
ATOM     17  N   UNL d   1       0.479   1.323   0.371  0.00  0.00    -0.236 NA
ATOM     18  H   UNL d   1       0.963   2.003  -0.208  0.00  0.00     0.132 HD
BRANCH  17  19
ATOM     19  C   UNL d   1      -0.898   1.496   0.339  0.00  0.00     0.082 A 
ATOM     20  N   UNL d   1      -1.697   0.453   0.044  0.00  0.00    -0.356 N 
ATOM     21  C   UNL d   1      -3.035   0.663   0.054  0.00  0.00     0.096 A 
ATOM     22  HN  UNL d   1      -1.308  -0.463  -0.180  1.00  0.00     0.166 HD
ATOM     23  C   UNL d   1      -3.637   1.877   0.359  0.00  0.00    -0.046 A 
ATOM     24  C   UNL d   1      -2.796   2.943   0.664  0.00  0.00     0.011 A 
ATOM     25  C   UNL d   1      -5.124   2.027   0.329  0.00  0.00     0.049 C 
ATOM     26  C   UNL d   1      -1.416   2.748   0.658  0.00  0.00     0.043 A 
ENDBRANCH  17  19
ENDBRANCH   1  17
BRANCH   1  27
ATOM     27  C   UNL d   1       2.566   0.005   0.421  0.00  0.00     0.312 C 
ATOM     28  O   UNL d   1       3.104   0.710   1.266  0.00  0.00    -0.260 OA
BRANCH  27  29
ATOM     29  O   UNL d   1       3.235  -0.931  -0.329  0.00  0.00    -0.319 OA
BRANCH  29  30
ATOM     30  C   UNL d   1       4.632  -1.073  -0.028  0.00  0.00     0.174 C 
ATOM     31  C   UNL d   1       5.447   0.000  -0.724  0.00  0.00     0.034 C 
ENDBRANCH  29  30
ENDBRANCH  27  29
ENDBRANCH   1  27
TORSDOF 8
