REMARK  3 active torsions:
REMARK  status: ('A' for Active; 'I' for Inactive)
REMARK    1  A    between atoms: C_4  and  S_1 
REMARK    2  A    between atoms: C_11  and  S_1 
REMARK    3  A    between atoms: N_14  and  C_6 
ROOT
ATOM      1  N   UNL d   1      -1.413   3.284  -0.909  0.00  0.00    -0.180 N 
ATOM      2  HN  UNL d   1      -2.370   3.509  -1.181  1.00  0.00     0.185 HD
ATOM      3  C   UNL d   1       0.250   1.663  -0.404  0.00  0.00     0.114 A 
ATOM      4  C   UNL d   1      -0.504   4.261  -0.737  0.00  0.00     0.681 A 
ATOM      5  C   UNL d   1      -1.040   2.006  -0.717  0.00  0.00     0.117 A 
ATOM      6  N   UNL d   1       0.773   4.000  -0.420  0.00  0.00    -0.200 N 
ATOM      7  HN  UNL d   1       1.454   4.751  -0.313  1.00  0.00     0.183 HD
ATOM      8  N   UNL d   1      -0.885   5.555  -0.914  0.00  0.00    -0.218 N 
ATOM      9  C   UNL d   1       1.124   2.709  -0.247  0.00  0.00     0.133 A 
ATOM     10  C   UNL d   1      -2.262   5.948  -1.120  0.00  0.00     0.141 C 
ATOM     11  C   UNL d   1      -0.048   6.669  -0.513  0.00  0.00     0.141 C 
ATOM     12  C   UNL d   1      -2.110   7.402  -1.556  0.00  0.00     0.022 C 
ATOM     13  C   UNL d   1      -0.942   7.902  -0.712  0.00  0.00     0.022 C 
ENDROOT
BRANCH   3  14
ATOM     14  S   UNL d   1       0.748   0.041   0.038  0.00  0.00     0.187 S 
ATOM     15  O   UNL d   1      -0.424  -0.627   0.589  0.00  0.00    -0.222 OA
ATOM     16  O   UNL d   1       1.916   0.200   0.887  0.00  0.00    -0.222 OA
BRANCH  14  17
ATOM     17  C   UNL d   1       1.272  -0.835  -1.466  0.00  0.00     0.058 C 
ATOM     18  C   UNL d   1       2.445  -0.106  -2.137  0.00  0.00     0.031 C 
ATOM     19  C   UNL d   1       1.744  -2.248  -1.050  0.00  0.00     0.031 C 
ATOM     20  C   UNL d   1       0.116  -0.984  -2.462  0.00  0.00     0.031 C 
ENDBRANCH  14  17
ENDBRANCH   3  14
BRANCH   5  21
ATOM     21  N   UNL d   1      -2.060   1.079  -0.926  0.00  0.00    -0.287 NA
ATOM     22  H   UNL d   1      -2.923   1.599  -1.069  0.00  0.00     0.125 HD
ATOM     23  H   UNL d   1      -2.137   0.423  -0.146  0.00  0.00     0.125 HD
ENDBRANCH   5  21
TORSDOF 3
