REMARK  4 active torsions:
REMARK  status: ('A' for Active; 'I' for Inactive)
REMARK    1  A    between atoms: C_6  and  C_1 
REMARK    2  A    between atoms: N_9  and  C_5 
REMARK    3  A    between atoms: O_12  and  C_6 
REMARK    4  A    between atoms: C_13  and  N_9 
ROOT
ATOM      1  C   UNL d   1       1.295  -1.131  -0.001  0.00  0.00     0.110 A 
ATOM      2  C   UNL d   1      -0.546   0.314  -0.001  0.00  0.00     0.105 A 
ATOM      3  S   UNL d   1       2.000   0.435   0.045  0.00  0.00    -0.063 SA
ATOM      4  C   UNL d   1      -0.086  -1.042   0.003  0.00  0.00     0.073 A 
ATOM      5  C   UNL d   1       0.481   1.243   0.030  0.00  0.00     0.094 A 
ATOM      6  C   UNL d   1      -1.930   0.693   0.001  0.00  0.00     0.104 C 
ATOM      7  N   UNL d   1      -3.049   0.988   0.010  0.00  0.00    -0.191 NA
ATOM      8  N   UNL d   1      -0.913  -2.114   0.003  0.00  0.00    -0.397 N 
ATOM      9  H   UNL d   1      -1.928  -2.058   0.039  0.00  0.00     0.156 HD
ATOM     10  H   UNL d   1      -0.552  -3.069   0.024  0.00  0.00     0.156 HD
ENDROOT
BRANCH   5  11
ATOM     11  N   UNL d   1       0.359   2.604  -0.005  0.00  0.00    -0.383 N 
ATOM     12  H   UNL d   1      -0.530   3.031  -0.262  0.00  0.00     0.160 HD
BRANCH  11  13
ATOM     13  C   UNL d   1       1.309   3.501   0.638  0.00  0.00     0.116 C 
ATOM     14  C   UNL d   1       0.840   4.944   0.494  0.00  0.00     0.026 C 
ENDBRANCH  11  13
ENDBRANCH   5  11
BRANCH   1  15
ATOM     15  C   UNL d   1       2.183  -2.285  -0.026  0.00  0.00     0.302 C 
ATOM     16  O   UNL d   1       3.409  -2.260  -0.038  0.00  0.00    -0.259 OA
BRANCH  15  17
ATOM     17  O   UNL d   1       1.458  -3.448  -0.032  0.00  0.00    -0.322 OA
ATOM     18  C   UNL d   1       2.243  -4.642  -0.057  0.00  0.00     0.213 C 
ENDBRANCH  15  17
ENDBRANCH   1  15
TORSDOF 4
