REMARK  4 active torsions:
REMARK  status: ('A' for Active; 'I' for Inactive)
REMARK    1  A    between atoms: N_8  and  C_4 
REMARK    2  A    between atoms: C_11  and  C_5 
REMARK    3  A    between atoms: C_12  and  N_8 
REMARK    4  A    between atoms: O_18  and  C_13 
ROOT
ATOM      1  C   UNL d   1       0.691   1.153  -0.453  0.00  0.00     0.071 C 
ATOM      2  C   UNL d   1       1.449  -0.111  -0.258  0.00  0.00     0.165 C 
ATOM      3  C   UNL d   1      -0.780   1.189  -0.250  0.00  0.00     0.165 C 
ATOM      4  C   UNL d   1       1.274   2.242  -0.983  0.00  0.00     0.107 C 
ATOM      5  C   UNL d   1      -0.745  -1.263   0.380  0.00  0.00     0.033 C 
ATOM      6  C   UNL d   1      -1.510  -0.132  -0.316  0.00  0.00     0.093 C 
ATOM      7  C   UNL d   1       0.659  -1.399  -0.233  0.00  0.00     0.093 C 
ATOM      8  O   UNL d   1      -1.396   2.245  -0.121  0.00  0.00    -0.292 OA
ATOM      9  O   UNL d   1       2.682  -0.126  -0.239  0.00  0.00    -0.292 OA
ENDROOT
BRANCH   4  10
ATOM     10  N   UNL d   1       2.587   2.418  -1.361  0.00  0.00    -0.365 N 
ATOM     11  H   UNL d   1       3.214   1.643  -1.127  0.00  0.00     0.165 HD
BRANCH  10  12
ATOM     12  C   UNL d   1       3.125   3.426  -2.179  0.00  0.00     0.032 A 
ATOM     13  C   UNL d   1       4.517   3.585  -2.231  0.00  0.00     0.032 A 
ATOM     14  C   UNL d   1       5.106   4.628  -2.964  0.00  0.00     0.039 A 
ATOM     15  C   UNL d   1       4.308   5.536  -3.653  0.00  0.00     0.068 A 
ATOM     16  C   UNL d   1       2.925   5.376  -3.626  0.00  0.00     0.039 A 
ATOM     17  C   UNL d   1       2.340   4.340  -2.889  0.00  0.00     0.032 A 
BRANCH  15  18
ATOM     18  O   UNL d   1       4.747   6.606  -4.383  0.00  0.00    -0.356 OA
ATOM     19  C   UNL d   1       6.122   6.943  -4.258  0.00  0.00     0.210 C 
ENDBRANCH  15  18
ENDBRANCH  10  12
ENDBRANCH   4  10
BRANCH   5  20
ATOM     20  C   UNL d   1      -0.748  -1.245   1.907  0.00  0.00    -0.053 A 
ATOM     21  C   UNL d   1      -1.364  -0.240   2.670  0.00  0.00     0.007 A 
ATOM     22  C   UNL d   1      -1.401  -0.315   4.067  0.00  0.00     0.001 A 
ATOM     23  C   UNL d   1      -0.824  -1.393   4.729  0.00  0.00     0.000 A 
ATOM     24  C   UNL d   1      -0.214  -2.403   3.995  0.00  0.00     0.001 A 
ATOM     25  C   UNL d   1      -0.184  -2.333   2.600  0.00  0.00     0.007 A 
ENDBRANCH   5  20
TORSDOF 4
