REMARK  5 active torsions:
REMARK  status: ('A' for Active; 'I' for Inactive)
REMARK    1  A    between atoms: C_2  and  N_1 
REMARK       I    between atoms: C_3  and  N_1 
REMARK    2  A    between atoms: N_5  and  C_2 
REMARK    3  A    between atoms: C_8  and  C_3 
REMARK    4  A    between atoms: C_4  and  C_6 
REMARK    5  A    between atoms: C_17  and  N_5 
ROOT
ATOM      1  N   UNL d   1       1.150   0.166   0.044  0.00  0.00    -0.299 N 
ATOM      2  C   UNL d   1       2.219  -0.583  -0.428  0.00  0.00     0.257 C 
ATOM      3  O   UNL d   1       2.799  -1.455   0.206  0.00  0.00    -0.267 OA
ATOM      4  H   UNL d   1       0.887   0.993  -0.467  0.00  0.00     0.171 HD
ENDROOT
BRANCH   1   5
ATOM      5  C   UNL d   1       0.315  -0.151   1.087  0.00  0.00     0.179 C 
ATOM      6  S   UNL d   1      -0.100  -1.696   1.580  0.00  0.00    -0.040 SA
BRANCH   5   7
ATOM      7  N   UNL d   1      -0.282   0.884   1.754  0.00  0.00    -0.333 N 
ATOM      8  H   UNL d   1      -0.996   0.550   2.397  0.00  0.00     0.168 HD
BRANCH   7   9
ATOM      9  C   UNL d   1       0.067   2.245   1.904  0.00  0.00     0.034 A 
ATOM     10  C   UNL d   1       1.212   2.844   1.368  0.00  0.00     0.032 A 
ATOM     11  C   UNL d   1       1.493   4.192   1.619  0.00  0.00     0.044 A 
ATOM     12  C   UNL d   1       0.646   4.934   2.431  0.00  0.00     0.116 A 
ATOM     13  C   UNL d   1      -0.483   4.356   2.991  0.00  0.00     0.044 A 
ATOM     14  F   UNL d   1       0.935   6.215   2.691  0.00  0.00    -0.206 F 
ATOM     15  C   UNL d   1      -0.774   3.015   2.724  0.00  0.00     0.032 A 
ENDBRANCH   7   9
ENDBRANCH   5   7
ENDBRANCH   1   5
BRANCH   2  16
ATOM     16  C   UNL d   1       2.803  -0.158  -1.729  0.00  0.00     0.032 A 
ATOM     17  C   UNL d   1       4.189  -0.290  -1.893  0.00  0.00     0.018 A 
ATOM     18  C   UNL d   1       4.793   0.025  -3.110  0.00  0.00     0.017 A 
ATOM     19  C   UNL d   1       4.019   0.471  -4.191  0.00  0.00     0.048 A 
ATOM     20  C   UNL d   1       2.632   0.622  -4.016  0.00  0.00     0.017 A 
ATOM     21  C   UNL d   1       2.023   0.311  -2.792  0.00  0.00     0.018 A 
BRANCH  19  22
ATOM     22  C   UNL d   1       4.685   0.746  -5.519  0.00  0.00     0.417 C 
ATOM     23  F   UNL d   1       3.816   1.137  -6.492  0.00  0.00    -0.166 F 
ATOM     24  F   UNL d   1       5.622   1.730  -5.437  0.00  0.00    -0.166 F 
ATOM     25  F   UNL d   1       5.331  -0.346  -6.012  0.00  0.00    -0.166 F 
ENDBRANCH  19  22
ENDBRANCH   2  16
TORSDOF 5
