REMARK  5 active torsions:
REMARK  status: ('A' for Active; 'I' for Inactive)
REMARK    1  A    between atoms: N_14  and  C_1 
REMARK    2  A    between atoms: N_5  and  C_2 
REMARK       I    between atoms: C_3  and  N_12 
REMARK    3  A    between atoms: C_4  and  C_3 
REMARK    4  A    between atoms: O_27  and  C_8 
REMARK       I    between atoms: N_12  and  C_13 
REMARK       I    between atoms: C_13  and  N_14 
REMARK    5  A    between atoms: O_28  and  C_16 
ROOT
ATOM      1  C   UNL d   1       2.866  -2.868   0.262  0.00  0.00     0.265 C 
ATOM      2  N   UNL d   1       2.689  -3.931   1.135  0.00  0.00    -0.275 N 
ATOM      3  C   UNL d   1       3.508  -5.014   1.321  0.00  0.00     0.327 C 
ATOM      4  N   UNL d   1       4.106  -5.489   0.185  0.00  0.00    -0.303 N 
ATOM      5  O   UNL d   1       3.739  -2.887  -0.602  0.00  0.00    -0.267 OA
ATOM      6  O   UNL d   1       3.628  -5.462   2.453  0.00  0.00    -0.247 OA
ATOM      7  H   UNL d   1       2.127  -3.762   1.960  0.00  0.00     0.173 HD
ATOM      8  H   UNL d   1       4.214  -4.801  -0.562  0.00  0.00     0.171 HD
ENDROOT
BRANCH   1   9
ATOM      9  C   UNL d   1       1.872  -1.738   0.392  0.00  0.00     0.101 C 
ATOM     10  C   UNL d   1       1.036  -1.614   1.527  0.00  0.00     0.119 C 
ATOM     11  C   UNL d   1      -0.099  -0.782   1.484  0.00  0.00     0.137 C 
ATOM     12  C   UNL d   1      -0.331   0.030   0.364  0.00  0.00     0.042 C 
ATOM     13  C   UNL d   1       0.575   0.022  -0.693  0.00  0.00     0.040 C 
ATOM     14  C   UNL d   1       1.677  -0.840  -0.673  0.00  0.00     0.086 C 
BRANCH  10  15
ATOM     15  O   UNL d   1       1.330  -2.347   2.653  0.00  0.00    -0.352 OA
ATOM     16  C   UNL d   1       2.259  -1.641   3.491  0.00  0.00     0.210 C 
ENDBRANCH  10  15
BRANCH  11  17
ATOM     17  N   UNL d   1      -1.096  -0.759   2.570  0.00  0.00    -0.113 N 
ATOM     18  O   UNL d   1      -1.040  -1.623   3.453  0.00  0.00    -0.532 OA
ATOM     19  O   UNL d   1      -1.957   0.131   2.527  0.00  0.00    -0.532 OA
ENDBRANCH  11  17
BRANCH  14  20
ATOM     20  O   UNL d   1       2.491  -0.780  -1.771  0.00  0.00    -0.355 OA
ATOM     21  C   UNL d   1       3.665  -0.005  -1.500  0.00  0.00     0.210 C 
ENDBRANCH  14  20
ENDBRANCH   1   9
BRANCH   4  22
ATOM     22  C   UNL d   1       4.717  -6.753   0.006  0.00  0.00     0.120 A 
ATOM     23  C   UNL d   1       4.571  -7.851   0.866  0.00  0.00     0.188 A 
ATOM     24  C   UNL d   1       5.200  -9.063   0.587  0.00  0.00     0.199 A 
ATOM     25  F   UNL d   1       3.765  -7.814   1.934  0.00  0.00    -0.200 F 
ATOM     26  F   UNL d   1       5.045 -10.102   1.419  0.00  0.00    -0.199 F 
ATOM     27  C   UNL d   1       5.960  -9.210  -0.563  0.00  0.00     0.199 A 
ATOM     28  C   UNL d   1       6.089  -8.148  -1.442  0.00  0.00     0.199 A 
ATOM     29  F   UNL d   1       6.547 -10.385  -0.834  0.00  0.00    -0.199 F 
ATOM     30  C   UNL d   1       5.472  -6.933  -1.160  0.00  0.00     0.188 A 
ATOM     31  F   UNL d   1       6.798  -8.294  -2.570  0.00  0.00    -0.199 F 
ATOM     32  F   UNL d   1       5.596  -5.918  -2.030  0.00  0.00    -0.200 F 
ENDBRANCH   4  22
TORSDOF 5
