REMARK  3 active torsions:
REMARK  status: ('A' for Active; 'I' for Inactive)
REMARK    1  A    between atoms: C_2  and  C_1 
REMARK    2  A    between atoms: O_7  and  C_2 
REMARK    3  A    between atoms: C_15  and  O_7 
ROOT
ATOM      1  C   UNL d   1       1.012  -5.834   0.249  0.00  0.00     0.048 A 
ATOM      2  C   UNL d   1       0.030  -6.149  -0.691  0.00  0.00     0.091 A 
ATOM      3  C   UNL d   1       2.286  -6.573   0.218  0.00  0.00     0.186 A 
ATOM      4  C   UNL d   1      -1.163  -5.429  -0.718  0.00  0.00     0.075 A 
ATOM      5  C   UNL d   1       2.402  -7.632  -0.800  0.00  0.00     0.080 A 
ATOM      6  O   UNL d   1       0.186  -7.143  -1.626  0.00  0.00    -0.322 OA
ATOM      7  C   UNL d   1       0.796  -4.815   1.184  0.00  0.00     0.021 A 
ATOM      8  C   UNL d   1       1.371  -7.839  -1.623  0.00  0.00     0.146 A 
ATOM      9  C   UNL d   1      -1.370  -4.401   0.205  0.00  0.00     0.082 A 
ATOM     10  O   UNL d   1       3.212  -6.325   0.980  0.00  0.00    -0.287 OA
ATOM     11  C   UNL d   1      -0.401  -4.091   1.160  0.00  0.00     0.038 A 
ENDROOT
BRANCH   9  12
ATOM     12  O   UNL d   1      -2.556  -3.652   0.008  0.00  0.00    -0.275 OA
BRANCH  12  13
ATOM     13  C   UNL d   1      -3.105  -2.790   0.943  0.00  0.00     0.300 C 
ATOM     14  O   UNL d   1      -2.849  -2.724   2.133  0.00  0.00    -0.259 OA
BRANCH  13  15
ATOM     15  C   UNL d   1      -4.196  -2.013   0.306  0.00  0.00     0.061 A 
ATOM     16  C   UNL d   1      -4.105  -1.430  -0.967  0.00  0.00     0.051 A 
ATOM     17  C   UNL d   1      -5.193  -0.720  -1.491  0.00  0.00     0.048 A 
ATOM     18 CL   UNL d   1      -2.672  -1.469  -1.934  0.00  0.00    -0.083 Cl
ATOM     19  C   UNL d   1      -6.357  -0.570  -0.740  0.00  0.00     0.035 A 
ATOM     20  C   UNL d   1      -6.445  -1.113   0.540  0.00  0.00     0.025 A 
ATOM     21 CL   UNL d   1      -7.686   0.304  -1.391  0.00  0.00    -0.084 Cl
ATOM     22  C   UNL d   1      -5.366  -1.830   1.064  0.00  0.00     0.021 A 
ENDBRANCH  13  15
ENDBRANCH  12  13
ENDBRANCH   9  12
TORSDOF 3
