REMARK  7 active torsions:
REMARK  status: ('A' for Active; 'I' for Inactive)
REMARK    1  A    between atoms: S_9  and  C_3 
REMARK    2  A    between atoms: O_12  and  C_4 
REMARK    3  A    between atoms: C_15  and  C_8 
REMARK    4  A    between atoms: C_14  and  S_9 
REMARK    5  A    between atoms: C_13  and  C_10 
REMARK    6  A    between atoms: C_11  and  C_14 
REMARK    7  A    between atoms: C_18  and  C_15 
ROOT
ATOM      1  N   UNL d   1      -0.275  -1.219   0.026  0.00  0.00    -0.318 N 
ATOM      2  HN  UNL d   1      -0.809  -2.088   0.026  1.00  0.00     0.170 HD
ATOM      3  C   UNL d   1       1.068  -1.202   0.046  0.00  0.00     0.146 A 
ATOM      4  C   UNL d   1      -0.858  -0.024   0.005  0.00  0.00     0.143 A 
ATOM      5  N   UNL d   1       1.823  -0.085   0.042  0.00  0.00    -0.340 N 
ATOM      6  HN  UNL d   1       2.842  -0.130   0.061  1.00  0.00     0.167 HD
ATOM      7  C   UNL d   1      -0.211   1.179  -0.001  0.00  0.00     0.081 A 
ATOM      8  C   UNL d   1       1.166   1.101   0.012  0.00  0.00     0.015 A 
ENDROOT
BRANCH   3   9
ATOM      9  S   UNL d   1       1.828  -2.806   0.086  0.00  0.00    -0.090 SA
BRANCH   9  10
ATOM     10  C   UNL d   1       3.591  -2.375   0.088  0.00  0.00     0.109 C 
BRANCH  10  11
ATOM     11  C   UNL d   1       4.386  -3.653   0.047  0.00  0.00    -0.015 C 
ATOM     12  C   UNL d   1       5.250  -4.053   0.996  0.00  0.00     0.008 C 
BRANCH  12  13
ATOM     13  C   UNL d   1       6.032  -5.303   0.944  0.00  0.00    -0.036 A 
ATOM     14  C   UNL d   1       6.443  -5.884  -0.264  0.00  0.00     0.011 A 
ATOM     15  C   UNL d   1       7.216  -7.049  -0.276  0.00  0.00     0.001 A 
ATOM     16  C   UNL d   1       7.601  -7.642   0.923  0.00  0.00     0.000 A 
ATOM     17  C   UNL d   1       7.214  -7.072   2.133  0.00  0.00     0.001 A 
ATOM     18  C   UNL d   1       6.437  -5.907   2.143  0.00  0.00     0.011 A 
ENDBRANCH  12  13
ENDBRANCH  10  11
ENDBRANCH   9  10
ENDBRANCH   3   9
BRANCH   4  19
ATOM     19  O   UNL d   1      -2.216  -0.068  -0.008  0.00  0.00    -0.346 OA
ATOM     20  H   UNL d   1      -2.361  -1.032   0.001  0.00  0.00     0.219 HD
ENDBRANCH   4  19
BRANCH   8  21
ATOM     21  C   UNL d   1       1.985   2.370   0.022  0.00  0.00     0.057 C 
BRANCH  21  22
ATOM     22  C   UNL d   1       2.928   2.512  -1.176  0.00  0.00     0.002 C 
ATOM     23  C   UNL d   1       2.201   2.589  -2.511  0.00  0.00     0.005 C 
ENDBRANCH  21  22
ENDBRANCH   8  21
TORSDOF 7
