REMARK  5 active torsions:
REMARK  status: ('A' for Active; 'I' for Inactive)
REMARK    1  A    between atoms: N_6  and  C_1 
REMARK    2  A    between atoms: C_8  and  C_2 
REMARK       I    between atoms: C_7  and  N_6 
REMARK       I    between atoms: N_12  and  C_7 
REMARK    3  A    between atoms: O_17  and  C_8 
REMARK    4  A    between atoms: C_16  and  N_12 
REMARK    5  A    between atoms: C_24  and  O_17 
ROOT
ATOM      1  C   UNL d   1       2.359  -1.090   0.297  0.00  0.00     0.095 C 
ATOM      2  C   UNL d   1       1.129  -1.700   0.116  0.00  0.00     0.080 C 
ATOM      3  C   UNL d   1       0.097  -0.667   0.076  0.00  0.00    -0.022 C 
ATOM      4  C   UNL d   1       0.597   0.598   0.323  0.00  0.00     0.020 C 
ATOM      5  S   UNL d   1       2.254   0.580   0.647  0.00  0.00    -0.073 SA
ATOM      6  N   UNL d   1      -1.645   1.622   0.529  0.00  0.00     0.089 N 
ATOM      7  C   UNL d   1      -0.203   1.868   0.327  0.00  0.00     0.318 C 
ATOM      8  C   UNL d   1      -1.386  -0.851  -0.118  0.00  0.00     0.071 C 
ATOM      9  C   UNL d   1      -2.107   0.505  -0.326  0.00  0.00     0.277 C 
ATOM     10  C   UNL d   1      -1.954   1.402   1.941  0.00  0.00     0.310 C 
ENDROOT
BRANCH   1  11
ATOM     11  N   UNL d   1       3.688  -1.456   0.264  0.00  0.00    -0.302 N 
ATOM     12  C   UNL d   1       4.190  -2.200  -0.797  0.00  0.00     0.325 C 
ATOM     13  N   UNL d   1       5.524  -1.844  -1.015  0.00  0.00    -0.309 N 
ATOM     14  O   UNL d   1       3.545  -2.972  -1.489  0.00  0.00    -0.247 OA
ATOM     15  H   UNL d   1       5.783  -0.923  -0.698  0.00  0.00     0.170 HD
ATOM     16  H   UNL d   1       4.303  -0.742   0.617  0.00  0.00     0.171 HD
BRANCH  13  17
ATOM     17  C   UNL d   1       6.332  -2.364  -2.046  0.00  0.00     0.036 A 
ATOM     18  C   UNL d   1       7.302  -1.526  -2.606  0.00  0.00     0.030 A 
ATOM     19  C   UNL d   1       8.064  -1.961  -3.693  0.00  0.00     0.009 A 
ATOM     20  C   UNL d   1       7.898  -3.254  -4.199  0.00  0.00    -0.062 A 
ATOM     21  C   UNL d   1       6.970  -4.107  -3.593  0.00  0.00     0.009 A 
ATOM     22  C   UNL d   1       8.636  -3.686  -5.431  0.00  0.00     0.048 C 
ATOM     23  C   UNL d   1       6.190  -3.665  -2.523  0.00  0.00     0.030 A 
ENDBRANCH  13  17
ENDBRANCH   1  11
BRANCH   2  24
ATOM     24  C   UNL d   1       0.839  -3.143   0.060  0.00  0.00     0.296 C 
ATOM     25  O   UNL d   1      -0.283  -3.573  -0.185  0.00  0.00    -0.259 OA
BRANCH  24  26
ATOM     26  O   UNL d   1       1.865  -3.932   0.490  0.00  0.00    -0.318 OA
BRANCH  26  27
ATOM     27  C   UNL d   1       1.530  -5.278   0.865  0.00  0.00     0.174 C 
ATOM     28  C   UNL d   1       1.252  -6.209  -0.304  0.00  0.00     0.034 C 
ENDBRANCH  26  27
ENDBRANCH  24  26
ENDBRANCH   2  24
TORSDOF 5
