REMARK  4 active torsions:
REMARK  status: ('A' for Active; 'I' for Inactive)
REMARK    1  A    between atoms: C_2  and  S_1 
REMARK    2  A    between atoms: C_3  and  S_1 
REMARK    3  A    between atoms: C_15  and  C_4 
REMARK    4  A    between atoms: N_13  and  C_11 
ROOT
ATOM      1  C   UNL d   1      -1.215  -2.858  -0.808  0.00  0.00     0.145 C 
ATOM      2  C   UNL d   1      -0.390  -2.335   0.115  0.00  0.00     0.046 C 
ATOM      3  C   UNL d   1      -2.603  -3.031  -0.626  0.00  0.00     0.112 C 
ATOM      4  N   UNL d   1      -3.751  -3.141  -0.483  0.00  0.00    -0.191 NA
ENDROOT
BRANCH   1   5
ATOM      5  S   UNL d   1      -0.553  -3.452  -2.296  0.00  0.00     0.223 S 
ATOM      6  O   UNL d   1      -0.922  -4.845  -2.473  0.00  0.00    -0.216 OA
ATOM      7  O   UNL d   1       0.831  -3.038  -2.461  0.00  0.00    -0.216 OA
BRANCH   5   8
ATOM      8  C   UNL d   1      -1.431  -2.602  -3.596  0.00  0.00     0.105 A 
ATOM      9  S   UNL d   1      -1.256  -0.898  -3.637  0.00  0.00    -0.090 SA
ATOM     10  C   UNL d   1      -2.200  -0.772  -5.058  0.00  0.00     0.051 A 
ATOM     11  C   UNL d   1      -2.659  -1.997  -5.486  0.00  0.00     0.009 A 
ATOM     12  C   UNL d   1      -2.231  -3.054  -4.630  0.00  0.00     0.032 A 
ENDBRANCH   5   8
ENDBRANCH   1   5
BRANCH   2  13
ATOM     13  C   UNL d   1      -0.828  -1.924   1.453  0.00  0.00    -0.034 A 
ATOM     14  C   UNL d   1      -0.693  -2.803   2.526  0.00  0.00     0.013 A 
ATOM     15  C   UNL d   1      -1.096  -2.421   3.816  0.00  0.00     0.030 A 
ATOM     16  C   UNL d   1      -1.637  -1.155   4.093  0.00  0.00     0.029 A 
ATOM     17  C   UNL d   1      -1.776  -0.302   2.983  0.00  0.00     0.030 A 
ATOM     18  C   UNL d   1      -1.389  -0.673   1.684  0.00  0.00     0.013 A 
BRANCH  16  19
ATOM     19  N   UNL d   1      -1.964  -0.743   5.378  0.00  0.00    -0.390 N 
ATOM     20  C   UNL d   1      -3.045   0.213   5.620  0.00  0.00     0.149 C 
ATOM     21  C   UNL d   1      -1.541  -1.473   6.572  0.00  0.00     0.149 C 
ENDBRANCH  16  19
ENDBRANCH   2  13
TORSDOF 4
