REMARK  5 active torsions:
REMARK  status: ('A' for Active; 'I' for Inactive)
REMARK    1  A    between atoms: C_8  and  C_1 
REMARK    2  A    between atoms: S_9  and  C_3 
REMARK    3  A    between atoms: C_10  and  S_9 
REMARK    4  A    between atoms: C_18  and  C_11 
REMARK    5  A    between atoms: S_22  and  C_14 
ROOT
ATOM      1  C   UNL d   1       2.223  -2.840  -0.169  0.00  0.00     0.051 A 
ATOM      2  C   UNL d   1       2.913  -2.364   0.946  0.00  0.00     0.063 A 
ATOM      3  N   UNL d   1       4.269  -2.444   1.034  0.00  0.00    -0.335 N 
ATOM      4  HN  UNL d   1       4.763  -2.100   1.858  1.00  0.00     0.168 HD
ATOM      5  C   UNL d   1       4.935  -2.988   0.007  0.00  0.00     0.141 A 
ATOM      6  N   UNL d   1       4.370  -3.483  -1.099  0.00  0.00    -0.345 N 
ATOM      7  HN  UNL d   1       4.919  -3.902  -1.849  1.00  0.00     0.167 HD
ATOM      8  C   UNL d   1       3.026  -3.391  -1.157  0.00  0.00     0.111 A 
ENDROOT
BRANCH   1   9
ATOM      9  S   UNL d   1       0.467  -2.802  -0.445  0.00  0.00    -0.049 SA
BRANCH   9  10
ATOM     10  C   UNL d   1       0.306  -1.189  -1.049  0.00  0.00     0.167 A 
ATOM     11  N   UNL d   1      -0.907  -0.596  -1.303  0.00  0.00    -0.312 N 
ATOM     12  C   UNL d   1      -0.608   0.623  -1.872  0.00  0.00     0.209 A 
ATOM     13  C   UNL d   1      -2.199  -1.173  -1.030  0.00  0.00     0.160 C 
ATOM     14  N   UNL d   1       0.708   0.767  -1.882  0.00  0.00    -0.279 N 
ATOM     15  N   UNL d   1       1.276  -0.372  -1.371  0.00  0.00    -0.278 N 
ATOM     16  HN  UNL d   1       1.215   1.587  -2.214  1.00  0.00     0.188 HD
ATOM     17  HN  UNL d   1       2.274  -0.551  -1.261  1.00  0.00     0.189 HD
BRANCH  12  18
ATOM     18  C   UNL d   1      -1.591   1.609  -2.396  0.00  0.00     0.450 C 
ATOM     19  F   UNL d   1      -2.809   1.060  -2.646  0.00  0.00    -0.163 F 
ATOM     20  F   UNL d   1      -1.801   2.627  -1.524  0.00  0.00    -0.163 F 
ATOM     21  F   UNL d   1      -1.188   2.163  -3.567  0.00  0.00    -0.163 F 
ENDBRANCH  12  18
ENDBRANCH   9  10
ENDBRANCH   1   9
BRANCH   2  22
ATOM     22  C   UNL d   1       2.298  -1.683   2.113  0.00  0.00    -0.008 A 
ATOM     23  C   UNL d   1       1.118  -2.130   2.735  0.00  0.00     0.015 A 
ATOM     24  C   UNL d   1       0.538  -1.423   3.796  0.00  0.00     0.024 A 
ATOM     25  C   UNL d   1       1.155  -0.276   4.285  0.00  0.00     0.034 A 
ATOM     26  C   UNL d   1       2.353   0.161   3.734  0.00  0.00     0.024 A 
ATOM     27 CL   UNL d   1       0.435   0.599   5.579  0.00  0.00    -0.084 Cl
ATOM     28  C   UNL d   1       2.914  -0.537   2.658  0.00  0.00     0.015 A 
ENDBRANCH   2  22
BRANCH   5  29
ATOM     29  S   UNL d   1       6.697  -3.046   0.098  0.00  0.00    -0.107 SA
ATOM     30  H   UNL d   1       6.830  -3.492  -1.158  0.00  0.00     0.110 HD
ENDBRANCH   5  29
TORSDOF 5
