REMARK  7 active torsions:
REMARK  status: ('A' for Active; 'I' for Inactive)
REMARK       I    between atoms: C_3  and  N_1 
REMARK    1  A    between atoms: S_4  and  N_1 
REMARK    2  A    between atoms: C_5  and  C_3 
REMARK    3  A    between atoms: C_6  and  S_4 
REMARK    4  A    between atoms: N_7  and  O_17 
REMARK    5  A    between atoms: C_10  and  C_9 
REMARK    6  A    between atoms: O_17  and  C_29 
REMARK    7  A    between atoms: C_29  and  C_19 
ROOT
ATOM      1  C   UNL d   1       8.326  -6.171  -5.838  0.00  0.00     0.033 A 
ATOM      2  C   UNL d   1       7.547  -5.376  -4.988  0.00  0.00     0.026 A 
ATOM      3  C   UNL d   1       6.644  -4.431  -5.505  0.00  0.00    -0.031 A 
ATOM      4  C   UNL d   1       8.230  -5.998  -7.224  0.00  0.00     0.017 A 
ATOM      5  C   UNL d   1       7.353  -5.049  -7.751  0.00  0.00     0.002 A 
ATOM      6  C   UNL d   1       6.556  -4.282  -6.899  0.00  0.00     0.009 A 
ENDROOT
BRANCH   1   7
ATOM      7  C   UNL d   1       9.205  -7.217  -5.222  0.00  0.00     0.261 C 
ATOM      8  N   UNL d   1       9.295  -8.336  -5.958  0.00  0.00    -0.302 N 
ATOM      9  HN  UNL d   1       9.259  -8.322  -6.977  1.00  0.00     0.176 HD
ATOM     10  O   UNL d   1       9.739  -6.933  -4.148  0.00  0.00    -0.267 OA
BRANCH   8  11
ATOM     11  S   UNL d   1       9.453  -9.619  -5.170  0.00  0.00    -0.094 SA
ATOM     12  C   UNL d   1      11.203  -9.904  -5.547  0.00  0.00     0.107 C 
BRANCH  11  13
ATOM     13  C   UNL d   1       8.744 -10.690  -6.449  0.00  0.00     0.009 A 
ATOM     14  C   UNL d   1       8.954 -10.520  -7.820  0.00  0.00     0.020 A 
ATOM     15  C   UNL d   1       8.324 -11.354  -8.747  0.00  0.00     0.008 A 
ATOM     16  C   UNL d   1       7.480 -12.384  -8.317  0.00  0.00    -0.062 A 
ATOM     17  C   UNL d   1       7.296 -12.581  -6.944  0.00  0.00     0.008 A 
ATOM     18  C   UNL d   1       6.760 -13.227  -9.326  0.00  0.00     0.048 C 
ATOM     19  C   UNL d   1       7.924 -11.739  -6.020  0.00  0.00     0.020 A 
ENDBRANCH  11  13
ENDBRANCH   8  11
ENDBRANCH   1   7
BRANCH   3  20
ATOM     20  C   UNL d   1       5.722  -3.698  -4.558  0.00  0.00     0.239 C 
BRANCH  20  21
ATOM     21  O   UNL d   1       5.332  -2.429  -5.095  0.00  0.00    -0.276 OA
BRANCH  21  22
ATOM     22  N   UNL d   1       4.308  -1.871  -4.307  0.00  0.00    -0.270 N 
ATOM     23  C   UNL d   1       3.927  -0.722  -4.783  0.00  0.00     0.038 C 
ATOM     24  C   UNL d   1       4.510  -0.093  -6.035  0.00  0.00     0.071 C 
ATOM     25  HN  UNL d   1       3.917  -2.309  -3.473  1.00  0.00     0.194 HD
BRANCH  23  26
ATOM     26  C   UNL d   1       2.864   0.049  -4.068  0.00  0.00    -0.012 A 
ATOM     27  C   UNL d   1       2.823   1.451  -4.145  0.00  0.00     0.015 A 
ATOM     28  C   UNL d   1       1.806   2.162  -3.502  0.00  0.00     0.024 A 
ATOM     29  C   UNL d   1       0.830   1.479  -2.781  0.00  0.00     0.034 A 
ATOM     30  C   UNL d   1       0.870   0.089  -2.682  0.00  0.00     0.024 A 
ATOM     31 CL   UNL d   1      -0.433   2.360  -2.013  0.00  0.00    -0.084 Cl
ATOM     32  C   UNL d   1       1.892  -0.625  -3.321  0.00  0.00     0.015 A 
ENDBRANCH  23  26
ENDBRANCH  21  22
ENDBRANCH  20  21
ENDBRANCH   3  20
TORSDOF 7
