REMARK  6 active torsions:
REMARK  status: ('A' for Active; 'I' for Inactive)
REMARK    1  A    between atoms: C_3  and  C_1 
REMARK    2  A    between atoms: C_14  and  C_2 
REMARK    3  A    between atoms: C_16  and  C_6 
REMARK    4  A    between atoms: C_10  and  C_15 
REMARK    5  A    between atoms: O_22  and  C_14 
REMARK    6  A    between atoms: C_27  and  O_22 
ROOT
ATOM      1  C   UNL d   1      -2.522  -1.637  -0.075  0.00  0.00     0.077 A 
ATOM      2  N   UNL d   1      -2.748  -2.609   0.877  0.00  0.00    -0.347 N 
ATOM      3  HN  UNL d   1      -2.087  -2.872   1.608  1.00  0.00     0.167 HD
ATOM      4  C   UNL d   1      -3.939  -3.151   0.710  0.00  0.00     0.085 A 
ATOM      5  S   UNL d   1      -4.844  -2.489  -0.603  0.00  0.00    -0.081 SA
ATOM      6  C   UNL d   1      -3.566  -1.404  -0.939  0.00  0.00     0.084 A 
ENDROOT
BRANCH   1   7
ATOM      7  C   UNL d   1      -1.245  -0.867  -0.144  0.00  0.00     0.144 A 
ATOM      8  C   UNL d   1      -0.009  -1.241   0.345  0.00  0.00     0.101 A 
ATOM      9  C   UNL d   1       0.808  -0.095   0.117  0.00  0.00     0.048 A 
ATOM     10  C   UNL d   1       2.246   0.125   0.405  0.00  0.00     0.071 C 
ATOM     11  N   UNL d   1       0.122   0.876  -0.501  0.00  0.00    -0.264 N 
ATOM     12  O   UNL d   1      -1.147   0.373  -0.699  0.00  0.00    -0.234 OA
ATOM     13  HN  UNL d   1       0.468   1.797  -0.770  1.00  0.00     0.194 HD
BRANCH   8  14
ATOM     14  C   UNL d   1       0.323  -2.530   0.897  0.00  0.00     0.298 C 
ATOM     15  O   UNL d   1      -0.154  -3.590   0.502  0.00  0.00    -0.259 OA
BRANCH  14  16
ATOM     16  O   UNL d   1       1.240  -2.440   1.903  0.00  0.00    -0.318 OA
BRANCH  16  17
ATOM     17  C   UNL d   1       1.340  -3.604   2.737  0.00  0.00     0.174 C 
ATOM     18  C   UNL d   1       0.386  -3.406   3.901  0.00  0.00     0.034 C 
ENDBRANCH  16  17
ENDBRANCH  14  16
ENDBRANCH   8  14
ENDBRANCH   1   7
BRANCH   4  19
ATOM     19  C   UNL d   1      -4.454  -4.280   1.512  0.00  0.00    -0.002 A 
ATOM     20  C   UNL d   1      -3.541  -5.095   2.205  0.00  0.00     0.030 A 
ATOM     21  C   UNL d   1      -3.963  -6.228   2.923  0.00  0.00     0.048 A 
ATOM     22  C   UNL d   1      -5.332  -6.530   2.966  0.00  0.00     0.016 A 
ATOM     23  C   UNL d   1      -6.254  -5.715   2.314  0.00  0.00     0.002 A 
ATOM     24  C   UNL d   1      -5.819  -4.599   1.596  0.00  0.00     0.014 A 
BRANCH  21  25
ATOM     25  C   UNL d   1      -2.972  -7.131   3.614  0.00  0.00     0.417 C 
ATOM     26  F   UNL d   1      -1.677  -6.728   3.491  0.00  0.00    -0.166 F 
ATOM     27  F   UNL d   1      -3.204  -7.231   4.952  0.00  0.00    -0.166 F 
ATOM     28  F   UNL d   1      -3.013  -8.406   3.134  0.00  0.00    -0.166 F 
ENDBRANCH  21  25
ENDBRANCH   4  19
TORSDOF 6
