REMARK  4 active torsions:
REMARK  status: ('A' for Active; 'I' for Inactive)
REMARK    1  A    between atoms: C_5  and  C_2 
REMARK    2  A    between atoms: C_6  and  C_3 
REMARK    3  A    between atoms: O_7  and  C_5 
REMARK    4  A    between atoms: O_8  and  C_6 
ROOT
ATOM      1  C   UNL d   1       0.855   0.004  -0.006  0.00  0.00     0.133 A 
ATOM      2  C   UNL d   1       0.163  -1.213  -0.011  0.00  0.00     0.004 A 
ATOM      3  C   UNL d   1       0.181   1.230   0.002  0.00  0.00     0.004 A 
ATOM      4  F   UNL d   1       2.197  -0.006  -0.006  0.00  0.00    -0.205 F 
ATOM      5  C   UNL d   1      -1.238  -1.190  -0.011  0.00  0.00     0.012 A 
ATOM      6  C   UNL d   1      -1.220   1.228   0.009  0.00  0.00     0.012 A 
ATOM      7  C   UNL d   1      -1.926   0.024   0.001  0.00  0.00     0.001 A 
ENDROOT
BRANCH   2   8
ATOM      8  C   UNL d   1       0.899  -2.523  -0.044  0.00  0.00     0.206 C 
BRANCH   8   9
ATOM      9  O   UNL d   1       0.510  -3.348   1.048  0.00  0.00    -0.396 OA
ATOM     10  H   UNL d   1       0.346  -2.765   1.809  0.00  0.00     0.209 HD
ENDBRANCH   8   9
ENDBRANCH   2   8
BRANCH   3  11
ATOM     11  C   UNL d   1       0.937   2.528   0.032  0.00  0.00     0.206 C 
BRANCH  11  12
ATOM     12  O   UNL d   1       0.553   3.361  -1.056  0.00  0.00    -0.396 OA
ATOM     13  H   UNL d   1       0.365   2.782  -1.814  0.00  0.00     0.209 HD
ENDBRANCH  11  12
ENDBRANCH   3  11
TORSDOF 4
