REMARK  3 active torsions:
REMARK  status: ('A' for Active; 'I' for Inactive)
REMARK    1  A    between atoms: C_4  and  C_1 
REMARK    2  A    between atoms: C_2  and  C_4 
REMARK    3  A    between atoms: N_9  and  C_5 
ROOT
ATOM      1  C   UNL d   1       3.558  -1.008   0.091  0.00  0.00     0.053 A 
ATOM      2  C   UNL d   1       4.722  -1.340   0.793  0.00  0.00     0.133 A 
ATOM      3  C   UNL d   1       5.799  -0.458   0.860  0.00  0.00     0.085 A 
ATOM      4  C   UNL d   1       3.477   0.258  -0.517  0.00  0.00     0.022 A 
ATOM      5  C   UNL d   1       5.707   0.777   0.234  0.00  0.00     0.119 A 
ATOM      6  F   UNL d   1       4.835  -2.503   1.450  0.00  0.00    -0.205 F 
ATOM      7  C   UNL d   1       4.554   1.148  -0.449  0.00  0.00     0.043 A 
ATOM      8  F   UNL d   1       6.741   1.626   0.296  0.00  0.00    -0.206 F 
ENDROOT
BRANCH   1   9
ATOM      9  C   UNL d   1       2.383  -1.918  -0.021  0.00  0.00     0.186 C 
ATOM     10  O   UNL d   1       1.267  -1.434  -0.196  0.00  0.00    -0.287 OA
BRANCH   9  11
ATOM     11  C   UNL d   1       2.605  -3.391   0.019  0.00  0.00     0.072 C 
ATOM     12  C   UNL d   1       1.576  -4.250  -0.022  0.00  0.00     0.088 C 
BRANCH  12  13
ATOM     13  N   UNL d   1       1.578  -5.641   0.007  0.00  0.00    -0.398 N 
ATOM     14  C   UNL d   1       2.772  -6.472   0.159  0.00  0.00     0.148 C 
ATOM     15  C   UNL d   1       0.337  -6.413  -0.092  0.00  0.00     0.148 C 
ENDBRANCH  12  13
ENDBRANCH   9  11
ENDBRANCH   1   9
TORSDOF 3
