REMARK  5 active torsions:
REMARK  status: ('A' for Active; 'I' for Inactive)
REMARK    1  A    between atoms: N_3  and  C_1 
REMARK    2  A    between atoms: N_4  and  C_2 
REMARK    3  A    between atoms: C_5  and  C_11 
REMARK    4  A    between atoms: O_12  and  C_8 
REMARK    5  A    between atoms: C_9  and  O_12 
ROOT
ATOM      1  C   UNL d   1      -3.971  -1.804   1.009  0.00  0.00     0.137 A 
ATOM      2  C   UNL d   1      -4.026  -0.901  -0.058  0.00  0.00     0.109 A 
ATOM      3  C   UNL d   1      -4.748  -2.972   1.029  0.00  0.00     0.055 A 
ATOM      4  C   UNL d   1      -5.615  -3.246  -0.039  0.00  0.00     0.050 A 
ATOM      5  C   UNL d   1      -4.970  -1.129  -1.066  0.00  0.00     0.040 A 
ATOM      6  C   UNL d   1      -5.736  -2.300  -1.070  0.00  0.00     0.019 A 
ENDROOT
BRANCH   2   7
ATOM      7  O   UNL d   1      -3.201   0.202  -0.061  0.00  0.00    -0.304 OA
BRANCH   7   8
ATOM      8  C   UNL d   1      -2.681   0.650  -1.259  0.00  0.00     0.126 A 
ATOM      9  C   UNL d   1      -2.482   2.018  -1.469  0.00  0.00     0.208 A 
ATOM     10  N   UNL d   1      -1.972   2.533  -2.634  0.00  0.00    -0.339 N 
ATOM     11  C   UNL d   1      -1.637   1.667  -3.616  0.00  0.00     0.007 A 
ATOM     12  HN  UNL d   1      -1.850   3.538  -2.755  1.00  0.00     0.167 HD
ATOM     13  C   UNL d   1      -1.094   2.242  -4.891  0.00  0.00     0.068 C 
ATOM     14  C   UNL d   1      -1.769   0.292  -3.471  0.00  0.00     0.027 A 
ATOM     15  C   UNL d   1      -2.271  -0.220  -2.275  0.00  0.00     0.043 A 
BRANCH   9  16
ATOM     16  N   UNL d   1      -2.855   2.912  -0.365  0.00  0.00    -0.095 N 
ATOM     17  O   UNL d   1      -4.045   2.915  -0.010  0.00  0.00    -0.530 OA
ATOM     18  O   UNL d   1      -1.957   3.613   0.124  0.00  0.00    -0.530 OA
ENDBRANCH   9  16
ENDBRANCH   7   8
ENDBRANCH   2   7
BRANCH   1  19
ATOM     19  N   UNL d   1      -3.091  -1.555   2.135  0.00  0.00    -0.113 N 
ATOM     20  O   UNL d   1      -1.887  -1.403   1.893  0.00  0.00    -0.532 OA
ATOM     21  O   UNL d   1      -3.607  -1.563   3.259  0.00  0.00    -0.532 OA
ENDBRANCH   1  19
BRANCH   4  22
ATOM     22  C   UNL d   1      -6.399  -4.536  -0.111  0.00  0.00     0.417 C 
ATOM     23  F   UNL d   1      -6.192  -5.355   0.955  0.00  0.00    -0.166 F 
ATOM     24  F   UNL d   1      -7.740  -4.328  -0.179  0.00  0.00    -0.166 F 
ATOM     25  F   UNL d   1      -6.073  -5.266  -1.213  0.00  0.00    -0.166 F 
ENDBRANCH   4  22
TORSDOF 5
