REMARK  3 active torsions:
REMARK  status: ('A' for Active; 'I' for Inactive)
REMARK    1  A    between atoms: N_6  and  N_1 
REMARK       I    between atoms: C_5  and  N_6 
REMARK    2  A    between atoms: C_11  and  C_5 
REMARK    3  A    between atoms: N_13  and  C_11 
ROOT
ATOM      1  N   UNL d   1       2.056  -0.746  -0.145  0.00  0.00    -0.210 N 
ATOM      2  C   UNL d   1       1.246  -0.327   0.920  0.00  0.00     0.287 A 
ATOM      3  C   UNL d   1       0.061   0.333   0.446  0.00  0.00     0.101 A 
ATOM      4  C   UNL d   1       1.655  -0.627  -1.470  0.00  0.00     0.211 A 
ATOM      5  N   UNL d   1       0.561  -0.075  -1.903  0.00  0.00    -0.349 N 
ATOM      6  HN  UNL d   1       0.316  -0.022  -2.892  1.00  0.00     0.166 HD
ATOM      7  C   UNL d   1      -0.249   0.442  -0.882  0.00  0.00     0.056 A 
ATOM      8  S   UNL d   1      -1.081   1.103   1.436  0.00  0.00    -0.094 SA
ATOM      9  C   UNL d   1      -1.455   1.140  -1.118  0.00  0.00     0.038 A 
ATOM     10  C   UNL d   1      -2.014   1.576   0.069  0.00  0.00     0.053 A 
ATOM     11  O   UNL d   1       1.540  -0.479   2.106  0.00  0.00    -0.265 OA
ENDROOT
BRANCH   1  12
ATOM     12  N   UNL d   1       3.324  -1.334   0.141  0.00  0.00    -0.254 N 
ATOM     13  C   UNL d   1       3.513  -2.674  -0.162  0.00  0.00     0.266 C 
ATOM     14  O   UNL d   1       2.658  -3.342  -0.750  0.00  0.00    -0.270 OA
ATOM     15  C   UNL d   1       4.286  -0.384   0.685  0.00  0.00     0.181 C 
BRANCH  13  16
ATOM     16  C   UNL d   1       4.826  -3.329   0.289  0.00  0.00     0.376 C 
BRANCH  16  17
ATOM     17  N   UNL d   1       5.996  -2.789  -0.438  0.00  0.00     0.101 N 
ATOM     18  C   UNL d   1       6.091  -3.290  -1.830  0.00  0.00     0.299 C 
ATOM     19  C   UNL d   1       6.590  -4.742  -1.963  0.00  0.00     0.198 C 
ATOM     20  O   UNL d   1       7.826  -4.941  -1.266  0.00  0.00    -0.388 OA
ATOM     21  C   UNL d   1       7.691  -4.590   0.115  0.00  0.00     0.198 C 
ATOM     22  C   UNL d   1       7.258  -3.124   0.264  0.00  0.00     0.299 C 
ENDBRANCH  16  17
ENDBRANCH  13  16
ENDBRANCH   1  12
TORSDOF 3
