REMARK  1 active torsions:
REMARK  status: ('A' for Active; 'I' for Inactive)
REMARK    1  A    between atoms: C_6  and  N_1 
ROOT
ATOM      1  C   UNL d   1       2.071  -1.471  -0.063  0.00  0.00     0.077 A 
ATOM      2  N   UNL d   1       3.416   0.887   2.312  0.00  0.00    -0.191 NA
ATOM      3  C   UNL d   1       3.241  -1.066   0.606  0.00  0.00     0.073 A 
ATOM      4  C   UNL d   1       3.297   0.043   1.527  0.00  0.00     0.102 C 
ATOM      5  C   UNL d   1       2.105  -2.610  -0.889  0.00  0.00     0.033 A 
ATOM      6  C   UNL d   1       4.412  -1.830   0.456  0.00  0.00     0.025 A 
ATOM      7  C   UNL d   1       3.276  -3.356  -1.027  0.00  0.00     0.002 A 
ATOM      8  C   UNL d   1       4.429  -2.967  -0.354  0.00  0.00     0.002 A 
ENDROOT
BRANCH   1   9
ATOM      9  N   UNL d   1       0.864  -0.725   0.038  0.00  0.00    -0.259 N 
ATOM     10  N   UNL d   1       0.924   0.625   0.120  0.00  0.00    -0.298 N 
ATOM     11  C   UNL d   1      -0.338   1.047   0.033  0.00  0.00     0.024 A 
ATOM     12  HN  UNL d   1       1.760   1.200   0.225  1.00  0.00     0.187 HD
ATOM     13  C   UNL d   1      -0.659   2.494   0.045  0.00  0.00     0.070 C 
ATOM     14  C   UNL d   1      -1.236  -0.032  -0.046  0.00  0.00     0.052 A 
ATOM     15  C   UNL d   1      -0.453  -1.169  -0.003  0.00  0.00     0.032 A 
ATOM     16  C   UNL d   1      -0.907  -2.580   0.087  0.00  0.00     0.070 C 
ENDBRANCH   1   9
TORSDOF 1
