REMARK  6 active torsions:
REMARK  status: ('A' for Active; 'I' for Inactive)
REMARK    1  A    between atoms: O_13  and  C_1 
REMARK    2  A    between atoms: O_14  and  C_2 
REMARK    3  A    between atoms: N_6  and  C_15 
REMARK    4  A    between atoms: C_10  and  C_9 
REMARK    5  A    between atoms: C_17  and  C_11 
REMARK    6  A    between atoms: C_15  and  C_17 
ROOT
ATOM      1  C   UNL d   1      -2.672   2.634   0.354  0.00  0.00     0.123 C 
ENDROOT
BRANCH   1   2
ATOM      2  N   UNL d   1      -3.084   4.031   0.532  0.00  0.00    -0.397 N 
ATOM      3  C   UNL d   1      -4.363   4.162   0.671  0.00  0.00     0.112 C 
ATOM      4  HN  UNL d   1      -2.431   4.815   0.544  1.00  0.00     0.158 HD
BRANCH   3   5
ATOM      5  C   UNL d   1      -5.007   5.476   0.879  0.00  0.00     0.047 A 
ATOM      6  N   UNL d   1      -6.352   5.435   1.018  0.00  0.00    -0.365 N 
ATOM      7  C   UNL d   1      -6.968   6.622   1.220  0.00  0.00     0.088 A 
ATOM      8  HN  UNL d   1      -6.872   4.559   0.973  1.00  0.00     0.165 HD
ATOM      9  C   UNL d   1      -6.300   7.835   1.289  0.00  0.00     0.017 A 
ATOM     10  C   UNL d   1      -4.922   7.842   1.142  0.00  0.00     0.004 A 
ATOM     11  C   UNL d   1      -4.250   6.638   0.929  0.00  0.00     0.031 A 
ENDBRANCH   3   5
ENDBRANCH   1   2
BRANCH   1  12
ATOM     12  C   UNL d   1      -1.152   2.593   0.199  0.00  0.00     0.058 C 
BRANCH  12  13
ATOM     13  C   UNL d   1      -0.643   1.179   0.079  0.00  0.00    -0.054 A 
ATOM     14  C   UNL d   1      -0.299   0.457   1.230  0.00  0.00     0.046 A 
ATOM     15  C   UNL d   1       0.220  -0.848   1.153  0.00  0.00     0.102 A 
ATOM     16  C   UNL d   1       0.313  -1.471  -0.101  0.00  0.00     0.101 A 
ATOM     17  C   UNL d   1      -0.054  -0.750  -1.248  0.00  0.00     0.040 A 
ATOM     18  C   UNL d   1      -0.520   0.563  -1.165  0.00  0.00     0.010 A 
BRANCH  15  19
ATOM     19  O   UNL d   1       0.652  -1.513   2.269  0.00  0.00    -0.353 OA
ATOM     20  C   UNL d   1       1.097  -0.702   3.355  0.00  0.00     0.210 C 
ENDBRANCH  15  19
BRANCH  16  21
ATOM     21  O   UNL d   1       0.834  -2.702  -0.401  0.00  0.00    -0.353 OA
ATOM     22  C   UNL d   1       0.718  -3.754   0.545  0.00  0.00     0.210 C 
ENDBRANCH  16  21
ENDBRANCH  12  13
ENDBRANCH   1  12
TORSDOF 6
