REMARK  6 active torsions:
REMARK  status: ('A' for Active; 'I' for Inactive)
REMARK    1  A    between atoms: C_2  and  C_1 
REMARK    2  A    between atoms: C_3  and  C_1 
REMARK    3  A    between atoms: C_6  and  C_1 
REMARK       I    between atoms: N_5  and  C_2 
REMARK    4  A    between atoms: N_4  and  C_3 
REMARK    5  A    between atoms: C_10  and  N_4 
REMARK    6  A    between atoms: N_7  and  C_6 
ROOT
ATOM      1  C   UNL d   1       0.904   0.027   0.005  0.00  0.00     0.227 C 
ENDROOT
BRANCH   1   2
ATOM      2  C   UNL d   1       0.415   0.770   1.238  0.00  0.00     0.243 C 
ATOM      3  N   UNL d   1       0.826   0.320   2.480  0.00  0.00    -0.351 N 
ATOM      4  C   UNL d   1       1.517  -0.918   2.811  0.00  0.00     0.126 C 
ATOM      5  C   UNL d   1       0.546   1.094   3.682  0.00  0.00     0.126 C 
ATOM      6  C   UNL d   1       1.130  -1.162   4.260  0.00  0.00     0.021 C 
ATOM      7  C   UNL d   1       1.076   0.247   4.836  0.00  0.00     0.021 C 
ATOM      8  O   UNL d   1      -0.369   1.718   1.144  0.00  0.00    -0.271 OA
ENDBRANCH   1   2
BRANCH   1   9
ATOM      9  C   UNL d   1       0.463   0.664  -1.333  0.00  0.00     0.103 C 
ATOM     10  S   UNL d   1       1.158   2.077  -1.960  0.00  0.00    -0.063 SA
BRANCH   9  11
ATOM     11  N   UNL d   1      -0.612   0.026  -1.949  0.00  0.00    -0.348 N 
ATOM     12  H   UNL d   1      -1.496   0.147  -1.454  0.00  0.00     0.166 HD
BRANCH  11  13
ATOM     13  C   UNL d   1      -0.755  -0.096  -3.361  0.00  0.00     0.054 A 
ATOM     14  C   UNL d   1      -1.998   0.119  -3.977  0.00  0.00     0.060 A 
ATOM     15 CL   UNL d   1      -3.363   0.643  -3.057  0.00  0.00    -0.082 Cl
ATOM     16  C   UNL d   1      -2.139  -0.042  -5.357  0.00  0.00     0.026 A 
ATOM     17  C   UNL d   1      -1.056  -0.458  -6.131  0.00  0.00     0.002 A 
ATOM     18  C   UNL d   1       0.176  -0.691  -5.524  0.00  0.00     0.002 A 
ATOM     19  C   UNL d   1       0.332  -0.507  -4.147  0.00  0.00     0.031 A 
ENDBRANCH  11  13
ENDBRANCH   9  11
ENDBRANCH   1   9
BRANCH   1  20
ATOM     20  C   UNL d   1       2.424   0.027   0.005  0.00  0.00    -0.056 C 
BRANCH  20  21
ATOM     21  N   UNL d   1       3.685   0.027   0.005  0.00  0.00    -0.369 N 
ATOM     22  HN2 UNL d   1       2.665   0.027   0.005  1.00  0.00     0.165 HD
ATOM     23  HN1 UNL d   1       4.705   0.027   0.005  1.00  0.00     0.165 HD
ENDBRANCH  20  21
ENDBRANCH   1  20
TORSDOF 6
