REMARK  3 active torsions:
REMARK  status: ('A' for Active; 'I' for Inactive)
REMARK    1  A    between atoms: C_2  and  C_1 
REMARK    2  A    between atoms: C_3  and  C_1 
REMARK    3  A    between atoms: O_14  and  N_6 
ROOT
ATOM      1  C   UNL d   1       1.037  -0.075   0.014  0.00  0.00     0.088 C 
ATOM      2  N   UNL d   1       2.342  -0.102  -0.023  0.00  0.00    -0.267 N 
ATOM      3  HN  UNL d   1       2.866  -0.741  -0.621  1.00  0.00     0.194 HD
ENDROOT
BRANCH   1   4
ATOM      4  C   UNL d   1       0.204   0.750   0.889  0.00  0.00     0.034 A 
ATOM      5  S   UNL d   1       0.526   0.866   2.574  0.00  0.00    -0.100 SA
ATOM      6  C   UNL d   1      -0.768   1.952   2.826  0.00  0.00     0.050 A 
ATOM      7  C   UNL d   1      -1.486   2.174   1.674  0.00  0.00     0.008 A 
ATOM      8  C   UNL d   1      -0.930   1.480   0.560  0.00  0.00     0.022 A 
ENDBRANCH   1   4
BRANCH   1   9
ATOM      9  C   UNL d   1       0.301  -0.930  -0.916  0.00  0.00     0.034 A 
ATOM     10  S   UNL d   1       0.987  -1.298  -2.454  0.00  0.00    -0.100 SA
ATOM     11  C   UNL d   1      -0.361  -2.236  -2.918  0.00  0.00     0.050 A 
ATOM     12  C   UNL d   1      -1.317  -2.289  -1.932  0.00  0.00     0.008 A 
ATOM     13  C   UNL d   1      -0.935  -1.541  -0.778  0.00  0.00     0.022 A 
ENDBRANCH   1   9
BRANCH   2  14
ATOM     14  O   UNL d   1       2.958   0.821   0.828  0.00  0.00    -0.289 OA
ATOM     15  H   UNL d   1       3.904   0.613   0.715  0.00  0.00     0.244 HD
ENDBRANCH   2  14
TORSDOF 3
