REMARK  3 active torsions:
REMARK  status: ('A' for Active; 'I' for Inactive)
REMARK    1  A    between atoms: S_8  and  C_1 
REMARK    2  A    between atoms: C_11  and  S_8 
REMARK    3  A    between atoms: C_13  and  C_11 
ROOT
ATOM      1  C   UNL d   1       2.797  -1.154  -0.055  0.00  0.00     0.113 A 
ATOM      2  N   UNL d   1       1.696  -1.661   0.449  0.00  0.00    -0.344 N 
ATOM      3  HN  UNL d   1       1.615  -2.583   0.877  1.00  0.00     0.167 HD
ATOM      4  S   UNL d   1       2.658   0.402  -0.759  0.00  0.00    -0.063 SA
ATOM      5  C   UNL d   1       0.655  -0.746   0.310  0.00  0.00     0.052 A 
ATOM      6  C   UNL d   1       0.991   0.445  -0.340  0.00  0.00     0.034 A 
ATOM      7  C   UNL d   1      -0.672  -0.913   0.762  0.00  0.00     0.054 A 
ATOM      8  C   UNL d   1       0.054   1.469  -0.566  0.00  0.00     0.023 A 
ATOM      9  C   UNL d   1      -1.607   0.105   0.546  0.00  0.00     0.036 A 
ATOM     10  C   UNL d   1      -1.253   1.279  -0.112  0.00  0.00     0.025 A 
ATOM     11 CL   UNL d   1      -3.224  -0.094   1.104  0.00  0.00    -0.084 Cl
ENDROOT
BRANCH   1  12
ATOM     12  S   UNL d   1       4.346  -1.964   0.021  0.00  0.00    -0.100 SA
BRANCH  12  13
ATOM     13  C   UNL d   1       3.862  -3.710  -0.028  0.00  0.00     0.120 C 
BRANCH  13  14
ATOM     14  C   UNL d   1       5.084  -4.604  -0.095  0.00  0.00    -0.048 A 
ATOM     15  C   UNL d   1       5.712  -5.046   1.081  0.00  0.00     0.009 A 
ATOM     16  C   UNL d   1       6.855  -5.846   1.022  0.00  0.00     0.024 A 
ATOM     17  C   UNL d   1       7.386  -6.206  -0.215  0.00  0.00     0.034 A 
ATOM     18  C   UNL d   1       6.783  -5.771  -1.393  0.00  0.00     0.024 A 
ATOM     19 CL   UNL d   1       8.796  -7.191  -0.289  0.00  0.00    -0.084 Cl
ATOM     20  C   UNL d   1       5.638  -4.970  -1.333  0.00  0.00     0.009 A 
ENDBRANCH  13  14
ENDBRANCH  12  13
ENDBRANCH   1  12
TORSDOF 3
