REMARK  9 active torsions:
REMARK  status: ('A' for Active; 'I' for Inactive)
REMARK    1  A    between atoms: C_8  and  N_1 
REMARK    2  A    between atoms: C_10  and  C_2 
REMARK    3  A    between atoms: S_9  and  C_5 
REMARK    4  A    between atoms: C_14  and  C_8 
REMARK    5  A    between atoms: C_15  and  S_9 
REMARK    6  A    between atoms: C_11  and  C_15 
REMARK       I    between atoms: N_12  and  C_11 
REMARK    7  A    between atoms: C_18  and  N_12 
REMARK    8  A    between atoms: O_29  and  C_14 
REMARK    9  A    between atoms: O_30  and  C_14 
ROOT
ATOM      1  N   UNL d   1      -0.122  -1.249  -0.165  0.00  0.00    -0.306 N 
ATOM      2  C   UNL d   1       0.981  -0.498  -0.542  0.00  0.00     0.134 C 
ATOM      3  N   UNL d   1       0.562   0.733  -0.802  0.00  0.00    -0.283 N 
ATOM      4  HN  UNL d   1       1.114   1.472  -1.236  1.00  0.00     0.188 HD
ATOM      5  C   UNL d   1      -1.091  -0.319   0.103  0.00  0.00     0.163 C 
ATOM      6  N   UNL d   1      -0.733   0.843  -0.391  0.00  0.00    -0.278 N 
ATOM      7  HN  UNL d   1      -1.317   1.676  -0.455  1.00  0.00     0.189 HD
ENDROOT
BRANCH   5   8
ATOM      8  S   UNL d   1      -2.438  -0.544   1.157  0.00  0.00    -0.083 SA
BRANCH   8   9
ATOM      9  C   UNL d   1      -3.332   1.026   0.943  0.00  0.00     0.185 C 
BRANCH   9  10
ATOM     10  C   UNL d   1      -2.838   2.126   1.872  0.00  0.00     0.231 C 
ATOM     11  N   UNL d   1      -1.508   2.473   1.712  0.00  0.00    -0.327 N 
ATOM     12  H   UNL d   1      -1.009   2.008   0.953  0.00  0.00     0.169 HD
ATOM     13  O   UNL d   1      -3.625   2.665   2.651  0.00  0.00    -0.272 OA
BRANCH  11  14
ATOM     14  C   UNL d   1      -0.748   3.382   2.470  0.00  0.00     0.034 A 
ATOM     15  C   UNL d   1      -1.259   4.138   3.527  0.00  0.00     0.031 A 
ATOM     16  C   UNL d   1      -0.429   5.007   4.244  0.00  0.00     0.026 A 
ATOM     17  C   UNL d   1       0.918   5.118   3.909  0.00  0.00     0.034 A 
ATOM     18  C   UNL d   1       1.442   4.370   2.859  0.00  0.00     0.026 A 
ATOM     19 CL   UNL d   1       1.938   6.179   4.800  0.00  0.00    -0.084 Cl
ATOM     20  C   UNL d   1       0.609   3.507   2.139  0.00  0.00     0.031 A 
ENDBRANCH  11  14
ENDBRANCH   9  10
ENDBRANCH   8   9
ENDBRANCH   5   8
BRANCH   1  21
ATOM     21  C   UNL d   1      -0.183  -2.692  -0.053  0.00  0.00     0.193 C 
BRANCH  21  22
ATOM     22  C   UNL d   1      -1.518  -3.388  -0.392  0.00  0.00     0.276 C 
BRANCH  22  23
ATOM     23  O   UNL d   1      -1.883  -3.053  -1.735  0.00  0.00    -0.364 OA
ATOM     24  C   UNL d   1      -3.217  -3.452  -2.037  0.00  0.00     0.204 C 
ENDBRANCH  22  23
BRANCH  22  25
ATOM     25  O   UNL d   1      -1.387  -4.811  -0.285  0.00  0.00    -0.364 OA
ATOM     26  C   UNL d   1      -1.224  -5.269   1.050  0.00  0.00     0.204 C 
ENDBRANCH  22  25
ENDBRANCH  21  22
ENDBRANCH   1  21
BRANCH   2  27
ATOM     27  C   UNL d   1       2.401  -0.885  -0.558  0.00  0.00     0.010 A 
ATOM     28  C   UNL d   1       3.280  -0.208  -1.421  0.00  0.00     0.017 A 
ATOM     29  C   UNL d   1       4.662  -0.410  -1.349  0.00  0.00     0.025 A 
ATOM     30  C   UNL d   1       5.183  -1.296  -0.411  0.00  0.00     0.034 A 
ATOM     31  C   UNL d   1       4.330  -1.992   0.442  0.00  0.00     0.025 A 
ATOM     32 CL   UNL d   1       6.884  -1.501  -0.275  0.00  0.00    -0.084 Cl
ATOM     33  C   UNL d   1       2.947  -1.782   0.373  0.00  0.00     0.017 A 
ENDBRANCH   2  27
TORSDOF 9
