REMARK  4 active torsions:
REMARK  status: ('A' for Active; 'I' for Inactive)
REMARK    1  A    between atoms: S_16  and  C_7 
REMARK    2  A    between atoms: C_13  and  N_15 
REMARK    3  A    between atoms: C_14  and  C_23 
REMARK       I    between atoms: N_15  and  C_14 
REMARK    4  A    between atoms: C_23  and  S_16 
ROOT
ATOM      1  C   UNL d   1       0.607  -1.392   0.510  0.00  0.00     0.706 A 
ATOM      2  N   UNL d   1       0.386  -0.444  -0.501  0.00  0.00    -0.089 N 
ATOM      3  N   UNL d   1       1.861  -1.773   0.474  0.00  0.00    -0.167 N 
ATOM      4  HN  UNL d   1       2.337  -2.435   1.087  1.00  0.00     0.186 HD
ATOM      5  N   UNL d   1       1.541  -0.245  -1.188  0.00  0.00    -0.258 N 
ATOM      6  HN  UNL d   1       1.720   0.381  -1.973  1.00  0.00     0.190 HD
ATOM      7  C   UNL d   1       2.378  -1.079  -0.573  0.00  0.00     0.175 A 
ATOM      8  N   UNL d   1      -0.390  -1.819   1.335  0.00  0.00    -0.194 N 
ATOM      9  HN  UNL d   1      -0.221  -2.511   2.066  1.00  0.00     0.184 HD
ATOM     10  C   UNL d   1      -0.878   0.131  -0.685  0.00  0.00     0.050 A 
ATOM     11  C   UNL d   1      -1.886  -0.254   0.121  0.00  0.00     0.052 A 
ATOM     12  C   UNL d   1      -1.565  -1.301   1.144  0.00  0.00     0.024 A 
ATOM     13  C   UNL d   1      -1.067   1.155  -1.759  0.00  0.00     0.071 C 
ATOM     14  C   UNL d   1      -2.697  -1.790   2.014  0.00  0.00     0.068 C 
ENDROOT
BRANCH   7  15
ATOM     15  S   UNL d   1       4.020  -1.315  -1.125  0.00  0.00    -0.083 SA
BRANCH  15  16
ATOM     16  C   UNL d   1       4.419  -2.771  -0.118  0.00  0.00     0.185 C 
BRANCH  16  17
ATOM     17  C   UNL d   1       5.735  -3.455  -0.435  0.00  0.00     0.231 C 
ATOM     18  N   UNL d   1       6.539  -2.858  -1.385  0.00  0.00    -0.326 N 
ATOM     19  H   UNL d   1       6.203  -1.974  -1.753  0.00  0.00     0.169 HD
ATOM     20  O   UNL d   1       6.020  -4.487   0.177  0.00  0.00    -0.272 OA
BRANCH  18  21
ATOM     21  C   UNL d   1       7.798  -3.312  -1.841  0.00  0.00     0.037 A 
ATOM     22  C   UNL d   1       8.355  -4.545  -1.488  0.00  0.00     0.053 A 
ATOM     23  C   UNL d   1       9.620  -4.911  -1.956  0.00  0.00     0.037 A 
ATOM     24 CL   UNL d   1      10.289  -6.433  -1.503  0.00  0.00    -0.084 Cl
ATOM     25  C   UNL d   1      10.345  -4.062  -2.781  0.00  0.00     0.048 A 
ATOM     26  C   UNL d   1       9.787  -2.843  -3.149  0.00  0.00     0.037 A 
ATOM     27  C   UNL d   1       8.520  -2.468  -2.692  0.00  0.00     0.053 A 
ATOM     28 CL   UNL d   1      10.673  -1.779  -4.171  0.00  0.00    -0.084 Cl
ENDBRANCH  18  21
ENDBRANCH  16  17
ENDBRANCH  15  16
ENDBRANCH   7  15
TORSDOF 4
