REMARK  7 active torsions:
REMARK  status: ('A' for Active; 'I' for Inactive)
REMARK    1  A    between atoms: C_8  and  C_1 
REMARK    2  A    between atoms: C_17  and  C_9 
REMARK    3  A    between atoms: C_18  and  C_17 
REMARK    4  A    between atoms: C_21  and  C_18 
REMARK    5  A    between atoms: C_19  and  C_20 
REMARK    6  A    between atoms: C_20  and  C_22 
REMARK    7  A    between atoms: C_22  and  C_21 
ROOT
ATOM      1  N   UNL d   1       0.712   8.189   0.170  0.00  0.00    -0.191 NA
ATOM      2  C   UNL d   1       0.600   7.035   0.146  0.00  0.00     0.099 C 
ATOM      3  C   UNL d   1       0.223   2.793   0.067  0.00  0.00     0.008 A 
ATOM      4  C   UNL d   1      -0.290   3.553   1.135  0.00  0.00     0.017 A 
ATOM      5  C   UNL d   1       0.857   3.493  -0.979  0.00  0.00     0.017 A 
ATOM      6  C   UNL d   1       0.466   5.611   0.116  0.00  0.00     0.044 A 
ATOM      7  C   UNL d   1       0.978   4.885  -0.959  0.00  0.00     0.023 A 
ATOM      8  C   UNL d   1      -0.172   4.946   1.163  0.00  0.00     0.023 A 
ENDROOT
BRANCH   3   9
ATOM      9  C   UNL d   1       0.110   1.324   0.044  0.00  0.00     0.115 A 
ATOM     10  N   UNL d   1      -0.538   0.726   1.063  0.00  0.00    -0.351 N 
ATOM     11  C   UNL d   1      -0.612  -0.617   1.021  0.00  0.00     0.098 A 
ATOM     12  HN  UNL d   1      -0.950   1.263   1.826  1.00  0.00     0.166 HD
ATOM     13  C   UNL d   1      -0.068  -1.385   0.015  0.00  0.00    -0.027 A 
ATOM     14  C   UNL d   1       0.564  -0.671  -0.983  0.00  0.00     0.098 A 
ATOM     15  N   UNL d   1       0.668   0.669  -0.992  0.00  0.00    -0.351 N 
ATOM     16  HN  UNL d   1       1.146   1.165  -1.745  1.00  0.00     0.166 HD
BRANCH  13  17
ATOM     17  C   UNL d   1      -0.165  -2.878   0.007  0.00  0.00     0.041 C 
BRANCH  17  18
ATOM     18  C   UNL d   1       1.214  -3.536   0.039  0.00  0.00     0.005 C 
BRANCH  18  19
ATOM     19  C   UNL d   1       1.112  -5.059   0.058  0.00  0.00     0.000 C 
BRANCH  19  20
ATOM     20  C   UNL d   1       2.508  -5.677   0.082  0.00  0.00     0.000 C 
BRANCH  20  21
ATOM     21  C   UNL d   1       2.445  -7.201   0.097  0.00  0.00    -0.000 C 
BRANCH  21  22
ATOM     22  C   UNL d   1       3.848  -7.804   0.120  0.00  0.00    -0.005 C 
ATOM     23  C   UNL d   1       3.792  -9.321   0.135  0.00  0.00     0.005 C 
ENDBRANCH  21  22
ENDBRANCH  20  21
ENDBRANCH  19  20
ENDBRANCH  18  19
ENDBRANCH  17  18
ENDBRANCH  13  17
ENDBRANCH   3   9
TORSDOF 7
