REMARK  9 active torsions:
REMARK  status: ('A' for Active; 'I' for Inactive)
REMARK    1  A    between atoms: C_4  and  S_1 
REMARK    2  A    between atoms: C_7  and  S_1 
REMARK    3  A    between atoms: S_2  and  C_5 
REMARK    4  A    between atoms: C_8  and  S_2 
REMARK    5  A    between atoms: C_3  and  N_6 
REMARK    6  A    between atoms: C_17  and  C_4 
REMARK    7  A    between atoms: C_5  and  C_18 
REMARK    8  A    between atoms: N_6  and  C_17 
REMARK    9  A    between atoms: C_18  and  N_6 
ROOT
ATOM      1  N   UNL d   1       0.342   3.674  -1.663  0.00  0.00    -0.216 N 
ENDROOT
BRANCH   1   2
ATOM      2  C   UNL d   1      -0.431   3.267  -2.741  0.00  0.00     0.679 A 
ATOM      3  N   UNL d   1      -1.141   2.131  -2.642  0.00  0.00    -0.202 N 
ATOM      4  C   UNL d   1      -1.939   1.783  -3.671  0.00  0.00     0.107 A 
ATOM      5  HN  UNL d   1      -1.077   1.546  -1.809  1.00  0.00     0.183 HD
ATOM      6  C   UNL d   1      -2.053   2.509  -4.822  0.00  0.00     0.035 A 
ATOM      7  C   UNL d   1      -1.281   3.642  -4.859  0.00  0.00     0.107 A 
ATOM      8  N   UNL d   1      -0.483   4.036  -3.845  0.00  0.00    -0.202 N 
ATOM      9  HN  UNL d   1       0.066   4.893  -3.913  1.00  0.00     0.183 HD
ENDBRANCH   1   2
BRANCH   1  10
ATOM     10  C   UNL d   1       0.776   2.642  -0.710  0.00  0.00     0.156 C 
BRANCH  10  11
ATOM     11  C   UNL d   1       0.839   3.153   0.724  0.00  0.00     0.166 C 
BRANCH  11  12
ATOM     12  S   UNL d   1       1.503   1.885   1.781  0.00  0.00     0.177 S 
ATOM     13  O   UNL d   1       2.846   1.577   1.320  0.00  0.00    -0.223 OA
ATOM     14  O   UNL d   1       0.508   0.842   1.933  0.00  0.00    -0.223 OA
BRANCH  12  15
ATOM     15  C   UNL d   1       1.663   2.699   3.352  0.00  0.00     0.059 A 
ATOM     16  C   UNL d   1       0.592   2.687   4.251  0.00  0.00     0.024 A 
ATOM     17  C   UNL d   1       0.736   3.293   5.501  0.00  0.00     0.008 A 
ATOM     18  C   UNL d   1       1.946   3.903   5.862  0.00  0.00    -0.062 A 
ATOM     19  C   UNL d   1       3.013   3.901   4.954  0.00  0.00     0.008 A 
ATOM     20  C   UNL d   1       2.093   4.527   7.220  0.00  0.00     0.048 C 
ATOM     21  C   UNL d   1       2.876   3.297   3.702  0.00  0.00     0.024 A 
ENDBRANCH  12  15
ENDBRANCH  11  12
ENDBRANCH  10  11
ENDBRANCH   1  10
BRANCH   1  22
ATOM     22  C   UNL d   1       0.951   5.014  -1.688  0.00  0.00     0.156 C 
BRANCH  22  23
ATOM     23  C   UNL d   1       2.471   4.982  -1.654  0.00  0.00     0.166 C 
BRANCH  23  24
ATOM     24  S   UNL d   1       3.112   6.641  -1.561  0.00  0.00     0.177 S 
ATOM     25  O   UNL d   1       2.870   7.315  -2.820  0.00  0.00    -0.223 OA
ATOM     26  O   UNL d   1       2.659   7.211  -0.304  0.00  0.00    -0.223 OA
BRANCH  24  27
ATOM     27  C   UNL d   1       4.870   6.404  -1.432  0.00  0.00     0.059 A 
ATOM     28  C   UNL d   1       5.536   5.734  -2.461  0.00  0.00     0.024 A 
ATOM     29  C   UNL d   1       6.904   5.494  -2.350  0.00  0.00     0.008 A 
ATOM     30  C   UNL d   1       7.615   5.928  -1.223  0.00  0.00    -0.062 A 
ATOM     31  C   UNL d   1       6.941   6.631  -0.216  0.00  0.00     0.008 A 
ATOM     32  C   UNL d   1       9.087   5.649  -1.122  0.00  0.00     0.048 C 
ATOM     33  C   UNL d   1       5.567   6.868  -0.315  0.00  0.00     0.024 A 
ENDBRANCH  24  27
ENDBRANCH  23  24
ENDBRANCH  22  23
ENDBRANCH   1  22
TORSDOF 9
