REMARK  5 active torsions:
REMARK  status: ('A' for Active; 'I' for Inactive)
REMARK    1  A    between atoms: N_7  and  C_1 
REMARK    2  A    between atoms: C_15  and  N_10 
REMARK    3  A    between atoms: N_13  and  C_16 
REMARK    4  A    between atoms: C_14  and  C_15 
REMARK    5  A    between atoms: C_16  and  C_14 
ROOT
ATOM      1  C   UNL d   1      -0.804  -1.252  -0.084  0.00  0.00     0.171 A 
ATOM      2  C   UNL d   1       0.585  -1.336  -0.065  0.00  0.00     0.153 A 
ATOM      3  N   UNL d   1      -0.027   0.881  -0.078  0.00  0.00    -0.299 N 
ATOM      4  HN  UNL d   1       0.033   1.899  -0.075  1.00  0.00     0.187 HD
ATOM      5  C   UNL d   1      -1.127   0.124  -0.106  0.00  0.00     0.059 A 
ATOM      6  N   UNL d   1       0.989  -0.009  -0.054  0.00  0.00    -0.279 N 
ATOM      7  N   UNL d   1       1.487  -2.360  -0.078  0.00  0.00    -0.373 N 
ATOM      8  C   UNL d   1      -2.471   0.754  -0.139  0.00  0.00     0.072 C 
ATOM      9  C   UNL d   1       2.329   0.530  -0.032  0.00  0.00     0.179 C 
ATOM     10  H   UNL d   1       2.494  -2.211  -0.055  0.00  0.00     0.161 HD
ENDROOT
BRANCH   1  11
ATOM     11  N   UNL d   1      -1.759  -2.307  -0.100  0.00  0.00    -0.110 N 
ATOM     12  O   UNL d   1      -1.780  -3.074   0.871  0.00  0.00    -0.532 OA
ATOM     13  O   UNL d   1      -2.529  -2.343  -1.069  0.00  0.00    -0.532 OA
ENDBRANCH   1  11
BRANCH   7  14
ATOM     14  C   UNL d   1       1.082  -3.757  -0.079  0.00  0.00     0.123 C 
BRANCH  14  15
ATOM     15  C   UNL d   1       2.290  -4.692  -0.077  0.00  0.00     0.050 C 
BRANCH  15  16
ATOM     16  C   UNL d   1       1.790  -6.144  -0.068  0.00  0.00     0.273 C 
BRANCH  16  17
ATOM     17  N   UNL d   1       2.852  -7.163  -0.075  0.00  0.00     0.080 N 
ATOM     18  C   UNL d   1       3.697  -7.091   1.119  0.00  0.00     0.309 C 
ATOM     19  C   UNL d   1       2.237  -8.495  -0.155  0.00  0.00     0.309 C 
ENDBRANCH  16  17
ENDBRANCH  15  16
ENDBRANCH  14  15
ENDBRANCH   7  14
TORSDOF 5
