REMARK  4 active torsions:
REMARK  status: ('A' for Active; 'I' for Inactive)
REMARK    1  A    between atoms: C_10  and  C_6 
REMARK    2  A    between atoms: C_12  and  C_7 
REMARK    3  A    between atoms: N_8  and  C_9 
REMARK    4  A    between atoms: C_15  and  C_16 
ROOT
ATOM      1  O   UNL d   1       0.591   0.656  -1.078  0.00  0.00    -0.273 OA
ATOM      2  N   UNL d   1       0.251  -1.061   0.311  0.00  0.00    -0.277 N 
ATOM      3  HN  UNL d   1       0.293  -1.994   0.721  1.00  0.00     0.189 HD
ATOM      4  N   UNL d   1      -0.445   0.027   0.801  0.00  0.00    -0.277 N 
ATOM      5  HN  UNL d   1      -1.020   0.055   1.643  1.00  0.00     0.189 HD
ATOM      6  C   UNL d   1       0.851  -0.657  -0.790  0.00  0.00     0.174 A 
ATOM      7  C   UNL d   1      -0.221   1.022  -0.033  0.00  0.00     0.174 A 
ENDROOT
BRANCH   7   8
ATOM      8  C   UNL d   1      -0.672   2.407   0.003  0.00  0.00     0.017 A 
ATOM      9  C   UNL d   1      -1.497   2.859   1.039  0.00  0.00     0.016 A 
ATOM     10  C   UNL d   1      -1.921   4.196   1.091  0.00  0.00     0.009 A 
ATOM     11  C   UNL d   1      -1.539   5.127   0.107  0.00  0.00    -0.051 A 
ATOM     12  C   UNL d   1      -0.714   4.658  -0.928  0.00  0.00     0.009 A 
ATOM     13  C   UNL d   1      -0.289   3.325  -0.979  0.00  0.00     0.016 A 
BRANCH  11  14
ATOM     14  C   UNL d   1      -2.029   6.585   0.169  0.00  0.00    -0.024 C 
ATOM     15  C   UNL d   1      -1.512   7.453  -1.002  0.00  0.00     0.019 C 
ATOM     16  C   UNL d   1      -3.571   6.619   0.120  0.00  0.00     0.019 C 
ATOM     17  C   UNL d   1      -1.555   7.258   1.475  0.00  0.00     0.019 C 
ENDBRANCH  11  14
ENDBRANCH   7   8
BRANCH   6  18
ATOM     18  C   UNL d   1       1.741  -1.378  -1.693  0.00  0.00     0.019 A 
ATOM     19  C   UNL d   1       2.284  -0.780  -2.841  0.00  0.00     0.052 A 
ATOM     20  C   UNL d   1       3.156  -1.508  -3.667  0.00  0.00     0.103 A 
ATOM     21  C   UNL d   1       3.492  -2.833  -3.364  0.00  0.00     0.036 A 
ATOM     22  C   UNL d   1       2.949  -3.432  -2.229  0.00  0.00     0.003 A 
ATOM     23  C   UNL d   1       2.083  -2.710  -1.403  0.00  0.00     0.016 A 
BRANCH  20  24
ATOM     24  N   UNL d   1       3.728  -0.875  -4.864  0.00  0.00    -0.116 N 
ATOM     25  O   UNL d   1       3.402   0.298  -5.103  0.00  0.00    -0.532 OA
ATOM     26  O   UNL d   1       4.502  -1.546  -5.560  0.00  0.00    -0.532 OA
ENDBRANCH  20  24
ENDBRANCH   6  18
TORSDOF 4
