REMARK  4 active torsions:
REMARK  status: ('A' for Active; 'I' for Inactive)
REMARK       I    between atoms: N_2  and  C_1 
REMARK    1  A    between atoms: C_3  and  C_1 
REMARK       I    between atoms: C_5  and  N_2 
REMARK    2  A    between atoms: C_4  and  C_6 
REMARK       I    between atoms: N_10  and  C_5 
REMARK    3  A    between atoms: C_9  and  N_12 
REMARK    4  A    between atoms: N_12  and  N_10 
ROOT
ATOM      1  C   UNL d   1       0.543   4.642  -0.653  0.00  0.00     0.265 C 
ATOM      2  N   UNL d   1       0.248   3.330  -0.310  0.00  0.00    -0.274 N 
ATOM      3  C   UNL d   1       1.102   2.280  -0.089  0.00  0.00     0.337 C 
ATOM      4  N   UNL d   1       2.446   2.538  -0.223  0.00  0.00    -0.267 N 
ATOM      5  O   UNL d   1       1.682   5.089  -0.730  0.00  0.00    -0.267 OA
ATOM      6  O   UNL d   1       0.642   1.173   0.198  0.00  0.00    -0.246 OA
ATOM      7  H   UNL d   1      -0.717   3.055  -0.193  0.00  0.00     0.173 HD
ATOM      8  H   UNL d   1       2.724   3.515  -0.132  0.00  0.00     0.186 HD
ENDROOT
BRANCH   4   9
ATOM      9  N   UNL d   1       3.304   1.581   0.370  0.00  0.00    -0.186 NA
ATOM     10  H   UNL d   1       2.901   0.637   0.331  0.00  0.00     0.154 HD
BRANCH   9  11
ATOM     11  C   UNL d   1       4.588   1.490  -0.197  0.00  0.00     0.099 A 
ATOM     12  N   UNL d   1       5.061   0.247  -0.425  0.00  0.00    -0.350 N 
ATOM     13  C   UNL d   1       6.335   0.102  -0.862  0.00  0.00     0.007 A 
ATOM     14  HN  UNL d   1       4.470  -0.570  -0.270  1.00  0.00     0.167 HD
ATOM     15  C   UNL d   1       6.838  -1.295  -1.075  0.00  0.00     0.068 C 
ATOM     16  C   UNL d   1       7.176   1.185  -1.079  0.00  0.00     0.041 A 
ATOM     17  C   UNL d   1       6.692   2.473  -0.838  0.00  0.00     0.052 A 
ATOM     18  C   UNL d   1       5.376   2.619  -0.390  0.00  0.00     0.060 A 
BRANCH  17  19
ATOM     19  C   UNL d   1       7.588   3.666  -1.019  0.00  0.00     0.417 C 
ATOM     20  F   UNL d   1       6.973   4.856  -0.779  0.00  0.00    -0.166 F 
ATOM     21  F   UNL d   1       8.668   3.631  -0.190  0.00  0.00    -0.166 F 
ATOM     22  F   UNL d   1       8.091   3.752  -2.281  0.00  0.00    -0.166 F 
ENDBRANCH  17  19
ENDBRANCH   9  11
ENDBRANCH   4   9
BRANCH   1  23
ATOM     23  C   UNL d   1      -0.631   5.494  -0.922  0.00  0.00     0.109 A 
ATOM     24  C   UNL d   1      -1.769   5.425  -0.118  0.00  0.00     0.135 A 
ATOM     25  F   UNL d   1      -1.803   4.607   0.943  0.00  0.00    -0.205 F 
ATOM     26  C   UNL d   1      -2.903   6.184  -0.406  0.00  0.00     0.043 A 
ATOM     27  C   UNL d   1      -2.906   7.028  -1.515  0.00  0.00     0.006 A 
ATOM     28  C   UNL d   1      -1.767   7.117  -2.317  0.00  0.00     0.043 A 
ATOM     29  C   UNL d   1      -0.635   6.358  -2.014  0.00  0.00     0.135 A 
ATOM     30  F   UNL d   1       0.422   6.442  -2.832  0.00  0.00    -0.205 F 
ENDBRANCH   1  23
TORSDOF 4
