REMARK  5 active torsions:
REMARK  status: ('A' for Active; 'I' for Inactive)
REMARK    1  A    between atoms: C_2  and  C_1 
REMARK       I    between atoms: N_13  and  C_2 
REMARK    2  A    between atoms: C_16  and  N_13 
REMARK    3  A    between atoms: C_14  and  C_16 
REMARK    4  A    between atoms: C_17  and  C_14 
REMARK    5  A    between atoms: O_15  and  C_17 
ROOT
ATOM      1  C   UNL d   1      -1.543   0.290   0.089  0.00  0.00     0.042 C 
ATOM      2  C   UNL d   1      -0.773   1.037   1.211  0.00  0.00     0.024 C 
ATOM      3  C   UNL d   1      -0.994   0.769  -1.276  0.00  0.00     0.024 C 
ATOM      4  C   UNL d   1      -1.263  -1.225   0.240  0.00  0.00     0.024 C 
ATOM      5  C   UNL d   1       0.246  -1.508   0.142  0.00  0.00    -0.013 C 
ATOM      6  C   UNL d   1       0.736   0.761   1.118  0.00  0.00    -0.013 C 
ATOM      7  C   UNL d   1       0.517   0.489  -1.376  0.00  0.00    -0.013 C 
ATOM      8  C   UNL d   1       0.980  -0.750   1.259  0.00  0.00     0.009 C 
ATOM      9  C   UNL d   1       0.763  -1.022  -1.224  0.00  0.00     0.009 C 
ATOM     10  C   UNL d   1       1.250   1.236  -0.250  0.00  0.00     0.009 C 
ENDROOT
BRANCH   1  11
ATOM     11  C   UNL d   1      -3.047   0.581   0.211  0.00  0.00     0.226 C 
ATOM     12  O   UNL d   1      -3.504   1.315   1.085  0.00  0.00    -0.273 OA
ATOM     13  N   UNL d   1      -3.848  -0.043  -0.720  0.00  0.00    -0.360 N 
ATOM     14  H   UNL d   1      -3.430  -0.596  -1.454  0.00  0.00     0.162 HD
BRANCH  13  15
ATOM     15  C   UNL d   1      -5.292   0.100  -0.699  0.00  0.00     0.125 C 
BRANCH  15  16
ATOM     16  C   UNL d   1      -5.760   1.307  -1.508  0.00  0.00     0.046 C 
BRANCH  16  17
ATOM     17  C   UNL d   1      -7.278   1.449  -1.474  0.00  0.00     0.168 C 
BRANCH  17  18
ATOM     18  O   UNL d   1      -7.700   1.629  -0.126  0.00  0.00    -0.396 OA
ATOM     19  C   UNL d   1      -9.110   1.752  -0.013  0.00  0.00     0.201 C 
ENDBRANCH  17  18
ENDBRANCH  16  17
ENDBRANCH  15  16
ENDBRANCH  13  15
ENDBRANCH   1  11
TORSDOF 5
