REMARK  1 active torsions:
REMARK  status: ('A' for Active; 'I' for Inactive)
REMARK    1  A    between atoms: N_2  and  C_1 
ROOT
ATOM      1  C   UNL d   1       1.320  -1.248   0.009  0.00  0.00     0.145 A 
ATOM      2  S   UNL d   1       1.861   0.363   0.005  0.00  0.00    -0.076 SA
ATOM      3  C   UNL d   1      -0.056  -1.349  -0.004  0.00  0.00     0.067 A 
ATOM      4  C   UNL d   1      -0.676  -0.062  -0.011  0.00  0.00     0.054 A 
ATOM      5  C   UNL d   1       0.253   0.959  -0.010  0.00  0.00     0.074 A 
ATOM      6  N   UNL d   1      -3.236   0.347  -0.021  0.00  0.00    -0.191 NA
ATOM      7  C   UNL d   1      -2.090   0.168  -0.018  0.00  0.00     0.100 C 
ENDROOT
BRANCH   1   8
ATOM      8  N   UNL d   1       2.259  -2.341   0.028  0.00  0.00    -0.108 N 
ATOM      9  O   UNL d   1       1.769  -3.478   0.030  0.00  0.00    -0.531 OA
ATOM     10  O   UNL d   1       3.467  -2.079   0.041  0.00  0.00    -0.531 OA
ENDBRANCH   1   8
TORSDOF 1
