REMARK  2 active torsions:
REMARK  status: ('A' for Active; 'I' for Inactive)
REMARK    1  A    between atoms: C_13  and  C_10 
REMARK    2  A    between atoms: O_12  and  C_13 
ROOT
ATOM      1  N   UNL d   1      -1.943  -0.840  -0.020  0.00  0.00    -0.020 NA
ATOM      2  N   UNL d   1      -0.884  -1.641  -0.027  0.00  0.00    -0.282 N 
ATOM      3  HN  UNL d   1      -0.906  -2.661  -0.040  1.00  0.00     0.184 HD
ATOM      4  C   UNL d   1       0.241  -0.860  -0.015  0.00  0.00     0.074 A 
ATOM      5  N   UNL d   1      -1.488   0.427  -0.005  0.00  0.00    -0.278 N 
ATOM      6  C   UNL d   1      -0.121   0.480   0.008  0.00  0.00     0.076 A 
ATOM      7  C   UNL d   1       0.810   1.521   0.025  0.00  0.00     0.034 A 
ATOM      8  C   UNL d   1       1.599  -1.211  -0.031  0.00  0.00     0.042 A 
ATOM      9  C   UNL d   1       2.162   1.153   0.010  0.00  0.00     0.012 A 
ATOM     10  C   UNL d   1       2.571  -0.192  -0.010  0.00  0.00    -0.033 A 
ATOM     11  C   UNL d   1      -2.409   1.531  -0.043  0.00  0.00     0.175 C 
ENDROOT
BRANCH  10  12
ATOM     12  C   UNL d   1       4.030  -0.563  -0.085  0.00  0.00     0.203 C 
BRANCH  12  13
ATOM     13  O   UNL d   1       4.836   0.399   0.582  0.00  0.00    -0.396 OA
ATOM     14  H   UNL d   1       5.754   0.089   0.512  0.00  0.00     0.209 HD
ENDBRANCH  12  13
ENDBRANCH  10  12
TORSDOF 2
