REMARK  2 active torsions:
REMARK  status: ('A' for Active; 'I' for Inactive)
REMARK    1  A    between atoms: C_2  and  S_1 
REMARK    2  A    between atoms: N_3  and  S_1 
ROOT
ATOM      1  S   UNL d   1       1.298   0.005   0.140  0.00  0.00     0.245 S 
ATOM      2  O   UNL d   1       0.724   0.345   1.424  0.00  0.00    -0.206 OA
ATOM      3  O   UNL d   1       1.337  -1.381  -0.272  0.00  0.00    -0.206 OA
ENDROOT
BRANCH   1   4
ATOM      4  C   UNL d   1       2.971   0.605   0.070  0.00  0.00     0.098 A 
ATOM      5  C   UNL d   1       3.850  -0.066  -0.802  0.00  0.00     0.052 A 
ATOM      6  C   UNL d   1       5.194   0.302  -0.882  0.00  0.00     0.057 A 
ATOM      7 CL   UNL d   1       6.189  -0.529  -2.022  0.00  0.00    -0.083 Cl
ATOM      8  C   UNL d   1       5.682   1.317  -0.058  0.00  0.00     0.057 A 
ATOM      9  C   UNL d   1       4.816   1.970   0.823  0.00  0.00     0.051 A 
ATOM     10 CL   UNL d   1       7.335   1.815  -0.081  0.00  0.00    -0.082 Cl
ATOM     11  C   UNL d   1       3.456   1.629   0.886  0.00  0.00     0.058 A 
ATOM     12 CL   UNL d   1       2.501   2.573   1.966  0.00  0.00    -0.083 Cl
ENDBRANCH   1   4
BRANCH   1  13
ATOM     13  N   UNL d   1       0.507   0.913  -1.073  0.00  0.00    -0.206 NA
ATOM     14  C   UNL d   1       0.834   0.633  -2.497  0.00  0.00     0.108 C 
ATOM     15  C   UNL d   1       0.165  -0.647  -2.993  0.00  0.00     0.020 C 
ATOM     16  C   UNL d   1      -1.342  -0.698  -2.692  0.00  0.00    -0.016 C 
ATOM     17  C   UNL d   1      -1.679  -0.232  -1.267  0.00  0.00     0.020 C 
ATOM     18  C   UNL d   1      -1.878  -2.113  -2.919  0.00  0.00     0.010 C 
ATOM     19  C   UNL d   1      -0.963   1.062  -0.901  0.00  0.00     0.108 C 
ENDBRANCH   1  13
TORSDOF 2
