REMARK  6 active torsions:
REMARK  status: ('A' for Active; 'I' for Inactive)
REMARK    1  A    between atoms: C_3  and  S_1 
REMARK    2  A    between atoms: C_4  and  S_1 
REMARK    3  A    between atoms: C_2  and  O_8 
REMARK    4  A    between atoms: C_9  and  C_3 
REMARK    5  A    between atoms: N_5  and  C_9 
REMARK    6  A    between atoms: O_8  and  C_16 
ROOT
ATOM      1  C   UNL d   1       0.472   1.784   0.047  0.00  0.00     0.059 A 
ATOM      2  C   UNL d   1       1.282   2.787   0.588  0.00  0.00     0.026 A 
ATOM      3  C   UNL d   1      -0.792   2.085  -0.455  0.00  0.00     0.026 A 
ATOM      4  C   UNL d   1      -0.491   4.399   0.224  0.00  0.00     0.078 A 
ATOM      5  C   UNL d   1      -1.267   3.394  -0.364  0.00  0.00     0.038 A 
ATOM      6  C   UNL d   1       0.799   4.100   0.665  0.00  0.00     0.038 A 
ENDROOT
BRANCH   1   7
ATOM      7  S   UNL d   1       1.078   0.114  -0.055  0.00  0.00     0.177 S 
ATOM      8  O   UNL d   1       0.383  -0.526  -1.154  0.00  0.00    -0.223 OA
ATOM      9  O   UNL d   1       2.528   0.175  -0.026  0.00  0.00    -0.223 OA
BRANCH   7  10
ATOM     10  C   UNL d   1       0.506  -0.614   1.469  0.00  0.00     0.176 C 
BRANCH  10  11
ATOM     11  C   UNL d   1       0.900  -2.086   1.518  0.00  0.00     0.287 C 
BRANCH  11  12
ATOM     12  N   UNL d   1       0.466  -2.786   2.747  0.00  0.00     0.093 N 
ATOM     13  C   UNL d   1      -1.003  -2.831   2.929  0.00  0.00     0.298 C 
ATOM     14  C   UNL d   1      -1.724  -3.735   1.917  0.00  0.00     0.198 C 
ATOM     15  O   UNL d   1      -1.225  -5.076   1.985  0.00  0.00    -0.388 OA
ATOM     16  C   UNL d   1       0.190  -5.112   1.760  0.00  0.00     0.198 C 
ATOM     17  C   UNL d   1       0.948  -4.193   2.740  0.00  0.00     0.298 C 
ENDBRANCH  11  12
ENDBRANCH  10  11
ENDBRANCH   7  10
ENDBRANCH   1   7
BRANCH   4  18
ATOM     18  O   UNL d   1      -1.093   5.620   0.262  0.00  0.00    -0.255 OA
BRANCH  18  19
ATOM     19  C   UNL d   1      -0.733   6.542   1.282  0.00  0.00     0.530 C 
ATOM     20  F   UNL d   1      -0.095   5.976   2.327  0.00  0.00    -0.144 F 
ATOM     21  F   UNL d   1       0.046   7.513   0.761  0.00  0.00    -0.144 F 
ATOM     22  F   UNL d   1      -1.865   7.113   1.753  0.00  0.00    -0.144 F 
ENDBRANCH  18  19
ENDBRANCH   4  18
TORSDOF 6
