REMARK  4 active torsions:
REMARK  status: ('A' for Active; 'I' for Inactive)
REMARK       I    between atoms: N_5  and  C_1 
REMARK    1  A    between atoms: O_10  and  C_1 
REMARK    2  A    between atoms: N_2  and  O_10 
REMARK    3  A    between atoms: C_13  and  N_5 
REMARK    4  A    between atoms: C_14  and  C_12 
ROOT
ATOM      1  N   UNL d   1       3.036  -0.271   1.185  0.00  0.00    -0.267 N 
ATOM      2  HN  UNL d   1       2.535  -0.695   1.966  1.00  0.00     0.194 HD
ATOM      3  C   UNL d   1       4.262   0.162   1.185  0.00  0.00     0.126 C 
ENDROOT
BRANCH   1   4
ATOM      4  O   UNL d   1       2.538  -0.037  -0.117  0.00  0.00    -0.181 OA
BRANCH   4   5
ATOM      5  C   UNL d   1       1.242  -0.459  -0.331  0.00  0.00     0.387 C 
ATOM      6  N   UNL d   1       0.673  -1.168   0.707  0.00  0.00    -0.301 N 
ATOM      7  H   UNL d   1       1.259  -1.189   1.535  0.00  0.00     0.171 HD
ATOM      8  O   UNL d   1       0.707  -0.190  -1.403  0.00  0.00    -0.236 OA
BRANCH   6   9
ATOM      9  C   UNL d   1      -0.543  -1.880   0.677  0.00  0.00     0.036 A 
ATOM     10  C   UNL d   1      -1.295  -2.055  -0.487  0.00  0.00     0.030 A 
ATOM     11  C   UNL d   1      -2.442  -2.853  -0.495  0.00  0.00     0.009 A 
ATOM     12  C   UNL d   1      -2.870  -3.494   0.668  0.00  0.00    -0.062 A 
ATOM     13  C   UNL d   1      -2.154  -3.281   1.852  0.00  0.00     0.009 A 
ATOM     14  C   UNL d   1      -4.067  -4.396   0.616  0.00  0.00     0.048 C 
ATOM     15  C   UNL d   1      -0.996  -2.487   1.855  0.00  0.00     0.030 A 
ENDBRANCH   6   9
ENDBRANCH   4   5
ENDBRANCH   1   4
BRANCH   3  16
ATOM     16  C   UNL d   1       5.116   0.206   2.385  0.00  0.00    -0.018 A 
ATOM     17  C   UNL d   1       6.406   0.749   2.269  0.00  0.00     0.022 A 
ATOM     18  C   UNL d   1       7.161   0.879   3.424  0.00  0.00    -0.022 A 
ATOM     19  C   UNL d   1       8.491   1.500   3.624  0.00  0.00     0.068 C 
ATOM     20  C   UNL d   1       6.652   0.486   4.651  0.00  0.00     0.075 A 
ATOM     21  C   UNL d   1       8.750   1.074   5.072  0.00  0.00     0.180 C 
ATOM     22  O   UNL d   1       7.494   0.732   5.703  0.00  0.00    -0.350 OA
ATOM     23  C   UNL d   1       5.392  -0.062   4.783  0.00  0.00     0.038 A 
ATOM     24  C   UNL d   1       4.616  -0.209   3.631  0.00  0.00     0.015 A 
ENDBRANCH   3  16
TORSDOF 4
