REMARK  3 active torsions:
REMARK  status: ('A' for Active; 'I' for Inactive)
REMARK    1  A    between atoms: C_3  and  C_1 
REMARK       I    between atoms: N_6  and  C_1 
REMARK    2  A    between atoms: C_2  and  C_4 
REMARK    3  A    between atoms: C_11  and  N_6 
ROOT
ATOM      1  C   UNL d   1       1.109   0.041   0.061  0.00  0.00     0.245 C 
ATOM      2  N   UNL d   1       0.315  -0.719   0.894  0.00  0.00    -0.324 N 
ATOM      3  O   UNL d   1       2.333   0.074   0.037  0.00  0.00    -0.268 OA
ATOM      4  H   UNL d   1      -0.674  -0.766   0.691  0.00  0.00     0.169 HD
ENDROOT
BRANCH   1   5
ATOM      5  C   UNL d   1       0.305   0.878  -0.870  0.00  0.00     0.075 C 
ATOM      6  C   UNL d   1       0.929   1.656  -1.771  0.00  0.00     0.017 C 
BRANCH   6   7
ATOM      7  C   UNL d   1       0.278   2.563  -2.667  0.00  0.00    -0.029 A 
ATOM      8  C   UNL d   1       0.858   2.962  -3.854  0.00  0.00     0.061 A 
ATOM      9  S   UNL d   1      -0.128   4.057  -4.725  0.00  0.00    -0.113 SA
ATOM     10  C   UNL d   1      -1.327   4.030  -3.506  0.00  0.00     0.050 A 
ATOM     11  C   UNL d   1      -0.987   3.195  -2.464  0.00  0.00     0.019 A 
ENDBRANCH   6   7
ENDBRANCH   1   5
BRANCH   2  12
ATOM     12  C   UNL d   1       0.748  -1.466   2.013  0.00  0.00     0.035 A 
ATOM     13  C   UNL d   1       2.039  -1.376   2.545  0.00  0.00     0.032 A 
ATOM     14  C   UNL d   1       2.392  -2.109   3.681  0.00  0.00     0.044 A 
ATOM     15  C   UNL d   1       1.454  -2.936   4.282  0.00  0.00     0.116 A 
ATOM     16  C   UNL d   1       0.168  -3.042   3.769  0.00  0.00     0.044 A 
ATOM     17  F   UNL d   1       1.792  -3.637   5.372  0.00  0.00    -0.206 F 
ATOM     18  C   UNL d   1      -0.188  -2.302   2.638  0.00  0.00     0.032 A 
ENDBRANCH   2  12
TORSDOF 3
