REMARK  4 active torsions:
REMARK  status: ('A' for Active; 'I' for Inactive)
REMARK    1  A    between atoms: C_2  and  S_1 
REMARK    2  A    between atoms: N_4  and  S_1 
REMARK    3  A    between atoms: C_3  and  N_4 
REMARK    4  A    between atoms: O_21  and  C_16 
ROOT
ATOM      1  C   UNL d   1       0.863  -0.100   2.614  0.00  0.00     0.124 A 
ATOM      2  N   UNL d   1       2.089  -0.544   2.887  0.00  0.00    -0.286 N 
ATOM      3  HN  UNL d   1       2.924  -0.492   2.304  1.00  0.00     0.188 HD
ATOM      4  C   UNL d   1      -0.095  -0.418   3.625  0.00  0.00     0.066 A 
ATOM      5  N   UNL d   1       1.961  -1.077   4.114  0.00  0.00    -0.294 N 
ATOM      6  C   UNL d   1       0.676  -1.072   4.598  0.00  0.00     0.066 A 
ATOM      7  C   UNL d   1      -1.494  -0.319   3.863  0.00  0.00     0.084 A 
ATOM      8  C   UNL d   1       3.119  -1.627   4.781  0.00  0.00     0.178 C 
ATOM      9  C   UNL d   1       0.142  -1.607   5.782  0.00  0.00     0.032 A 
ATOM     10  C   UNL d   1      -1.229  -1.486   5.992  0.00  0.00     0.005 A 
ATOM     11  C   UNL d   1      -2.032  -0.861   5.046  0.00  0.00     0.038 A 
ENDROOT
BRANCH   1  12
ATOM     12  N   UNL d   1       0.667   0.506   1.380  0.00  0.00    -0.164 NA
ATOM     13  H   UNL d   1       1.235   0.047   0.668  0.00  0.00     0.147 HD
BRANCH  12  14
ATOM     14  S   UNL d   1       0.972   2.172   1.292  0.00  0.00     0.249 S 
ATOM     15  O   UNL d   1       0.337   2.670   0.088  0.00  0.00    -0.205 OA
ATOM     16  O   UNL d   1       0.727   2.794   2.572  0.00  0.00    -0.205 OA
BRANCH  14  17
ATOM     17  C   UNL d   1       2.647   2.455   0.996  0.00  0.00     0.105 A 
ATOM     18  C   UNL d   1       3.344   1.982  -0.088  0.00  0.00     0.099 A 
ATOM     19  S   UNL d   1       4.956   2.524  -0.129  0.00  0.00    -0.064 SA
ATOM     20 CL   UNL d   1       2.797   0.960  -1.359  0.00  0.00    -0.075 Cl
ATOM     21  C   UNL d   1       4.737   3.392   1.308  0.00  0.00     0.077 A 
ATOM     22  C   UNL d   1       3.474   3.277   1.829  0.00  0.00     0.058 A 
ATOM     23 CL   UNL d   1       6.034   4.309   1.959  0.00  0.00    -0.076 Cl
ENDBRANCH  14  17
ENDBRANCH  12  14
ENDBRANCH   1  12
BRANCH   7  24
ATOM     24  O   UNL d   1      -2.476   0.102   2.976  0.00  0.00    -0.355 OA
ATOM     25  C   UNL d   1      -2.232   1.340   2.332  0.00  0.00     0.210 C 
ENDBRANCH   7  24
TORSDOF 4
