REMARK  4 active torsions:
REMARK  status: ('A' for Active; 'I' for Inactive)
REMARK    1  A    between atoms: N_7  and  C_1 
REMARK    2  A    between atoms: C_10  and  C_2 
REMARK    3  A    between atoms: C_13  and  C_10 
REMARK    4  A    between atoms: O_16  and  N_11 
ROOT
ATOM      1  C   UNL d   1      -0.657  -1.423   0.045  0.00  0.00     0.150 A 
ATOM      2  C   UNL d   1      -1.698  -0.465   0.005  0.00  0.00     0.065 A 
ATOM      3  N   UNL d   1      -1.201   0.781   0.024  0.00  0.00    -0.300 N 
ATOM      4  HN  UNL d   1      -1.720   1.659   0.024  1.00  0.00     0.187 HD
ATOM      5  C   UNL d   1       0.528  -0.701   0.050  0.00  0.00     0.059 A 
ATOM      6  N   UNL d   1       0.138   0.616   0.043  0.00  0.00    -0.298 N 
ATOM      7  C   UNL d   1       1.947  -1.137   0.028  0.00  0.00     0.072 C 
ATOM      8  C   UNL d   1       0.972   1.797   0.034  0.00  0.00     0.177 C 
ENDROOT
BRANCH   2   9
ATOM      9  C   UNL d   1      -3.171  -0.671  -0.056  0.00  0.00     0.107 C 
BRANCH   9  10
ATOM     10  C   UNL d   1      -3.749  -0.782   1.324  0.00  0.00     0.092 C 
ATOM     11  N   UNL d   1      -4.363  -1.857   1.704  0.00  0.00    -0.284 N 
ATOM     12  HN  UNL d   1      -4.489  -2.699   1.141  1.00  0.00     0.192 HD
BRANCH  11  13
ATOM     13  O   UNL d   1      -4.826  -1.678   3.011  0.00  0.00    -0.291 OA
ATOM     14  H   UNL d   1      -5.295  -2.517   3.185  0.00  0.00     0.244 HD
ENDBRANCH  11  13
ENDBRANCH   9  10
ENDBRANCH   2   9
BRANCH   1  15
ATOM     15  N   UNL d   1      -0.787  -2.847   0.043  0.00  0.00    -0.112 N 
ATOM     16  O   UNL d   1      -1.515  -3.336  -0.829  0.00  0.00    -0.532 OA
ATOM     17  O   UNL d   1      -0.147  -3.468   0.899  0.00  0.00    -0.532 OA
ENDBRANCH   1  15
TORSDOF 4
