REMARK  5 active torsions:
REMARK  status: ('A' for Active; 'I' for Inactive)
REMARK    1  A    between atoms: C_5  and  C_1 
REMARK    2  A    between atoms: C_7  and  C_5 
REMARK    3  A    between atoms: C_13  and  C_6 
REMARK    4  A    between atoms: N_14  and  N_9 
REMARK    5  A    between atoms: C_16  and  N_14 
ROOT
ATOM      1  C   UNL d   1       0.883  -3.502   0.072  0.00  0.00     0.181 C 
ATOM      2  N   UNL d   1      -0.091  -2.933  -0.576  0.00  0.00    -0.287 N 
ATOM      3  HN  UNL d   1       0.090  -2.077  -1.099  1.00  0.00     0.188 HD
ATOM      4  C   UNL d   1       0.622  -4.734   0.777  0.00  0.00     0.123 C 
ATOM      5  N   UNL d   1       0.371  -5.715   1.347  0.00  0.00    -0.190 NA
ENDROOT
BRANCH   1   6
ATOM      6  C   UNL d   1       2.264  -2.916   0.042  0.00  0.00     0.238 C 
ATOM      7  O   UNL d   1       3.194  -3.723   0.028  0.00  0.00    -0.283 OA
BRANCH   6   8
ATOM      8  C   UNL d   1       2.508  -1.478   0.045  0.00  0.00     0.110 A 
ATOM      9  N   UNL d   1       1.530  -0.565   0.113  0.00  0.00    -0.257 N 
ATOM     10  O   UNL d   1       2.149   0.669   0.085  0.00  0.00    -0.241 OA
ATOM     11  HN  UNL d   1       0.528  -0.746   0.173  1.00  0.00     0.195 HD
ATOM     12  C   UNL d   1       3.502   0.508   0.030  0.00  0.00     0.086 A 
ATOM     13  C   UNL d   1       3.775  -0.839   0.001  0.00  0.00     0.071 A 
BRANCH  12  14
ATOM     14  C   UNL d   1       4.335   1.762   0.035  0.00  0.00     0.000 C 
ATOM     15  C   UNL d   1       5.837   1.417   0.039  0.00  0.00     0.021 C 
ATOM     16  C   UNL d   1       4.032   2.605  -1.216  0.00  0.00     0.021 C 
ATOM     17  C   UNL d   1       4.021   2.589   1.294  0.00  0.00     0.021 C 
ENDBRANCH  12  14
ENDBRANCH   6   8
ENDBRANCH   1   6
BRANCH   2  18
ATOM     18  N   UNL d   1      -1.350  -3.461  -0.570  0.00  0.00    -0.300 N 
ATOM     19  H   UNL d   1      -1.687  -4.045   0.199  0.00  0.00     0.187 HD
BRANCH  18  20
ATOM     20  C   UNL d   1      -2.381  -2.679  -1.142  0.00  0.00     0.048 A 
ATOM     21  C   UNL d   1      -2.119  -1.483  -1.823  0.00  0.00     0.031 A 
ATOM     22  C   UNL d   1      -3.146  -0.761  -2.435  0.00  0.00     0.009 A 
ATOM     23  C   UNL d   1      -4.460  -1.234  -2.403  0.00  0.00    -0.062 A 
ATOM     24  C   UNL d   1      -4.727  -2.445  -1.758  0.00  0.00     0.009 A 
ATOM     25  C   UNL d   1      -5.548  -0.450  -3.072  0.00  0.00     0.048 C 
ATOM     26  C   UNL d   1      -3.696  -3.161  -1.139  0.00  0.00     0.031 A 
ENDBRANCH  18  20
ENDBRANCH   2  18
TORSDOF 5
