REMARK  3 active torsions:
REMARK  status: ('A' for Active; 'I' for Inactive)
REMARK    1  A    between atoms: C_10  and  N_1 
REMARK    2  A    between atoms: N_4  and  C_7 
REMARK    3  A    between atoms: C_16  and  C_10 
ROOT
ATOM      1  C   UNL d   1       2.320  -1.422   0.239  0.00  0.00     0.191 C 
ENDROOT
BRANCH   1   2
ATOM      2  N   UNL d   1       1.040  -0.718   0.186  0.00  0.00    -0.253 N 
ATOM      3  N   UNL d   1       0.477  -0.368   1.400  0.00  0.00    -0.300 N 
ATOM      4  C   UNL d   1      -0.678   0.217   1.380  0.00  0.00     0.022 A 
ATOM      5  HN  UNL d   1       0.955  -0.563   2.280  1.00  0.00     0.187 HD
ATOM      6  C   UNL d   1      -1.324   0.592   2.690  0.00  0.00     0.069 C 
ATOM      7  C   UNL d   1      -1.432   0.537   0.152  0.00  0.00     0.031 A 
ATOM      8  C   UNL d   1      -0.884   0.171  -1.005  0.00  0.00     0.078 A 
ATOM      9  C   UNL d   1       0.425  -0.516  -1.043  0.00  0.00     0.262 A 
ATOM     10  O   UNL d   1       0.885  -0.851  -2.130  0.00  0.00    -0.267 OA
ENDBRANCH   1   2
BRANCH   1  11
ATOM     11  C   UNL d   1       2.123  -2.921   0.335  0.00  0.00    -0.038 A 
ATOM     12  C   UNL d   1       2.104  -3.709  -0.827  0.00  0.00     0.011 A 
ATOM     13  C   UNL d   1       1.770  -5.063  -0.760  0.00  0.00     0.037 A 
ATOM     14  C   UNL d   1       1.452  -5.633   0.478  0.00  0.00     0.102 A 
ATOM     15  C   UNL d   1       1.523  -4.873   1.653  0.00  0.00     0.037 A 
ATOM     16  C   UNL d   1       1.857  -3.520   1.576  0.00  0.00     0.011 A 
BRANCH  14  17
ATOM     17  N   UNL d   1       0.982  -7.021   0.539  0.00  0.00    -0.116 N 
ATOM     18  O   UNL d   1       0.644  -7.469   1.645  0.00  0.00    -0.532 OA
ATOM     19  O   UNL d   1       0.931  -7.662  -0.521  0.00  0.00    -0.532 OA
ENDBRANCH  14  17
ENDBRANCH   1  11
TORSDOF 3
