REMARK  4 active torsions:
REMARK  status: ('A' for Active; 'I' for Inactive)
REMARK       I    between atoms: N_2  and  C_1 
REMARK    1  A    between atoms: C_6  and  C_1 
REMARK    2  A    between atoms: N_3  and  N_2 
REMARK    3  A    between atoms: C_9  and  N_3 
REMARK    4  A    between atoms: C_10  and  C_4 
ROOT
ATOM      1  N   UNL d   1       0.886   2.079   1.484  0.00  0.00    -0.203 NA
ATOM      2  H   UNL d   1       0.737   1.075   1.603  0.00  0.00     0.153 HD
ENDROOT
BRANCH   1   3
ATOM      3  N   UNL d   1       2.240   2.403   1.325  0.00  0.00    -0.287 N 
ATOM      4  C   UNL d   1       2.993   1.667   0.424  0.00  0.00     0.236 C 
ATOM      5  O   UNL d   1       2.514   0.709  -0.196  0.00  0.00    -0.272 OA
ATOM      6  H   UNL d   1       2.639   3.092   1.949  0.00  0.00     0.184 HD
BRANCH   4   7
ATOM      7  C   UNL d   1       4.463   2.123   0.268  0.00  0.00     0.079 C 
ATOM      8  C   UNL d   1       5.553   1.095   0.675  0.00  0.00     0.014 C 
ATOM      9  C   UNL d   1       6.434   2.283   1.097  0.00  0.00     0.002 C 
ATOM     10  C   UNL d   1       5.136   3.089   1.285  0.00  0.00     0.014 C 
ENDBRANCH   4   7
ENDBRANCH   1   3
BRANCH   1  11
ATOM     11  C   UNL d   1       0.171   2.902   2.378  0.00  0.00     0.027 A 
ATOM     12  C   UNL d   1       0.410   4.278   2.472  0.00  0.00     0.026 A 
ATOM     13  C   UNL d   1      -0.354   5.089   3.315  0.00  0.00     0.009 A 
ATOM     14  C   UNL d   1      -1.407   4.554   4.066  0.00  0.00    -0.055 A 
ATOM     15  C   UNL d   1      -1.676   3.184   3.947  0.00  0.00     0.009 A 
ATOM     16  C   UNL d   1      -0.903   2.372   3.104  0.00  0.00     0.026 A 
BRANCH  14  17
ATOM     17  C   UNL d   1      -2.261   5.434   4.960  0.00  0.00     0.010 C 
ATOM     18  C   UNL d   1      -1.431   6.078   6.073  0.00  0.00     0.015 C 
ATOM     19  C   UNL d   1      -2.999   6.500   4.144  0.00  0.00     0.015 C 
ENDBRANCH  14  17
ENDBRANCH   1  11
TORSDOF 4
