REMARK  5 active torsions:
REMARK  status: ('A' for Active; 'I' for Inactive)
REMARK    1  A    between atoms: C_7  and  C_1 
REMARK    2  A    between atoms: C_5  and  C_7 
REMARK    3  A    between atoms: C_12  and  C_6 
REMARK    4  A    between atoms: N_13  and  C_9 
REMARK    5  A    between atoms: C_15  and  N_13 
ROOT
ATOM      1  C   UNL d   1       0.890  -3.441   0.013  0.00  0.00     0.112 C 
ATOM      2  C   UNL d   1       0.763  -4.785   0.000  0.00  0.00     0.115 C 
ATOM      3  C   UNL d   1      -0.262  -2.613  -0.016  0.00  0.00     0.105 C 
ATOM      4  N   UNL d   1      -1.259  -2.021  -0.061  0.00  0.00    -0.191 NA
ENDROOT
BRANCH   1   5
ATOM      5  C   UNL d   1       2.282  -2.897  -0.011  0.00  0.00     0.222 C 
ATOM      6  O   UNL d   1       3.226  -3.607  -0.367  0.00  0.00    -0.284 OA
BRANCH   5   7
ATOM      7  C   UNL d   1       2.513  -1.518   0.419  0.00  0.00     0.108 A 
ATOM      8  N   UNL d   1       1.574  -0.687   0.891  0.00  0.00    -0.257 N 
ATOM      9  O   UNL d   1       2.214   0.499   1.200  0.00  0.00    -0.241 OA
ATOM     10  HN  UNL d   1       0.580  -0.890   1.001  1.00  0.00     0.195 HD
ATOM     11  C   UNL d   1       3.545   0.386   0.942  0.00  0.00     0.086 A 
ATOM     12  C   UNL d   1       3.782  -0.872   0.442  0.00  0.00     0.071 A 
BRANCH  11  13
ATOM     13  C   UNL d   1       4.412   1.573   1.267  0.00  0.00     0.000 C 
ATOM     14  C   UNL d   1       5.888   1.265   0.945  0.00  0.00     0.021 C 
ATOM     15  C   UNL d   1       3.976   2.794   0.440  0.00  0.00     0.021 C 
ATOM     16  C   UNL d   1       4.299   1.904   2.766  0.00  0.00     0.021 C 
ENDBRANCH  11  13
ENDBRANCH   5   7
ENDBRANCH   1   5
BRANCH   2  17
ATOM     17  N   UNL d   1      -0.389  -5.541   0.034  0.00  0.00    -0.364 N 
ATOM     18  H   UNL d   1      -1.275  -5.043   0.112  0.00  0.00     0.165 HD
BRANCH  17  19
ATOM     19  C   UNL d   1      -0.524  -6.938  -0.069  0.00  0.00     0.031 A 
ATOM     20  C   UNL d   1      -1.667  -7.538   0.478  0.00  0.00     0.030 A 
ATOM     21  C   UNL d   1      -1.844  -8.925   0.449  0.00  0.00     0.009 A 
ATOM     22  C   UNL d   1      -0.876  -9.749  -0.131  0.00  0.00    -0.062 A 
ATOM     23  C   UNL d   1       0.276  -9.162  -0.660  0.00  0.00     0.009 A 
ATOM     24  C   UNL d   1      -1.088 -11.233  -0.181  0.00  0.00     0.048 C 
ATOM     25  C   UNL d   1       0.455  -7.773  -0.616  0.00  0.00     0.030 A 
ENDBRANCH  17  19
ENDBRANCH   2  17
TORSDOF 5
