REMARK  5 active torsions:
REMARK  status: ('A' for Active; 'I' for Inactive)
REMARK    1  A    between atoms: C_7  and  C_1 
REMARK    2  A    between atoms: C_8  and  N_2 
REMARK    3  A    between atoms: C_13  and  C_3 
REMARK    4  A    between atoms: O_12  and  C_7 
REMARK    5  A    between atoms: C_18  and  C_13 
ROOT
ATOM      1  C   UNL d   1      -0.340   1.176   0.033  0.00  0.00     0.079 C 
ATOM      2  N   UNL d   1       0.968  -0.631  -0.056  0.00  0.00    -0.260 N 
ATOM      3  C   UNL d   1       0.994   0.762   0.039  0.00  0.00     0.053 C 
ATOM      4  N   UNL d   1      -0.296  -1.077  -0.289  0.00  0.00    -0.304 N 
ATOM      5  HN  UNL d   1      -0.585  -2.026  -0.526  1.00  0.00     0.186 HD
ATOM      6  C   UNL d   1      -1.071  -0.011  -0.142  0.00  0.00     0.128 C 
ENDROOT
BRANCH   2   7
ATOM      7  C   UNL d   1       2.026  -1.587  -0.010  0.00  0.00     0.056 A 
ATOM      8  C   UNL d   1       3.212  -1.355   0.696  0.00  0.00     0.033 A 
ATOM      9  C   UNL d   1       4.259  -2.281   0.635  0.00  0.00     0.026 A 
ATOM     10  C   UNL d   1       4.117  -3.448  -0.112  0.00  0.00     0.034 A 
ATOM     11  C   UNL d   1       2.920  -3.719  -0.769  0.00  0.00     0.026 A 
ATOM     12 CL   UNL d   1       5.426  -4.557  -0.222  0.00  0.00    -0.084 Cl
ATOM     13  C   UNL d   1       1.870  -2.799  -0.706  0.00  0.00     0.033 A 
ENDBRANCH   2   7
BRANCH   3  14
ATOM     14  C   UNL d   1       2.228   1.623   0.035  0.00  0.00     0.060 C 
BRANCH  14  15
ATOM     15  C   UNL d   1       3.109   1.467  -1.211  0.00  0.00     0.002 C 
ATOM     16  C   UNL d   1       2.407   1.854  -2.504  0.00  0.00     0.005 C 
ENDBRANCH  14  15
ENDBRANCH   3  14
BRANCH   1  17
ATOM     17  C   UNL d   1      -0.848   2.532   0.158  0.00  0.00     0.179 C 
ATOM     18  O   UNL d   1      -0.269   3.422   0.764  0.00  0.00    -0.646 OA
BRANCH  17  19
ATOM     19  O   UNL d   1      -2.035   2.756  -0.463  0.00  0.00    -0.773 OA
ATOM     20  H   UNL d   1      -2.328   2.021  -1.029  0.00  0.00     0.167 HD
ENDBRANCH  17  19
ENDBRANCH   1  17
TORSDOF 5
