REMARK  3 active torsions:
REMARK  status: ('A' for Active; 'I' for Inactive)
REMARK    1  A    between atoms: N_2  and  S_1 
REMARK    2  A    between atoms: C_3  and  S_1 
REMARK    3  A    between atoms: C_4  and  N_2 
ROOT
ATOM      1  S   UNL d   1       0.987  -0.052   0.040  0.00  0.00     0.247 S 
ATOM      2  O   UNL d   1       0.257  -1.280   0.275  0.00  0.00    -0.205 OA
ATOM      3  O   UNL d   1       2.425  -0.025  -0.124  0.00  0.00    -0.205 OA
ENDROOT
BRANCH   1   4
ATOM      4  N   UNL d   1       0.470   1.035   1.234  0.00  0.00    -0.166 NA
ATOM      5  H   UNL d   1      -0.154   0.504   1.843  0.00  0.00     0.147 HD
BRANCH   4   6
ATOM      6  C   UNL d   1       1.503   1.574   2.033  0.00  0.00     0.094 A 
ATOM      7  N   UNL d   1       1.815   0.816   3.095  0.00  0.00    -0.356 N 
ATOM      8  C   UNL d   1       2.792   1.296   3.896  0.00  0.00     0.090 A 
ATOM      9  HN  UNL d   1       1.344  -0.068   3.286  1.00  0.00     0.166 HD
ATOM     10  C   UNL d   1       3.437   2.508   3.695  0.00  0.00     0.024 A 
ATOM     11  C   UNL d   1       3.073   3.285   2.594  0.00  0.00    -0.058 A 
ATOM     12  C   UNL d   1       2.088   2.794   1.733  0.00  0.00     0.050 A 
ATOM     13  C   UNL d   1       3.715   4.619   2.361  0.00  0.00     0.048 C 
ENDBRANCH   4   6
ENDBRANCH   1   4
BRANCH   1  14
ATOM     14  C   UNL d   1       0.298   0.697  -1.426  0.00  0.00     0.075 A 
ATOM     15  C   UNL d   1       0.772   1.956  -1.816  0.00  0.00     0.034 A 
ATOM     16  C   UNL d   1       0.175   2.560  -2.905  0.00  0.00    -0.021 A 
ATOM     17  C   UNL d   1       0.450   3.874  -3.526  0.00  0.00     0.068 C 
ATOM     18  C   UNL d   1      -0.818   1.912  -3.625  0.00  0.00     0.075 A 
ATOM     19  C   UNL d   1      -0.792   3.980  -4.413  0.00  0.00     0.180 C 
ATOM     20  O   UNL d   1      -1.300   2.649  -4.675  0.00  0.00    -0.350 OA
ATOM     21  C   UNL d   1      -1.254   0.643  -3.295  0.00  0.00     0.039 A 
ATOM     22  C   UNL d   1      -0.696   0.029  -2.169  0.00  0.00     0.027 A 
ENDBRANCH   1  14
TORSDOF 3
