REMARK  6 active torsions:
REMARK  status: ('A' for Active; 'I' for Inactive)
REMARK    1  A    between atoms: C_9  and  C_1 
REMARK    2  A    between atoms: C_10  and  C_4 
REMARK    3  A    between atoms: S_6  and  C_9 
REMARK    4  A    between atoms: C_19  and  S_6 
REMARK    5  A    between atoms: C_13  and  C_14 
REMARK    6  A    between atoms: C_23  and  C_19 
ROOT
ATOM      1  C   UNL d   1       0.469   0.828   0.880  0.00  0.00     0.154 A 
ATOM      2  N   UNL d   1      -0.057  -0.134  -0.981  0.00  0.00    -0.277 N 
ATOM      3  HN  UNL d   1      -0.247  -0.300  -1.970  1.00  0.00     0.189 HD
ATOM      4  C   UNL d   1      -0.202  -0.998   0.002  0.00  0.00     0.174 A 
ATOM      5  O   UNL d   1       0.141  -0.459   1.222  0.00  0.00    -0.276 OA
ATOM      6  N   UNL d   1       0.403   1.040  -0.418  0.00  0.00    -0.280 N 
ATOM      7  HN  UNL d   1       0.643   1.900  -0.910  1.00  0.00     0.189 HD
ENDROOT
BRANCH   4   8
ATOM      8  C   UNL d   1      -0.629  -2.389  -0.023  0.00  0.00     0.017 A 
ATOM      9  C   UNL d   1      -1.419  -2.878  -1.072  0.00  0.00     0.016 A 
ATOM     10  C   UNL d   1      -1.807  -4.226  -1.119  0.00  0.00     0.009 A 
ATOM     11  C   UNL d   1      -1.412  -5.139  -0.124  0.00  0.00    -0.051 A 
ATOM     12  C   UNL d   1      -0.618  -4.636   0.920  0.00  0.00     0.009 A 
ATOM     13  C   UNL d   1      -0.240  -3.285   0.976  0.00  0.00     0.016 A 
BRANCH  11  14
ATOM     14  C   UNL d   1      -1.856  -6.615  -0.177  0.00  0.00    -0.024 C 
ATOM     15  C   UNL d   1      -1.308  -7.458   0.997  0.00  0.00     0.019 C 
ATOM     16  C   UNL d   1      -3.396  -6.698  -0.125  0.00  0.00     0.019 C 
ATOM     17  C   UNL d   1      -1.367  -7.285  -1.480  0.00  0.00     0.019 C 
ENDBRANCH  11  14
ENDBRANCH   4   8
BRANCH   1  18
ATOM     18  C   UNL d   1       0.960   1.734   1.931  0.00  0.00     0.226 C 
BRANCH  18  19
ATOM     19  S   UNL d   1      -0.400   2.150   3.002  0.00  0.00     0.151 S 
ATOM     20  O   UNL d   1      -1.466   2.735   2.214  0.00  0.00    -0.227 OA
ATOM     21  O   UNL d   1      -0.650   1.022   3.883  0.00  0.00    -0.227 OA
BRANCH  19  22
ATOM     22  C   UNL d   1       0.287   3.463   4.008  0.00  0.00     0.140 C 
BRANCH  22  23
ATOM     23  C   UNL d   1      -0.726   3.969   5.031  0.00  0.00     0.010 C 
ATOM     24  C   UNL d   1      -0.161   5.091   5.886  0.00  0.00     0.006 C 
ENDBRANCH  22  23
ENDBRANCH  19  22
ENDBRANCH  18  19
ENDBRANCH   1  18
TORSDOF 6
