REMARK  4 active torsions:
REMARK  status: ('A' for Active; 'I' for Inactive)
REMARK    1  A    between atoms: C_7  and  C_1 
REMARK    2  A    between atoms: C_15  and  C_4 
REMARK    3  A    between atoms: C_5  and  N_9 
REMARK       I    between atoms: N_10  and  C_7 
REMARK    4  A    between atoms: N_9  and  N_10 
ROOT
ATOM      1  C   UNL d   1       0.246  -2.712   0.039  0.00  0.00     0.271 C 
ATOM      2  N   UNL d   1      -0.403  -3.535   0.949  0.00  0.00    -0.282 N 
ATOM      3  O   UNL d   1       1.117  -3.117  -0.727  0.00  0.00    -0.266 OA
ATOM      4  H   UNL d   1      -0.910  -3.121   1.729  0.00  0.00     0.184 HD
ENDROOT
BRANCH   1   5
ATOM      5  C   UNL d   1      -0.147  -1.319   0.077  0.00  0.00     0.093 A 
ATOM      6  C   UNL d   1      -1.421  -0.676   0.196  0.00  0.00     0.083 A 
ATOM      7  N   UNL d   1      -1.259   0.660   0.191  0.00  0.00    -0.259 N 
ATOM      8  O   UNL d   1       0.084   0.902   0.054  0.00  0.00    -0.241 OA
ATOM      9  HN  UNL d   1      -1.996   1.361   0.273  1.00  0.00     0.195 HD
ATOM     10  C   UNL d   1       0.751  -0.272  -0.013  0.00  0.00     0.090 A 
ATOM     11  C   UNL d   1       2.220  -0.180  -0.122  0.00  0.00     0.080 C 
BRANCH   6  12
ATOM     12  C   UNL d   1      -2.776  -1.231   0.307  0.00  0.00    -0.006 A 
ATOM     13  C   UNL d   1      -3.126  -2.471  -0.244  0.00  0.00     0.014 A 
ATOM     14  C   UNL d   1      -4.428  -2.969  -0.110  0.00  0.00     0.001 A 
ATOM     15  C   UNL d   1      -5.402  -2.222   0.548  0.00  0.00     0.000 A 
ATOM     16  C   UNL d   1      -5.080  -0.975   1.075  0.00  0.00     0.001 A 
ATOM     17  C   UNL d   1      -3.777  -0.486   0.958  0.00  0.00     0.014 A 
ENDBRANCH   6  12
ENDBRANCH   1   5
BRANCH   2  18
ATOM     18  N   UNL d   1       0.156  -4.813   1.140  0.00  0.00    -0.200 NA
ATOM     19  H   UNL d   1       0.149  -5.359   0.269  0.00  0.00     0.153 HD
BRANCH  18  20
ATOM     20  C   UNL d   1      -0.309  -5.564   2.258  0.00  0.00     0.073 A 
ATOM     21  C   UNL d   1      -0.474  -6.958   2.118  0.00  0.00     0.073 A 
ATOM     22 CL   UNL d   1      -0.265  -7.743   0.592  0.00  0.00    -0.081 Cl
ATOM     23  C   UNL d   1      -0.828  -7.728   3.222  0.00  0.00     0.113 A 
ATOM     24  N   UNL d   1      -1.016  -7.221   4.459  0.00  0.00    -0.372 N 
ATOM     25  C   UNL d   1      -0.832  -5.888   4.593  0.00  0.00     0.113 A 
ATOM     26  HN  UNL d   1      -1.282  -7.810   5.248  1.00  0.00     0.164 HD
ATOM     27  C   UNL d   1      -0.482  -5.033   3.549  0.00  0.00     0.073 A 
ATOM     28 CL   UNL d   1      -0.233  -3.367   3.937  0.00  0.00    -0.081 Cl
ENDBRANCH  18  20
ENDBRANCH   2  18
TORSDOF 4
