REMARK  6 active torsions:
REMARK  status: ('A' for Active; 'I' for Inactive)
REMARK    1  A    between atoms: C_2  and  S_1 
REMARK    2  A    between atoms: N_15  and  S_1 
REMARK    3  A    between atoms: C_3  and  C_7 
REMARK    4  A    between atoms: C_16  and  N_15 
REMARK    5  A    between atoms: C_18  and  C_16 
REMARK    6  A    between atoms: N_17  and  C_18 
ROOT
ATOM      1  C   UNL d   1       0.457  -1.861  -0.200  0.00  0.00     0.115 A 
ATOM      2  S   UNL d   1       1.115  -2.746  -1.509  0.00  0.00    -0.075 SA
ATOM      3  C   UNL d   1       0.218  -4.142  -1.109  0.00  0.00     0.033 A 
ATOM      4  C   UNL d   1      -0.368  -2.648   0.577  0.00  0.00     0.034 A 
ATOM      5  C   UNL d   1      -0.537  -3.954   0.031  0.00  0.00     0.023 A 
ENDROOT
BRANCH   1   6
ATOM      6  S   UNL d   1       0.922  -0.147  -0.095  0.00  0.00     0.248 S 
ATOM      7  O   UNL d   1       0.305   0.330   1.127  0.00  0.00    -0.205 OA
ATOM      8  O   UNL d   1       0.598   0.427  -1.379  0.00  0.00    -0.205 OA
BRANCH   6   9
ATOM      9  N   UNL d   1       2.590  -0.055   0.086  0.00  0.00    -0.213 NA
ATOM     10  H   UNL d   1       2.977   0.746  -0.425  0.00  0.00     0.140 HD
BRANCH   9  11
ATOM     11  C   UNL d   1       3.111  -0.145   1.464  0.00  0.00     0.134 C 
BRANCH  11  12
ATOM     12  C   UNL d   1       4.647   0.008   1.454  0.00  0.00     0.286 C 
BRANCH  12  13
ATOM     13  N   UNL d   1       5.144   1.250   0.815  0.00  0.00     0.081 N 
ATOM     14  C   UNL d   1       4.680   2.455   1.510  0.00  0.00     0.309 C 
ATOM     15  C   UNL d   1       6.613   1.238   0.804  0.00  0.00     0.309 C 
ENDBRANCH  12  13
ENDBRANCH  11  12
ENDBRANCH   9  11
ENDBRANCH   6   9
ENDBRANCH   1   6
BRANCH   3  16
ATOM     16  C   UNL d   1       0.221  -5.429  -1.881  0.00  0.00     0.056 A 
ATOM     17  N   UNL d   1      -0.628  -6.468  -1.530  0.00  0.00    -0.353 N 
ATOM     18  C   UNL d   1      -0.471  -7.478  -2.359  0.00  0.00     0.047 A 
ATOM     19  HN  UNL d   1      -1.279  -6.452  -0.744  1.00  0.00     0.166 HD
ATOM     20  C   UNL d   1      -1.260  -8.739  -2.308  0.00  0.00     0.076 C 
ATOM     21  S   UNL d   1       0.738  -7.266  -3.561  0.00  0.00    -0.087 SA
ATOM     22  C   UNL d   1       1.033  -5.685  -2.967  0.00  0.00     0.082 A 
ENDBRANCH   3  16
TORSDOF 6
