REMARK  3 active torsions:
REMARK  status: ('A' for Active; 'I' for Inactive)
REMARK    1  A    between atoms: C_9  and  C_3 
REMARK    2  A    between atoms: C_8  and  C_7 
REMARK    3  A    between atoms: C_16  and  C_9 
ROOT
ATOM      1  N   UNL d   1       1.318  -1.134  -0.071  0.00  0.00    -0.297 N 
ATOM      2  HN  UNL d   1       1.878  -1.987  -0.075  1.00  0.00     0.187 HD
ATOM      3  C   UNL d   1      -0.238   1.242  -0.057  0.00  0.00     0.018 A 
ATOM      4  N   UNL d   1      -0.042  -1.173  -0.152  0.00  0.00    -0.266 N 
ATOM      5  C   UNL d   1      -0.882  -0.091  -0.181  0.00  0.00     0.266 A 
ATOM      6  C   UNL d   1       1.096   1.304   0.064  0.00  0.00     0.045 A 
ATOM      7  C   UNL d   1       1.869   0.039   0.013  0.00  0.00     0.059 A 
ATOM      8  O   UNL d   1      -2.098  -0.214  -0.287  0.00  0.00    -0.266 OA
ATOM      9  H   UNL d   1      -0.464  -2.092  -0.232  0.00  0.00     0.190 HD
ENDROOT
BRANCH   3  10
ATOM     10  C   UNL d   1      -1.129   2.451   0.004  0.00  0.00     0.083 C 
BRANCH  10  11
ATOM     11  C   UNL d   1      -1.317   3.130  -1.333  0.00  0.00    -0.051 A 
ATOM     12  C   UNL d   1      -2.023   2.503  -2.365  0.00  0.00     0.024 A 
ATOM     13  C   UNL d   1      -2.171   3.167  -3.573  0.00  0.00     0.088 A 
ATOM     14  N   UNL d   1      -1.677   4.399  -3.819  0.00  0.00    -0.375 N 
ATOM     15  C   UNL d   1      -1.009   4.994  -2.809  0.00  0.00     0.088 A 
ATOM     16  HN  UNL d   1      -1.801   4.856  -4.723  1.00  0.00     0.164 HD
ATOM     17  C   UNL d   1      -0.802   4.409  -1.568  0.00  0.00     0.024 A 
ENDBRANCH  10  11
ENDBRANCH   3  10
BRANCH   7  18
ATOM     18  C   UNL d   1       3.357   0.144   0.095  0.00  0.00    -0.008 A 
ATOM     19  C   UNL d   1       4.076  -0.909   0.682  0.00  0.00     0.017 A 
ATOM     20  C   UNL d   1       5.467  -0.839   0.792  0.00  0.00     0.043 A 
ATOM     21  C   UNL d   1       6.136   0.279   0.309  0.00  0.00     0.116 A 
ATOM     22  C   UNL d   1       5.443   1.322  -0.295  0.00  0.00     0.043 A 
ATOM     23  F   UNL d   1       7.468   0.352   0.421  0.00  0.00    -0.206 F 
ATOM     24  C   UNL d   1       4.052   1.254  -0.411  0.00  0.00     0.017 A 
ENDBRANCH   7  18
TORSDOF 3
