REMARK  4 active torsions:
REMARK  status: ('A' for Active; 'I' for Inactive)
REMARK    1  A    between atoms: C_2  and  C_1 
REMARK    2  A    between atoms: C_5  and  C_2 
REMARK    3  A    between atoms: C_4  and  C_3 
REMARK    4  A    between atoms: O_10  and  C_4 
ROOT
ATOM      1  C   UNL d   1       1.389  -0.202  -0.002  0.00  0.00     0.032 A 
ATOM      2  C   UNL d   1       0.562  -1.339   0.033  0.00  0.00     0.051 A 
ATOM      3  C   UNL d   1       0.811   1.069  -0.189  0.00  0.00     0.016 A 
ATOM      4  C   UNL d   1      -0.835  -1.157  -0.034  0.00  0.00     0.019 A 
ATOM      5  C   UNL d   1      -0.572   1.227  -0.249  0.00  0.00     0.001 A 
ATOM      6  C   UNL d   1      -1.397   0.114  -0.162  0.00  0.00     0.001 A 
ENDROOT
BRANCH   1   7
ATOM      7  C   UNL d   1       2.866  -0.277   0.090  0.00  0.00     0.193 C 
ATOM      8  O   UNL d   1       3.429  -1.137  -0.581  0.00  0.00    -0.287 OA
BRANCH   7   9
ATOM      9  C   UNL d   1       3.675   0.705   0.872  0.00  0.00     0.015 A 
ATOM     10  C   UNL d   1       5.027   0.862   0.531  0.00  0.00     0.018 A 
ATOM     11  C   UNL d   1       5.808   1.831   1.165  0.00  0.00     0.043 A 
ATOM     12  C   UNL d   1       5.239   2.637   2.143  0.00  0.00     0.116 A 
ATOM     13  C   UNL d   1       3.912   2.467   2.524  0.00  0.00     0.043 A 
ATOM     14  F   UNL d   1       5.976   3.590   2.726  0.00  0.00    -0.206 F 
ATOM     15  C   UNL d   1       3.132   1.487   1.904  0.00  0.00     0.018 A 
ENDBRANCH   7   9
ENDBRANCH   1   7
BRANCH   2  16
ATOM     16  C   UNL d   1       0.992  -2.756   0.197  0.00  0.00     0.177 C 
ATOM     17  O   UNL d   1       0.309  -3.546   0.835  0.00  0.00    -0.646 OA
BRANCH  16  18
ATOM     18  O   UNL d   1       2.064  -3.157  -0.508  0.00  0.00    -0.773 OA
ATOM     19  H   UNL d   1       2.647  -2.438  -0.851  0.00  0.00     0.167 HD
ENDBRANCH  16  18
ENDBRANCH   2  16
TORSDOF 4
