REMARK  5 active torsions:
REMARK  status: ('A' for Active; 'I' for Inactive)
REMARK    1  A    between atoms: C_9  and  N_1 
REMARK    2  A    between atoms: C_7  and  C_2 
REMARK    3  A    between atoms: N_14  and  C_12 
REMARK    4  A    between atoms: C_13  and  N_14 
REMARK    5  A    between atoms: O_20  and  C_17 
ROOT
ATOM      1  N   UNL d   1       7.541  -3.442   1.893  0.00  0.00    -0.191 NA
ATOM      2  C   UNL d   1       7.338  -2.582   1.137  0.00  0.00     0.101 C 
ATOM      3  C   UNL d   1       7.065  -1.548   0.183  0.00  0.00     0.066 A 
ATOM      4  C   UNL d   1       5.778  -0.979   0.070  0.00  0.00     0.033 A 
ATOM      5  C   UNL d   1       8.107  -1.123  -0.658  0.00  0.00     0.024 A 
ATOM      6  C   UNL d   1       5.591   0.042  -0.881  0.00  0.00     0.025 A 
ATOM      7  C   UNL d   1       7.885  -0.131  -1.612  0.00  0.00     0.002 A 
ATOM      8  C   UNL d   1       6.627   0.451  -1.723  0.00  0.00     0.002 A 
ENDROOT
BRANCH   4   9
ATOM      9  N   UNL d   1       4.714  -1.399   0.925  0.00  0.00    -0.268 NA
ATOM     10  H   UNL d   1       4.701  -2.419   0.973  0.00  0.00     0.133 HD
BRANCH   9  11
ATOM     11  C   UNL d   1       3.452  -0.847   0.833  0.00  0.00     0.066 C 
ATOM     12  C   UNL d   1       2.353  -1.438   0.351  0.00  0.00     0.063 C 
BRANCH  12  13
ATOM     13  C   UNL d   1       1.136  -0.719   0.234  0.00  0.00     0.139 C 
ATOM     14  N   UNL d   1      -0.078  -1.352  -0.030  0.00  0.00    -0.225 N 
ATOM     15  N   UNL d   1      -0.965  -0.405  -0.418  0.00  0.00     0.001 NA
ATOM     16  N   UNL d   1      -0.370   0.759  -0.208  0.00  0.00    -0.007 NA
ATOM     17  N   UNL d   1       0.924   0.584   0.196  0.00  0.00    -0.270 N 
ATOM     18  HN  UNL d   1       1.596   1.317   0.425  1.00  0.00     0.185 HD
BRANCH  14  19
ATOM     19  C   UNL d   1      -0.448  -2.718   0.051  0.00  0.00     0.056 A 
ATOM     20  C   UNL d   1       0.200  -3.588   0.938  0.00  0.00     0.034 A 
ATOM     21  C   UNL d   1      -0.124  -4.947   0.958  0.00  0.00     0.039 A 
ATOM     22  C   UNL d   1      -1.098  -5.448   0.095  0.00  0.00     0.068 A 
ATOM     23  C   UNL d   1      -1.784  -4.568  -0.745  0.00  0.00     0.039 A 
ATOM     24  C   UNL d   1      -1.479  -3.204  -0.760  0.00  0.00     0.034 A 
BRANCH  22  25
ATOM     25  O   UNL d   1      -1.465  -6.760  -0.016  0.00  0.00    -0.356 OA
ATOM     26  C   UNL d   1      -0.716  -7.700   0.747  0.00  0.00     0.210 C 
ENDBRANCH  22  25
ENDBRANCH  14  19
ENDBRANCH  12  13
ENDBRANCH   9  11
ENDBRANCH   4   9
TORSDOF 5
