REMARK  10 active torsions:
REMARK  status: ('A' for Active; 'I' for Inactive)
REMARK    1  A    between atoms: C_9  and  N_1 
REMARK    2  A    between atoms: C_11  and  C_2 
REMARK    3  A    between atoms: S_10  and  C_5 
REMARK    4  A    between atoms: C_8  and  C_12 
REMARK    5  A    between atoms: C_19  and  C_9 
REMARK    6  A    between atoms: C_20  and  S_10 
REMARK    7  A    between atoms: C_13  and  C_20 
REMARK       I    between atoms: N_14  and  C_13 
REMARK    8  A    between atoms: C_25  and  N_14 
REMARK    9  A    between atoms: O_32  and  C_19 
REMARK   10  A    between atoms: O_33  and  C_19 
ROOT
ATOM      1  N   UNL d   1      -0.196  -1.220  -0.061  0.00  0.00    -0.306 N 
ATOM      2  C   UNL d   1       0.904  -0.444  -0.413  0.00  0.00     0.134 C 
ATOM      3  N   UNL d   1       0.477   0.796  -0.587  0.00  0.00    -0.283 N 
ATOM      4  HN  UNL d   1       1.016   1.560  -0.994  1.00  0.00     0.188 HD
ATOM      5  C   UNL d   1      -1.167  -0.311   0.275  0.00  0.00     0.163 C 
ATOM      6  N   UNL d   1      -0.808   0.882  -0.130  0.00  0.00    -0.278 N 
ATOM      7  HN  UNL d   1      -1.384   1.724  -0.108  1.00  0.00     0.189 HD
ENDROOT
BRANCH   5   8
ATOM      8  S   UNL d   1      -2.588  -0.628   1.222  0.00  0.00    -0.083 SA
BRANCH   8   9
ATOM      9  C   UNL d   1      -3.404   0.986   1.064  0.00  0.00     0.185 C 
BRANCH   9  10
ATOM     10  C   UNL d   1      -4.750   1.132   1.756  0.00  0.00     0.231 C 
ATOM     11  N   UNL d   1      -5.266   0.023   2.399  0.00  0.00    -0.327 N 
ATOM     12  H   UNL d   1      -4.634  -0.759   2.524  0.00  0.00     0.169 HD
ATOM     13  O   UNL d   1      -5.312   2.230   1.699  0.00  0.00    -0.272 OA
BRANCH  11  14
ATOM     14  C   UNL d   1      -6.570  -0.109   2.938  0.00  0.00     0.034 A 
ATOM     15  C   UNL d   1      -7.589   0.822   2.712  0.00  0.00     0.030 A 
ATOM     16  C   UNL d   1      -8.878   0.619   3.218  0.00  0.00     0.018 A 
ATOM     17  C   UNL d   1      -9.181  -0.521   3.968  0.00  0.00     0.048 A 
ATOM     18  C   UNL d   1      -8.156  -1.448   4.215  0.00  0.00     0.018 A 
ATOM     19  C   UNL d   1      -6.866  -1.245   3.697  0.00  0.00     0.030 A 
BRANCH  17  20
ATOM     20  C   UNL d   1     -10.580  -0.759   4.484  0.00  0.00     0.417 C 
ATOM     21  F   UNL d   1     -11.469   0.205   4.119  0.00  0.00    -0.166 F 
ATOM     22  F   UNL d   1     -11.104  -1.935   4.036  0.00  0.00    -0.166 F 
ATOM     23  F   UNL d   1     -10.633  -0.822   5.843  0.00  0.00    -0.166 F 
ENDBRANCH  17  20
ENDBRANCH  11  14
ENDBRANCH   9  10
ENDBRANCH   8   9
ENDBRANCH   5   8
BRANCH   1  24
ATOM     24  C   UNL d   1      -0.229  -2.667  -0.023  0.00  0.00     0.193 C 
BRANCH  24  25
ATOM     25  C   UNL d   1      -1.548  -3.379  -0.389  0.00  0.00     0.276 C 
BRANCH  25  26
ATOM     26  O   UNL d   1      -1.891  -3.057  -1.738  0.00  0.00    -0.364 OA
ATOM     27  C   UNL d   1      -3.212  -3.479  -2.068  0.00  0.00     0.204 C 
ENDBRANCH  25  26
BRANCH  25  28
ATOM     28  O   UNL d   1      -1.401  -4.801  -0.269  0.00  0.00    -0.364 OA
ATOM     29  C   UNL d   1      -1.246  -5.248   1.071  0.00  0.00     0.204 C 
ENDBRANCH  25  28
ENDBRANCH  24  25
ENDBRANCH   1  24
BRANCH   2  30
ATOM     30  C   UNL d   1       2.324  -0.822  -0.480  0.00  0.00     0.010 A 
ATOM     31  C   UNL d   1       3.178  -0.117  -1.346  0.00  0.00     0.017 A 
ATOM     32  C   UNL d   1       4.566  -0.297  -1.302  0.00  0.00     0.025 A 
ATOM     33  C   UNL d   1       5.117  -1.190  -0.390  0.00  0.00     0.034 A 
ATOM     34  C   UNL d   1       4.290  -1.921   0.460  0.00  0.00     0.025 A 
ATOM     35 CL   UNL d   1       6.825  -1.359  -0.274  0.00  0.00    -0.084 Cl
ATOM     36  C   UNL d   1       2.901  -1.734   0.417  0.00  0.00     0.017 A 
ENDBRANCH   2  30
TORSDOF 10
