REMARK  4 active torsions:
REMARK  status: ('A' for Active; 'I' for Inactive)
REMARK    1  A    between atoms: C_2  and  C_1 
REMARK    2  A    between atoms: S_8  and  C_5 
REMARK    3  A    between atoms: C_13  and  S_8 
REMARK    4  A    between atoms: C_15  and  C_13 
ROOT
ATOM      1  C   UNL d   1      -3.624   4.514  -7.598  0.00  0.00     0.065 A 
ATOM      2  N   UNL d   1      -1.594   5.017  -6.383  0.00  0.00    -0.358 N 
ATOM      3  HN  UNL d   1      -0.734   5.560  -6.298  1.00  0.00     0.166 HD
ATOM      4  C   UNL d   1      -1.920   4.077  -5.456  0.00  0.00     0.091 A 
ATOM      5  C   UNL d   1      -3.963   3.569  -6.625  0.00  0.00     0.044 A 
ATOM      6  C   UNL d   1      -3.108   3.341  -5.544  0.00  0.00     0.068 A 
ATOM      7  C   UNL d   1      -2.441   5.212  -7.420  0.00  0.00     0.105 A 
ATOM      8 CL   UNL d   1      -3.587   2.151  -4.387  0.00  0.00    -0.081 Cl
ENDROOT
BRANCH   4   9
ATOM      9  S   UNL d   1      -0.713   3.763  -4.175  0.00  0.00    -0.106 SA
BRANCH   9  10
ATOM     10  C   UNL d   1       0.234   5.322  -4.179  0.00  0.00     0.119 C 
BRANCH  10  11
ATOM     11  C   UNL d   1       1.386   5.243  -3.202  0.00  0.00    -0.049 A 
ATOM     12  C   UNL d   1       2.671   4.898  -3.643  0.00  0.00     0.008 A 
ATOM     13  C   UNL d   1       3.720   4.745  -2.731  0.00  0.00     0.007 A 
ATOM     14  C   UNL d   1       3.504   4.932  -1.362  0.00  0.00    -0.062 A 
ATOM     15  C   UNL d   1       2.226   5.290  -0.919  0.00  0.00     0.007 A 
ATOM     16  C   UNL d   1       4.611   4.673  -0.383  0.00  0.00     0.048 C 
ATOM     17  C   UNL d   1       1.178   5.448  -1.830  0.00  0.00     0.008 A 
ENDBRANCH  10  11
ENDBRANCH   9  10
ENDBRANCH   4   9
BRANCH   1  18
ATOM     18  C   UNL d   1      -4.474   4.780  -8.802  0.00  0.00     0.418 C 
ATOM     19  F   UNL d   1      -5.562   3.965  -8.884  0.00  0.00    -0.166 F 
ATOM     20  F   UNL d   1      -3.792   4.612  -9.965  0.00  0.00    -0.166 F 
ATOM     21  F   UNL d   1      -4.955   6.052  -8.826  0.00  0.00    -0.166 F 
ENDBRANCH   1  18
TORSDOF 4
