REMARK  5 active torsions:
REMARK  status: ('A' for Active; 'I' for Inactive)
REMARK    1  A    between atoms: C_11  and  C_1 
REMARK    2  A    between atoms: S_16  and  C_5 
REMARK    3  A    between atoms: C_10  and  C_17 
REMARK    4  A    between atoms: C_23  and  S_16 
REMARK    5  A    between atoms: C_24  and  C_23 
ROOT
ATOM      1  C   UNL d   1       2.307  -6.698  -0.109  0.00  0.00     0.010 A 
ATOM      2  C   UNL d   1       1.812  -5.384  -0.160  0.00  0.00     0.023 A 
ATOM      3  C   UNL d   1       2.667  -4.269  -0.106  0.00  0.00    -0.048 A 
ATOM      4  C   UNL d   1       3.691  -6.895  -0.069  0.00  0.00     0.015 A 
ATOM      5  C   UNL d   1       4.558  -5.801  -0.067  0.00  0.00     0.002 A 
ATOM      6  C   UNL d   1       4.051  -4.499  -0.082  0.00  0.00     0.008 A 
ENDROOT
BRANCH   3   7
ATOM      7  C   UNL d   1       2.141  -2.847  -0.144  0.00  0.00     0.121 C 
BRANCH   7   8
ATOM      8  S   UNL d   1       0.624  -2.604   0.837  0.00  0.00    -0.088 SA
BRANCH   8   9
ATOM      9  C   UNL d   1       0.283  -0.941   0.527  0.00  0.00     0.162 A 
ATOM     10  N   UNL d   1      -0.860  -0.311   0.952  0.00  0.00    -0.312 N 
ATOM     11  C   UNL d   1      -0.715   1.007   0.570  0.00  0.00     0.209 A 
ATOM     12  C   UNL d   1      -1.949  -0.953   1.643  0.00  0.00     0.160 C 
ATOM     13  N   UNL d   1       0.431   1.125  -0.083  0.00  0.00    -0.279 N 
ATOM     14  N   UNL d   1       1.053  -0.095  -0.108  0.00  0.00    -0.278 N 
ATOM     15  HN  UNL d   1       0.791   1.983  -0.500  1.00  0.00     0.188 HD
ATOM     16  HN  UNL d   1       1.952  -0.305  -0.542  1.00  0.00     0.189 HD
BRANCH  11  17
ATOM     17  C   UNL d   1      -1.658   2.128   0.839  0.00  0.00     0.450 C 
ATOM     18  F   UNL d   1      -2.751   1.771   1.562  0.00  0.00    -0.163 F 
ATOM     19  F   UNL d   1      -1.063   3.131   1.539  0.00  0.00    -0.163 F 
ATOM     20  F   UNL d   1      -2.132   2.678  -0.310  0.00  0.00    -0.163 F 
ENDBRANCH  11  17
ENDBRANCH   8   9
ENDBRANCH   7   8
ENDBRANCH   3   7
BRANCH   1  21
ATOM     21  C   UNL d   1       1.371  -7.816  -0.064  0.00  0.00     0.137 A 
ATOM     22  N   UNL d   1       0.004  -7.624  -0.077  0.00  0.00    -0.323 N 
ATOM     23  C   UNL d   1      -0.460  -8.843   0.035  0.00  0.00     0.144 A 
ATOM     24  HN  UNL d   1      -0.516  -6.749  -0.155  1.00  0.00     0.169 HD
ATOM     25  C   UNL d   1      -1.853  -9.315   0.111  0.00  0.00     0.100 C 
ATOM     26  O   UNL d   1       0.518  -9.789   0.110  0.00  0.00    -0.223 OA
ATOM     27  N   UNL d   1       1.733  -9.108   0.042  0.00  0.00    -0.242 N 
ATOM     28  HN  UNL d   1       2.675  -9.498   0.066  1.00  0.00     0.196 HD
ENDBRANCH   1  21
TORSDOF 5
