REMARK  4 active torsions:
REMARK  status: ('A' for Active; 'I' for Inactive)
REMARK    1  A    between atoms: C_2  and  C_1 
REMARK       I    between atoms: N_3  and  C_2 
REMARK    2  A    between atoms: C_12  and  N_3 
REMARK    3  A    between atoms: O_16  and  C_5 
REMARK    4  A    between atoms: C_6  and  C_12 
ROOT
ATOM      1  C   UNL d   1      -2.644  -2.521   0.015  0.00  0.00     0.254 C 
ATOM      2  N   UNL d   1      -1.930  -3.706   0.051  0.00  0.00    -0.352 N 
ATOM      3  O   UNL d   1      -3.876  -2.517  -0.012  0.00  0.00    -0.268 OA
ATOM      4  H   UNL d   1      -0.923  -3.740   0.024  0.00  0.00     0.163 HD
ENDROOT
BRANCH   1   5
ATOM      5  C   UNL d   1      -1.933  -1.203   0.009  0.00  0.00     0.066 A 
ATOM      6  C   UNL d   1      -2.694  -0.015  -0.019  0.00  0.00     0.081 A 
ATOM      7  C   UNL d   1      -2.088   1.242  -0.019  0.00  0.00     0.039 A 
ATOM      8  C   UNL d   1      -0.700   1.342   0.007  0.00  0.00     0.022 A 
ATOM      9  C   UNL d   1       0.064   0.176   0.034  0.00  0.00     0.012 A 
ATOM     10  C   UNL d   1      -0.536  -1.091   0.035  0.00  0.00     0.039 A 
ATOM     11 BR   UNL d   1       1.952   0.318   0.068  0.00  0.00    -0.051 Br
BRANCH   6  12
ATOM     12  O   UNL d   1      -4.067   0.008  -0.045  0.00  0.00    -0.360 OA
ATOM     13  H   UNL d   1      -4.385  -0.924  -0.044  0.00  0.00     0.217 HD
ENDBRANCH   6  12
ENDBRANCH   1   5
BRANCH   2  14
ATOM     14  C   UNL d   1      -2.663  -4.958   0.025  0.00  0.00     0.169 C 
BRANCH  14  15
ATOM     15  C   UNL d   1      -1.743  -6.133   0.141  0.00  0.00     0.000 A 
ATOM     16  S   UNL d   1      -1.159  -6.923  -1.266  0.00  0.00    -0.105 SA
ATOM     17  C   UNL d   1      -0.374  -8.133  -0.344  0.00  0.00     0.050 A 
ATOM     18  C   UNL d   1      -0.529  -7.931   1.008  0.00  0.00     0.008 A 
ATOM     19  C   UNL d   1      -1.315  -6.775   1.288  0.00  0.00     0.017 A 
ENDBRANCH  14  15
ENDBRANCH   2  14
TORSDOF 4
