REMARK  6 active torsions:
REMARK  status: ('A' for Active; 'I' for Inactive)
REMARK    1  A    between atoms: S_8  and  C_3 
REMARK    2  A    between atoms: C_9  and  C_5 
REMARK    3  A    between atoms: C_12  and  S_8 
REMARK    4  A    between atoms: O_15  and  C_9 
REMARK    5  A    between atoms: O_16  and  C_9 
REMARK    6  A    between atoms: C_13  and  C_12 
ROOT
ATOM      1  N   UNL d   1      -1.484  -1.052  -0.221  0.00  0.00    -0.349 N 
ATOM      2  HN  UNL d   1      -1.984  -1.936  -0.314  1.00  0.00     0.166 HD
ATOM      3  C   UNL d   1      -0.135  -1.043  -0.175  0.00  0.00     0.091 A 
ATOM      4  C   UNL d   1       0.576   0.149  -0.080  0.00  0.00     0.078 A 
ATOM      5  C   UNL d   1      -2.179   0.117  -0.143  0.00  0.00     0.065 A 
ATOM      6  C   UNL d   1       2.005   0.192  -0.008  0.00  0.00     0.102 C 
ATOM      7  N   UNL d   1       3.157   0.296   0.056  0.00  0.00    -0.191 NA
ATOM      8  C   UNL d   1      -0.140   1.357  -0.048  0.00  0.00     0.027 A 
ATOM      9  C   UNL d   1      -1.532   1.345  -0.085  0.00  0.00     0.032 A 
ENDROOT
BRANCH   3  10
ATOM     10  S   UNL d   1       0.629  -2.663  -0.132  0.00  0.00    -0.106 SA
BRANCH  10  11
ATOM     11  C   UNL d   1      -0.696  -3.664  -0.897  0.00  0.00     0.119 C 
BRANCH  11  12
ATOM     12  C   UNL d   1      -0.354  -5.135  -0.981  0.00  0.00    -0.049 A 
ATOM     13  C   UNL d   1      -0.830  -6.043  -0.022  0.00  0.00     0.008 A 
ATOM     14  C   UNL d   1      -0.567  -7.413  -0.144  0.00  0.00     0.007 A 
ATOM     15  C   UNL d   1       0.181  -7.903  -1.220  0.00  0.00    -0.062 A 
ATOM     16  C   UNL d   1       0.675  -6.998  -2.165  0.00  0.00     0.007 A 
ATOM     17  C   UNL d   1       0.435  -9.376  -1.351  0.00  0.00     0.048 C 
ATOM     18  C   UNL d   1       0.412  -5.629  -2.045  0.00  0.00     0.008 A 
ENDBRANCH  11  12
ENDBRANCH  10  11
ENDBRANCH   3  10
BRANCH   5  19
ATOM     19  C   UNL d   1      -3.707   0.031  -0.072  0.00  0.00     0.309 C 
BRANCH  19  20
ATOM     20  O   UNL d   1      -4.203   0.082  -1.415  0.00  0.00    -0.360 OA
ATOM     21  C   UNL d   1      -5.622   0.051  -1.472  0.00  0.00     0.205 C 
ENDBRANCH  19  20
BRANCH  19  22
ATOM     22  O   UNL d   1      -4.135  -1.177   0.574  0.00  0.00    -0.360 OA
ATOM     23  C   UNL d   1      -3.731  -1.270   1.933  0.00  0.00     0.205 C 
ENDBRANCH  19  22
ENDBRANCH   5  19
TORSDOF 6
