REMARK  5 active torsions:
REMARK  status: ('A' for Active; 'I' for Inactive)
REMARK    1  A    between atoms: C_6  and  C_2 
REMARK    2  A    between atoms: S_10  and  C_3 
REMARK    3  A    between atoms: C_11  and  S_10 
REMARK    4  A    between atoms: C_14  and  C_13 
REMARK    5  A    between atoms: O_18  and  C_13 
ROOT
ATOM      1  C   UNL d   1      -0.588  -2.896  -0.104  0.00  0.00     0.094 A 
ATOM      2  C   UNL d   1      -1.476  -1.800  -0.052  0.00  0.00     0.079 A 
ATOM      3  C   UNL d   1       0.783  -2.639  -0.108  0.00  0.00     0.096 A 
ATOM      4  N   UNL d   1       1.302  -1.386  -0.058  0.00  0.00    -0.352 N 
ATOM      5  HN  UNL d   1       2.312  -1.240  -0.055  1.00  0.00     0.166 HD
ATOM      6  C   UNL d   1      -0.938  -0.485   0.016  0.00  0.00    -0.019 A 
ATOM      7  C   UNL d   1       0.453  -0.332  -0.015  0.00  0.00     0.017 A 
ATOM      8  C   UNL d   1      -1.042  -4.252  -0.153  0.00  0.00     0.103 C 
ATOM      9  N   UNL d   1      -1.392  -5.358  -0.179  0.00  0.00    -0.191 NA
ATOM     10  C   UNL d   1      -1.842   0.732   0.035  0.00  0.00     0.041 C 
ATOM     11  C   UNL d   1       1.107   1.028   0.045  0.00  0.00     0.057 C 
ATOM     12  C   UNL d   1      -1.141   2.022   0.455  0.00  0.00     0.005 C 
ATOM     13  C   UNL d   1       0.165   2.177  -0.305  0.00  0.00     0.006 C 
ENDROOT
BRANCH   2  14
ATOM     14  C   UNL d   1      -2.979  -1.988  -0.081  0.00  0.00     0.419 C 
ATOM     15  F   UNL d   1      -3.406  -3.267  -0.231  0.00  0.00    -0.166 F 
ATOM     16  F   UNL d   1      -3.572  -1.540   1.059  0.00  0.00    -0.166 F 
ATOM     17  F   UNL d   1      -3.558  -1.297  -1.103  0.00  0.00    -0.166 F 
ENDBRANCH   2  14
BRANCH   3  18
ATOM     18  S   UNL d   1       2.027  -3.920  -0.259  0.00  0.00    -0.080 SA
BRANCH  18  19
ATOM     19  C   UNL d   1       2.271  -4.319   1.414  0.00  0.00     0.089 C 
ATOM     20  C   UNL d   1       2.878  -3.505   2.297  0.00  0.00     0.082 C 
BRANCH  20  21
ATOM     21  C   UNL d   1       3.153  -3.877   3.705  0.00  0.00    -0.003 A 
ATOM     22  C   UNL d   1       3.458  -5.190   4.100  0.00  0.00     0.014 A 
ATOM     23  C   UNL d   1       3.756  -5.485   5.438  0.00  0.00     0.001 A 
ATOM     24  C   UNL d   1       3.757  -4.477   6.399  0.00  0.00     0.000 A 
ATOM     25  C   UNL d   1       3.462  -3.170   6.023  0.00  0.00     0.001 A 
ATOM     26  C   UNL d   1       3.164  -2.877   4.690  0.00  0.00     0.014 A 
ENDBRANCH  20  21
BRANCH  20  27
ATOM     27  O   UNL d   1       3.290  -2.227   1.962  0.00  0.00    -0.359 OA
ATOM     28  H   UNL d   1       2.982  -2.037   1.050  0.00  0.00     0.217 HD
ENDBRANCH  20  27
ENDBRANCH  18  19
ENDBRANCH   3  18
TORSDOF 5
