REMARK  5 active torsions:
REMARK  status: ('A' for Active; 'I' for Inactive)
REMARK       I    between atoms: N_3  and  C_1 
REMARK    1  A    between atoms: C_4  and  C_1 
REMARK    2  A    between atoms: C_2  and  C_8 
REMARK       I    between atoms: C_5  and  N_3 
REMARK       I    between atoms: N_9  and  C_5 
REMARK    3  A    between atoms: N_11  and  C_6 
REMARK    4  A    between atoms: N_12  and  C_7 
REMARK    5  A    between atoms: C_8  and  N_9 
ROOT
ATOM      1  C   UNL d   1       0.501   1.304  -4.258  0.00  0.00     0.263 C 
ATOM      2  N   UNL d   1       0.384   0.362  -3.248  0.00  0.00    -0.275 N 
ATOM      3  C   UNL d   1       1.080   0.263  -2.077  0.00  0.00     0.323 C 
ATOM      4  N   UNL d   1       2.300   0.841  -2.048  0.00  0.00    -0.338 N 
ATOM      5  O   UNL d   1       1.357   2.180  -4.299  0.00  0.00    -0.267 OA
ATOM      6  O   UNL d   1       0.591  -0.371  -1.143  0.00  0.00    -0.247 OA
ATOM      7  H   UNL d   1      -0.474  -0.179  -3.194  0.00  0.00     0.173 HD
ATOM      8  H   UNL d   1       2.546   1.463  -2.813  0.00  0.00     0.164 HD
ENDROOT
BRANCH   4   9
ATOM      9  C   UNL d   1       3.126   0.855  -0.852  0.00  0.00     0.167 C 
BRANCH   9  10
ATOM     10  C   UNL d   1       4.589   1.110  -1.155  0.00  0.00     0.013 A 
ATOM     11  C   UNL d   1       5.106   2.451  -1.053  0.00  0.00     0.039 A 
ATOM     12  C   UNL d   1       6.497   2.616  -1.201  0.00  0.00     0.030 A 
ATOM     13  C   UNL d   1       7.354   1.541  -1.400  0.00  0.00     0.005 A 
ATOM     14  C   UNL d   1       6.840   0.255  -1.502  0.00  0.00     0.030 A 
ATOM     15  C   UNL d   1       5.463  -0.013  -1.398  0.00  0.00     0.039 A 
BRANCH  11  16
ATOM     16  N   UNL d   1       4.300   3.563  -0.698  0.00  0.00    -0.389 N 
ATOM     17  C   UNL d   1       4.972   4.722  -0.095  0.00  0.00     0.149 C 
ATOM     18  C   UNL d   1       3.266   3.969  -1.659  0.00  0.00     0.149 C 
ENDBRANCH  11  16
BRANCH  15  19
ATOM     19  N   UNL d   1       5.029  -1.342  -1.464  0.00  0.00    -0.389 N 
ATOM     20  C   UNL d   1       5.885  -2.455  -1.061  0.00  0.00     0.149 C 
ATOM     21  C   UNL d   1       3.905  -1.718  -2.314  0.00  0.00     0.149 C 
ENDBRANCH  15  19
ENDBRANCH   9  10
ENDBRANCH   4   9
BRANCH   1  22
ATOM     22  C   UNL d   1      -0.494   1.155  -5.355  0.00  0.00     0.075 A 
ATOM     23  C   UNL d   1      -1.870   1.060  -5.081  0.00  0.00     0.051 A 
ATOM     24 CL   UNL d   1      -2.528   1.250  -3.491  0.00  0.00    -0.083 Cl
ATOM     25  C   UNL d   1      -2.786   0.807  -6.108  0.00  0.00     0.025 A 
ATOM     26  C   UNL d   1      -2.346   0.677  -7.422  0.00  0.00     0.003 A 
ATOM     27  C   UNL d   1      -0.990   0.811  -7.711  0.00  0.00     0.025 A 
ATOM     28  C   UNL d   1      -0.063   1.046  -6.686  0.00  0.00     0.051 A 
ATOM     29 CL   UNL d   1       1.600   1.117  -7.152  0.00  0.00    -0.083 Cl
ENDBRANCH   1  22
TORSDOF 5
