REMARK  5 active torsions:
REMARK  status: ('A' for Active; 'I' for Inactive)
REMARK    1  A    between atoms: N_3  and  S_1 
REMARK    2  A    between atoms: C_9  and  S_1 
REMARK    3  A    between atoms: C_2  and  C_4 
REMARK       I    between atoms: N_6  and  C_2 
REMARK    4  A    between atoms: C_5  and  N_3 
REMARK    5  A    between atoms: C_12  and  N_6 
ROOT
ATOM      1  C   UNL d   1       1.968   0.139  -3.398  0.00  0.00     0.054 A 
ATOM      2  C   UNL d   1       0.795  -0.442  -2.874  0.00  0.00     0.038 A 
ATOM      3  C   UNL d   1       2.059   0.352  -4.785  0.00  0.00     0.019 A 
ATOM      4  C   UNL d   1      -0.271  -0.751  -3.727  0.00  0.00     0.025 A 
ATOM      5  C   UNL d   1       0.998   0.013  -5.628  0.00  0.00     0.001 A 
ATOM      6  C   UNL d   1      -0.172  -0.521  -5.098  0.00  0.00     0.002 A 
ENDROOT
BRANCH   2   7
ATOM      7  N   UNL d   1       0.669  -0.772  -1.484  0.00  0.00    -0.180 NA
ATOM      8  H   UNL d   1       1.307  -0.246  -0.867  0.00  0.00     0.146 HD
BRANCH   7   9
ATOM      9  S   UNL d   1       0.661  -2.416  -1.059  0.00  0.00     0.245 S 
ATOM     10  O   UNL d   1      -0.449  -3.072  -1.722  0.00  0.00    -0.206 OA
ATOM     11  O   UNL d   1       0.810  -2.481   0.379  0.00  0.00    -0.206 OA
BRANCH   9  12
ATOM     12  C   UNL d   1       2.164  -3.030  -1.787  0.00  0.00     0.074 A 
ATOM     13  C   UNL d   1       3.356  -2.969  -1.058  0.00  0.00     0.025 A 
ATOM     14  C   UNL d   1       4.527  -3.475  -1.617  0.00  0.00     0.002 A 
ATOM     15  C   UNL d   1       4.506  -4.041  -2.894  0.00  0.00     0.000 A 
ATOM     16  C   UNL d   1       3.312  -4.114  -3.613  0.00  0.00     0.002 A 
ATOM     17  C   UNL d   1       2.134  -3.616  -3.058  0.00  0.00     0.025 A 
ENDBRANCH   9  12
ENDBRANCH   7   9
ENDBRANCH   2   7
BRANCH   1  18
ATOM     18  C   UNL d   1       3.028   0.657  -2.475  0.00  0.00     0.253 C 
ATOM     19  N   UNL d   1       4.202   1.104  -3.046  0.00  0.00    -0.351 N 
ATOM     20  H   UNL d   1       4.524   0.671  -3.901  0.00  0.00     0.163 HD
ATOM     21  O   UNL d   1       2.814   0.736  -1.267  0.00  0.00    -0.268 OA
BRANCH  19  22
ATOM     22  C   UNL d   1       5.128   1.953  -2.301  0.00  0.00     0.094 C 
ATOM     23  C   UNL d   1       5.965   2.813  -3.246  0.00  0.00     0.036 C 
ATOM     24  C   UNL d   1       7.054   1.930  -3.835  0.00  0.00     0.076 C 
ATOM     25  S   UNL d   1       7.517   0.776  -2.517  0.00  0.00    -0.167 SA
ATOM     26  C   UNL d   1       6.114   1.179  -1.428  0.00  0.00     0.099 C 
ENDBRANCH  19  22
ENDBRANCH   1  18
TORSDOF 5
