REMARK  6 active torsions:
REMARK  status: ('A' for Active; 'I' for Inactive)
REMARK    1  A    between atoms: C_3  and  C_1 
REMARK    2  A    between atoms: S_4  and  C_2 
REMARK    3  A    between atoms: O_7  and  C_3 
REMARK    4  A    between atoms: C_10  and  S_4 
REMARK    5  A    between atoms: C_11  and  O_7 
REMARK    6  A    between atoms: O_23  and  C_13 
ROOT
ATOM      1  C   UNL d   1       1.377   0.721   0.057  0.00  0.00     0.064 A 
ATOM      2  C   UNL d   1       1.605  -0.697   0.024  0.00  0.00     0.029 A 
ATOM      3  S   UNL d   1      -0.922  -0.371  -0.423  0.00  0.00    -0.111 SA
ATOM      4  C   UNL d   1       0.051   1.013  -0.234  0.00  0.00     0.068 A 
ATOM      5  C   UNL d   1       0.425  -1.387  -0.194  0.00  0.00     0.069 A 
ENDROOT
BRANCH   1   6
ATOM      6  C   UNL d   1       2.256   1.819   0.434  0.00  0.00     0.300 C 
ATOM      7  O   UNL d   1       2.264   2.896  -0.141  0.00  0.00    -0.259 OA
BRANCH   6   8
ATOM      8  O   UNL d   1       2.914   1.544   1.625  0.00  0.00    -0.275 OA
BRANCH   8   9
ATOM      9  C   UNL d   1       2.787   2.548   2.594  0.00  0.00     0.079 A 
ATOM     10  C   UNL d   1       1.560   3.158   2.871  0.00  0.00     0.040 A 
ATOM     11  C   UNL d   1       1.451   4.053   3.941  0.00  0.00     0.039 A 
ATOM     12  C   UNL d   1       2.564   4.332   4.733  0.00  0.00     0.068 A 
ATOM     13  C   UNL d   1       3.783   3.701   4.453  0.00  0.00     0.039 A 
ATOM     14  C   UNL d   1       3.899   2.807   3.386  0.00  0.00     0.040 A 
BRANCH  12  15
ATOM     15  O   UNL d   1       2.595   5.180   5.806  0.00  0.00    -0.356 OA
ATOM     16  C   UNL d   1       1.416   5.930   6.074  0.00  0.00     0.210 C 
ENDBRANCH  12  15
ENDBRANCH   8   9
ENDBRANCH   6   8
ENDBRANCH   1   6
BRANCH   2  17
ATOM     17  S   UNL d   1       3.036  -1.633   0.392  0.00  0.00    -0.089 SA
BRANCH  17  18
ATOM     18  C   UNL d   1       4.560  -0.976  -0.239  0.00  0.00     0.005 A 
ATOM     19  C   UNL d   1       4.748   0.129  -1.068  0.00  0.00     0.020 A 
ATOM     20  C   UNL d   1       6.045   0.557  -1.400  0.00  0.00     0.025 A 
ATOM     21  C   UNL d   1       7.165  -0.142  -0.936  0.00  0.00     0.034 A 
ATOM     22  C   UNL d   1       6.994  -1.282  -0.166  0.00  0.00     0.025 A 
ATOM     23 CL   UNL d   1       8.750   0.402  -1.314  0.00  0.00    -0.084 Cl
ATOM     24  C   UNL d   1       5.702  -1.692   0.174  0.00  0.00     0.020 A 
ENDBRANCH  17  18
ENDBRANCH   2  17
TORSDOF 6
