REMARK  8 active torsions:
REMARK  status: ('A' for Active; 'I' for Inactive)
REMARK    1  A    between atoms: S_9  and  C_2 
REMARK    2  A    between atoms: C_13  and  C_3 
REMARK    3  A    between atoms: C_8  and  S_12 
REMARK    4  A    between atoms: C_18  and  S_9 
REMARK    5  A    between atoms: C_11  and  C_18 
REMARK       I    between atoms: N_20  and  C_11 
REMARK    6  A    between atoms: S_12  and  C_13 
REMARK    7  A    between atoms: C_19  and  C_23 
REMARK    8  A    between atoms: C_23  and  N_20 
ROOT
ATOM      1  N   UNL d   1       1.110   0.046  -0.107  0.00  0.00    -0.319 N 
ATOM      2  C   UNL d   1       0.305   1.141  -0.252  0.00  0.00     0.162 A 
ATOM      3  C   UNL d   1       0.261  -1.042  -0.147  0.00  0.00     0.109 A 
ATOM      4  N   UNL d   1      -0.935   0.757  -0.442  0.00  0.00    -0.278 N 
ATOM      5  HN  UNL d   1      -1.732   1.367  -0.623  1.00  0.00     0.189 HD
ATOM      6  N   UNL d   1      -0.970  -0.609  -0.354  0.00  0.00    -0.286 N 
ATOM      7  HN  UNL d   1      -1.803  -1.192  -0.435  1.00  0.00     0.188 HD
ATOM      8  C   UNL d   1       2.539   0.003   0.058  0.00  0.00     0.159 C 
ENDROOT
BRANCH   2   9
ATOM      9  S   UNL d   1       0.849   2.776  -0.171  0.00  0.00    -0.083 SA
BRANCH   9  10
ATOM     10  C   UNL d   1      -0.247   3.428   1.128  0.00  0.00     0.185 C 
BRANCH  10  11
ATOM     11  C   UNL d   1       0.105   2.816   2.476  0.00  0.00     0.227 C 
ATOM     12  O   UNL d   1       1.185   3.045   3.028  0.00  0.00    -0.273 OA
ATOM     13  N   UNL d   1      -0.778   1.992   3.111  0.00  0.00    -0.357 N 
ATOM     14  H   UNL d   1      -0.449   1.661   4.009  0.00  0.00     0.162 HD
BRANCH  13  15
ATOM     15  C   UNL d   1      -2.031   1.456   2.629  0.00  0.00     0.149 C 
BRANCH  15  16
ATOM     16  C   UNL d   1      -3.193   2.270   3.102  0.00  0.00    -0.018 C 
ATOM     17  C   UNL d   1      -3.288   2.980   4.234  0.00  0.00     0.008 C 
ENDBRANCH  15  16
ENDBRANCH  13  15
ENDBRANCH  10  11
ENDBRANCH   9  10
ENDBRANCH   2   9
BRANCH   3  18
ATOM     18  C   UNL d   1       0.672  -2.471  -0.038  0.00  0.00     0.158 C 
BRANCH  18  19
ATOM     19  S   UNL d   1       1.167  -2.901   1.656  0.00  0.00    -0.115 SA
BRANCH  19  20
ATOM     20  C   UNL d   1       1.788  -4.543   1.504  0.00  0.00     0.041 A 
ATOM     21  S   UNL d   1       1.434  -5.617   0.219  0.00  0.00    -0.095 SA
ATOM     22  C   UNL d   1       2.367  -6.871   0.910  0.00  0.00     0.051 A 
ATOM     23  C   UNL d   1       2.941  -6.487   2.100  0.00  0.00     0.009 A 
ATOM     24  C   UNL d   1       2.606  -5.143   2.441  0.00  0.00     0.026 A 
ENDBRANCH  19  20
ENDBRANCH  18  19
ENDBRANCH   3  18
TORSDOF 8
