REMARK  4 active torsions:
REMARK  status: ('A' for Active; 'I' for Inactive)
REMARK    1  A    between atoms: C_2  and  C_1 
REMARK    2  A    between atoms: O_6  and  C_2 
REMARK    3  A    between atoms: N_3  and  O_6 
REMARK    4  A    between atoms: C_5  and  C_9 
ROOT
ATOM      1  N   UNL d   1      -1.169  -3.715   0.101  0.00  0.00    -0.261 N 
ATOM      2  HN  UNL d   1      -0.151  -3.710   0.165  1.00  0.00     0.194 HD
ATOM      3  C   UNL d   1      -1.875  -4.804   0.037  0.00  0.00     0.039 C 
ATOM      4  C   UNL d   1      -3.387  -4.812  -0.028  0.00  0.00     0.071 C 
ENDROOT
BRANCH   1   5
ATOM      5  O   UNL d   1      -1.949  -2.538   0.071  0.00  0.00    -0.195 OA
BRANCH   5   6
ATOM      6  C   UNL d   1      -1.123  -1.450   0.146  0.00  0.00     0.318 C 
ATOM      7  O   UNL d   1       0.101  -1.467   0.252  0.00  0.00    -0.257 OA
BRANCH   6   8
ATOM      8  C   UNL d   1      -1.857  -0.160   0.086  0.00  0.00     0.080 A 
ATOM      9  C   UNL d   1      -3.243  -0.057  -0.038  0.00  0.00     0.132 A 
ATOM     10  F   UNL d   1      -4.023  -1.144  -0.114  0.00  0.00    -0.205 F 
ATOM     11  C   UNL d   1      -3.865   1.194  -0.087  0.00  0.00     0.043 A 
ATOM     12  C   UNL d   1      -3.105   2.363  -0.014  0.00  0.00     0.003 A 
ATOM     13  C   UNL d   1      -1.721   2.279   0.107  0.00  0.00     0.001 A 
ATOM     14  C   UNL d   1      -1.101   1.026   0.157  0.00  0.00     0.021 A 
ENDBRANCH   6   8
ENDBRANCH   5   6
ENDBRANCH   1   5
BRANCH   3  15
ATOM     15  C   UNL d   1      -1.147  -6.111   0.043  0.00  0.00    -0.009 A 
ATOM     16  C   UNL d   1       0.068  -6.202   0.738  0.00  0.00     0.059 A 
ATOM     17  C   UNL d   1       0.771  -7.403   0.748  0.00  0.00     0.155 A 
ATOM     18  F   UNL d   1       1.925  -7.485   1.424  0.00  0.00    -0.203 F 
ATOM     19  C   UNL d   1       0.283  -8.511   0.066  0.00  0.00     0.154 A 
ATOM     20  C   UNL d   1      -0.914  -8.431  -0.639  0.00  0.00     0.046 A 
ATOM     21  F   UNL d   1       0.963  -9.665   0.077  0.00  0.00    -0.203 F 
ATOM     22  C   UNL d   1      -1.631  -7.229  -0.654  0.00  0.00     0.017 A 
ENDBRANCH   3  15
TORSDOF 4
