REMARK  3 active torsions:
REMARK  status: ('A' for Active; 'I' for Inactive)
REMARK    1  A    between atoms: C_2  and  S_1 
REMARK    2  A    between atoms: C_3  and  S_1 
REMARK    3  A    between atoms: C_4  and  C_3 
ROOT
ATOM      1  S   UNL d   1       1.129   0.071   0.055  0.00  0.00     0.186 S 
ATOM      2  O   UNL d   1       2.538  -0.168  -0.197  0.00  0.00    -0.222 OA
ATOM      3  O   UNL d   1       0.681   1.055   1.019  0.00  0.00    -0.222 OA
ENDROOT
BRANCH   1   4
ATOM      4  C   UNL d   1       0.547  -1.496   0.695  0.00  0.00     0.100 A 
ATOM      5  S   UNL d   1      -1.146  -1.683   0.868  0.00  0.00    -0.090 SA
ATOM      6  C   UNL d   1      -0.976  -3.273   1.478  0.00  0.00     0.051 A 
ATOM      7  C   UNL d   1       0.345  -3.653   1.566  0.00  0.00     0.009 A 
ATOM      8  C   UNL d   1       1.224  -2.626   1.119  0.00  0.00     0.031 A 
ENDBRANCH   1   4
BRANCH   1   9
ATOM      9  C   UNL d   1       0.273   0.252  -1.504  0.00  0.00     0.188 C 
BRANCH   9  10
ATOM     10  C   UNL d   1       0.697   1.534  -2.169  0.00  0.00    -0.005 A 
ATOM     11  C   UNL d   1      -0.010   2.715  -1.928  0.00  0.00     0.123 A 
ATOM     12  F   UNL d   1      -1.058   2.702  -1.093  0.00  0.00    -0.206 F 
ATOM     13  C   UNL d   1       0.329   3.908  -2.560  0.00  0.00     0.043 A 
ATOM     14  C   UNL d   1       1.398   3.934  -3.452  0.00  0.00     0.003 A 
ATOM     15  C   UNL d   1       2.128   2.770  -3.694  0.00  0.00     0.001 A 
ATOM     16  C   UNL d   1       1.784   1.575  -3.053  0.00  0.00     0.011 A 
ENDBRANCH   9  10
ENDBRANCH   1   9
TORSDOF 3
