REMARK  4 active torsions:
REMARK  status: ('A' for Active; 'I' for Inactive)
REMARK    1  A    between atoms: C_5  and  C_4 
REMARK    2  A    between atoms: C_8  and  C_5 
REMARK    3  A    between atoms: O_11  and  C_8 
REMARK    4  A    between atoms: C_14  and  O_11 
ROOT
ATOM      1  N   UNL d   1       0.741   1.345  -0.127  0.00  0.00    -0.325 N 
ATOM      2  C   UNL d   1       1.904   0.678   0.146  0.00  0.00     0.236 C 
ATOM      3  S   UNL d   1       0.595  -1.748  -0.019  0.00  0.00    -0.113 SA
ATOM      4  C   UNL d   1       1.821  -0.685   0.822  0.00  0.00     0.154 C 
ATOM      5  C   UNL d   1      -0.549   0.793  -0.097  0.00  0.00     0.051 A 
ATOM      6  C   UNL d   1      -0.764  -0.594  -0.035  0.00  0.00     0.028 A 
ATOM      7  O   UNL d   1       2.985   1.240  -0.036  0.00  0.00    -0.272 OA
ATOM      8  C   UNL d   1      -1.638   1.667  -0.144  0.00  0.00     0.031 A 
ATOM      9  C   UNL d   1      -2.071  -1.089  -0.008  0.00  0.00     0.021 A 
ATOM     10  C   UNL d   1      -2.938   1.165  -0.089  0.00  0.00     0.002 A 
ATOM     11  C   UNL d   1      -3.155  -0.211  -0.021  0.00  0.00     0.002 A 
ATOM     12  H   UNL d   1       0.859   2.315  -0.393  0.00  0.00     0.169 HD
ENDROOT
BRANCH   4  13
ATOM     13  C   UNL d   1       1.465  -0.558   2.300  0.00  0.00     0.136 C 
BRANCH  13  14
ATOM     14  C   UNL d   1       2.421   0.353   3.020  0.00  0.00     0.260 C 
ATOM     15  O   UNL d   1       2.083   1.393   3.565  0.00  0.00    -0.265 OA
BRANCH  14  16
ATOM     16  O   UNL d   1       3.677  -0.165   3.004  0.00  0.00    -0.322 OA
BRANCH  16  17
ATOM     17  C   UNL d   1       4.676   0.623   3.667  0.00  0.00     0.174 C 
ATOM     18  C   UNL d   1       5.176   1.726   2.753  0.00  0.00     0.034 C 
ENDBRANCH  16  17
ENDBRANCH  14  16
ENDBRANCH  13  14
ENDBRANCH   4  13
TORSDOF 4
