REMARK  4 active torsions:
REMARK  status: ('A' for Active; 'I' for Inactive)
REMARK    1  A    between atoms: O_13  and  C_1 
REMARK    2  A    between atoms: N_4  and  C_6 
REMARK    3  A    between atoms: C_9  and  O_13 
REMARK    4  A    between atoms: N_10  and  C_14 
ROOT
ATOM      1  C   UNL d   1       4.246   2.246   1.046  0.00  0.00     0.136 A 
ATOM      2  C   UNL d   1       4.384   1.367  -0.032  0.00  0.00     0.113 A 
ATOM      3  C   UNL d   1       5.301   1.689  -1.048  0.00  0.00     0.069 A 
ATOM      4  C   UNL d   1       6.036   2.882  -1.066  0.00  0.00     0.033 A 
ATOM      5  C   UNL d   1       4.976   3.446   1.061  0.00  0.00     0.041 A 
ATOM      6  C   UNL d   1       5.854   3.753   0.013  0.00  0.00     0.032 A 
ENDROOT
BRANCH   2   7
ATOM      7  O   UNL d   1       3.721   0.160  -0.070  0.00  0.00    -0.285 OA
BRANCH   7   8
ATOM      8  C   UNL d   1       3.307  -0.371  -1.225  0.00  0.00     0.193 A 
ATOM      9  N   UNL d   1       2.977   0.341  -2.279  0.00  0.00    -0.328 N 
ATOM     10  C   UNL d   1       2.631  -0.492  -3.338  0.00  0.00     0.074 A 
ATOM     11  HN  UNL d   1       2.975   1.361  -2.316  1.00  0.00     0.168 HD
ATOM     12  C   UNL d   1       2.228  -0.131  -4.643  0.00  0.00     0.063 A 
ATOM     13  C   UNL d   1       2.704  -1.859  -3.049  0.00  0.00     0.039 A 
ATOM     14  C   UNL d   1       1.905  -1.082  -5.608  0.00  0.00     0.050 A 
ATOM     15 CL   UNL d   1       2.161   1.545  -4.982  0.00  0.00    -0.082 Cl
ATOM     16  C   UNL d   1       1.996  -2.427  -5.281  0.00  0.00     0.037 A 
ATOM     17  C   UNL d   1       2.400  -2.843  -4.008  0.00  0.00     0.045 A 
ATOM     18 CL   UNL d   1       1.598  -3.615  -6.463  0.00  0.00    -0.084 Cl
ATOM     19  S   UNL d   1       3.195  -2.067  -1.410  0.00  0.00    -0.044 SA
ENDBRANCH   7   8
ENDBRANCH   2   7
BRANCH   1  20
ATOM     20  N   UNL d   1       3.370   1.953   2.190  0.00  0.00    -0.113 N 
ATOM     21  O   UNL d   1       2.804   0.852   2.245  0.00  0.00    -0.532 OA
ATOM     22  O   UNL d   1       3.256   2.831   3.060  0.00  0.00    -0.532 OA
ENDBRANCH   1  20
BRANCH   4  23
ATOM     23  N   UNL d   1       6.912   3.145  -2.097  0.00  0.00    -0.381 N 
ATOM     24  C   UNL d   1       8.146   3.901  -1.905  0.00  0.00     0.123 C 
ATOM     25  C   UNL d   1       9.307   3.099  -2.500  0.00  0.00     0.024 C 
ATOM     26  C   UNL d   1       9.045   2.713  -3.965  0.00  0.00    -0.015 C 
ATOM     27  C   UNL d   1       7.691   1.999  -4.104  0.00  0.00     0.024 C 
ATOM     28  C   UNL d   1      10.173   1.833  -4.500  0.00  0.00     0.010 C 
ATOM     29  C   UNL d   1       6.566   2.826  -3.485  0.00  0.00     0.123 C 
ENDBRANCH   4  23
TORSDOF 4
