REMARK  0 active torsions:
REMARK  status: ('A' for Active; 'I' for Inactive)
ROOT
ATOM      1  C   UNL d   1      -1.199   0.894  -0.003  0.00  0.00    -0.041 A 
ATOM      2  C   UNL d   1      -0.747  -0.444  -0.002  0.00  0.00    -0.019 A 
ATOM      3  C   UNL d   1       0.702  -0.447  -0.002  0.00  0.00    -0.019 A 
ATOM      4  C   UNL d   1       1.158   0.889  -0.002  0.00  0.00    -0.043 A 
ATOM      5  C   UNL d   1      -0.018   1.846  -0.007  0.00  0.00     0.078 A 
ATOM      6  N   UNL d   1      -6.021   0.640  -0.002  0.00  0.00    -0.191 NA
ATOM      7  C   UNL d   1      -4.882   0.419  -0.001  0.00  0.00     0.099 C 
ATOM      8  C   UNL d   1      -1.654  -1.491  -0.000  0.00  0.00     0.014 A 
ATOM      9  C   UNL d   1      -2.552   1.202  -0.003  0.00  0.00     0.031 A 
ATOM     10  C   UNL d   1      -3.474   0.146  -0.001  0.00  0.00     0.045 A 
ATOM     11  C   UNL d   1      -3.022  -1.191   0.001  0.00  0.00     0.023 A 
ATOM     12  C   UNL d   1       1.606  -1.496  -0.001  0.00  0.00     0.013 A 
ATOM     13  C   UNL d   1       2.511   1.193   0.000  0.00  0.00     0.008 A 
ATOM     14  C   UNL d   1       2.973  -1.198   0.000  0.00  0.00     0.001 A 
ATOM     15  C   UNL d   1       3.421   0.134   0.001  0.00  0.00     0.001 A 
ENDROOT
TORSDOF 0
