REMARK  7 active torsions:
REMARK  status: ('A' for Active; 'I' for Inactive)
REMARK    1  A    between atoms: S_9  and  C_1 
REMARK    2  A    between atoms: C_2  and  O_8 
REMARK       I    between atoms: N_7  and  C_2 
REMARK    3  A    between atoms: C_3  and  C_14 
REMARK    4  A    between atoms: N_15  and  C_3 
REMARK    5  A    between atoms: O_8  and  N_4 
REMARK    6  A    between atoms: C_16  and  N_7 
REMARK    7  A    between atoms: C_14  and  S_9 
ROOT
ATOM      1  C   UNL d   1       1.015   5.512   0.149  0.00  0.00     0.105 C 
ATOM      2  N   UNL d   1      -0.214   5.927   0.308  0.00  0.00    -0.244 N 
ATOM      3  HN  UNL d   1      -0.495   6.881   0.538  1.00  0.00     0.196 HD
ENDROOT
BRANCH   2   4
ATOM      4  O   UNL d   1      -1.092   4.831   0.109  0.00  0.00    -0.179 OA
BRANCH   4   5
ATOM      5  C   UNL d   1      -2.423   5.123   0.315  0.00  0.00     0.387 C 
ATOM      6  N   UNL d   1      -2.658   6.369   0.847  0.00  0.00    -0.301 N 
ATOM      7  H   UNL d   1      -1.799   6.886   1.008  0.00  0.00     0.171 HD
ATOM      8  O   UNL d   1      -3.267   4.271   0.050  0.00  0.00    -0.236 OA
BRANCH   6   9
ATOM      9  C   UNL d   1      -3.895   6.940   1.200  0.00  0.00     0.036 A 
ATOM     10  C   UNL d   1      -5.127   6.316   0.976  0.00  0.00     0.029 A 
ATOM     11  C   UNL d   1      -6.322   6.937   1.354  0.00  0.00     0.002 A 
ATOM     12  C   UNL d   1      -6.299   8.187   1.963  0.00  0.00     0.000 A 
ATOM     13  C   UNL d   1      -5.079   8.820   2.193  0.00  0.00     0.002 A 
ATOM     14  C   UNL d   1      -3.883   8.200   1.810  0.00  0.00     0.029 A 
ENDBRANCH   6   9
ENDBRANCH   4   5
ENDBRANCH   2   4
BRANCH   1  15
ATOM     15  C   UNL d   1       2.184   6.494   0.201  0.00  0.00     0.157 C 
BRANCH  15  16
ATOM     16  S   UNL d   1       2.014   7.739   1.497  0.00  0.00    -0.115 SA
BRANCH  16  17
ATOM     17  C   UNL d   1       3.562   8.579   1.399  0.00  0.00     0.041 A 
ATOM     18  S   UNL d   1       4.193   9.397   2.769  0.00  0.00    -0.095 SA
ATOM     19  C   UNL d   1       5.591   9.891   1.918  0.00  0.00     0.051 A 
ATOM     20  C   UNL d   1       5.580   9.456   0.613  0.00  0.00     0.009 A 
ATOM     21  C   UNL d   1       4.403   8.707   0.312  0.00  0.00     0.026 A 
ENDBRANCH  16  17
ENDBRANCH  15  16
ENDBRANCH   1  15
BRANCH   1  22
ATOM     22  N   UNL d   1       1.327   4.203  -0.152  0.00  0.00    -0.387 N 
ATOM     23  H   UNL d   1       2.225   3.841   0.150  0.00  0.00     0.157 HD
ATOM     24  H   UNL d   1       0.557   3.555  -0.008  0.00  0.00     0.157 HD
ENDBRANCH   1  22
TORSDOF 7
