REMARK  3 active torsions:
REMARK  status: ('A' for Active; 'I' for Inactive)
REMARK    1  A    between atoms: C_8  and  C_2 
REMARK    2  A    between atoms: S_9  and  C_3 
REMARK    3  A    between atoms: C_10  and  N_6 
ROOT
ATOM      1  C   UNL d   1       1.131  -0.309   0.093  0.00  0.00     0.094 C 
ATOM      2  C   UNL d   1       0.181   0.852   0.114  0.00  0.00     0.033 C 
ATOM      3  C   UNL d   1      -1.124   0.517   0.209  0.00  0.00     0.061 C 
ATOM      4  S   UNL d   1       0.368  -1.725   0.793  0.00  0.00    -0.033 SA
ATOM      5  S   UNL d   1      -1.508  -1.191   0.223  0.00  0.00    -0.043 SA
ATOM      6  N   UNL d   1       2.347  -0.205  -0.341  0.00  0.00    -0.349 N 
ATOM      7  HN  UNL d   1       2.643   0.688  -0.735  1.00  0.00     0.166 HD
ENDROOT
BRANCH   2   8
ATOM      8  C   UNL d   1       0.731   2.218   0.131  0.00  0.00    -0.021 A 
ATOM      9  C   UNL d   1       0.786   2.937   1.333  0.00  0.00     0.012 A 
ATOM     10  C   UNL d   1       1.328   4.222   1.359  0.00  0.00     0.001 A 
ATOM     11  C   UNL d   1       1.817   4.797   0.188  0.00  0.00     0.000 A 
ATOM     12  C   UNL d   1       1.768   4.088  -1.012  0.00  0.00     0.001 A 
ATOM     13  C   UNL d   1       1.232   2.800  -1.041  0.00  0.00     0.012 A 
ENDBRANCH   2   8
BRANCH   6  14
ATOM     14  C   UNL d   1       3.279  -1.250  -0.300  0.00  0.00     0.033 A 
ATOM     15  C   UNL d   1       3.080  -2.483  -0.925  0.00  0.00     0.030 A 
ATOM     16  C   UNL d   1       4.062  -3.478  -0.874  0.00  0.00     0.009 A 
ATOM     17  C   UNL d   1       5.285  -3.237  -0.238  0.00  0.00    -0.062 A 
ATOM     18  C   UNL d   1       5.504  -1.991   0.355  0.00  0.00     0.009 A 
ATOM     19  C   UNL d   1       6.330  -4.311  -0.189  0.00  0.00     0.048 C 
ATOM     20  C   UNL d   1       4.508  -1.009   0.321  0.00  0.00     0.030 A 
ENDBRANCH   6  14
BRANCH   3  21
ATOM     21  S   UNL d   1      -2.468   1.615   0.383  0.00  0.00    -0.126 SA
ATOM     22  C   UNL d   1      -2.254   2.768  -0.989  0.00  0.00     0.096 C 
ENDBRANCH   3  21
TORSDOF 3
