REMARK  4 active torsions:
REMARK  status: ('A' for Active; 'I' for Inactive)
REMARK    1  A    between atoms: C_2  and  S_1 
REMARK    2  A    between atoms: N_14  and  S_1 
REMARK    3  A    between atoms: C_6  and  C_3 
REMARK    4  A    between atoms: C_17  and  C_8 
ROOT
ATOM      1  C   UNL d   1       0.548  -1.395  -0.979  0.00  0.00     0.186 A 
ATOM      2  C   UNL d   1      -0.389  -2.924  -2.355  0.00  0.00     0.050 A 
ATOM      3  C   UNL d   1      -0.267  -1.543  -2.095  0.00  0.00     0.069 A 
ATOM      4  O   UNL d   1       0.896  -2.659  -0.538  0.00  0.00    -0.301 OA
ATOM      5  C   UNL d   1       0.338  -3.572  -1.382  0.00  0.00     0.065 A 
ATOM      6  C   UNL d   1       0.651  -4.992  -1.113  0.00  0.00     0.077 C 
ENDROOT
BRANCH   2   7
ATOM      7  C   UNL d   1      -1.117  -3.566  -3.476  0.00  0.00     0.184 A 
ATOM      8  N   UNL d   1      -1.706  -2.897  -4.444  0.00  0.00    -0.318 N 
ATOM      9  C   UNL d   1      -2.175  -3.893  -5.272  0.00  0.00     0.138 A 
ATOM     10  HN  UNL d   1      -1.794  -1.886  -4.555  1.00  0.00     0.169 HD
ATOM     11  N   UNL d   1      -1.931  -5.133  -4.818  0.00  0.00    -0.242 N 
ATOM     12  O   UNL d   1      -1.227  -4.920  -3.639  0.00  0.00    -0.217 OA
ATOM     13  HN  UNL d   1      -2.198  -6.022  -5.240  1.00  0.00     0.196 HD
BRANCH   9  14
ATOM     14  C   UNL d   1      -2.837  -3.612  -6.543  0.00  0.00     0.010 A 
ATOM     15  C   UNL d   1      -2.984  -2.289  -6.991  0.00  0.00     0.018 A 
ATOM     16  C   UNL d   1      -3.585  -2.019  -8.225  0.00  0.00     0.043 A 
ATOM     17  C   UNL d   1      -4.042  -3.071  -9.010  0.00  0.00     0.116 A 
ATOM     18  C   UNL d   1      -3.914  -4.387  -8.585  0.00  0.00     0.043 A 
ATOM     19  F   UNL d   1      -4.612  -2.812 -10.194  0.00  0.00    -0.206 F 
ATOM     20  C   UNL d   1      -3.312  -4.658  -7.354  0.00  0.00     0.018 A 
ENDBRANCH   9  14
ENDBRANCH   2   7
BRANCH   1  21
ATOM     21  S   UNL d   1       1.141   0.099  -0.186  0.00  0.00     0.266 S 
ATOM     22  O   UNL d   1      -0.059   0.820   0.185  0.00  0.00    -0.204 OA
ATOM     23  O   UNL d   1       2.082   0.650  -1.139  0.00  0.00    -0.204 OA
BRANCH  21  24
ATOM     24  N   UNL d   1       1.994  -0.303   1.232  0.00  0.00    -0.205 NA
ATOM     25  C   UNL d   1       1.190  -0.890   2.332  0.00  0.00     0.107 C 
ATOM     26  C   UNL d   1       0.850   0.292   3.218  0.00  0.00     0.017 C 
ATOM     27  C   UNL d   1       2.108   1.139   3.172  0.00  0.00     0.017 C 
ATOM     28  C   UNL d   1       2.751   0.842   1.821  0.00  0.00     0.107 C 
ENDBRANCH  21  24
ENDBRANCH   1  21
TORSDOF 4
