REMARK  5 active torsions:
REMARK  status: ('A' for Active; 'I' for Inactive)
REMARK    1  A    between atoms: C_2  and  C_1 
REMARK    2  A    between atoms: C_13  and  C_9 
REMARK    3  A    between atoms: C_14  and  C_10 
REMARK    4  A    between atoms: O_15  and  C_14 
REMARK    5  A    between atoms: C_16  and  O_15 
ROOT
ATOM      1  C   UNL d   1      -1.512   2.255  -0.023  0.00  0.00     0.075 A 
ATOM      2  N   UNL d   1      -2.432   2.525   0.974  0.00  0.00    -0.349 N 
ATOM      3  HN  UNL d   1      -2.662   1.895   1.742  1.00  0.00     0.166 HD
ATOM      4  C   UNL d   1      -2.967   3.715   0.785  0.00  0.00     0.075 A 
ATOM      5  C   UNL d   1      -1.313   3.278  -0.928  0.00  0.00     0.084 A 
ATOM      6  S   UNL d   1      -2.335   4.600  -0.551  0.00  0.00    -0.084 SA
ENDROOT
BRANCH   1   7
ATOM      7  C   UNL d   1      -0.779   0.962  -0.068  0.00  0.00     0.128 A 
ATOM      8  C   UNL d   1      -0.051   0.455  -1.119  0.00  0.00     0.074 A 
ATOM      9  C   UNL d   1       0.499  -0.763  -0.641  0.00  0.00     0.068 A 
ATOM     10  N   UNL d   1       0.108  -0.983   0.623  0.00  0.00    -0.260 N 
ATOM     11  O   UNL d   1      -0.719   0.072   0.962  0.00  0.00    -0.235 OA
ATOM     12  HN  UNL d   1       0.370  -1.771   1.216  1.00  0.00     0.195 HD
BRANCH   9  13
ATOM     13  C   UNL d   1       1.385  -1.680  -1.353  0.00  0.00    -0.007 A 
ATOM     14  C   UNL d   1       2.347  -2.421  -0.651  0.00  0.00     0.014 A 
ATOM     15  C   UNL d   1       3.220  -3.275  -1.328  0.00  0.00     0.001 A 
ATOM     16  C   UNL d   1       3.135  -3.402  -2.713  0.00  0.00     0.000 A 
ATOM     17  C   UNL d   1       2.178  -2.679  -3.422  0.00  0.00     0.001 A 
ATOM     18  C   UNL d   1       1.307  -1.819  -2.746  0.00  0.00     0.014 A 
ENDBRANCH   9  13
ENDBRANCH   1   7
BRANCH   4  19
ATOM     19  C   UNL d   1      -4.006   4.333   1.670  0.00  0.00     0.240 C 
BRANCH  19  20
ATOM     20  O   UNL d   1      -5.272   4.175   1.027  0.00  0.00    -0.345 OA
BRANCH  20  21
ATOM     21  C   UNL d   1      -6.356   4.713   1.665  0.00  0.00     0.069 A 
ATOM     22  C   UNL d   1      -6.334   5.385   2.890  0.00  0.00     0.038 A 
ATOM     23  C   UNL d   1      -7.516   5.907   3.428  0.00  0.00     0.026 A 
ATOM     24  C   UNL d   1      -8.719   5.753   2.742  0.00  0.00     0.034 A 
ATOM     25  C   UNL d   1      -8.755   5.078   1.526  0.00  0.00     0.026 A 
ATOM     26 CL   UNL d   1     -10.168   6.407   3.403  0.00  0.00    -0.084 Cl
ATOM     27  C   UNL d   1      -7.569   4.561   0.992  0.00  0.00     0.038 A 
ENDBRANCH  20  21
ENDBRANCH  19  20
ENDBRANCH   4  19
TORSDOF 5
