REMARK  2 active torsions:
REMARK  status: ('A' for Active; 'I' for Inactive)
REMARK    1  A    between atoms: C_8  and  N_1 
REMARK    2  A    between atoms: C_10  and  C_4 
ROOT
ATOM      1  N   UNL d   1      -0.282  -1.130   0.087  0.00  0.00    -0.243 N 
ATOM      2  N   UNL d   1       0.976  -0.634   0.125  0.00  0.00    -0.235 N 
ATOM      3  HN  UNL d   1       1.826  -1.192   0.201  1.00  0.00     0.209 HD
ATOM      4  C   UNL d   1      -0.374   1.063  -0.036  0.00  0.00     0.119 A 
ATOM      5  C   UNL d   1      -1.182  -0.071  -0.038  0.00  0.00     0.064 A 
ATOM      6  N   UNL d   1       0.932   0.680   0.048  0.00  0.00    -0.280 N 
ATOM      7  HN  UNL d   1       1.738   1.305   0.050  1.00  0.00     0.188 HD
ATOM      8  C   UNL d   1      -2.663  -0.191  -0.032  0.00  0.00     0.073 C 
ENDROOT
BRANCH   1   9
ATOM      9  C   UNL d   1      -0.491  -2.539   0.091  0.00  0.00     0.079 A 
ATOM     10  C   UNL d   1       0.370  -3.417   0.782  0.00  0.00     0.064 A 
ATOM     11  C   UNL d   1       0.176  -4.804   0.704  0.00  0.00     0.050 A 
ATOM     12 CL   UNL d   1       1.630  -2.912   1.860  0.00  0.00    -0.082 Cl
ATOM     13  C   UNL d   1      -0.869  -5.324  -0.044  0.00  0.00     0.035 A 
ATOM     14  C   UNL d   1      -1.736  -4.473  -0.722  0.00  0.00     0.026 A 
ATOM     15 CL   UNL d   1      -1.097  -7.026  -0.136  0.00  0.00    -0.084 Cl
ATOM     16  C   UNL d   1      -1.547  -3.088  -0.659  0.00  0.00     0.035 A 
ENDBRANCH   1   9
BRANCH   4  17
ATOM     17  C   UNL d   1      -0.758   2.473  -0.080  0.00  0.00     0.175 C 
ATOM     18  O   UNL d   1      -1.934   2.829  -0.155  0.00  0.00    -0.291 OA
ATOM     19  C   UNL d   1       0.332   3.516  -0.012  0.00  0.00     0.098 C 
ENDBRANCH   4  17
TORSDOF 2
