REMARK  5 active torsions:
REMARK  status: ('A' for Active; 'I' for Inactive)
REMARK    1  A    between atoms: N_10  and  N_1 
REMARK    2  A    between atoms: C_11  and  C_2 
REMARK    3  A    between atoms: C_4  and  C_3 
REMARK    4  A    between atoms: C_5  and  N_10 
REMARK    5  A    between atoms: O_23  and  C_11 
ROOT
ATOM      1  C   UNL d   1      -3.622   4.413  -0.262  0.00  0.00     0.086 A 
ATOM      2  C   UNL d   1      -2.679   4.421  -1.271  0.00  0.00     0.136 A 
ATOM      3  C   UNL d   1      -1.278   3.023  -0.013  0.00  0.00     0.176 A 
ATOM      4  N   UNL d   1      -1.507   3.718  -1.137  0.00  0.00    -0.327 N 
ATOM      5  HN  UNL d   1      -0.815   3.725  -1.887  1.00  0.00     0.168 HD
ATOM      6  N   UNL d   1      -2.129   3.015   1.022  0.00  0.00    -0.340 N 
ATOM      7  HN  UNL d   1      -1.909   2.528   1.890  1.00  0.00     0.167 HD
ATOM      8  C   UNL d   1      -3.291   3.684   0.861  0.00  0.00     0.110 A 
ENDROOT
BRANCH   3   9
ATOM      9  N   UNL d   1      -0.097   2.280   0.002  0.00  0.00    -0.163 NA
ATOM     10  H   UNL d   1       0.218   2.141  -0.952  0.00  0.00     0.156 HD
BRANCH   9  11
ATOM     11  N   UNL d   1      -0.070   1.130   0.802  0.00  0.00    -0.206 N 
ATOM     12  C   UNL d   1      -1.047   0.165   0.765  0.00  0.00     0.241 C 
ATOM     13  C   UNL d   1      -0.576  -0.968   1.632  0.00  0.00     0.114 C 
ATOM     14  O   UNL d   1      -2.084   0.140   0.115  0.00  0.00    -0.272 OA
ATOM     15  C   UNL d   1       0.924  -0.748   1.740  0.00  0.00     0.114 C 
ATOM     16  C   UNL d   1       1.149   0.628   1.180  0.00  0.00     0.241 C 
ATOM     17  O   UNL d   1       2.256   1.110   0.984  0.00  0.00    -0.272 OA
ENDBRANCH   9  11
ENDBRANCH   3   9
BRANCH   2  18
ATOM     18  C   UNL d   1      -2.843   5.159  -2.583  0.00  0.00     0.433 C 
ATOM     19  F   UNL d   1      -4.100   5.586  -2.881  0.00  0.00    -0.165 F 
ATOM     20  F   UNL d   1      -2.044   6.264  -2.656  0.00  0.00    -0.165 F 
ATOM     21  F   UNL d   1      -2.487   4.386  -3.655  0.00  0.00    -0.165 F 
ENDBRANCH   2  18
BRANCH   1  22
ATOM     22  C   UNL d   1      -4.947   5.037  -0.278  0.00  0.00     0.296 C 
ATOM     23  O   UNL d   1      -5.943   4.462   0.126  0.00  0.00    -0.259 OA
BRANCH  22  24
ATOM     24  O   UNL d   1      -4.869   6.320  -0.697  0.00  0.00    -0.322 OA
ATOM     25  C   UNL d   1      -6.146   6.962  -0.787  0.00  0.00     0.213 C 
ENDBRANCH  22  24
ENDBRANCH   1  22
TORSDOF 5
