REMARK  4 active torsions:
REMARK  status: ('A' for Active; 'I' for Inactive)
REMARK    1  A    between atoms: N_6  and  C_1 
REMARK    2  A    between atoms: C_9  and  C_2 
REMARK    3  A    between atoms: N_18  and  C_5 
REMARK    4  A    between atoms: C_17  and  N_10 
ROOT
ATOM      1  C   UNL d   1       0.040  -1.278   0.017  0.00  0.00     0.117 A 
ATOM      2  C   UNL d   1      -1.291  -0.807  -0.025  0.00  0.00     0.061 A 
ATOM      3  N   UNL d   1      -1.353   0.532  -0.006  0.00  0.00    -0.300 N 
ATOM      4  HN  UNL d   1      -2.181   1.128  -0.032  1.00  0.00     0.186 HD
ATOM      5  C   UNL d   1       0.825  -0.146   0.077  0.00  0.00     0.144 A 
ATOM      6  N   UNL d   1      -0.060   0.900   0.054  0.00  0.00    -0.284 N 
ATOM      7  H   UNL d   1       0.155   1.888   0.088  0.00  0.00     0.188 HD
ENDROOT
BRANCH   1   8
ATOM      8  N   UNL d   1       0.402  -2.634   0.017  0.00  0.00    -0.295 N 
ATOM      9  N   UNL d   1       1.613  -2.849  -0.200  0.00  0.00    -0.300 N 
ATOM     10  HN  UNL d   1       2.306  -2.120  -0.368  1.00  0.00     0.187 HD
ATOM     11  HN  UNL d   1      -0.270  -3.383   0.180  1.00  0.00     0.187 HD
BRANCH   9  12
ATOM     12  C   UNL d   1       1.896  -4.229  -0.183  0.00  0.00     0.049 A 
ATOM     13  C   UNL d   1       1.443  -5.080   0.836  0.00  0.00     0.056 A 
ATOM     14  C   UNL d   1       1.764  -6.441   0.826  0.00  0.00     0.058 A 
ATOM     15 CL   UNL d   1       1.149  -7.419   2.112  0.00  0.00    -0.082 Cl
ATOM     16  C   UNL d   1       2.558  -6.966  -0.199  0.00  0.00     0.055 A 
ATOM     17  C   UNL d   1       3.031  -6.122  -1.207  0.00  0.00     0.028 A 
ATOM     18 CL   UNL d   1       2.991  -8.635  -0.278  0.00  0.00    -0.083 Cl
ATOM     19  C   UNL d   1       2.703  -4.763  -1.194  0.00  0.00     0.033 A 
ENDBRANCH   9  12
ENDBRANCH   1   8
BRANCH   2  20
ATOM     20  C   UNL d   1      -2.522  -1.703  -0.088  0.00  0.00     0.040 A 
ATOM     21  C   UNL d   1      -3.744  -1.205  -0.837  0.00  0.00     0.011 A 
ATOM     22  C   UNL d   1      -3.774  -1.271   0.651  0.00  0.00     0.011 A 
ENDBRANCH   2  20
BRANCH   5  23
ATOM     23  N   UNL d   1       2.158   0.053   0.156  0.00  0.00    -0.382 N 
ATOM     24  H   UNL d   1       2.780  -0.748   0.048  0.00  0.00     0.157 HD
ATOM     25  H   UNL d   1       2.604   0.946  -0.032  0.00  0.00     0.157 HD
ENDBRANCH   5  23
TORSDOF 4
