REMARK  5 active torsions:
REMARK  status: ('A' for Active; 'I' for Inactive)
REMARK    1  A    between atoms: N_2  and  S_1 
REMARK    2  A    between atoms: C_3  and  S_1 
REMARK    3  A    between atoms: C_16  and  N_4 
REMARK    4  A    between atoms: C_15  and  C_16 
REMARK    5  A    between atoms: C_26  and  C_25 
ROOT
ATOM      1  N   UNL d   1       0.527   1.206   0.888  0.00  0.00    -0.203 NA
ATOM      2  N   UNL d   1       1.248   3.982  -0.014  0.00  0.00     0.095 N 
ATOM      3  C   UNL d   1      -0.438   2.054   0.129  0.00  0.00     0.138 C 
ATOM      4  C   UNL d   1       1.445   2.074   1.698  0.00  0.00     0.138 C 
ATOM      5  C   UNL d   1       2.134   3.167   0.847  0.00  0.00     0.288 C 
ATOM      6  C   UNL d   1       0.308   3.096  -0.744  0.00  0.00     0.288 C 
ENDROOT
BRANCH   1   7
ATOM      7  S   UNL d   1       1.255  -0.060  -0.005  0.00  0.00     0.243 S 
ATOM      8  O   UNL d   1       2.541  -0.356   0.603  0.00  0.00    -0.206 OA
ATOM      9  O   UNL d   1       1.152   0.232  -1.413  0.00  0.00    -0.206 OA
BRANCH   7  10
ATOM     10  C   UNL d   1       0.208  -1.485   0.300  0.00  0.00     0.074 A 
ATOM     11  C   UNL d   1      -0.858  -1.773  -0.561  0.00  0.00     0.025 A 
ATOM     12  C   UNL d   1      -1.514  -3.010  -0.472  0.00  0.00     0.009 A 
ATOM     13  C   UNL d   1      -1.093  -3.978   0.455  0.00  0.00    -0.058 A 
ATOM     14  C   UNL d   1      -0.042  -3.667   1.327  0.00  0.00     0.009 A 
ATOM     15  C   UNL d   1       0.608  -2.430   1.250  0.00  0.00     0.025 A 
BRANCH  13  16
ATOM     16  C   UNL d   1      -1.736  -5.345   0.503  0.00  0.00     0.034 C 
ATOM     17  C   UNL d   1      -2.875  -5.418   1.507  0.00  0.00     0.010 C 
ENDBRANCH  13  16
ENDBRANCH   7  10
ENDBRANCH   1   7
BRANCH   2  18
ATOM     18  C   UNL d   1       0.511   5.017   0.716  0.00  0.00     0.311 C 
BRANCH  18  19
ATOM     19  C   UNL d   1       1.279   6.267   1.115  0.00  0.00    -0.027 A 
ATOM     20  C   UNL d   1       0.670   7.100   2.072  0.00  0.00     0.048 A 
ATOM     21  C   UNL d   1       1.091   8.407   2.150  0.00  0.00     0.105 A 
ATOM     22  O   UNL d   1       0.455   9.399   2.835  0.00  0.00    -0.323 OA
ATOM     23  C   UNL d   1       2.139   8.883   1.398  0.00  0.00     0.105 A 
ATOM     24  C   UNL d   1       1.011  10.540   2.151  0.00  0.00     0.352 C 
ATOM     25  O   UNL d   1       2.271  10.236   1.516  0.00  0.00    -0.323 OA
ATOM     26  C   UNL d   1       2.856   8.063   0.555  0.00  0.00     0.040 A 
ATOM     27  C   UNL d   1       2.399   6.747   0.392  0.00  0.00     0.012 A 
ENDBRANCH  18  19
ENDBRANCH   2  18
TORSDOF 5
