REMARK  10 active torsions:
REMARK  status: ('A' for Active; 'I' for Inactive)
REMARK    1  A    between atoms: C_2  and  S_1 
REMARK    2  A    between atoms: N_10  and  S_1 
REMARK    3  A    between atoms: C_9  and  C_3 
REMARK    4  A    between atoms: C_18  and  N_7 
REMARK    5  A    between atoms: C_19  and  N_8 
REMARK    6  A    between atoms: O_21  and  C_9 
REMARK    7  A    between atoms: C_20  and  N_10 
REMARK    8  A    between atoms: C_12  and  C_20 
REMARK    9  A    between atoms: C_24  and  C_18 
REMARK   10  A    between atoms: C_23  and  C_19 
ROOT
ATOM      1  N   UNL d   1       1.526   6.050   1.141  0.00  0.00     0.121 N 
ATOM      2  N   UNL d   1       0.492   4.734   2.875  0.00  0.00     0.121 N 
ATOM      3  C   UNL d   1       0.731   6.079   2.371  0.00  0.00     0.543 C 
ATOM      4  C   UNL d   1       0.216   3.936   0.479  0.00  0.00     0.056 C 
ATOM      5  C   UNL d   1       0.848   5.290   0.071  0.00  0.00     0.282 C 
ATOM      6  C   UNL d   1      -0.334   4.005   1.915  0.00  0.00     0.282 C 
ENDROOT
BRANCH   4   7
ATOM      7  C   UNL d   1       1.077   2.682   0.197  0.00  0.00     0.112 C 
BRANCH   7   8
ATOM      8  N   UNL d   1       0.273   1.484   0.563  0.00  0.00    -0.213 NA
ATOM      9  H   UNL d   1      -0.676   1.470   0.190  0.00  0.00     0.140 HD
BRANCH   8  10
ATOM     10  S   UNL d   1       0.941  -0.052   0.400  0.00  0.00     0.264 S 
ATOM     11  O   UNL d   1      -0.074  -0.990   0.826  0.00  0.00    -0.204 OA
ATOM     12  O   UNL d   1       1.570  -0.124  -0.900  0.00  0.00    -0.204 OA
BRANCH  10  13
ATOM     13  C   UNL d   1       2.244  -0.156   1.613  0.00  0.00     0.186 C 
ATOM     14  C   UNL d   1       2.184   0.039   2.984  0.00  0.00     0.071 C 
ATOM     15  C   UNL d   1       3.517   0.197   3.458  0.00  0.00     0.072 C 
ATOM     16  C   UNL d   1       4.323  -0.110   2.378  0.00  0.00     0.067 C 
ATOM     17  O   UNL d   1       3.567  -0.326   1.269  0.00  0.00    -0.301 OA
ATOM     18  C   UNL d   1       5.787  -0.155   2.176  0.00  0.00     0.078 C 
BRANCH  15  19
ATOM     19  C   UNL d   1       3.953   0.664   4.757  0.00  0.00     0.295 C 
ATOM     20  O   UNL d   1       5.138   0.798   5.068  0.00  0.00    -0.259 OA
BRANCH  19  21
ATOM     21  O   UNL d   1       2.901   0.991   5.551  0.00  0.00    -0.322 OA
ATOM     22  C   UNL d   1       3.251   1.659   6.760  0.00  0.00     0.213 C 
ENDBRANCH  19  21
ENDBRANCH  15  19
ENDBRANCH  10  13
ENDBRANCH   8  10
ENDBRANCH   7   8
ENDBRANCH   4   7
BRANCH   1  23
ATOM     23  C   UNL d   1       1.769   7.444   0.681  0.00  0.00     0.313 C 
BRANCH  23  24
ATOM     24  C   UNL d   1       2.436   8.342   1.708  0.00  0.00    -0.030 A 
ATOM     25  C   UNL d   1       3.690   8.015   2.238  0.00  0.00     0.009 A 
ATOM     26  C   UNL d   1       4.266   8.800   3.238  0.00  0.00     0.001 A 
ATOM     27  C   UNL d   1       3.603   9.931   3.709  0.00  0.00     0.000 A 
ATOM     28  C   UNL d   1       2.364  10.282   3.179  0.00  0.00     0.001 A 
ATOM     29  C   UNL d   1       1.782   9.493   2.183  0.00  0.00     0.009 A 
ENDBRANCH  23  24
ENDBRANCH   1  23
BRANCH   2  30
ATOM     30  C   UNL d   1       1.724   4.025   3.242  0.00  0.00     0.313 C 
BRANCH  30  31
ATOM     31  C   UNL d   1       2.509   4.601   4.406  0.00  0.00    -0.030 A 
ATOM     32  C   UNL d   1       1.907   4.844   5.647  0.00  0.00     0.009 A 
ATOM     33  C   UNL d   1       2.680   5.228   6.747  0.00  0.00     0.001 A 
ATOM     34  C   UNL d   1       4.061   5.380   6.616  0.00  0.00     0.000 A 
ATOM     35  C   UNL d   1       4.667   5.176   5.379  0.00  0.00     0.001 A 
ATOM     36  C   UNL d   1       3.896   4.790   4.281  0.00  0.00     0.009 A 
ENDBRANCH  30  31
ENDBRANCH   2  30
TORSDOF 10
