REMARK  5 active torsions:
REMARK  status: ('A' for Active; 'I' for Inactive)
REMARK    1  A    between atoms: N_15  and  C_1 
REMARK    2  A    between atoms: C_7  and  C_6 
REMARK    3  A    between atoms: C_11  and  C_7 
REMARK    4  A    between atoms: N_13  and  N_15 
REMARK    5  A    between atoms: C_20  and  C_19 
ROOT
ATOM      1  C   UNL d   1       1.097   2.870   0.050  0.00  0.00     0.147 A 
ATOM      2  N   UNL d   1       1.094   1.513   0.082  0.00  0.00    -0.338 N 
ATOM      3  HN  UNL d   1       1.966   0.984   0.085  1.00  0.00     0.167 HD
ATOM      4  N   UNL d   1      -1.319   2.954   0.083  0.00  0.00    -0.351 N 
ATOM      5  HN  UNL d   1      -2.193   3.479   0.093  1.00  0.00     0.166 HD
ATOM      6  C   UNL d   1      -0.114   3.587   0.041  0.00  0.00     0.078 A 
ATOM      7  C   UNL d   1      -0.102   0.887   0.109  0.00  0.00     0.060 A 
ATOM      8  C   UNL d   1      -1.311   1.615   0.110  0.00  0.00     0.059 A 
ATOM      9  C   UNL d   1      -0.164  -0.502   0.126  0.00  0.00     0.032 A 
ATOM     10  C   UNL d   1      -2.522   0.938   0.123  0.00  0.00     0.032 A 
ATOM     11  C   UNL d   1      -1.386  -1.178   0.141  0.00  0.00     0.002 A 
ATOM     12  C   UNL d   1      -2.571  -0.455   0.139  0.00  0.00     0.002 A 
ENDROOT
BRANCH   1  13
ATOM     13  N   UNL d   1       2.374   3.447  -0.061  0.00  0.00    -0.284 N 
ATOM     14  H   UNL d   1       3.062   2.711   0.105  0.00  0.00     0.188 HD
BRANCH  13  15
ATOM     15  N   UNL d   1       2.621   4.668   0.474  0.00  0.00    -0.309 N 
ATOM     16  C   UNL d   1       3.573   5.376  -0.065  0.00  0.00     0.118 C 
ATOM     17  HN  UNL d   1       2.084   5.019   1.267  1.00  0.00     0.186 HD
BRANCH  16  18
ATOM     18  C   UNL d   1       4.404   5.083  -1.256  0.00  0.00    -0.019 A 
ATOM     19  C   UNL d   1       3.942   4.316  -2.329  0.00  0.00     0.013 A 
ATOM     20  C   UNL d   1       4.797   4.004  -3.386  0.00  0.00     0.007 A 
ATOM     21  C   UNL d   1       6.109   4.487  -3.401  0.00  0.00    -0.062 A 
ATOM     22  C   UNL d   1       6.547   5.310  -2.355  0.00  0.00     0.007 A 
ATOM     23  C   UNL d   1       7.050   4.058  -4.487  0.00  0.00     0.048 C 
ATOM     24  C   UNL d   1       5.695   5.615  -1.291  0.00  0.00     0.013 A 
ENDBRANCH  16  18
ENDBRANCH  13  15
ENDBRANCH   1  13
BRANCH   6  25
ATOM     25  C   UNL d   1      -0.216   5.049  -0.102  0.00  0.00     0.035 C 
BRANCH  25  26
ATOM     26  C   UNL d   1      -1.216   5.748   0.458  0.00  0.00     0.021 C 
ATOM     27  C   UNL d   1      -1.367   7.155   0.300  0.00  0.00     0.004 A 
ATOM     28  S   UNL d   1      -2.660   7.946   1.129  0.00  0.00    -0.102 SA
ATOM     29  C   UNL d   1      -0.648   8.077  -0.446  0.00  0.00     0.019 A 
ATOM     30  C   UNL d   1      -2.281   9.462   0.447  0.00  0.00     0.050 A 
ATOM     31  C   UNL d   1      -1.182   9.398  -0.373  0.00  0.00     0.008 A 
ENDBRANCH  25  26
ENDBRANCH   6  25
TORSDOF 5
