REMARK  4 active torsions:
REMARK  status: ('A' for Active; 'I' for Inactive)
REMARK    1  A    between atoms: C_5  and  C_1 
REMARK    2  A    between atoms: O_13  and  C_2 
REMARK    3  A    between atoms: C_3  and  C_5 
REMARK    4  A    between atoms: N_11  and  C_7 
ROOT
ATOM      1  C   UNL d   1      -0.165   1.598  -0.052  0.00  0.00     0.053 A 
ATOM      2  C   UNL d   1      -0.905   0.568  -0.647  0.00  0.00     0.118 A 
ATOM      3  C   UNL d   1      -0.462  -0.754  -0.527  0.00  0.00     0.153 A 
ATOM      4  C   UNL d   1       0.721  -1.060   0.132  0.00  0.00     0.087 A 
ATOM      5  C   UNL d   1       1.041   1.291   0.595  0.00  0.00     0.060 A 
ATOM      6  C   UNL d   1       1.469  -0.031   0.679  0.00  0.00     0.120 A 
ATOM      7  F   UNL d   1      -1.169  -1.749  -1.081  0.00  0.00    -0.203 F 
ATOM      8  F   UNL d   1       2.619  -0.310   1.299  0.00  0.00    -0.206 F 
ENDROOT
BRANCH   1   9
ATOM      9  C   UNL d   1      -0.562   3.026  -0.085  0.00  0.00     0.186 C 
ATOM     10  O   UNL d   1       0.296   3.885  -0.258  0.00  0.00    -0.287 OA
BRANCH   9  11
ATOM     11  C   UNL d   1      -1.995   3.358   0.143  0.00  0.00     0.072 C 
ATOM     12  C   UNL d   1      -2.435   4.603  -0.087  0.00  0.00     0.088 C 
BRANCH  12  13
ATOM     13  N   UNL d   1      -3.703   5.142   0.075  0.00  0.00    -0.398 N 
ATOM     14  C   UNL d   1      -4.823   4.456   0.716  0.00  0.00     0.148 C 
ATOM     15  C   UNL d   1      -4.013   6.509  -0.356  0.00  0.00     0.148 C 
ENDBRANCH  12  13
ENDBRANCH   9  11
ENDBRANCH   1   9
BRANCH   2  16
ATOM     16  O   UNL d   1      -2.039   0.780  -1.379  0.00  0.00    -0.357 OA
ATOM     17  H   UNL d   1      -1.958   1.618  -1.872  0.00  0.00     0.218 HD
ENDBRANCH   2  16
TORSDOF 4
