REMARK  3 active torsions:
REMARK  status: ('A' for Active; 'I' for Inactive)
REMARK    1  A    between atoms: S_13  and  C_4 
REMARK    2  A    between atoms: C_10  and  C_5 
REMARK    3  A    between atoms: N_14  and  C_6 
ROOT
ATOM      1  N   UNL d   1      -0.801   1.153   0.053  0.00  0.00    -0.326 N 
ATOM      2  HN  UNL d   1      -1.291   2.047   0.026  1.00  0.00     0.169 HD
ATOM      3  C   UNL d   1      -0.830  -1.249   0.089  0.00  0.00     0.105 A 
ATOM      4  C   UNL d   1      -1.470  -0.018   0.065  0.00  0.00     0.095 A 
ATOM      5  C   UNL d   1       0.558  -1.220   0.029  0.00  0.00     0.068 A 
ATOM      6  C   UNL d   1       0.528   1.089   0.080  0.00  0.00     0.156 A 
ATOM      7  N   UNL d   1       1.231  -0.041   0.033  0.00  0.00    -0.331 N 
ATOM      8  HN  UNL d   1       2.251  -0.022  -0.000  1.00  0.00     0.168 HD
ATOM      9  C   UNL d   1      -1.571  -2.461   0.221  0.00  0.00     0.104 C 
ATOM     10  N   UNL d   1      -2.165  -3.456   0.316  0.00  0.00    -0.191 NA
ENDROOT
BRANCH   4  11
ATOM     11  S   UNL d   1      -3.269   0.074   0.036  0.00  0.00    -0.115 SA
ATOM     12  C   UNL d   1      -3.552   1.859   0.004  0.00  0.00     0.097 C 
ENDBRANCH   4  11
BRANCH   5  13
ATOM     13  C   UNL d   1       1.434  -2.421   0.004  0.00  0.00    -0.007 A 
ATOM     14  C   UNL d   1       1.088  -3.601  -0.686  0.00  0.00     0.020 A 
ATOM     15  C   UNL d   1       1.858  -4.771  -0.597  0.00  0.00    -0.061 A 
ATOM     16  C   UNL d   1       1.388  -6.045  -1.237  0.00  0.00     0.048 C 
ATOM     17  C   UNL d   1       3.052  -4.746   0.125  0.00  0.00     0.007 A 
ATOM     18  C   UNL d   1       3.461  -3.572   0.753  0.00  0.00     0.001 A 
ATOM     19  C   UNL d   1       2.658  -2.429   0.698  0.00  0.00     0.014 A 
ENDBRANCH   5  13
BRANCH   6  20
ATOM     20  N   UNL d   1       1.228   2.270   0.157  0.00  0.00    -0.274 NA
ATOM     21  H   UNL d   1       0.688   3.048  -0.192  0.00  0.00     0.127 HD
ATOM     22  H   UNL d   1       2.172   2.159  -0.183  0.00  0.00     0.127 HD
ENDBRANCH   6  20
TORSDOF 3
