REMARK  4 active torsions:
REMARK  status: ('A' for Active; 'I' for Inactive)
REMARK    1  A    between atoms: C_2  and  S_1 
REMARK    2  A    between atoms: N_3  and  S_1 
REMARK    3  A    between atoms: O_5  and  C_4 
REMARK    4  A    between atoms: C_6  and  O_5 
ROOT
ATOM      1  C   UNL d   1       0.415  -0.736   1.649  0.00  0.00     0.113 C 
ATOM      2  C   UNL d   1       0.633  -2.097   1.889  0.00  0.00     0.099 C 
ATOM      3  C   UNL d   1       0.042   0.102   2.715  0.00  0.00     0.028 C 
ATOM      4  C   UNL d   1       0.680  -2.553   3.219  0.00  0.00     0.039 C 
ATOM      5  C   UNL d   1      -0.039  -0.398   4.016  0.00  0.00     0.002 C 
ATOM      6  C   UNL d   1       0.315  -1.717   4.272  0.00  0.00     0.003 C 
ENDROOT
BRANCH   1   7
ATOM      7  S   UNL d   1       0.441  -0.031   0.012  0.00  0.00     0.263 S 
ATOM      8  O   UNL d   1      -0.057   1.321   0.133  0.00  0.00    -0.200 OA
ATOM      9  O   UNL d   1      -0.218  -0.966  -0.875  0.00  0.00    -0.200 OA
BRANCH   7  10
ATOM     10  N   UNL d   1       2.058   0.093  -0.434  0.00  0.00    -0.303 N 
ATOM     11  C   UNL d   1       2.804  -1.077  -0.950  0.00  0.00     0.161 C 
ATOM     12  C   UNL d   1       3.788  -1.614   0.096  0.00  0.00     0.188 C 
ATOM     13  O   UNL d   1       4.644  -0.583   0.611  0.00  0.00    -0.388 OA
ATOM     14  C   UNL d   1       3.874   0.475   1.200  0.00  0.00     0.188 C 
ATOM     15  C   UNL d   1       2.946   1.115   0.166  0.00  0.00     0.161 C 
ENDBRANCH   7  10
ENDBRANCH   1   7
BRANCH   2  16
ATOM     16  O   UNL d   1       0.819  -2.973   0.839  0.00  0.00    -0.307 OA
BRANCH  16  17
ATOM     17  C   UNL d   1       0.307  -4.256   0.953  0.00  0.00     0.098 A 
ATOM     18  C   UNL d   1       1.056  -5.326   0.441  0.00  0.00     0.069 A 
ATOM     19  C   UNL d   1       0.601  -6.641   0.580  0.00  0.00     0.050 A 
ATOM     20 CL   UNL d   1       2.571  -5.067  -0.345  0.00  0.00    -0.081 Cl
ATOM     21  C   UNL d   1      -0.607  -6.889   1.229  0.00  0.00     0.035 A 
ATOM     22  C   UNL d   1      -1.379  -5.835   1.710  0.00  0.00     0.026 A 
ATOM     23 CL   UNL d   1      -1.150  -8.508   1.438  0.00  0.00    -0.084 Cl
ATOM     24  C   UNL d   1      -0.938  -4.519   1.546  0.00  0.00     0.041 A 
ENDBRANCH  16  17
ENDBRANCH   2  16
TORSDOF 4
