REMARK  9 active torsions:
REMARK  status: ('A' for Active; 'I' for Inactive)
REMARK    1  A    between atoms: C_8  and  C_2 
REMARK    2  A    between atoms: N_17  and  C_27 
REMARK    3  A    between atoms: C_28  and  N_17 
REMARK    4  A    between atoms: O_18  and  C_19 
REMARK    5  A    between atoms: C_22  and  O_18 
REMARK    6  A    between atoms: C_20  and  C_28 
REMARK    7  A    between atoms: C_21  and  C_22 
REMARK    8  A    between atoms: O_26  and  C_21 
REMARK    9  A    between atoms: C_27  and  C_21 
ROOT
ATOM      1  C   UNL d   1       7.260  -5.890  -0.848  0.00  0.00     0.170 C 
ENDROOT
BRANCH   1   2
ATOM      2  C   UNL d   1       5.970  -5.085  -1.085  0.00  0.00     0.209 C 
BRANCH   2   3
ATOM      3  O   UNL d   1       5.796  -4.126  -0.036  0.00  0.00    -0.349 OA
BRANCH   3   4
ATOM      4  C   UNL d   1       4.704  -3.307  -0.145  0.00  0.00     0.068 A 
ATOM      5  C   UNL d   1       4.574  -2.366   0.877  0.00  0.00     0.037 A 
ATOM      6  C   UNL d   1       3.498  -1.471   0.891  0.00  0.00     0.016 A 
ATOM      7  C   UNL d   1       2.534  -1.501  -0.122  0.00  0.00    -0.008 A 
ATOM      8  C   UNL d   1       2.669  -2.450  -1.145  0.00  0.00     0.016 A 
ATOM      9  C   UNL d   1       3.748  -3.344  -1.157  0.00  0.00     0.037 A 
BRANCH   7  10
ATOM     10  C   UNL d   1       1.396  -0.590  -0.135  0.00  0.00     0.063 A 
ATOM     11  N   UNL d   1       0.198  -0.944  -0.748  0.00  0.00    -0.292 N 
ATOM     12  N   UNL d   1      -0.708   0.015  -0.654  0.00  0.00    -0.061 NA
ATOM     13  HN  UNL d   1       0.038  -1.838  -1.213  1.00  0.00     0.183 HD
ATOM     14  S   UNL d   1      -0.143   1.366   0.149  0.00  0.00    -0.010 SA
ATOM     15  C   UNL d   1       1.408   0.680   0.415  0.00  0.00     0.096 A 
ENDBRANCH   7  10
ENDBRANCH   3   4
ENDBRANCH   2   3
ENDBRANCH   1   2
BRANCH   1  16
ATOM     16  O   UNL d   1       7.203  -6.623   0.385  0.00  0.00    -0.392 OA
ATOM     17  H   UNL d   1       6.294  -6.951   0.499  0.00  0.00     0.210 HD
ENDBRANCH   1  16
BRANCH   1  18
ATOM     18  C   UNL d   1       7.505  -6.894  -1.992  0.00  0.00     0.303 C 
BRANCH  18  19
ATOM     19  N   UNL d   1       7.617  -6.227  -3.288  0.00  0.00     0.090 N 
ATOM     20  H   UNL d   1       8.436  -5.617  -3.292  0.00  0.00     0.316 HD
BRANCH  19  21
ATOM     21  C   UNL d   1       7.750  -7.188  -4.380  0.00  0.00     0.308 C 
BRANCH  21  22
ATOM     22  C   UNL d   1       7.866  -6.464  -5.702  0.00  0.00    -0.028 A 
ATOM     23  C   UNL d   1       9.011  -6.619  -6.498  0.00  0.00     0.048 A 
ATOM     24  C   UNL d   1       9.064  -5.941  -7.698  0.00  0.00     0.105 A 
ATOM     25  O   UNL d   1      10.091  -5.986  -8.587  0.00  0.00    -0.323 OA
ATOM     26  C   UNL d   1       8.039  -5.127  -8.120  0.00  0.00     0.105 A 
ATOM     27  C   UNL d   1       9.579  -5.135  -9.634  0.00  0.00     0.352 A 
ATOM     28  O   UNL d   1       8.293  -4.557  -9.328  0.00  0.00    -0.323 OA
ATOM     29  C   UNL d   1       6.902  -4.944  -7.366  0.00  0.00     0.040 A 
ATOM     30  C   UNL d   1       6.816  -5.624  -6.148  0.00  0.00     0.012 A 
ENDBRANCH  21  22
ENDBRANCH  19  21
ENDBRANCH  18  19
ENDBRANCH   1  18
TORSDOF 9
