REMARK  6 active torsions:
REMARK  status: ('A' for Active; 'I' for Inactive)
REMARK    1  A    between atoms: C_4  and  C_1 
REMARK    2  A    between atoms: C_2  and  N_7 
REMARK    3  A    between atoms: N_7  and  C_3 
REMARK    4  A    between atoms: O_16  and  C_4 
REMARK    5  A    between atoms: O_17  and  C_13 
REMARK    6  A    between atoms: C_20  and  O_16 
ROOT
ATOM      1  C   UNL d   1       1.066  -0.148   0.158  0.00  0.00     0.135 C 
ATOM      2  C   UNL d   1       0.445   0.930   0.677  0.00  0.00     0.117 C 
ATOM      3  C   UNL d   1       0.331  -1.324  -0.167  0.00  0.00     0.107 C 
ATOM      4  N   UNL d   1      -0.285  -2.269  -0.436  0.00  0.00    -0.191 NA
ENDROOT
BRANCH   1   5
ATOM      5  C   UNL d   1       2.532  -0.111  -0.072  0.00  0.00     0.305 C 
ATOM      6  O   UNL d   1       3.252   0.844   0.188  0.00  0.00    -0.258 OA
BRANCH   5   7
ATOM      7  O   UNL d   1       2.959  -1.281  -0.614  0.00  0.00    -0.317 OA
BRANCH   7   8
ATOM      8  C   UNL d   1       4.366  -1.371  -0.885  0.00  0.00     0.174 C 
ATOM      9  C   UNL d   1       4.699  -0.680  -2.194  0.00  0.00     0.034 C 
ENDBRANCH   7   8
ENDBRANCH   5   7
ENDBRANCH   1   5
BRANCH   2  10
ATOM     10  N   UNL d   1       0.973   2.162   0.988  0.00  0.00    -0.362 N 
ATOM     11  H   UNL d   1       1.922   2.367   0.644  0.00  0.00     0.165 HD
BRANCH  10  12
ATOM     12  C   UNL d   1       0.349   3.305   1.552  0.00  0.00     0.062 A 
ATOM     13  C   UNL d   1       0.867   4.577   1.229  0.00  0.00     0.069 A 
ATOM     14  C   UNL d   1       0.222   5.720   1.749  0.00  0.00    -0.004 A 
ATOM     15  N   UNL d   1       1.950   4.682   0.426  0.00  0.00    -0.363 N 
ATOM     16  C   UNL d   1       0.725   6.983   1.403  0.00  0.00     0.015 A 
ATOM     17  C   UNL d   1      -0.896   5.582   2.588  0.00  0.00     0.050 A 
ATOM     18  C   UNL d   1       1.831   7.085   0.570  0.00  0.00     0.018 A 
ATOM     19  C   UNL d   1       2.406   5.915   0.114  0.00  0.00     0.088 A 
ATOM     20  C   UNL d   1      -1.395   4.321   2.912  0.00  0.00     0.071 A 
ATOM     21  C   UNL d   1      -0.781   3.189   2.379  0.00  0.00     0.068 A 
ATOM     22  HN  UNL d   1       2.413   3.848   0.063  1.00  0.00     0.165 HD
BRANCH  20  23
ATOM     23  O   UNL d   1      -2.474   4.323   3.753  0.00  0.00    -0.356 OA
ATOM     24  C   UNL d   1      -2.991   3.051   4.130  0.00  0.00     0.210 C 
ENDBRANCH  20  23
ENDBRANCH  10  12
ENDBRANCH   2  10
TORSDOF 6
