REMARK  5 active torsions:
REMARK  status: ('A' for Active; 'I' for Inactive)
REMARK    1  A    between atoms: C_7  and  C_1 
REMARK       I    between atoms: C_2  and  N_8 
REMARK       I    between atoms: N_3  and  C_2 
REMARK    2  A    between atoms: C_4  and  N_3 
REMARK    3  A    between atoms: N_5  and  C_7 
REMARK    4  A    between atoms: C_11  and  C_6 
REMARK    5  A    between atoms: N_8  and  C_15 
ROOT
ATOM      1  C   UNL d   1      -5.948   2.441   0.062  0.00  0.00     0.321 C 
ATOM      2  N   UNL d   1      -6.087   2.793  -1.249  0.00  0.00    -0.308 N 
ATOM      3  N   UNL d   1      -4.882   2.911   0.754  0.00  0.00    -0.338 N 
ATOM      4  O   UNL d   1      -6.668   1.638   0.652  0.00  0.00    -0.247 OA
ATOM      5  H   UNL d   1      -5.605   3.636  -1.544  0.00  0.00     0.170 HD
ATOM      6  H   UNL d   1      -4.927   2.534   1.692  0.00  0.00     0.164 HD
ENDROOT
BRANCH   3   7
ATOM      7  C   UNL d   1      -3.911   4.002   0.574  0.00  0.00     0.089 C 
ATOM      8  C   UNL d   1      -3.106   3.940  -0.730  0.00  0.00     0.055 C 
ATOM      9  C   UNL d   1      -3.289   5.139  -1.659  0.00  0.00     0.275 C 
ATOM     10  N   UNL d   1      -4.633   5.701  -1.496  0.00  0.00     0.092 N 
ATOM     11  C   UNL d   1      -4.673   6.361  -0.184  0.00  0.00     0.275 C 
ATOM     12  C   UNL d   1      -4.519   5.359   0.954  0.00  0.00     0.055 C 
BRANCH  10  13
ATOM     13  C   UNL d   1      -4.959   6.661  -2.567  0.00  0.00     0.315 C 
BRANCH  13  14
ATOM     14  C   UNL d   1      -6.435   6.886  -2.853  0.00  0.00     0.030 A 
ATOM     15  C   UNL d   1      -7.476   6.272  -2.139  0.00  0.00     0.126 A 
ATOM     16  F   UNL d   1      -7.230   5.490  -1.081  0.00  0.00    -0.205 F 
ATOM     17  C   UNL d   1      -8.819   6.457  -2.474  0.00  0.00     0.043 A 
ATOM     18  C   UNL d   1      -9.167   7.277  -3.537  0.00  0.00     0.005 A 
ATOM     19  C   UNL d   1      -8.164   7.920  -4.256  0.00  0.00     0.024 A 
ATOM     20  C   UNL d   1      -6.816   7.728  -3.918  0.00  0.00     0.045 A 
ATOM     21 CL   UNL d   1      -5.645   8.573  -4.875  0.00  0.00    -0.084 Cl
ENDBRANCH  13  14
ENDBRANCH  10  13
ENDBRANCH   3   7
BRANCH   2  22
ATOM     22  C   UNL d   1      -7.220   2.431  -2.032  0.00  0.00     0.043 A 
ATOM     23  C   UNL d   1      -7.105   1.966  -3.370  0.00  0.00    -0.024 A 
ATOM     24  C   UNL d   1      -8.316   1.726  -4.067  0.00  0.00     0.010 A 
ATOM     25  C   UNL d   1      -9.569   1.896  -3.476  0.00  0.00     0.001 A 
ATOM     26  C   UNL d   1      -9.659   2.315  -2.161  0.00  0.00     0.002 A 
ATOM     27  C   UNL d   1      -8.493   2.583  -1.448  0.00  0.00     0.030 A 
BRANCH  23  28
ATOM     28  C   UNL d   1      -5.762   1.581  -4.040  0.00  0.00    -0.022 C 
ATOM     29  C   UNL d   1      -5.046   0.500  -3.197  0.00  0.00     0.019 C 
ATOM     30  C   UNL d   1      -5.910   0.969  -5.462  0.00  0.00     0.019 C 
ATOM     31  C   UNL d   1      -4.860   2.811  -4.215  0.00  0.00     0.019 C 
ENDBRANCH  23  28
ENDBRANCH   2  22
TORSDOF 5
