REMARK  6 active torsions:
REMARK  status: ('A' for Active; 'I' for Inactive)
REMARK    1  A    between atoms: N_2  and  C_1 
REMARK    2  A    between atoms: O_7  and  C_3 
REMARK    3  A    between atoms: C_4  and  C_6 
REMARK    4  A    between atoms: S_9  and  C_4 
REMARK    5  A    between atoms: C_8  and  O_7 
REMARK    6  A    between atoms: C_20  and  S_9 
ROOT
ATOM      1  C   UNL d   1       1.248  -0.272  -0.650  0.00  0.00     0.137 C 
ATOM      2  C   UNL d   1       0.413  -1.324  -0.270  0.00  0.00     0.109 C 
ATOM      3  C   UNL d   1       0.807   1.060  -0.656  0.00  0.00     0.055 C 
ATOM      4  C   UNL d   1      -0.512   1.334  -0.277  0.00  0.00     0.024 C 
ATOM      5  C   UNL d   1      -0.940  -1.048  -0.044  0.00  0.00     0.041 C 
ATOM      6  C   UNL d   1      -1.393   0.271  -0.027  0.00  0.00     0.019 C 
ENDROOT
BRANCH   2   7
ATOM      7  O   UNL d   1       0.925  -2.595  -0.119  0.00  0.00    -0.307 OA
BRANCH   7   8
ATOM      8  C   UNL d   1       0.447  -3.340   0.946  0.00  0.00     0.098 A 
ATOM      9  C   UNL d   1       0.137  -4.688   0.739  0.00  0.00     0.069 A 
ATOM     10  C   UNL d   1      -0.460  -5.436   1.756  0.00  0.00     0.050 A 
ATOM     11 CL   UNL d   1       0.440  -5.454  -0.778  0.00  0.00    -0.081 Cl
ATOM     12  C   UNL d   1      -0.735  -4.835   2.984  0.00  0.00     0.035 A 
ATOM     13  C   UNL d   1      -0.369  -3.512   3.224  0.00  0.00     0.026 A 
ATOM     14 CL   UNL d   1      -1.543  -5.728   4.212  0.00  0.00    -0.084 Cl
ATOM     15  C   UNL d   1       0.248  -2.772   2.216  0.00  0.00     0.041 A 
ENDBRANCH   7   8
ENDBRANCH   2   7
BRANCH   1  16
ATOM     16  N   UNL d   1       2.614  -0.538  -1.041  0.00  0.00    -0.113 N 
ATOM     17  O   UNL d   1       3.382  -0.960  -0.167  0.00  0.00    -0.532 OA
ATOM     18  O   UNL d   1       2.920  -0.265  -2.209  0.00  0.00    -0.532 OA
ENDBRANCH   1  16
BRANCH   4  19
ATOM     19  C   UNL d   1      -1.046   2.708  -0.095  0.00  0.00     0.224 C 
ATOM     20  O   UNL d   1      -2.255   2.908  -0.181  0.00  0.00    -0.279 OA
BRANCH  19  21
ATOM     21  S   UNL d   1       0.071   3.942   0.459  0.00  0.00    -0.048 SA
BRANCH  21  22
ATOM     22  C   UNL d   1      -0.106   5.254  -0.734  0.00  0.00     0.008 A 
ATOM     23  C   UNL d   1      -1.301   5.549  -1.398  0.00  0.00     0.019 A 
ATOM     24  C   UNL d   1      -1.367   6.598  -2.319  0.00  0.00     0.001 A 
ATOM     25  C   UNL d   1      -0.242   7.377  -2.572  0.00  0.00     0.000 A 
ATOM     26  C   UNL d   1       0.948   7.112  -1.899  0.00  0.00     0.001 A 
ATOM     27  C   UNL d   1       1.015   6.057  -0.985  0.00  0.00     0.019 A 
ENDBRANCH  21  22
ENDBRANCH  19  21
ENDBRANCH   4  19
TORSDOF 6
