REMARK  4 active torsions:
REMARK  status: ('A' for Active; 'I' for Inactive)
REMARK    1  A    between atoms: C_6  and  C_1 
REMARK       I    between atoms: N_9  and  C_6 
REMARK       I    between atoms: C_8  and  N_10 
REMARK    2  A    between atoms: C_11  and  C_8 
REMARK    3  A    between atoms: N_10  and  N_9 
REMARK    4  A    between atoms: C_12  and  C_13 
ROOT
ATOM      1  C   UNL d   1      -5.055  -1.216   0.147  0.00  0.00     0.270 C 
ATOM      2  N   UNL d   1      -4.937  -0.542  -1.057  0.00  0.00    -0.263 N 
ATOM      3  O   UNL d   1      -4.436  -0.876   1.153  0.00  0.00    -0.266 OA
ATOM      4  H   UNL d   1      -5.246  -0.919  -1.949  0.00  0.00     0.190 HD
ENDROOT
BRANCH   2   5
ATOM      5  N   UNL d   1      -4.012   0.510  -1.100  0.00  0.00    -0.262 N 
ATOM      6  C   UNL d   1      -3.675   1.120  -2.299  0.00  0.00     0.279 C 
ATOM      7  O   UNL d   1      -4.242   0.800  -3.346  0.00  0.00    -0.265 OA
ATOM      8  H   UNL d   1      -3.543   0.734  -0.225  0.00  0.00     0.190 HD
BRANCH   6   9
ATOM      9  C   UNL d   1      -2.623   2.124  -2.207  0.00  0.00     0.098 A 
ATOM     10  C   UNL d   1      -2.137   2.994  -3.179  0.00  0.00     0.028 A 
ATOM     11  N   UNL d   1      -1.096   3.817  -2.759  0.00  0.00    -0.357 N 
ATOM     12  C   UNL d   1      -2.589   3.161  -4.586  0.00  0.00     0.070 C 
ATOM     13  C   UNL d   1      -0.790   3.570  -1.506  0.00  0.00     0.048 A 
ATOM     14  HN  UNL d   1      -0.636   4.515  -3.343  1.00  0.00     0.166 HD
ATOM     15  S   UNL d   1      -1.746   2.376  -0.744  0.00  0.00    -0.070 SA
ATOM     16  C   UNL d   1       0.309   4.254  -0.771  0.00  0.00     0.076 C 
ENDBRANCH   6   9
ENDBRANCH   2   5
BRANCH   1  17
ATOM     17  C   UNL d   1      -5.943  -2.408   0.170  0.00  0.00     0.033 A 
ATOM     18  C   UNL d   1      -5.673  -3.427   1.087  0.00  0.00     0.017 A 
ATOM     19  C   UNL d   1      -6.483  -4.568   1.137  0.00  0.00     0.009 A 
ATOM     20  C   UNL d   1      -7.593  -4.721   0.282  0.00  0.00    -0.051 A 
ATOM     21  C   UNL d   1      -7.866  -3.667  -0.608  0.00  0.00     0.009 A 
ATOM     22  C   UNL d   1      -7.054  -2.524  -0.668  0.00  0.00     0.017 A 
BRANCH  20  23
ATOM     23  C   UNL d   1      -8.437  -6.010   0.329  0.00  0.00    -0.024 C 
ATOM     24  C   UNL d   1      -9.620  -6.015  -0.664  0.00  0.00     0.019 C 
ATOM     25  C   UNL d   1      -7.542  -7.218  -0.023  0.00  0.00     0.019 C 
ATOM     26  C   UNL d   1      -9.028  -6.217   1.741  0.00  0.00     0.019 C 
ENDBRANCH  20  23
ENDBRANCH   1  17
TORSDOF 4
