REMARK  5 active torsions:
REMARK  status: ('A' for Active; 'I' for Inactive)
REMARK    1  A    between atoms: C_3  and  S_1 
REMARK    2  A    between atoms: O_17  and  S_1 
REMARK    3  A    between atoms: N_2  and  C_8 
REMARK    4  A    between atoms: O_14  and  C_11 
REMARK    5  A    between atoms: C_20  and  O_14 
ROOT
ATOM      1  C   UNL d   1       0.269  -1.161  -1.178  0.00  0.00     0.108 A 
ATOM      2  C   UNL d   1       0.684  -2.498  -1.102  0.00  0.00     0.059 A 
ATOM      3  C   UNL d   1       0.388  -3.401  -2.125  0.00  0.00     0.061 A 
ATOM      4  C   UNL d   1      -0.442  -0.696  -2.281  0.00  0.00     0.099 A 
ATOM      5  C   UNL d   1      -0.397  -2.951  -3.194  0.00  0.00     0.034 A 
ATOM      6  C   UNL d   1      -0.835  -1.627  -3.255  0.00  0.00     0.041 A 
ENDROOT
BRANCH   3   7
ATOM      7  N   UNL d   1       0.888  -4.721  -2.109  0.00  0.00    -0.223 N 
ATOM      8  N   UNL d   1       0.873  -5.450  -3.281  0.00  0.00    -0.279 N 
ATOM      9  C   UNL d   1       1.522  -6.548  -3.045  0.00  0.00     0.099 A 
ATOM     10  HN  UNL d   1       0.436  -5.178  -4.162  1.00  0.00     0.189 HD
ATOM     11  N   UNL d   1       1.759  -7.524  -3.961  0.00  0.00    -0.387 N 
ATOM     12  C   UNL d   1       2.012  -6.661  -1.633  0.00  0.00     0.182 A 
ATOM     13  H   UNL d   1       1.208  -7.468  -4.811  0.00  0.00     0.157 HD
ATOM     14  H   UNL d   1       1.962  -8.463  -3.640  0.00  0.00     0.157 HD
ATOM     15  C   UNL d   1       1.530  -5.374  -1.045  0.00  0.00     0.250 A 
ATOM     16  O   UNL d   1       1.684  -5.037   0.117  0.00  0.00    -0.271 OA
ENDBRANCH   3   7
BRANCH   1  17
ATOM     17  S   UNL d   1       0.635  -0.083   0.175  0.00  0.00     0.132 S 
ATOM     18  O   UNL d   1      -0.622   0.411   0.695  0.00  0.00    -0.597 OA
ATOM     19  O   UNL d   1       1.720   0.782  -0.225  0.00  0.00    -0.597 OA
BRANCH  17  20
ATOM     20  O   UNL d   1       1.196  -1.060   1.335  0.00  0.00    -0.292 OA
ATOM     21  H   UNL d   1       0.442  -1.339   1.895  0.00  0.00     0.232 HD
ENDBRANCH  17  20
ENDBRANCH   1  17
BRANCH   4  22
ATOM     22  O   UNL d   1      -0.736   0.648  -2.389  0.00  0.00    -0.309 OA
BRANCH  22  23
ATOM     23  C   UNL d   1      -0.800   1.183  -3.661  0.00  0.00     0.076 A 
ATOM     24  C   UNL d   1      -1.886   2.005  -3.955  0.00  0.00     0.037 A 
ATOM     25  C   UNL d   1      -2.072   2.467  -5.260  0.00  0.00     0.003 A 
ATOM     26  C   UNL d   1      -1.168   2.114  -6.264  0.00  0.00     0.000 A 
ATOM     27  C   UNL d   1      -0.046   1.346  -5.955  0.00  0.00     0.003 A 
ATOM     28  C   UNL d   1       0.157   0.907  -4.647  0.00  0.00     0.037 A 
ENDBRANCH  22  23
ENDBRANCH   4  22
TORSDOF 5
