REMARK  3 active torsions:
REMARK  status: ('A' for Active; 'I' for Inactive)
REMARK    1  A    between atoms: C_2  and  C_1 
REMARK    2  A    between atoms: C_3  and  S_4 
REMARK    3  A    between atoms: S_4  and  C_8 
ROOT
ATOM      1  C   UNL d   1       0.466   1.331   0.256  0.00  0.00     0.063 A 
ATOM      2  N   UNL d   1       0.852   3.716   0.145  0.00  0.00    -0.359 N 
ATOM      3  HN  UNL d   1       1.452   4.498  -0.117  1.00  0.00     0.166 HD
ATOM      4  C   UNL d   1      -0.352   3.922   0.728  0.00  0.00     0.074 A 
ATOM      5  C   UNL d   1       1.232   2.437  -0.078  0.00  0.00     0.105 A 
ATOM      6  C   UNL d   1      -0.774   1.567   0.858  0.00  0.00     0.020 A 
ATOM      7  C   UNL d   1      -1.192   2.877   1.094  0.00  0.00     0.038 A 
ENDROOT
BRANCH   4   8
ATOM      8  S   UNL d   1      -0.864   5.610   0.952  0.00  0.00    -0.065 SA
BRANCH   8   9
ATOM      9  C   UNL d   1      -0.186   5.948   2.542  0.00  0.00     0.047 A 
ATOM     10  S   UNL d   1      -0.921   7.123   3.555  0.00  0.00    -0.095 SA
ATOM     11  C   UNL d   1       0.247   6.899   4.783  0.00  0.00     0.051 A 
ATOM     12  C   UNL d   1       1.185   5.955   4.434  0.00  0.00     0.009 A 
ATOM     13  C   UNL d   1       0.940   5.414   3.135  0.00  0.00     0.027 A 
ENDBRANCH   8   9
ENDBRANCH   4   8
BRANCH   1  14
ATOM     14  C   UNL d   1       0.959  -0.056  -0.022  0.00  0.00     0.418 C 
ATOM     15  F   UNL d   1       2.174  -0.091  -0.637  0.00  0.00    -0.166 F 
ATOM     16  F   UNL d   1       0.114  -0.759  -0.824  0.00  0.00    -0.166 F 
ATOM     17  F   UNL d   1       1.097  -0.794   1.114  0.00  0.00    -0.166 F 
ENDBRANCH   1  14
TORSDOF 3
