REMARK  6 active torsions:
REMARK  status: ('A' for Active; 'I' for Inactive)
REMARK    1  A    between atoms: C_9  and  C_2 
REMARK    2  A    between atoms: S_8  and  C_5 
REMARK    3  A    between atoms: C_23  and  S_8 
REMARK    4  A    between atoms: C_12  and  C_23 
REMARK       I    between atoms: N_13  and  C_12 
REMARK    5  A    between atoms: C_14  and  N_13 
REMARK    6  A    between atoms: C_15  and  C_16 
ROOT
ATOM      1  N   UNL d   1       1.059   0.083   0.212  0.00  0.00    -0.315 N 
ATOM      2  C   UNL d   1       0.116   1.058  -0.065  0.00  0.00     0.134 A 
ATOM      3  N   UNL d   1      -1.077   0.485  -0.045  0.00  0.00    -0.283 N 
ATOM      4  HN  UNL d   1      -1.963   0.952  -0.238  1.00  0.00     0.188 HD
ATOM      5  C   UNL d   1       0.344  -1.055   0.479  0.00  0.00     0.163 A 
ATOM      6  N   UNL d   1      -0.928  -0.837   0.277  0.00  0.00    -0.278 N 
ATOM      7  HN  UNL d   1      -1.675  -1.527   0.347  1.00  0.00     0.189 HD
ATOM      8  C   UNL d   1       2.490   0.224   0.296  0.00  0.00     0.160 C 
ENDROOT
BRANCH   5   9
ATOM      9  S   UNL d   1       1.010  -2.452   1.252  0.00  0.00    -0.083 SA
BRANCH   9  10
ATOM     10  C   UNL d   1      -0.406  -3.575   1.345  0.00  0.00     0.185 C 
BRANCH  10  11
ATOM     11  C   UNL d   1      -1.495  -3.260   2.368  0.00  0.00     0.231 C 
ATOM     12  N   UNL d   1      -1.538  -1.980   2.876  0.00  0.00    -0.326 N 
ATOM     13  H   UNL d   1      -0.912  -1.316   2.438  0.00  0.00     0.169 HD
ATOM     14  O   UNL d   1      -2.306  -4.148   2.645  0.00  0.00    -0.272 OA
BRANCH  12  15
ATOM     15  C   UNL d   1      -2.541  -1.411   3.686  0.00  0.00     0.036 A 
ATOM     16  C   UNL d   1      -3.519  -2.155   4.349  0.00  0.00     0.056 A 
ATOM     17  C   UNL d   1      -4.534  -1.506   5.056  0.00  0.00     0.074 A 
ATOM     18 CL   UNL d   1      -5.750  -2.440   5.840  0.00  0.00    -0.081 Cl
ATOM     19  C   UNL d   1      -4.564  -0.115   5.113  0.00  0.00     0.138 A 
ATOM     20  C   UNL d   1      -3.575   0.637   4.490  0.00  0.00     0.046 A 
ATOM     21  F   UNL d   1      -5.546   0.525   5.764  0.00  0.00    -0.204 F 
ATOM     22  C   UNL d   1      -2.560  -0.010   3.783  0.00  0.00     0.032 A 
ENDBRANCH  12  15
ENDBRANCH  10  11
ENDBRANCH   9  10
ENDBRANCH   5   9
BRANCH   2  23
ATOM     23  C   UNL d   1       0.344   2.501  -0.194  0.00  0.00     0.009 A 
ATOM     24  C   UNL d   1       1.453   3.041  -0.844  0.00  0.00     0.016 A 
ATOM     25  C   UNL d   1       1.704   4.418  -0.803  0.00  0.00     0.009 A 
ATOM     26  C   UNL d   1       0.834   5.310  -0.154  0.00  0.00    -0.051 A 
ATOM     27  C   UNL d   1      -0.329   4.768   0.414  0.00  0.00     0.009 A 
ATOM     28  C   UNL d   1      -0.568   3.386   0.394  0.00  0.00     0.016 A 
BRANCH  26  29
ATOM     29  C   UNL d   1       1.181   6.807  -0.066  0.00  0.00    -0.024 C 
ATOM     30  C   UNL d   1       0.088   7.666   0.609  0.00  0.00     0.019 C 
ATOM     31  C   UNL d   1       2.473   6.978   0.764  0.00  0.00     0.019 C 
ATOM     32  C   UNL d   1       1.408   7.385  -1.479  0.00  0.00     0.019 C 
ENDBRANCH  26  29
ENDBRANCH   2  23
TORSDOF 6
