REMARK  5 active torsions:
REMARK  status: ('A' for Active; 'I' for Inactive)
REMARK    1  A    between atoms: N_4  and  S_1 
REMARK    2  A    between atoms: C_5  and  S_1 
REMARK    3  A    between atoms: C_2  and  C_6 
REMARK    4  A    between atoms: C_3  and  C_7 
REMARK    5  A    between atoms: C_8  and  N_4 
ROOT
ATOM      1  C   UNL d   1       2.487  -2.226  -3.464  0.00  0.00     0.050 A 
ATOM      2  C   UNL d   1       0.183  -2.948  -3.848  0.00  0.00     0.050 A 
ATOM      3  C   UNL d   1       0.829  -2.022  -1.698  0.00  0.00     0.024 A 
ATOM      4  C   UNL d   1       1.503  -2.787  -4.296  0.00  0.00     0.032 A 
ATOM      5  C   UNL d   1       2.131  -1.832  -2.163  0.00  0.00     0.040 A 
ATOM      6  C   UNL d   1      -0.141  -2.571  -2.536  0.00  0.00     0.040 A 
ENDROOT
BRANCH   3   7
ATOM      7  N   UNL d   1       0.475  -1.584  -0.386  0.00  0.00    -0.180 NA
ATOM      8  H   UNL d   1      -0.263  -2.123   0.074  0.00  0.00     0.146 HD
BRANCH   7   9
ATOM      9  S   UNL d   1       0.090   0.075  -0.204  0.00  0.00     0.261 S 
ATOM     10  O   UNL d   1       1.152   0.858  -0.809  0.00  0.00    -0.204 OA
ATOM     11  O   UNL d   1      -0.294   0.274   1.176  0.00  0.00    -0.204 OA
BRANCH   9  12
ATOM     12  C   UNL d   1      -1.381   0.259  -1.216  0.00  0.00     0.144 A 
ATOM     13  N   UNL d   1      -2.387  -0.607  -0.893  0.00  0.00    -0.356 N 
ATOM     14  C   UNL d   1      -3.497  -0.522  -1.657  0.00  0.00     0.089 A 
ATOM     15  HN  UNL d   1      -2.304  -1.275  -0.126  1.00  0.00     0.166 HD
ATOM     16  C   UNL d   1      -3.625   0.339  -2.738  0.00  0.00     0.017 A 
ATOM     17  C   UNL d   1      -2.559   1.180  -3.055  0.00  0.00     0.004 A 
ATOM     18  C   UNL d   1      -1.407   1.149  -2.277  0.00  0.00     0.043 A 
ENDBRANCH   9  12
ENDBRANCH   7   9
ENDBRANCH   3   7
BRANCH   1  19
ATOM     19  C   UNL d   1       3.904  -2.036  -3.955  0.00  0.00     0.417 C 
ATOM     20  F   UNL d   1       4.091  -2.477  -5.231  0.00  0.00    -0.166 F 
ATOM     21  F   UNL d   1       4.287  -0.731  -3.954  0.00  0.00    -0.166 F 
ATOM     22  F   UNL d   1       4.814  -2.702  -3.195  0.00  0.00    -0.166 F 
ENDBRANCH   1  19
BRANCH   2  23
ATOM     23  C   UNL d   1      -0.892  -3.497  -4.756  0.00  0.00     0.417 C 
ATOM     24  F   UNL d   1      -0.439  -3.824  -5.997  0.00  0.00    -0.166 F 
ATOM     25  F   UNL d   1      -1.471  -4.621  -4.257  0.00  0.00    -0.166 F 
ATOM     26  F   UNL d   1      -1.903  -2.606  -4.950  0.00  0.00    -0.166 F 
ENDBRANCH   2  23
TORSDOF 5
