REMARK  7 active torsions:
REMARK  status: ('A' for Active; 'I' for Inactive)
REMARK    1  A    between atoms: C_6  and  N_1 
REMARK    2  A    between atoms: N_2  and  C_4 
REMARK       I    between atoms: C_3  and  N_2 
REMARK    3  A    between atoms: C_12  and  C_3 
REMARK    4  A    between atoms: C_4  and  N_10 
REMARK    5  A    between atoms: C_5  and  C_8 
REMARK       I    between atoms: N_7  and  C_5 
REMARK    6  A    between atoms: N_10  and  N_7 
REMARK    7  A    between atoms: C_15  and  C_16 
ROOT
ATOM      1  C   UNL d   1      -2.585   0.869  -8.941  0.00  0.00     0.193 C 
ATOM      2  S   UNL d   1      -2.152   1.617 -10.357  0.00  0.00    -0.039 SA
ENDROOT
BRANCH   1   3
ATOM      3  N   UNL d   1      -1.925  -0.150  -8.262  0.00  0.00    -0.298 N 
ATOM      4  C   UNL d   1      -0.805  -0.898  -8.605  0.00  0.00     0.257 C 
ATOM      5  O   UNL d   1      -0.483  -1.193  -9.752  0.00  0.00    -0.267 OA
ATOM      6  H   UNL d   1      -2.110  -0.037  -7.278  0.00  0.00     0.171 HD
BRANCH   4   7
ATOM      7  C   UNL d   1      -0.009  -1.423  -7.453  0.00  0.00     0.032 A 
ATOM      8  C   UNL d   1      -0.540  -1.599  -6.171  0.00  0.00     0.017 A 
ATOM      9  C   UNL d   1       0.289  -1.959  -5.100  0.00  0.00     0.009 A 
ATOM     10  C   UNL d   1       1.670  -2.156  -5.273  0.00  0.00    -0.051 A 
ATOM     11  C   UNL d   1       2.159  -2.094  -6.591  0.00  0.00     0.009 A 
ATOM     12  C   UNL d   1       1.338  -1.723  -7.663  0.00  0.00     0.017 A 
BRANCH  10  13
ATOM     13  C   UNL d   1       2.601  -2.436  -4.077  0.00  0.00    -0.024 C 
ATOM     14  C   UNL d   1       4.031  -1.898  -4.322  0.00  0.00     0.019 C 
ATOM     15  C   UNL d   1       2.113  -1.748  -2.778  0.00  0.00     0.019 C 
ATOM     16  C   UNL d   1       2.683  -3.953  -3.832  0.00  0.00     0.019 C 
ENDBRANCH  10  13
ENDBRANCH   4   7
ENDBRANCH   1   3
BRANCH   1  17
ATOM     17  N   UNL d   1      -3.727   1.264  -8.259  0.00  0.00    -0.273 N 
ATOM     18  H   UNL d   1      -4.270   2.066  -8.583  0.00  0.00     0.189 HD
BRANCH  17  19
ATOM     19  N   UNL d   1      -4.395   0.318  -7.456  0.00  0.00    -0.264 N 
ATOM     20  C   UNL d   1      -5.293   0.774  -6.511  0.00  0.00     0.270 C 
ATOM     21  O   UNL d   1      -5.514   1.962  -6.304  0.00  0.00    -0.266 OA
ATOM     22  H   UNL d   1      -4.537  -0.594  -7.890  0.00  0.00     0.190 HD
BRANCH  20  23
ATOM     23  C   UNL d   1      -6.002  -0.272  -5.721  0.00  0.00     0.036 A 
ATOM     24  C   UNL d   1      -5.452  -1.547  -5.533  0.00  0.00     0.053 A 
ATOM     25  C   UNL d   1      -6.118  -2.470  -4.715  0.00  0.00     0.103 A 
ATOM     26  C   UNL d   1      -7.329  -2.138  -4.092  0.00  0.00     0.036 A 
ATOM     27  C   UNL d   1      -7.872  -0.869  -4.287  0.00  0.00     0.003 A 
ATOM     28  C   UNL d   1      -7.209   0.063  -5.090  0.00  0.00     0.017 A 
BRANCH  25  29
ATOM     29  N   UNL d   1      -5.517  -3.792  -4.488  0.00  0.00    -0.116 N 
ATOM     30  O   UNL d   1      -4.436  -4.027  -5.048  0.00  0.00    -0.532 OA
ATOM     31  O   UNL d   1      -6.120  -4.584  -3.753  0.00  0.00    -0.532 OA
ENDBRANCH  25  29
ENDBRANCH  20  23
ENDBRANCH  17  19
ENDBRANCH   1  17
TORSDOF 7
