REMARK  4 active torsions:
REMARK  status: ('A' for Active; 'I' for Inactive)
REMARK    1  A    between atoms: C_5  and  C_1 
REMARK    2  A    between atoms: C_6  and  C_2 
REMARK       I    between atoms: N_7  and  C_5 
REMARK       I    between atoms: C_10  and  N_11 
REMARK    3  A    between atoms: C_18  and  C_10 
REMARK    4  A    between atoms: N_11  and  C_19 
ROOT
ATOM      1  C   UNL d   1       0.235  -2.693   0.175  0.00  0.00     0.258 C 
ATOM      2  N   UNL d   1      -0.429  -3.942   0.042  0.00  0.00    -0.348 N 
ATOM      3  O   UNL d   1      -0.042  -1.734  -0.550  0.00  0.00    -0.267 OA
ATOM      4  C   UNL d   1      -0.364  -4.977   1.072  0.00  0.00     0.128 C 
ATOM      5  C   UNL d   1      -1.514  -4.084  -0.930  0.00  0.00     0.128 C 
ATOM      6  C   UNL d   1      -1.762  -6.554  -0.267  0.00  0.00     0.087 C 
ATOM      7  C   UNL d   1      -0.483  -6.387   0.543  0.00  0.00     0.045 C 
ATOM      8  C   UNL d   1      -1.712  -5.532  -1.414  0.00  0.00     0.045 C 
ENDROOT
BRANCH   1   9
ATOM      9  C   UNL d   1       1.340  -2.612   1.121  0.00  0.00     0.092 C 
ATOM     10  C   UNL d   1       2.722  -2.265   0.886  0.00  0.00     0.086 C 
ATOM     11  N   UNL d   1       3.432  -2.520   2.002  0.00  0.00    -0.259 N 
ATOM     12  O   UNL d   1       2.543  -2.792   2.994  0.00  0.00    -0.241 OA
ATOM     13  HN  UNL d   1       4.448  -2.510   2.087  1.00  0.00     0.195 HD
ATOM     14  C   UNL d   1       1.288  -2.803   2.498  0.00  0.00     0.090 C 
ATOM     15  C   UNL d   1       0.245  -3.080   3.515  0.00  0.00     0.080 C 
BRANCH  10  16
ATOM     16  C   UNL d   1       3.466  -1.762  -0.284  0.00  0.00     0.037 A 
ATOM     17  C   UNL d   1       4.431  -0.732  -0.112  0.00  0.00     0.048 A 
ATOM     18 CL   UNL d   1       4.660   0.141   1.377  0.00  0.00    -0.083 Cl
ATOM     19  C   UNL d   1       5.275  -0.327  -1.157  0.00  0.00     0.025 A 
ATOM     20  C   UNL d   1       5.143  -0.884  -2.419  0.00  0.00     0.003 A 
ATOM     21  C   UNL d   1       4.174  -1.859  -2.630  0.00  0.00     0.025 A 
ATOM     22  C   UNL d   1       3.362  -2.317  -1.573  0.00  0.00     0.048 A 
ATOM     23 CL   UNL d   1       2.343  -3.659  -1.968  0.00  0.00    -0.083 Cl
ENDBRANCH  10  16
ENDBRANCH   1   9
BRANCH   6  24
ATOM     24  N   UNL d   1      -2.988  -6.437   0.528  0.00  0.00    -0.352 N 
ATOM     25  C   UNL d   1      -3.250  -7.239   1.627  0.00  0.00     0.252 C 
ATOM     26  O   UNL d   1      -2.435  -8.023   2.106  0.00  0.00    -0.268 OA
ATOM     27  H   UNL d   1      -3.723  -5.832   0.188  0.00  0.00     0.163 HD
BRANCH  25  28
ATOM     28  C   UNL d   1      -4.584  -7.110   2.271  0.00  0.00     0.032 A 
ATOM     29  C   UNL d   1      -5.740  -6.825   1.536  0.00  0.00     0.017 A 
ATOM     30  C   UNL d   1      -6.981  -6.774   2.178  0.00  0.00     0.001 A 
ATOM     31  C   UNL d   1      -7.073  -7.006   3.552  0.00  0.00     0.000 A 
ATOM     32  C   UNL d   1      -5.925  -7.293   4.289  0.00  0.00     0.001 A 
ATOM     33  C   UNL d   1      -4.686  -7.346   3.650  0.00  0.00     0.017 A 
ENDBRANCH  25  28
ENDBRANCH   6  24
TORSDOF 4
