REMARK  6 active torsions:
REMARK  status: ('A' for Active; 'I' for Inactive)
REMARK    1  A    between atoms: C_8  and  C_1 
REMARK       I    between atoms: C_2  and  N_7 
REMARK       I    between atoms: N_3  and  C_2 
REMARK    2  A    between atoms: C_11  and  N_3 
REMARK    3  A    between atoms: N_7  and  C_16 
REMARK    4  A    between atoms: S_12  and  C_8 
REMARK    5  A    between atoms: C_17  and  S_12 
REMARK    6  A    between atoms: C_16  and  C_17 
ROOT
ATOM      1  C   UNL d   1      -2.040   8.382  -0.552  0.00  0.00     0.320 C 
ATOM      2  N   UNL d   1      -2.078   8.063  -1.883  0.00  0.00    -0.309 N 
ATOM      3  O   UNL d   1      -1.980   9.506  -0.066  0.00  0.00    -0.247 OA
ATOM      4  N   UNL d   1      -2.076   7.330   0.316  0.00  0.00    -0.342 N 
ATOM      5  H   UNL d   1      -1.991   7.091  -2.117  0.00  0.00     0.170 HD
ATOM      6  H   UNL d   1      -2.066   7.647   1.279  0.00  0.00     0.164 HD
ENDROOT
BRANCH   4   7
ATOM      7  C   UNL d   1      -2.367   5.928   0.077  0.00  0.00     0.134 C 
BRANCH   7   8
ATOM      8  C   UNL d   1      -1.112   5.106  -0.221  0.00  0.00     0.094 C 
BRANCH   8   9
ATOM      9  S   UNL d   1      -1.482   3.333  -0.469  0.00  0.00    -0.163 SA
BRANCH   9  10
ATOM     10  C   UNL d   1      -2.495   3.441  -1.977  0.00  0.00     0.117 C 
BRANCH  10  11
ATOM     11  C   UNL d   1      -2.982   2.100  -2.445  0.00  0.00     0.011 A 
ATOM     12  C   UNL d   1      -2.255   1.274  -3.315  0.00  0.00     0.044 A 
ATOM     13 CL   UNL d   1      -0.698   1.726  -3.910  0.00  0.00    -0.084 Cl
ATOM     14  C   UNL d   1      -2.786   0.053  -3.748  0.00  0.00     0.024 A 
ATOM     15  C   UNL d   1      -4.044  -0.366  -3.314  0.00  0.00     0.005 A 
ATOM     16  C   UNL d   1      -4.769   0.434  -2.438  0.00  0.00     0.043 A 
ATOM     17  C   UNL d   1      -4.234   1.646  -2.012  0.00  0.00     0.125 A 
ATOM     18  F   UNL d   1      -4.964   2.404  -1.179  0.00  0.00    -0.205 F 
ENDBRANCH  10  11
ENDBRANCH   9  10
ENDBRANCH   8   9
ENDBRANCH   7   8
ENDBRANCH   4   7
BRANCH   2  19
ATOM     19  C   UNL d   1      -2.130   8.957  -2.978  0.00  0.00     0.036 A 
ATOM     20  C   UNL d   1      -2.235  10.344  -2.849  0.00  0.00     0.029 A 
ATOM     21  C   UNL d   1      -2.298  11.163  -3.982  0.00  0.00     0.002 A 
ATOM     22  C   UNL d   1      -2.258  10.603  -5.255  0.00  0.00     0.000 A 
ATOM     23  C   UNL d   1      -2.152   9.222  -5.398  0.00  0.00     0.002 A 
ATOM     24  C   UNL d   1      -2.089   8.403  -4.265  0.00  0.00     0.029 A 
ENDBRANCH   2  19
TORSDOF 6
