REMARK  5 active torsions:
REMARK  status: ('A' for Active; 'I' for Inactive)
REMARK    1  A    between atoms: N_2  and  S_1 
REMARK    2  A    between atoms: C_4  and  S_1 
REMARK    3  A    between atoms: C_9  and  N_2 
REMARK    4  A    between atoms: C_3  and  C_5 
REMARK    5  A    between atoms: C_10  and  C_9 
ROOT
ATOM      1  S   UNL d   1      -1.058  -1.058  -0.122  0.00  0.00     0.259 S 
ATOM      2  O   UNL d   1      -1.115  -1.232   1.318  0.00  0.00    -0.201 OA
ATOM      3  O   UNL d   1      -1.952  -1.792  -0.982  0.00  0.00    -0.201 OA
ENDROOT
BRANCH   1   4
ATOM      4  N   UNL d   1       0.552  -1.370  -0.528  0.00  0.00    -0.310 N 
ATOM      5  H   UNL d   1       1.015  -1.813   0.268  0.00  0.00     0.172 HD
BRANCH   4   6
ATOM      6  C   UNL d   1       0.990  -1.802  -1.876  0.00  0.00     0.096 C 
ATOM      7  C   UNL d   1       0.328  -3.137  -2.263  0.00  0.00     0.033 C 
BRANCH   6   8
ATOM      8  C   UNL d   1       2.569  -1.917  -1.942  0.00  0.00    -0.031 C 
ATOM      9  C   UNL d   1       3.132  -3.005  -0.999  0.00  0.00     0.016 C 
ATOM     10  C   UNL d   1       3.016  -2.273  -3.381  0.00  0.00     0.016 C 
ATOM     11  C   UNL d   1       3.250  -0.579  -1.576  0.00  0.00     0.016 C 
ENDBRANCH   6   8
ENDBRANCH   4   6
ENDBRANCH   1   4
BRANCH   1  12
ATOM     12  C   UNL d   1      -1.324   0.674  -0.428  0.00  0.00     0.080 A 
ATOM     13  C   UNL d   1      -2.195   1.070  -1.453  0.00  0.00     0.041 A 
ATOM     14  C   UNL d   1      -2.627   2.407  -1.540  0.00  0.00     0.049 A 
ATOM     15  C   UNL d   1      -2.160   3.332  -0.591  0.00  0.00     0.016 A 
ATOM     16  C   UNL d   1      -1.284   2.936   0.421  0.00  0.00     0.002 A 
ATOM     17  C   UNL d   1      -0.871   1.606   0.510  0.00  0.00     0.025 A 
BRANCH  14  18
ATOM     18  C   UNL d   1      -3.623   2.851  -2.588  0.00  0.00     0.417 C 
ATOM     19  F   UNL d   1      -3.991   1.863  -3.447  0.00  0.00    -0.166 F 
ATOM     20  F   UNL d   1      -4.778   3.320  -2.040  0.00  0.00    -0.166 F 
ATOM     21  F   UNL d   1      -3.142   3.861  -3.364  0.00  0.00    -0.166 F 
ENDBRANCH  14  18
ENDBRANCH   1  12
TORSDOF 5
