REMARK  5 active torsions:
REMARK  status: ('A' for Active; 'I' for Inactive)
REMARK    1  A    between atoms: O_5  and  C_1 
REMARK    2  A    between atoms: O_11  and  C_4 
REMARK    3  A    between atoms: C_7  and  O_5 
REMARK    4  A    between atoms: C_14  and  C_6 
REMARK       I    between atoms: N_12  and  C_7 
REMARK    5  A    between atoms: C_15  and  O_11 
ROOT
ATOM      1  C   UNL d   1       0.983  -1.159  -0.376  0.00  0.00     0.190 C 
ATOM      2  N   UNL d   1       1.644  -0.011  -0.148  0.00  0.00    -0.320 N 
ATOM      3  HN  UNL d   1       2.644   0.007   0.049  1.00  0.00     0.169 HD
ATOM      4  C   UNL d   1      -0.378  -1.248  -0.618  0.00  0.00     0.149 C 
ATOM      5  C   UNL d   1       0.910   1.110  -0.197  0.00  0.00     0.117 C 
ATOM      6  N   UNL d   1      -0.435   1.125  -0.285  0.00  0.00    -0.343 N 
ATOM      7  HN  UNL d   1      -0.959   1.998  -0.222  1.00  0.00     0.167 HD
ATOM      8  C   UNL d   1      -1.066  -0.061  -0.461  0.00  0.00     0.045 C 
ATOM      9  C   UNL d   1      -2.565  -0.027  -0.431  0.00  0.00     0.071 C 
ENDROOT
BRANCH   4  10
ATOM     10  O   UNL d   1      -1.067  -2.395  -0.915  0.00  0.00    -0.304 OA
BRANCH  10  11
ATOM     11  C   UNL d   1      -0.502  -3.277  -1.814  0.00  0.00     0.076 A 
ATOM     12  C   UNL d   1      -0.725  -4.633  -1.567  0.00  0.00     0.038 A 
ATOM     13  C   UNL d   1      -0.096  -5.600  -2.353  0.00  0.00     0.009 A 
ATOM     14  C   UNL d   1       0.756  -5.223  -3.398  0.00  0.00    -0.062 A 
ATOM     15  C   UNL d   1       0.911  -3.864  -3.691  0.00  0.00     0.009 A 
ATOM     16  C   UNL d   1       1.510  -6.268  -4.167  0.00  0.00     0.048 C 
ATOM     17  C   UNL d   1       0.264  -2.895  -2.920  0.00  0.00     0.038 A 
ENDBRANCH  10  11
ENDBRANCH   4  10
BRANCH   1  18
ATOM     18  O   UNL d   1       1.683  -2.357  -0.137  0.00  0.00    -0.241 OA
BRANCH  18  19
ATOM     19  C   UNL d   1       2.935  -2.474  -0.717  0.00  0.00     0.368 C 
ATOM     20  N   UNL d   1       3.645  -3.557  -0.204  0.00  0.00    -0.336 N 
ATOM     21  C   UNL d   1       4.939  -3.864  -0.778  0.00  0.00     0.154 C 
ATOM     22  C   UNL d   1       3.030  -4.572   0.634  0.00  0.00     0.154 C 
ATOM     23  O   UNL d   1       3.373  -1.742  -1.600  0.00  0.00    -0.238 OA
ENDBRANCH  18  19
ENDBRANCH   1  18
BRANCH   5  24
ATOM     24  C   UNL d   1       1.623   2.400  -0.218  0.00  0.00     0.008 A 
ATOM     25  C   UNL d   1       3.023   2.461  -0.373  0.00  0.00     0.015 A 
ATOM     26  C   UNL d   1       3.698   3.683  -0.459  0.00  0.00     0.001 A 
ATOM     27  C   UNL d   1       2.985   4.877  -0.386  0.00  0.00     0.000 A 
ATOM     28  C   UNL d   1       1.605   4.846  -0.225  0.00  0.00     0.001 A 
ATOM     29  C   UNL d   1       0.933   3.626  -0.141  0.00  0.00     0.015 A 
ENDBRANCH   5  24
TORSDOF 5
