REMARK  4 active torsions:
REMARK  status: ('A' for Active; 'I' for Inactive)
REMARK    1  A    between atoms: C_6  and  C_1 
REMARK    2  A    between atoms: C_7  and  C_2 
REMARK    3  A    between atoms: O_14  and  C_6 
REMARK    4  A    between atoms: O_13  and  C_7 
ROOT
ATOM      1  C   UNL d   1       1.429  -1.265  -0.061  0.00  0.00     0.090 A 
ATOM      2  C   UNL d   1       2.238  -0.044  -0.143  0.00  0.00     0.079 A 
ATOM      3  C   UNL d   1       0.131  -0.809   0.004  0.00  0.00     0.090 A 
ATOM      4  N   UNL d   1       0.106   0.546  -0.022  0.00  0.00    -0.343 N 
ATOM      5  C   UNL d   1       1.368   1.059  -0.071  0.00  0.00     0.026 A 
ATOM      6  S   UNL d   1      -1.468  -1.467   0.106  0.00  0.00    -0.109 SA
ATOM      7  C   UNL d   1      -1.189   1.196   0.101  0.00  0.00     0.140 C 
ATOM      8  C   UNL d   1       1.590   2.531   0.014  0.00  0.00     0.069 C 
ATOM      9  C   UNL d   1      -2.248   0.150  -0.235  0.00  0.00     0.101 C 
ENDROOT
BRANCH   1  10
ATOM     10  C   UNL d   1       1.790  -2.693  -0.078  0.00  0.00     0.180 C 
ATOM     11  O   UNL d   1       0.961  -3.591  -0.133  0.00  0.00    -0.646 OA
BRANCH  10  12
ATOM     12  O   UNL d   1       3.106  -3.011  -0.052  0.00  0.00    -0.773 OA
ATOM     13  H   UNL d   1       3.733  -2.273   0.116  0.00  0.00     0.167 HD
ENDBRANCH  10  12
ENDBRANCH   1  10
BRANCH   2  14
ATOM     14  C   UNL d   1       3.690   0.009  -0.228  0.00  0.00     0.179 C 
ATOM     15  O   UNL d   1       4.402  -0.879   0.229  0.00  0.00    -0.646 OA
BRANCH  14  16
ATOM     16  O   UNL d   1       4.210   1.052  -0.913  0.00  0.00    -0.773 OA
ATOM     17  H   UNL d   1       3.518   1.567  -1.367  0.00  0.00     0.167 HD
ENDBRANCH  14  16
ENDBRANCH   2  14
TORSDOF 4
