REMARK  3 active torsions:
REMARK  status: ('A' for Active; 'I' for Inactive)
REMARK       I    between atoms: C_2  and  N_1 
REMARK       I    between atoms: C_3  and  N_1 
REMARK       I    between atoms: N_7  and  C_2 
REMARK    1  A    between atoms: C_10  and  C_3 
REMARK    2  A    between atoms: C_6  and  C_12 
REMARK    3  A    between atoms: C_19  and  N_7 
ROOT
ATOM      1  N   UNL d   1      -0.844   0.911  -0.928  0.00  0.00    -0.275 N 
ATOM      2  C   UNL d   1       0.518   0.754  -1.030  0.00  0.00     0.327 C 
ATOM      3  C   UNL d   1      -1.646   1.937  -1.392  0.00  0.00     0.259 C 
ATOM      4  N   UNL d   1       1.190   1.749  -1.683  0.00  0.00    -0.309 N 
ATOM      5  O   UNL d   1       0.999  -0.261  -0.531  0.00  0.00    -0.247 OA
ATOM      6  O   UNL d   1      -1.237   2.881  -2.059  0.00  0.00    -0.267 OA
ATOM      7  H   UNL d   1      -1.265   0.112  -0.480  0.00  0.00     0.173 HD
ATOM      8  H   UNL d   1       0.633   2.566  -1.929  0.00  0.00     0.170 HD
ENDROOT
BRANCH   4   9
ATOM      9  C   UNL d   1       2.539   1.741  -2.088  0.00  0.00     0.036 A 
ATOM     10  C   UNL d   1       3.364   0.622  -1.977  0.00  0.00     0.030 A 
ATOM     11  C   UNL d   1       4.669   0.642  -2.480  0.00  0.00     0.016 A 
ATOM     12  C   UNL d   1       5.187   1.786  -3.098  0.00  0.00    -0.001 A 
ATOM     13  C   UNL d   1       4.367   2.920  -3.176  0.00  0.00     0.016 A 
ATOM     14  C   UNL d   1       3.055   2.897  -2.681  0.00  0.00     0.030 A 
BRANCH  12  15
ATOM     15  C   UNL d   1       6.531   1.766  -3.658  0.00  0.00     0.102 A 
ATOM     16  O   UNL d   1       6.989   2.914  -4.252  0.00  0.00    -0.304 OA
ATOM     17  C   UNL d   1       8.236   2.588  -4.687  0.00  0.00     0.233 A 
ATOM     18  N   UNL d   1       8.616   1.358  -4.431  0.00  0.00    -0.354 N 
ATOM     19  C   UNL d   1       7.535   0.826  -3.775  0.00  0.00     0.127 A 
ATOM     20  HN  UNL d   1       9.501   0.906  -4.662  1.00  0.00     0.166 HD
ENDBRANCH  12  15
ENDBRANCH   4   9
BRANCH   3  21
ATOM     21  C   UNL d   1      -3.090   1.825  -1.044  0.00  0.00     0.032 A 
ATOM     22  C   UNL d   1      -3.512   1.230   0.155  0.00  0.00     0.018 A 
ATOM     23  C   UNL d   1      -4.872   1.177   0.468  0.00  0.00     0.025 A 
ATOM     24  C   UNL d   1      -5.809   1.722  -0.409  0.00  0.00     0.034 A 
ATOM     25  C   UNL d   1      -5.398   2.315  -1.601  0.00  0.00     0.025 A 
ATOM     26 CL   UNL d   1      -7.479   1.679  -0.003  0.00  0.00    -0.084 Cl
ATOM     27  C   UNL d   1      -4.037   2.371  -1.919  0.00  0.00     0.018 A 
ENDBRANCH   3  21
TORSDOF 3
