REMARK  2 active torsions:
REMARK  status: ('A' for Active; 'I' for Inactive)
REMARK    1  A    between atoms: C_2  and  C_1 
REMARK       I    between atoms: N_3  and  C_1 
REMARK    2  A    between atoms: C_9  and  N_3 
ROOT
ATOM      1  C   UNL d   1       0.941   0.076  -0.057  0.00  0.00     0.263 C 
ATOM      2  N   UNL d   1       0.167  -0.792  -0.813  0.00  0.00    -0.323 N 
ATOM      3  O   UNL d   1       0.495   1.052   0.542  0.00  0.00    -0.267 OA
ATOM      4  H   UNL d   1       0.651  -1.603  -1.173  0.00  0.00     0.169 HD
ENDROOT
BRANCH   2   5
ATOM      5  C   UNL d   1      -1.205  -0.675  -1.121  0.00  0.00     0.035 A 
ATOM      6  C   UNL d   1      -1.984   0.439  -0.798  0.00  0.00     0.031 A 
ATOM      7  C   UNL d   1      -3.335   0.496  -1.157  0.00  0.00     0.026 A 
ATOM      8  C   UNL d   1      -3.916  -0.566  -1.841  0.00  0.00     0.034 A 
ATOM      9  C   UNL d   1      -3.156  -1.685  -2.170  0.00  0.00     0.026 A 
ATOM     10 CL   UNL d   1      -5.576  -0.493  -2.285  0.00  0.00    -0.084 Cl
ATOM     11  C   UNL d   1      -1.803  -1.737  -1.815  0.00  0.00     0.031 A 
ENDBRANCH   2   5
BRANCH   1  12
ATOM     12  C   UNL d   1       2.365  -0.247   0.004  0.00  0.00     0.072 A 
ATOM     13  S   UNL d   1       3.070  -1.542  -0.870  0.00  0.00    -0.097 SA
ATOM     14  C   UNL d   1       4.637  -1.176  -0.289  0.00  0.00     0.050 A 
ATOM     15  C   UNL d   1       4.632  -0.097   0.565  0.00  0.00     0.009 A 
ATOM     16  C   UNL d   1       3.323   0.436   0.735  0.00  0.00     0.025 A 
ENDBRANCH   1  12
TORSDOF 2
