REMARK  5 active torsions:
REMARK  status: ('A' for Active; 'I' for Inactive)
REMARK    1  A    between atoms: C_3  and  C_1 
REMARK    2  A    between atoms: O_18  and  C_1 
REMARK    3  A    between atoms: C_2  and  C_4 
REMARK    4  A    between atoms: O_17  and  C_2 
REMARK    5  A    between atoms: C_6  and  C_5 
ROOT
ATOM      1  C   UNL d   1       0.307  -1.096  -0.424  0.00  0.00     0.039 A 
ATOM      2  C   UNL d   1      -1.103  -3.324  -1.502  0.00  0.00    -0.026 A 
ATOM      3  C   UNL d   1       0.372  -2.347   0.197  0.00  0.00     0.018 A 
ATOM      4  C   UNL d   1      -0.479  -0.950  -1.569  0.00  0.00     0.018 A 
ATOM      5  C   UNL d   1      -0.320  -3.446  -0.340  0.00  0.00     0.013 A 
ATOM      6  C   UNL d   1      -1.178  -2.046  -2.088  0.00  0.00     0.013 A 
ENDROOT
BRANCH   2   7
ATOM      7  C   UNL d   1      -1.820  -4.477  -2.102  0.00  0.00    -0.026 A 
ATOM      8  C   UNL d   1      -1.984  -4.575  -3.498  0.00  0.00     0.013 A 
ATOM      9  C   UNL d   1      -2.698  -5.626  -4.084  0.00  0.00     0.018 A 
ATOM     10  C   UNL d   1      -3.255  -6.630  -3.290  0.00  0.00     0.039 A 
ATOM     11  C   UNL d   1      -3.082  -6.572  -1.904  0.00  0.00     0.018 A 
ATOM     12  C   UNL d   1      -2.377  -5.506  -1.322  0.00  0.00     0.013 A 
BRANCH  10  13
ATOM     13  C   UNL d   1      -4.018  -7.710  -3.972  0.00  0.00     0.292 C 
ATOM     14  O   UNL d   1      -4.191  -7.750  -5.180  0.00  0.00    -0.259 OA
BRANCH  13  15
ATOM     15  O   UNL d   1      -4.482  -8.618  -3.075  0.00  0.00    -0.323 OA
ATOM     16  C   UNL d   1      -5.234  -9.676  -3.673  0.00  0.00     0.213 C 
ENDBRANCH  13  15
ENDBRANCH  10  13
ENDBRANCH   2   7
BRANCH   1  17
ATOM     17  C   UNL d   1       1.080   0.039   0.153  0.00  0.00     0.292 C 
ATOM     18  O   UNL d   1       1.692  -0.025   1.206  0.00  0.00    -0.259 OA
BRANCH  17  19
ATOM     19  O   UNL d   1       1.006   1.118  -0.666  0.00  0.00    -0.323 OA
ATOM     20  C   UNL d   1       1.733   2.269  -0.233  0.00  0.00     0.213 C 
ENDBRANCH  17  19
ENDBRANCH   1  17
TORSDOF 5
