REMARK  3 active torsions:
REMARK  status: ('A' for Active; 'I' for Inactive)
REMARK    1  A    between atoms: N_3  and  C_1 
REMARK       I    between atoms: C_2  and  N_3 
REMARK       I    between atoms: N_7  and  C_2 
REMARK    2  A    between atoms: C_9  and  N_3 
REMARK    3  A    between atoms: C_10  and  N_7 
ROOT
ATOM      1  C   UNL d   1       3.450   0.953  -0.247  0.00  0.00     0.333 C 
ATOM      2  N   UNL d   1       2.086   1.390  -0.198  0.00  0.00    -0.244 N 
ATOM      3  N   UNL d   1       3.605  -0.370  -0.638  0.00  0.00    -0.308 N 
ATOM      4  O   UNL d   1       4.405   1.678   0.037  0.00  0.00    -0.246 OA
ATOM      5  H   UNL d   1       2.771  -0.937  -0.584  0.00  0.00     0.170 HD
ENDROOT
BRANCH   2   6
ATOM      6  C   UNL d   1       0.969   0.570   0.042  0.00  0.00     0.151 C 
ATOM      7  N   UNL d   1      -0.244   0.869  -0.293  0.00  0.00    -0.369 N 
ATOM      8  C   UNL d   1      -1.176  -0.224   0.035  0.00  0.00     0.137 C 
ATOM      9  HN  UNL d   1      -0.520   1.749  -0.728  1.00  0.00     0.161 HD
ATOM     10  C   UNL d   1      -0.611  -1.074   1.164  0.00  0.00     0.069 C 
ATOM     11  S   UNL d   1       1.166  -0.974   0.856  0.00  0.00    -0.087 SA
ATOM     12  C   UNL d   1      -0.934  -0.519   2.545  0.00  0.00     0.023 C 
ENDBRANCH   2   6
BRANCH   2  13
ATOM     13  C   UNL d   1       1.855   2.828  -0.314  0.00  0.00     0.046 A 
ATOM     14  C   UNL d   1       2.697   3.644  -1.090  0.00  0.00     0.030 A 
ATOM     15  C   UNL d   1       2.469   5.021  -1.212  0.00  0.00     0.002 A 
ATOM     16  C   UNL d   1       1.394   5.613  -0.560  0.00  0.00     0.000 A 
ATOM     17  C   UNL d   1       0.550   4.833   0.221  0.00  0.00     0.002 A 
ATOM     18  C   UNL d   1       0.783   3.458   0.344  0.00  0.00     0.030 A 
ENDBRANCH   2  13
BRANCH   3  19
ATOM     19  C   UNL d   1       4.801  -1.089  -0.841  0.00  0.00     0.037 A 
ATOM     20  C   UNL d   1       6.057  -0.501  -0.991  0.00  0.00     0.053 A 
ATOM     21  C   UNL d   1       7.179  -1.304  -1.209  0.00  0.00     0.036 A 
ATOM     22 CL   UNL d   1       8.726  -0.577  -1.415  0.00  0.00    -0.084 Cl
ATOM     23  C   UNL d   1       7.064  -2.692  -1.274  0.00  0.00     0.024 A 
ATOM     24  C   UNL d   1       5.815  -3.286  -1.125  0.00  0.00     0.004 A 
ATOM     25  C   UNL d   1       4.689  -2.487  -0.917  0.00  0.00     0.029 A 
ENDBRANCH   3  19
TORSDOF 3
