REMARK  5 active torsions:
REMARK  status: ('A' for Active; 'I' for Inactive)
REMARK    1  A    between atoms: C_9  and  C_1 
REMARK    2  A    between atoms: C_4  and  C_2 
REMARK    3  A    between atoms: O_20  and  C_9 
REMARK    4  A    between atoms: C_10  and  C_12 
REMARK    5  A    between atoms: C_18  and  C_13 
ROOT
ATOM      1  C   UNL d   1       2.083  -1.341  -0.084  0.00  0.00     0.053 A 
ATOM      2  C   UNL d   1       0.580  -1.706  -0.167  0.00  0.00     0.105 A 
ATOM      3  C   UNL d   1      -0.335  -0.476  -0.107  0.00  0.00     0.024 A 
ATOM      4  C   UNL d   1       2.475  -0.044   0.002  0.00  0.00     0.018 A 
ATOM      5  C   UNL d   1       0.164   0.774  -0.051  0.00  0.00     0.020 A 
ATOM      6  N   UNL d   1       1.526   0.968  -0.044  0.00  0.00    -0.362 N 
ATOM      7  C   UNL d   1      -1.817  -0.660  -0.057  0.00  0.00     0.158 C 
ATOM      8  O   UNL d   1      -2.340  -1.741  -0.316  0.00  0.00    -0.293 OA
ATOM      9  C   UNL d   1      -0.688   2.020   0.012  0.00  0.00     0.058 C 
ATOM     10  C   UNL d   1       3.883   0.476   0.162  0.00  0.00     0.069 C 
ATOM     11  C   UNL d   1      -2.655   0.527   0.366  0.00  0.00     0.084 C 
ATOM     12  C   UNL d   1      -2.148   1.769  -0.340  0.00  0.00     0.014 C 
ATOM     13  H   UNL d   1       1.864   1.924   0.036  0.00  0.00     0.165 HD
ENDROOT
BRANCH   2  14
ATOM     14  C   UNL d   1       0.170  -2.774   0.844  0.00  0.00    -0.003 A 
ATOM     15  S   UNL d   1       0.289  -2.484   2.526  0.00  0.00    -0.085 SA
ATOM     16  C   UNL d   1      -0.425  -3.988   2.892  0.00  0.00     0.059 A 
ATOM     17  C   UNL d   1      -0.698  -4.733   1.770  0.00  0.00     0.029 A 
ATOM     18  C   UNL d   1      -0.350  -4.031   0.581  0.00  0.00     0.017 A 
BRANCH  16  19
ATOM     19  C   UNL d   1      -0.720  -4.386   4.223  0.00  0.00    -0.054 C 
ATOM     20  C   UNL d   1      -1.004  -4.693   5.345  0.00  0.00    -0.061 C 
BRANCH  20  21
ATOM     21  C   UNL d   1      -1.366  -5.043   6.678  0.00  0.00     0.018 A 
ATOM     22  C   UNL d   1      -1.085  -4.172   7.731  0.00  0.00     0.020 A 
ATOM     23  C   UNL d   1      -1.446  -4.518   9.033  0.00  0.00     0.001 A 
ATOM     24  C   UNL d   1      -2.087  -5.732   9.280  0.00  0.00     0.000 A 
ATOM     25  C   UNL d   1      -2.373  -6.600   8.226  0.00  0.00     0.001 A 
ATOM     26  C   UNL d   1      -2.014  -6.256   6.923  0.00  0.00     0.020 A 
ENDBRANCH  20  21
ENDBRANCH  16  19
ENDBRANCH   2  14
BRANCH   1  27
ATOM     27  C   UNL d   1       3.051  -2.478  -0.037  0.00  0.00     0.291 C 
ATOM     28  O   UNL d   1       4.143  -2.456   0.507  0.00  0.00    -0.260 OA
BRANCH  27  29
ATOM     29  O   UNL d   1       2.533  -3.558  -0.681  0.00  0.00    -0.323 OA
ATOM     30  C   UNL d   1       3.304  -4.758  -0.569  0.00  0.00     0.213 C 
ENDBRANCH  27  29
ENDBRANCH   1  27
TORSDOF 5
