REMARK  5 active torsions:
REMARK  status: ('A' for Active; 'I' for Inactive)
REMARK    1  A    between atoms: N_5  and  N_1 
REMARK       I    between atoms: C_3  and  N_5 
REMARK    2  A    between atoms: C_7  and  C_3 
REMARK    3  A    between atoms: C_4  and  C_6 
REMARK    4  A    between atoms: O_12  and  C_8 
REMARK    5  A    between atoms: O_13  and  C_11 
ROOT
ATOM      1  N   UNL d   1       0.962  -0.112   0.027  0.00  0.00    -0.301 N 
ATOM      2  HN  UNL d   1       0.472   0.780   0.100  1.00  0.00     0.186 HD
ATOM      3  C   UNL d   1       2.265  -0.150  -0.010  0.00  0.00     0.035 C 
ATOM      4  C   UNL d   1       3.067  -1.434  -0.074  0.00  0.00     0.070 C 
ENDROOT
BRANCH   1   5
ATOM      5  N   UNL d   1       0.266  -1.282  -0.034  0.00  0.00    -0.266 N 
ATOM      6  C   UNL d   1      -1.121  -1.266   0.005  0.00  0.00     0.270 C 
ATOM      7  O   UNL d   1      -1.811  -0.265   0.167  0.00  0.00    -0.266 OA
ATOM      8  H   UNL d   1       0.764  -2.161  -0.050  0.00  0.00     0.190 HD
BRANCH   6   9
ATOM      9  C   UNL d   1      -1.774  -2.602  -0.120  0.00  0.00     0.036 A 
ATOM     10  C   UNL d   1      -3.000  -2.804   0.532  0.00  0.00     0.053 A 
ATOM     11  C   UNL d   1      -3.631  -4.047   0.470  0.00  0.00     0.069 A 
ATOM     12  C   UNL d   1      -3.040  -5.080  -0.264  0.00  0.00     0.037 A 
ATOM     13  C   UNL d   1      -1.837  -4.878  -0.940  0.00  0.00     0.004 A 
ATOM     14  C   UNL d   1      -1.203  -3.638  -0.873  0.00  0.00     0.017 A 
BRANCH  11  15
ATOM     15  O   UNL d   1      -4.809  -4.383   1.079  0.00  0.00    -0.356 OA
ATOM     16  C   UNL d   1      -5.450  -3.365   1.840  0.00  0.00     0.210 C 
ENDBRANCH  11  15
ENDBRANCH   6   9
ENDBRANCH   1   5
BRANCH   3  17
ATOM     17  C   UNL d   1       3.004   1.149   0.038  0.00  0.00     0.021 A 
ATOM     18  C   UNL d   1       2.470   2.245   0.731  0.00  0.00     0.077 A 
ATOM     19  C   UNL d   1       3.175   3.445   0.812  0.00  0.00     0.037 A 
ATOM     20  C   UNL d   1       4.410   3.572   0.177  0.00  0.00     0.003 A 
ATOM     21  C   UNL d   1       4.937   2.501  -0.542  0.00  0.00     0.001 A 
ATOM     22  C   UNL d   1       4.236   1.293  -0.615  0.00  0.00     0.016 A 
BRANCH  18  23
ATOM     23  O   UNL d   1       1.256   2.211   1.363  0.00  0.00    -0.360 OA
ATOM     24  H   UNL d   1       0.756   1.437   1.016  0.00  0.00     0.217 HD
ENDBRANCH  18  23
ENDBRANCH   3  17
TORSDOF 5
