REMARK  4 active torsions:
REMARK  status: ('A' for Active; 'I' for Inactive)
REMARK    1  A    between atoms: C_5  and  C_1 
REMARK    2  A    between atoms: N_10  and  C_2 
REMARK       I    between atoms: C_9  and  N_10 
REMARK       I    between atoms: N_13  and  C_9 
REMARK    3  A    between atoms: C_11  and  N_12 
REMARK    4  A    between atoms: N_12  and  N_13 
ROOT
ATOM      1  C   UNL d   1       3.971  -1.216   2.787  0.00  0.00     0.094 A 
ATOM      2  C   UNL d   1       4.501  -1.947   1.693  0.00  0.00     0.072 A 
ATOM      3  C   UNL d   1       2.577  -1.250   3.106  0.00  0.00     0.103 C 
ATOM      4  N   UNL d   1       1.434  -1.267   3.328  0.00  0.00    -0.191 NA
ATOM      5  C   UNL d   1       4.836  -0.471   3.621  0.00  0.00     0.057 A 
ATOM      6 CL   UNL d   1       4.244   0.479   4.945  0.00  0.00    -0.083 Cl
ATOM      7  C   UNL d   1       5.908  -1.925   1.524  0.00  0.00     0.033 A 
ATOM      8  C   UNL d   1       6.755  -1.206   2.371  0.00  0.00     0.004 A 
ATOM      9  C   UNL d   1       6.216  -0.466   3.413  0.00  0.00     0.025 A 
ENDROOT
BRANCH   2  10
ATOM     10  N   UNL d   1       3.749  -2.679   0.728  0.00  0.00    -0.291 N 
ATOM     11  C   UNL d   1       4.062  -4.115   0.649  0.00  0.00     0.178 C 
BRANCH  10  12
ATOM     12  N   UNL d   1       2.417  -2.249   0.458  0.00  0.00    -0.249 N 
ATOM     13  C   UNL d   1       1.391  -3.071   0.038  0.00  0.00     0.339 C 
ATOM     14  N   UNL d   1       0.146  -2.502  -0.083  0.00  0.00    -0.303 N 
ATOM     15  O   UNL d   1       1.486  -4.282  -0.160  0.00  0.00    -0.245 OA
ATOM     16  H   UNL d   1      -0.584  -3.203  -0.118  0.00  0.00     0.171 HD
ATOM     17  H   UNL d   1       2.201  -1.290   0.686  0.00  0.00     0.192 HD
BRANCH  14  18
ATOM     18  C   UNL d   1      -0.260  -1.180  -0.235  0.00  0.00     0.097 C 
ATOM     19  C   UNL d   1       0.407   0.010  -0.691  0.00  0.00     0.097 C 
ATOM     20  N   UNL d   1      -0.429   1.060  -0.635  0.00  0.00    -0.258 N 
ATOM     21  O   UNL d   1      -1.643   0.580  -0.243  0.00  0.00    -0.240 OA
ATOM     22  HN  UNL d   1      -0.199   2.032  -0.845  1.00  0.00     0.195 HD
ATOM     23  C   UNL d   1      -1.572  -0.762  -0.079  0.00  0.00     0.101 C 
ATOM     24  C   UNL d   1      -2.877  -1.389   0.211  0.00  0.00     0.081 C 
BRANCH  19  25
ATOM     25  C   UNL d   1       1.704   0.237  -1.333  0.00  0.00     0.038 A 
ATOM     26  C   UNL d   1       2.070  -0.453  -2.505  0.00  0.00     0.048 A 
ATOM     27 CL   UNL d   1       1.151  -1.761  -3.173  0.00  0.00    -0.083 Cl
ATOM     28  C   UNL d   1       3.192  -0.059  -3.245  0.00  0.00     0.025 A 
ATOM     29  C   UNL d   1       3.940   1.049  -2.858  0.00  0.00     0.003 A 
ATOM     30  C   UNL d   1       3.613   1.723  -1.687  0.00  0.00     0.025 A 
ATOM     31  C   UNL d   1       2.526   1.305  -0.912  0.00  0.00     0.048 A 
ATOM     32 CL   UNL d   1       2.276   2.151   0.582  0.00  0.00    -0.083 Cl
ENDBRANCH  19  25
ENDBRANCH  14  18
ENDBRANCH  10  12
ENDBRANCH   2  10
TORSDOF 4
