REMARK  3 active torsions:
REMARK  status: ('A' for Active; 'I' for Inactive)
REMARK    1  A    between atoms: C_14  and  C_6 
REMARK    2  A    between atoms: S_13  and  C_14 
REMARK    3  A    between atoms: C_15  and  S_13 
ROOT
ATOM      1  C   UNL d   1      -0.554  -0.037   0.919  0.00  0.00     0.110 A 
ATOM      2  N   UNL d   1       0.451   0.802   1.079  0.00  0.00    -0.350 N 
ATOM      3  HN  UNL d   1       0.569   1.425   1.878  1.00  0.00     0.166 HD
ATOM      4  C   UNL d   1      -1.599  -0.178   1.892  0.00  0.00     0.134 A 
ATOM      5  S   UNL d   1      -0.528  -0.947  -0.534  0.00  0.00    -0.079 SA
ATOM      6  C   UNL d   1       1.329   0.715   0.001  0.00  0.00     0.026 A 
ATOM      7  N   UNL d   1      -3.469  -0.975   2.881  0.00  0.00    -0.272 N 
ATOM      8  HN  UNL d   1      -4.313  -1.517   3.067  1.00  0.00     0.194 HD
ATOM      9  O   UNL d   1      -2.631  -1.075   1.782  0.00  0.00    -0.236 OA
ATOM     10  C   UNL d   1       0.930  -0.171  -0.985  0.00  0.00     0.077 A 
ATOM     11  C   UNL d   1      -1.772   0.516   3.073  0.00  0.00     0.061 A 
ATOM     12  C   UNL d   1      -2.938  -0.019   3.642  0.00  0.00     0.117 A 
ENDROOT
BRANCH   6  13
ATOM     13  C   UNL d   1       2.561   1.571  -0.005  0.00  0.00     0.137 C 
BRANCH  13  14
ATOM     14  S   UNL d   1       4.068   0.537  -0.022  0.00  0.00    -0.124 SA
BRANCH  14  15
ATOM     15  C   UNL d   1       5.413   1.717  -0.042  0.00  0.00     0.001 A 
ATOM     16  C   UNL d   1       5.273   3.108  -0.021  0.00  0.00     0.020 A 
ATOM     17  C   UNL d   1       6.402   3.938  -0.030  0.00  0.00     0.025 A 
ATOM     18  C   UNL d   1       7.679   3.382  -0.060  0.00  0.00     0.034 A 
ATOM     19  C   UNL d   1       7.837   2.001  -0.085  0.00  0.00     0.025 A 
ATOM     20 CL   UNL d   1       9.061   4.404  -0.065  0.00  0.00    -0.084 Cl
ATOM     21  C   UNL d   1       6.709   1.176  -0.076  0.00  0.00     0.020 A 
ENDBRANCH  14  15
ENDBRANCH  13  14
ENDBRANCH   6  13
TORSDOF 3
