REMARK  1 active torsions:
REMARK  status: ('A' for Active; 'I' for Inactive)
REMARK    1  A    between atoms: C_2  and  C_1 
ROOT
ATOM      1  C   UNL d   1       2.800   0.093   0.274  0.00  0.00    -0.047 A 
ATOM      2  C   UNL d   1       1.782  -1.377  -0.274  0.00  0.00     0.010 A 
ATOM      3  C   UNL d   1       2.055   1.800   0.624  0.00  0.00     0.010 A 
ATOM      4  C   UNL d   1      -0.667   0.587  -0.312  0.00  0.00     0.034 A 
ATOM      5  C   UNL d   1       0.040  -1.060  -0.569  0.00  0.00     0.024 A 
ATOM      6  C   UNL d   1       0.303   1.983   0.296  0.00  0.00     0.024 A 
ATOM      7 CL   UNL d   1      -2.318   0.856  -0.735  0.00  0.00    -0.084 Cl
ENDROOT
BRANCH   1   8
ATOM      8  C   UNL d   1       4.099   0.146   0.061  0.00  0.00     0.064 A 
ATOM      9  C   UNL d   1       3.095   0.558  -1.232  0.00  0.00    -0.012 A 
ATOM     10  C   UNL d   1       1.405   0.551  -0.836  0.00  0.00     0.021 A 
ATOM     11  C   UNL d   1       1.033   0.051   1.075  0.00  0.00     0.033 A 
ATOM     12  C   UNL d   1       2.264  -0.288   2.239  0.00  0.00     0.021 A 
ATOM     13 CL   UNL d   1      -0.491  -0.221   2.156  0.00  0.00    -0.084 Cl
ATOM     14  C   UNL d   1       3.803  -0.218   1.678  0.00  0.00    -0.012 A 
ENDBRANCH   1   8
TORSDOF 1
