REMARK  4 active torsions:
REMARK  status: ('A' for Active; 'I' for Inactive)
REMARK    1  A    between atoms: C_2  and  S_1 
REMARK    2  A    between atoms: C_12  and  S_1 
REMARK    3  A    between atoms: N_13  and  C_5 
REMARK    4  A    between atoms: N_14  and  C_6 
ROOT
ATOM      1  C   UNL d   1       0.476   0.357   1.738  0.00  0.00     0.113 A 
ATOM      2  N   UNL d   1       0.022   1.943   3.443  0.00  0.00    -0.322 N 
ATOM      3  HN  UNL d   1       0.029   2.902   3.790  1.00  0.00     0.169 HD
ATOM      4  C   UNL d   1       0.441   1.650   2.198  0.00  0.00     0.103 A 
ATOM      5  C   UNL d   1      -0.405   0.933   4.209  0.00  0.00     0.155 A 
ATOM      6  N   UNL d   1      -0.409  -0.349   3.842  0.00  0.00    -0.341 N 
ATOM      7  HN  UNL d   1      -0.716  -1.089   4.474  1.00  0.00     0.167 HD
ATOM      8  C   UNL d   1       0.016  -0.614   2.591  0.00  0.00     0.117 A 
ENDROOT
BRANCH   1   9
ATOM      9  S   UNL d   1       0.990  -0.068   0.122  0.00  0.00     0.183 S 
ATOM     10  O   UNL d   1       0.632   1.043  -0.746  0.00  0.00    -0.222 OA
ATOM     11  O   UNL d   1       0.466  -1.393  -0.158  0.00  0.00    -0.222 OA
BRANCH   9  12
ATOM     12  C   UNL d   1       2.784  -0.182   0.218  0.00  0.00     0.105 C 
ATOM     13  C   UNL d   1       3.232  -1.300   1.154  0.00  0.00     0.026 C 
ATOM     14  C   UNL d   1       3.362  -0.408  -1.177  0.00  0.00     0.026 C 
ENDBRANCH   9  12
ENDBRANCH   1   9
BRANCH   4  15
ATOM     15  N   UNL d   1       0.912   2.741   1.470  0.00  0.00    -0.287 NA
ATOM     16  H   UNL d   1       0.679   3.588   1.981  0.00  0.00     0.125 HD
ATOM     17  H   UNL d   1       0.532   2.755   0.519  0.00  0.00     0.125 HD
ENDBRANCH   4  15
BRANCH   5  18
ATOM     18  N   UNL d   1      -0.830   1.229   5.486  0.00  0.00    -0.274 NA
ATOM     19  H   UNL d   1      -0.733   0.421   6.082  0.00  0.00     0.127 HD
ATOM     20  H   UNL d   1      -0.421   2.098   5.802  0.00  0.00     0.127 HD
ENDBRANCH   5  18
TORSDOF 4
