REMARK  3 active torsions:
REMARK  status: ('A' for Active; 'I' for Inactive)
REMARK    1  A    between atoms: C_4  and  S_1 
REMARK    2  A    between atoms: N_12  and  S_1 
REMARK    3  A    between atoms: S_17  and  C_8 
ROOT
ATOM      1  C   UNL d   1       0.034   3.320   4.454  0.00  0.00     0.141 A 
ATOM      2  N   UNL d   1      -1.101   3.840   5.037  0.00  0.00    -0.315 N 
ATOM      3  C   UNL d   1       0.595   0.579   1.774  0.00  0.00     0.116 A 
ATOM      4  N   UNL d   1       1.042   4.138   4.694  0.00  0.00    -0.282 N 
ATOM      5  HN  UNL d   1       2.001   4.014   4.371  1.00  0.00     0.188 HD
ATOM      6  C   UNL d   1       0.135   2.135   3.648  0.00  0.00     0.052 A 
ATOM      7  C   UNL d   1      -0.701   4.997   5.651  0.00  0.00     0.162 A 
ATOM      8  N   UNL d   1       0.581   5.186   5.455  0.00  0.00    -0.278 N 
ATOM      9  HN  UNL d   1       1.135   5.968   5.804  1.00  0.00     0.189 HD
ATOM     10  S   UNL d   1       1.136   2.122   2.256  0.00  0.00    -0.073 SA
ATOM     11  C   UNL d   1      -0.231   0.022   2.733  0.00  0.00     0.034 A 
ATOM     12  C   UNL d   1      -0.472   0.907   3.825  0.00  0.00     0.025 A 
ATOM     13  C   UNL d   1      -2.452   3.349   4.961  0.00  0.00     0.160 C 
ENDROOT
BRANCH   3  14
ATOM     14  S   UNL d   1       1.154  -0.062   0.206  0.00  0.00     0.250 S 
ATOM     15  O   UNL d   1      -0.021  -0.017  -0.638  0.00  0.00    -0.205 OA
ATOM     16  O   UNL d   1       1.763  -1.327   0.565  0.00  0.00    -0.205 OA
BRANCH  14  17
ATOM     17  N   UNL d   1       2.347   0.926  -0.485  0.00  0.00    -0.202 NA
ATOM     18  C   UNL d   1       1.896   2.215  -1.101  0.00  0.00     0.134 C 
ATOM     19  C   UNL d   1       1.450   2.034  -2.556  0.00  0.00     0.183 C 
ATOM     20  O   UNL d   1       2.470   1.409  -3.344  0.00  0.00    -0.389 OA
ATOM     21  C   UNL d   1       2.789   0.116  -2.810  0.00  0.00     0.183 C 
ATOM     22  C   UNL d   1       3.327   0.236  -1.382  0.00  0.00     0.134 C 
ENDBRANCH  14  17
ENDBRANCH   3  14
BRANCH   7  23
ATOM     23  S   UNL d   1      -1.777   6.026   6.532  0.00  0.00    -0.097 SA
ATOM     24  C   UNL d   1      -0.659   7.364   7.003  0.00  0.00     0.099 C 
ENDBRANCH   7  23
TORSDOF 3
