REMARK  4 active torsions:
REMARK  status: ('A' for Active; 'I' for Inactive)
REMARK    1  A    between atoms: O_2  and  C_1 
REMARK    2  A    between atoms: C_3  and  C_1 
REMARK    3  A    between atoms: C_7  and  O_2 
REMARK    4  A    between atoms: S_10  and  C_8 
ROOT
ATOM      1  C   UNL d   1       0.930  -0.002  -0.021  0.00  0.00     0.298 C 
ATOM      2  O   UNL d   1       0.491   1.126   0.144  0.00  0.00    -0.259 OA
ENDROOT
BRANCH   1   3
ATOM      3  O   UNL d   1       0.216  -1.143  -0.351  0.00  0.00    -0.275 OA
BRANCH   3   4
ATOM      4  C   UNL d   1      -1.184  -1.103  -0.503  0.00  0.00     0.079 A 
ATOM      5  C   UNL d   1      -1.864  -0.039  -1.088  0.00  0.00     0.039 A 
ATOM      6  C   UNL d   1      -3.256  -0.093  -1.216  0.00  0.00     0.021 A 
ATOM      7  C   UNL d   1      -3.971  -1.212  -0.774  0.00  0.00    -0.000 A 
ATOM      8  C   UNL d   1      -3.265  -2.293  -0.231  0.00  0.00     0.021 A 
ATOM      9  C   UNL d   1      -1.875  -2.242  -0.095  0.00  0.00     0.039 A 
BRANCH   7  10
ATOM     10  S   UNL d   1      -5.746  -1.362  -0.922  0.00  0.00    -0.134 SA
ATOM     11  C   UNL d   1      -6.289   0.341  -0.611  0.00  0.00     0.095 C 
ENDBRANCH   7  10
ENDBRANCH   3   4
ENDBRANCH   1   3
BRANCH   1  12
ATOM     12  C   UNL d   1       2.376  -0.335   0.136  0.00  0.00     0.040 A 
ATOM     13  C   UNL d   1       3.267   0.715   0.405  0.00  0.00     0.019 A 
ATOM     14  C   UNL d   1       4.631   0.462   0.581  0.00  0.00     0.025 A 
ATOM     15  C   UNL d   1       5.108  -0.844   0.491  0.00  0.00     0.034 A 
ATOM     16  C   UNL d   1       4.234  -1.897   0.224  0.00  0.00     0.025 A 
ATOM     17 CL   UNL d   1       6.784  -1.159   0.714  0.00  0.00    -0.084 Cl
ATOM     18  C   UNL d   1       2.869  -1.646   0.045  0.00  0.00     0.019 A 
ENDBRANCH   1  12
TORSDOF 4
