REMARK  4 active torsions:
REMARK  status: ('A' for Active; 'I' for Inactive)
REMARK    1  A    between atoms: C_4  and  C_1 
REMARK    2  A    between atoms: N_7  and  N_2 
REMARK    3  A    between atoms: C_8  and  C_4 
REMARK    4  A    between atoms: C_12  and  N_7 
ROOT
ATOM      1  C   UNL d   1       1.039   0.088  -0.006  0.00  0.00     0.179 C 
ATOM      2  N   UNL d   1       0.392   0.797  -0.888  0.00  0.00    -0.287 N 
ATOM      3  HN  UNL d   1      -0.627   0.830  -0.861  1.00  0.00     0.188 HD
ATOM      4  C   UNL d   1       2.478   0.018  -0.083  0.00  0.00     0.123 C 
ATOM      5  N   UNL d   1       3.635  -0.003  -0.201  0.00  0.00    -0.190 NA
ENDROOT
BRANCH   1   6
ATOM      6  C   UNL d   1       0.275  -0.648   1.056  0.00  0.00     0.220 C 
ATOM      7  O   UNL d   1       0.728  -1.714   1.457  0.00  0.00    -0.284 OA
BRANCH   6   8
ATOM      8  C   UNL d   1      -0.989  -0.106   1.613  0.00  0.00     0.017 A 
ATOM      9  C   UNL d   1      -1.934  -1.013   2.114  0.00  0.00     0.017 A 
ATOM     10  C   UNL d   1      -3.113  -0.548   2.704  0.00  0.00     0.025 A 
ATOM     11  C   UNL d   1      -3.341   0.823   2.804  0.00  0.00     0.034 A 
ATOM     12  C   UNL d   1      -2.410   1.731   2.299  0.00  0.00     0.025 A 
ATOM     13 CL   UNL d   1      -4.768   1.399   3.571  0.00  0.00    -0.084 Cl
ATOM     14  C   UNL d   1      -1.234   1.269   1.699  0.00  0.00     0.017 A 
ENDBRANCH   6   8
ENDBRANCH   1   6
BRANCH   2  15
ATOM     15  N   UNL d   1       1.065   1.496  -1.846  0.00  0.00    -0.300 N 
ATOM     16  H   UNL d   1       1.994   1.216  -2.171  0.00  0.00     0.187 HD
BRANCH  15  17
ATOM     17  C   UNL d   1       0.315   2.205  -2.808  0.00  0.00     0.048 A 
ATOM     18  C   UNL d   1      -1.074   2.381  -2.691  0.00  0.00     0.034 A 
ATOM     19  C   UNL d   1      -1.784   3.148  -3.618  0.00  0.00     0.044 A 
ATOM     20  C   UNL d   1      -1.103   3.760  -4.660  0.00  0.00     0.116 A 
ATOM     21  C   UNL d   1       0.273   3.626  -4.791  0.00  0.00     0.044 A 
ATOM     22  F   UNL d   1      -1.780   4.498  -5.551  0.00  0.00    -0.206 F 
ATOM     23  C   UNL d   1       0.982   2.857  -3.857  0.00  0.00     0.034 A 
ENDBRANCH  15  17
ENDBRANCH   2  15
TORSDOF 4
