REMARK  7 active torsions:
REMARK  status: ('A' for Active; 'I' for Inactive)
REMARK    1  A    between atoms: C_3  and  C_1 
REMARK    2  A    between atoms: C_11  and  C_2 
REMARK    3  A    between atoms: C_9  and  C_17 
REMARK    4  A    between atoms: O_19  and  C_11 
REMARK    5  A    between atoms: N_13  and  O_19 
REMARK    6  A    between atoms: C_20  and  C_15 
REMARK    7  A    between atoms: N_26  and  C_15 
ROOT
ATOM      1  O   UNL d   1      -2.249  -2.388   0.278  0.00  0.00    -0.193 OA
ENDROOT
BRANCH   1   2
ATOM      2  N   UNL d   1      -3.621  -2.085   0.442  0.00  0.00    -0.246 N 
ATOM      3  C   UNL d   1      -4.327  -3.172   0.590  0.00  0.00     0.109 C 
ATOM      4  HN  UNL d   1      -4.007  -1.141   0.444  1.00  0.00     0.196 HD
BRANCH   3   5
ATOM      5  C   UNL d   1      -5.789  -3.031   0.916  0.00  0.00     0.004 A 
ATOM      6  C   UNL d   1      -6.390  -1.763   0.928  0.00  0.00     0.030 A 
ATOM      7  C   UNL d   1      -7.704  -1.595   1.401  0.00  0.00     0.048 A 
ATOM      8  C   UNL d   1      -8.423  -2.722   1.829  0.00  0.00     0.016 A 
ATOM      9  C   UNL d   1      -7.847  -3.990   1.781  0.00  0.00     0.002 A 
ATOM     10  C   UNL d   1      -6.534  -4.144   1.331  0.00  0.00     0.015 A 
BRANCH   7  11
ATOM     11  C   UNL d   1      -8.324  -0.225   1.523  0.00  0.00     0.417 C 
ATOM     12  F   UNL d   1      -7.577   0.772   0.974  0.00  0.00    -0.166 F 
ATOM     13  F   UNL d   1      -9.546  -0.149   0.924  0.00  0.00    -0.166 F 
ATOM     14  F   UNL d   1      -8.527   0.132   2.823  0.00  0.00    -0.166 F 
ENDBRANCH   7  11
ENDBRANCH   3   5
BRANCH   3  15
ATOM     15  N   UNL d   1      -3.784  -4.435   0.508  0.00  0.00    -0.286 NA
ATOM     16  H   UNL d   1      -2.815  -4.429   0.177  0.00  0.00     0.125 HD
ATOM     17  H   UNL d   1      -4.330  -5.117  -0.004  0.00  0.00     0.125 HD
ENDBRANCH   3  15
ENDBRANCH   1   2
BRANCH   1  18
ATOM     18  C   UNL d   1      -1.521  -1.272  -0.041  0.00  0.00     0.320 C 
ATOM     19  O   UNL d   1      -2.002  -0.177  -0.316  0.00  0.00    -0.257 OA
BRANCH  18  20
ATOM     20  C   UNL d   1      -0.074  -1.471   0.044  0.00  0.00     0.103 C 
ATOM     21  C   UNL d   1       0.674  -2.623   0.245  0.00  0.00     0.145 C 
ATOM     22  O   UNL d   1       1.983  -2.264   0.414  0.00  0.00    -0.234 OA
ATOM     23  N   UNL d   1       2.153  -0.933   0.162  0.00  0.00    -0.264 N 
ATOM     24  C   UNL d   1       0.931  -0.461  -0.115  0.00  0.00     0.048 C 
ATOM     25  HN  UNL d   1       3.028  -0.408   0.181  1.00  0.00     0.194 HD
ATOM     26  C   UNL d   1       0.829   0.946  -0.573  0.00  0.00     0.071 C 
BRANCH  21  27
ATOM     27  C   UNL d   1       0.321  -4.072   0.197  0.00  0.00     0.094 A 
ATOM     28  N   UNL d   1      -0.866  -4.564  -0.167  0.00  0.00    -0.258 N 
ATOM     29  O   UNL d   1      -0.698  -5.932  -0.274  0.00  0.00    -0.242 OA
ATOM     30  HN  UNL d   1      -1.724  -4.037  -0.333  1.00  0.00     0.195 HD
ATOM     31  C   UNL d   1       0.592  -6.250   0.011  0.00  0.00     0.074 A 
ATOM     32  C   UNL d   1       1.266  -5.112   0.376  0.00  0.00     0.068 A 
ATOM     33  C   UNL d   1       0.993  -7.654  -0.185  0.00  0.00     0.079 C 
ENDBRANCH  21  27
ENDBRANCH  18  20
ENDBRANCH   1  18
TORSDOF 7
