REMARK  5 active torsions:
REMARK  status: ('A' for Active; 'I' for Inactive)
REMARK    1  A    between atoms: N_3  and  S_1 
REMARK    2  A    between atoms: C_11  and  S_1 
REMARK    3  A    between atoms: S_23  and  C_5 
REMARK    4  A    between atoms: C_6  and  C_10 
REMARK    5  A    between atoms: O_26  and  N_20 
ROOT
ATOM      1  C   UNL d   1      -1.866  -3.672  -6.082  0.00  0.00     0.020 C 
ATOM      2  C   UNL d   1      -0.940  -2.898  -5.255  0.00  0.00    -0.024 C 
ATOM      3  C   UNL d   1      -2.698  -4.468  -5.314  0.00  0.00     0.054 C 
ATOM      4  C   UNL d   1      -1.114  -3.163  -3.901  0.00  0.00     0.041 C 
ATOM      5  S   UNL d   1      -2.474  -4.175  -3.642  0.00  0.00    -0.080 SA
ATOM      6  C   UNL d   1      -1.812  -3.574  -7.546  0.00  0.00     0.045 C 
ATOM      7  C   UNL d   1       0.078  -1.970  -5.892  0.00  0.00     0.050 C 
ATOM      8  C   UNL d   1      -0.167  -1.688  -7.401  0.00  0.00    -0.038 C 
ATOM      9  C   UNL d   1      -0.525  -3.005  -8.120  0.00  0.00     0.069 C 
ATOM     10  N   UNL d   1      -2.856  -3.896  -8.245  0.00  0.00    -0.271 N 
ATOM     11  HN  UNL d   1      -3.718  -4.265  -7.845  1.00  0.00     0.194 HD
ATOM     12  C   UNL d   1       1.121  -1.126  -8.033  0.00  0.00     0.015 C 
ATOM     13  C   UNL d   1      -1.282  -0.639  -7.597  0.00  0.00     0.015 C 
ENDROOT
BRANCH   4  14
ATOM     14  C   UNL d   1      -0.264  -2.675  -2.742  0.00  0.00     0.068 A 
ATOM     15  N   UNL d   1      -0.663  -2.785  -1.462  0.00  0.00    -0.284 N 
ATOM     16  N   UNL d   1       0.318  -2.171  -0.742  0.00  0.00    -0.188 N 
ATOM     17  HN  UNL d   1      -1.510  -3.230  -1.109  1.00  0.00     0.188 HD
ATOM     18  C   UNL d   1       1.387  -1.807  -1.522  0.00  0.00     0.132 A 
ATOM     19  C   UNL d   1       1.037  -2.116  -2.814  0.00  0.00     0.052 A 
BRANCH  16  20
ATOM     20  S   UNL d   1       0.275  -1.844   0.963  0.00  0.00     0.283 S 
ATOM     21  O   UNL d   1      -1.052  -1.307   1.204  0.00  0.00    -0.198 OA
ATOM     22  O   UNL d   1       1.459  -1.060   1.272  0.00  0.00    -0.198 OA
BRANCH  20  23
ATOM     23  C   UNL d   1       0.412  -3.409   1.774  0.00  0.00     0.103 A 
ATOM     24  C   UNL d   1       1.558  -4.201   1.681  0.00  0.00     0.057 A 
ATOM     25 CL   UNL d   1       2.935  -3.811   0.720  0.00  0.00    -0.083 Cl
ATOM     26  C   UNL d   1       1.637  -5.389   2.421  0.00  0.00     0.025 A 
ATOM     27  C   UNL d   1       0.588  -5.782   3.252  0.00  0.00     0.002 A 
ATOM     28  C   UNL d   1      -0.551  -4.988   3.352  0.00  0.00     0.002 A 
ATOM     29  C   UNL d   1      -0.639  -3.803   2.619  0.00  0.00     0.027 A 
ENDBRANCH  20  23
ENDBRANCH  16  20
ENDBRANCH   4  14
BRANCH   3  30
ATOM     30  S   UNL d   1      -3.790  -5.758  -5.822  0.00  0.00    -0.126 SA
ATOM     31  C   UNL d   1      -5.268  -4.838  -6.298  0.00  0.00     0.096 C 
ENDBRANCH   3  30
BRANCH  10  32
ATOM     32  O   UNL d   1      -2.659  -3.677  -9.616  0.00  0.00    -0.285 OA
ATOM     33  C   UNL d   1      -3.897  -3.875 -10.287  0.00  0.00     0.237 C 
ENDBRANCH  10  32
TORSDOF 5
