REMARK  4 active torsions:
REMARK  status: ('A' for Active; 'I' for Inactive)
REMARK    1  A    between atoms: C_6  and  C_1 
REMARK    2  A    between atoms: C_7  and  C_2 
REMARK    3  A    between atoms: O_14  and  C_6 
REMARK    4  A    between atoms: O_13  and  C_7 
ROOT
ATOM      1  C   UNL d   1       1.436  -1.278  -0.040  0.00  0.00     0.091 A 
ATOM      2  C   UNL d   1       2.257  -0.074  -0.068  0.00  0.00     0.081 A 
ATOM      3  C   UNL d   1       0.139  -0.828   0.013  0.00  0.00     0.089 A 
ATOM      4  N   UNL d   1       0.122   0.528   0.007  0.00  0.00    -0.343 N 
ATOM      5  C   UNL d   1       1.387   1.029  -0.023  0.00  0.00     0.026 A 
ATOM      6  S   UNL d   1      -1.457  -1.486   0.105  0.00  0.00    -0.109 SA
ATOM      7  C   UNL d   1      -1.169   1.186   0.101  0.00  0.00     0.140 C 
ATOM      8  C   UNL d   1       1.641   2.498  -0.034  0.00  0.00     0.069 C 
ATOM      9  C   UNL d   1      -2.228   0.139  -0.235  0.00  0.00     0.101 C 
ENDROOT
BRANCH   1  10
ATOM     10  C   UNL d   1       1.821  -2.684  -0.051  0.00  0.00     0.296 C 
ATOM     11  O   UNL d   1       1.120  -3.575  -0.520  0.00  0.00    -0.259 OA
BRANCH  10  12
ATOM     12  O   UNL d   1       3.025  -2.916   0.550  0.00  0.00    -0.322 OA
ATOM     13  C   UNL d   1       3.417  -4.290   0.528  0.00  0.00     0.213 C 
ENDBRANCH  10  12
ENDBRANCH   1  10
BRANCH   2  14
ATOM     14  C   UNL d   1       3.717   0.030  -0.149  0.00  0.00     0.296 C 
ATOM     15  O   UNL d   1       4.356   0.965   0.321  0.00  0.00    -0.259 OA
BRANCH  14  16
ATOM     16  O   UNL d   1       4.280  -0.994  -0.853  0.00  0.00    -0.322 OA
ATOM     17  C   UNL d   1       5.703  -0.923  -0.946  0.00  0.00     0.213 C 
ENDBRANCH  14  16
ENDBRANCH   2  14
TORSDOF 4
