REMARK  2 active torsions:
REMARK  status: ('A' for Active; 'I' for Inactive)
REMARK    1  A    between atoms: O_7  and  C_1 
REMARK    2  A    between atoms: C_11  and  O_7 
ROOT
ATOM      1  C   UNL d   1      -1.033  -1.518  -0.188  0.00  0.00     0.152 C 
ATOM      2  C   UNL d   1      -1.538  -0.278  -0.096  0.00  0.00     0.122 C 
ATOM      3  C   UNL d   1       0.439  -1.692  -0.383  0.00  0.00     0.218 C 
ATOM      4  C   UNL d   1      -0.690   0.944  -0.089  0.00  0.00     0.207 C 
ATOM      5  C   UNL d   1       1.313  -0.521  -0.181  0.00  0.00     0.031 A 
ATOM      6  C   UNL d   1       0.770   0.753  -0.072  0.00  0.00     0.030 A 
ATOM      7  O   UNL d   1       0.947  -2.755  -0.722  0.00  0.00    -0.284 OA
ATOM      8  O   UNL d   1      -1.157   2.076  -0.075  0.00  0.00    -0.286 OA
ATOM      9 CL   UNL d   1      -3.248  -0.009   0.022  0.00  0.00    -0.077 Cl
ATOM     10  C   UNL d   1       1.615   1.866   0.051  0.00  0.00     0.016 A 
ATOM     11  C   UNL d   1       2.704  -0.694  -0.137  0.00  0.00     0.016 A 
ATOM     12  C   UNL d   1       2.999   1.693   0.083  0.00  0.00     0.001 A 
ATOM     13  C   UNL d   1       3.543   0.413  -0.001  0.00  0.00     0.001 A 
ENDROOT
BRANCH   1  14
ATOM     14  O   UNL d   1      -1.905  -2.607  -0.240  0.00  0.00    -0.305 OA
BRANCH  14  15
ATOM     15  C   UNL d   1      -1.573  -3.824   0.305  0.00  0.00     0.076 A 
ATOM     16  C   UNL d   1      -0.763  -3.996   1.430  0.00  0.00     0.044 A 
ATOM     17  C   UNL d   1      -0.460  -5.285   1.890  0.00  0.00    -0.059 A 
ATOM     18  C   UNL d   1       0.496  -5.490   3.027  0.00  0.00     0.048 C 
ATOM     19  C   UNL d   1      -1.034  -6.393   1.254  0.00  0.00     0.007 A 
ATOM     20  C   UNL d   1      -1.889  -6.218   0.167  0.00  0.00     0.003 A 
ATOM     21  C   UNL d   1      -2.156  -4.935  -0.307  0.00  0.00     0.037 A 
ENDBRANCH  14  15
ENDBRANCH   1  14
TORSDOF 2
