REMARK  2 active torsions:
REMARK  status: ('A' for Active; 'I' for Inactive)
REMARK       I    between atoms: N_2  and  C_1 
REMARK       I    between atoms: N_3  and  C_1 
REMARK    1  A    between atoms: C_5  and  N_2 
REMARK    2  A    between atoms: C_6  and  N_3 
ROOT
ATOM      1  C   UNL d   1       1.133  -0.114   0.029  0.00  0.00     0.325 C 
ATOM      2  N   UNL d   1       0.526   1.132   0.007  0.00  0.00    -0.309 N 
ATOM      3  N   UNL d   1       0.225  -1.118   0.326  0.00  0.00    -0.309 N 
ATOM      4  O   UNL d   1       2.325  -0.309  -0.172  0.00  0.00    -0.247 OA
ATOM      5  H   UNL d   1      -0.372   1.192   0.461  0.00  0.00     0.170 HD
ATOM      6  H   UNL d   1      -0.736  -0.941   0.068  0.00  0.00     0.170 HD
ENDROOT
BRANCH   2   7
ATOM      7  C   UNL d   1       1.177   2.356  -0.275  0.00  0.00     0.036 A 
ATOM      8  C   UNL d   1       2.437   2.436  -0.880  0.00  0.00     0.031 A 
ATOM      9  C   UNL d   1       3.062   3.669  -1.082  0.00  0.00     0.021 A 
ATOM     10  C   UNL d   1       2.419   4.839  -0.694  0.00  0.00     0.011 A 
ATOM     11  C   UNL d   1       1.149   4.784  -0.123  0.00  0.00     0.021 A 
ATOM     12 BR   UNL d   1       3.276   6.504  -0.942  0.00  0.00    -0.051 Br
ATOM     13  C   UNL d   1       0.528   3.545   0.080  0.00  0.00     0.031 A 
ENDBRANCH   2   7
BRANCH   3  14
ATOM     14  C   UNL d   1       0.569  -2.454   0.637  0.00  0.00     0.036 A 
ATOM     15  C   UNL d   1       1.852  -2.827   1.055  0.00  0.00     0.031 A 
ATOM     16  C   UNL d   1       2.155  -4.160   1.344  0.00  0.00     0.021 A 
ATOM     17  C   UNL d   1       1.167  -5.129   1.227  0.00  0.00     0.011 A 
ATOM     18  C   UNL d   1      -0.122  -4.774   0.835  0.00  0.00     0.021 A 
ATOM     19 BR   UNL d   1       1.578  -6.934   1.610  0.00  0.00    -0.051 Br
ATOM     20  C   UNL d   1      -0.422  -3.437   0.548  0.00  0.00     0.031 A 
ENDBRANCH   3  14
TORSDOF 2
