REMARK  5 active torsions:
REMARK  status: ('A' for Active; 'I' for Inactive)
REMARK    1  A    between atoms: C_11  and  C_3 
REMARK    2  A    between atoms: C_14  and  C_4 
REMARK    3  A    between atoms: C_13  and  C_10 
REMARK       I    between atoms: N_15  and  C_14 
REMARK    4  A    between atoms: N_16  and  N_15 
REMARK    5  A    between atoms: C_24  and  N_16 
ROOT
ATOM      1  C   UNL d   1       0.190  -0.764  -0.005  0.00  0.00     0.145 A 
ATOM      2  N   UNL d   1       0.300   0.639   0.044  0.00  0.00    -0.234 N 
ATOM      3  C   UNL d   1      -0.843   1.430   0.057  0.00  0.00     0.144 A 
ATOM      4  C   UNL d   1       1.480  -1.256  -0.095  0.00  0.00     0.096 A 
ATOM      5  N   UNL d   1      -1.020  -1.407   0.021  0.00  0.00    -0.336 N 
ATOM      6  HN  UNL d   1      -1.080  -2.425   0.012  1.00  0.00     0.167 HD
ATOM      7  C   UNL d   1      -2.056   0.840   0.057  0.00  0.00     0.071 A 
ATOM      8  N   UNL d   1       1.596   1.019   0.066  0.00  0.00    -0.302 N 
ATOM      9  HN  UNL d   1       1.962   1.968   0.138  1.00  0.00     0.186 HD
ATOM     10  C   UNL d   1      -2.097  -0.661   0.058  0.00  0.00     0.120 A 
ATOM     11  C   UNL d   1       2.293  -0.111  -0.027  0.00  0.00     0.128 A 
ENDROOT
BRANCH   4  12
ATOM     12  C   UNL d   1       1.934  -2.626  -0.225  0.00  0.00     0.271 C 
ATOM     13  N   UNL d   1       0.936  -3.584  -0.259  0.00  0.00    -0.282 N 
ATOM     14  H   UNL d   1      -0.008  -3.341   0.038  0.00  0.00     0.184 HD
ATOM     15  O   UNL d   1       3.130  -2.910  -0.300  0.00  0.00    -0.266 OA
BRANCH  13  16
ATOM     16  N   UNL d   1       1.322  -4.925  -0.077  0.00  0.00    -0.203 NA
ATOM     17  H   UNL d   1       2.331  -5.035  -0.254  0.00  0.00     0.153 HD
BRANCH  16  18
ATOM     18  C   UNL d   1       0.609  -5.869  -0.858  0.00  0.00     0.027 A 
ATOM     19  C   UNL d   1      -0.247  -5.532  -1.913  0.00  0.00     0.025 A 
ATOM     20  C   UNL d   1      -0.906  -6.527  -2.644  0.00  0.00     0.002 A 
ATOM     21  C   UNL d   1      -0.719  -7.872  -2.329  0.00  0.00     0.000 A 
ATOM     22  C   UNL d   1       0.137  -8.223  -1.288  0.00  0.00     0.002 A 
ATOM     23  C   UNL d   1       0.801  -7.229  -0.566  0.00  0.00     0.025 A 
ENDBRANCH  16  18
ENDBRANCH  13  16
ENDBRANCH   4  12
BRANCH   3  24
ATOM     24  C   UNL d   1      -0.708   2.910   0.046  0.00  0.00     0.434 C 
ATOM     25  F   UNL d   1       0.543   3.411  -0.051  0.00  0.00    -0.165 F 
ATOM     26  F   UNL d   1      -1.410   3.435  -0.997  0.00  0.00    -0.165 F 
ATOM     27  F   UNL d   1      -1.259   3.446   1.168  0.00  0.00    -0.165 F 
ENDBRANCH   3  24
BRANCH  10  28
ATOM     28  C   UNL d   1      -3.485  -1.315   0.109  0.00  0.00     0.432 C 
ATOM     29  F   UNL d   1      -4.495  -0.401   0.105  0.00  0.00    -0.165 F 
ATOM     30  F   UNL d   1      -3.704  -2.133  -0.955  0.00  0.00    -0.165 F 
ATOM     31  F   UNL d   1      -3.653  -2.067   1.228  0.00  0.00    -0.165 F 
ENDBRANCH  10  28
TORSDOF 5
