REMARK  6 active torsions:
REMARK  status: ('A' for Active; 'I' for Inactive)
REMARK    1  A    between atoms: C_9  and  C_3 
REMARK    2  A    between atoms: C_8  and  C_4 
REMARK    3  A    between atoms: C_7  and  O_14 
REMARK       I    between atoms: N_12  and  C_7 
REMARK    4  A    between atoms: O_14  and  N_10 
REMARK    5  A    between atoms: C_18  and  N_12 
REMARK    6  A    between atoms: C_17  and  C_19 
ROOT
ATOM      1  C   UNL d   1      -0.069  -2.620  -0.337  0.00  0.00    -0.002 A 
ATOM      2  C   UNL d   1       0.656  -3.477   0.515  0.00  0.00     0.015 A 
ATOM      3  C   UNL d   1      -0.966  -3.211  -1.244  0.00  0.00     0.015 A 
ATOM      4  C   UNL d   1      -0.446  -5.422  -0.411  0.00  0.00    -0.019 A 
ATOM      5  C   UNL d   1       0.473  -4.867   0.480  0.00  0.00     0.014 A 
ATOM      6  C   UNL d   1      -1.157  -4.597  -1.281  0.00  0.00     0.014 A 
ENDROOT
BRANCH   4   7
ATOM      7  C   UNL d   1      -0.659  -6.882  -0.422  0.00  0.00     0.126 C 
ATOM      8  N   UNL d   1      -1.576  -7.451  -1.147  0.00  0.00    -0.267 N 
ATOM      9  HN  UNL d   1      -2.241  -6.981  -1.761  1.00  0.00     0.194 HD
BRANCH   8  10
ATOM     10  O   UNL d   1      -1.478  -8.846  -0.926  0.00  0.00    -0.181 OA
BRANCH  10  11
ATOM     11  C   UNL d   1      -2.398  -9.591  -1.646  0.00  0.00     0.387 C 
ATOM     12  N   UNL d   1      -3.320  -8.842  -2.342  0.00  0.00    -0.301 N 
ATOM     13  H   UNL d   1      -3.173  -7.847  -2.214  0.00  0.00     0.171 HD
ATOM     14  O   UNL d   1      -2.338 -10.817  -1.606  0.00  0.00    -0.236 OA
BRANCH  12  15
ATOM     15  C   UNL d   1      -4.358  -9.299  -3.176  0.00  0.00     0.037 A 
ATOM     16  C   UNL d   1      -4.607 -10.652  -3.429  0.00  0.00     0.031 A 
ATOM     17  C   UNL d   1      -5.633 -11.046  -4.297  0.00  0.00     0.026 A 
ATOM     18  C   UNL d   1      -6.422 -10.084  -4.917  0.00  0.00     0.034 A 
ATOM     19  C   UNL d   1      -6.202  -8.732  -4.663  0.00  0.00     0.026 A 
ATOM     20 CL   UNL d   1      -7.666 -10.566  -6.002  0.00  0.00    -0.084 Cl
ATOM     21  C   UNL d   1      -5.174  -8.342  -3.794  0.00  0.00     0.031 A 
ENDBRANCH  12  15
ENDBRANCH  10  11
ENDBRANCH   8  10
ENDBRANCH   4   7
BRANCH   1  22
ATOM     22  C   UNL d   1       0.135  -1.158  -0.234  0.00  0.00     0.084 A 
ATOM     23  N   UNL d   1       1.020  -0.589   0.563  0.00  0.00    -0.352 N 
ATOM     24  C   UNL d   1       0.977   0.798   0.465  0.00  0.00     0.024 A 
ATOM     25  HN  UNL d   1       1.656  -1.101   1.174  1.00  0.00     0.166 HD
ATOM     26  C   UNL d   1       0.027   1.265  -0.425  0.00  0.00     0.077 A 
ATOM     27  S   UNL d   1      -0.806  -0.037  -1.147  0.00  0.00    -0.081 SA
BRANCH  24  28
ATOM     28  C   UNL d   1       1.936   1.643   1.292  0.00  0.00    -0.008 C 
ATOM     29  C   UNL d   1       2.856   0.759   2.160  0.00  0.00     0.021 C 
ATOM     30  C   UNL d   1       2.825   2.492   0.362  0.00  0.00     0.021 C 
ATOM     31  C   UNL d   1       1.153   2.583   2.231  0.00  0.00     0.021 C 
ENDBRANCH  24  28
ENDBRANCH   1  22
TORSDOF 6
