REMARK  2 active torsions:
REMARK  status: ('A' for Active; 'I' for Inactive)
REMARK    1  A    between atoms: C_8  and  N_1 
REMARK    2  A    between atoms: C_11  and  C_4 
ROOT
ATOM      1  C   UNL d   1      -0.517  -2.542   0.029  0.00  0.00     0.079 A 
ATOM      2  C   UNL d   1       0.349  -3.404   0.740  0.00  0.00     0.075 A 
ATOM      3  C   UNL d   1       1.368  -2.944   1.644  0.00  0.00     0.102 C 
ATOM      4  N   UNL d   1       2.177  -2.628   2.417  0.00  0.00    -0.191 NA
ATOM      5  C   UNL d   1      -1.542  -3.097  -0.753  0.00  0.00     0.035 A 
ATOM      6  C   UNL d   1       0.175  -4.795   0.649  0.00  0.00     0.048 A 
ATOM      7  C   UNL d   1      -0.837  -5.327  -0.142  0.00  0.00     0.035 A 
ATOM      8  C   UNL d   1      -1.696  -4.485  -0.840  0.00  0.00     0.026 A 
ATOM      9 CL   UNL d   1      -1.022  -7.032  -0.261  0.00  0.00    -0.084 Cl
ENDROOT
BRANCH   1  10
ATOM     10  N   UNL d   1      -0.309  -1.133   0.043  0.00  0.00    -0.243 N 
ATOM     11  N   UNL d   1       0.952  -0.653   0.117  0.00  0.00    -0.235 N 
ATOM     12  N   UNL d   1       0.920   0.662   0.056  0.00  0.00    -0.280 N 
ATOM     13  HN  UNL d   1       1.795  -1.220   0.205  1.00  0.00     0.209 HD
ATOM     14  C   UNL d   1      -0.383   1.058  -0.035  0.00  0.00     0.119 A 
ATOM     15  HN  UNL d   1       1.731   1.280   0.073  1.00  0.00     0.188 HD
ATOM     16  C   UNL d   1      -1.200  -0.069  -0.062  0.00  0.00     0.064 A 
ATOM     17  C   UNL d   1      -2.680  -0.189  -0.053  0.00  0.00     0.073 C 
BRANCH  14  18
ATOM     18  C   UNL d   1      -0.754   2.471  -0.054  0.00  0.00     0.175 C 
ATOM     19  O   UNL d   1      -1.929   2.837  -0.110  0.00  0.00    -0.291 OA
ATOM     20  C   UNL d   1       0.346   3.506   0.005  0.00  0.00     0.098 C 
ENDBRANCH  14  18
ENDBRANCH   1  10
TORSDOF 2
