REMARK  4 active torsions:
REMARK  status: ('A' for Active; 'I' for Inactive)
REMARK    1  A    between atoms: C_2  and  C_4 
REMARK    2  A    between atoms: C_3  and  C_2 
REMARK       I    between atoms: N_7  and  C_3 
REMARK    3  A    between atoms: C_10  and  N_7 
REMARK    4  A    between atoms: O_16  and  C_11 
ROOT
ATOM      1  C   UNL d   1       2.391  -2.298   0.563  0.00  0.00     0.224 C 
ATOM      2  N   UNL d   1       2.823  -1.604  -0.553  0.00  0.00    -0.327 N 
ATOM      3  O   UNL d   1       3.117  -2.880   1.367  0.00  0.00    -0.273 OA
ATOM      4  H   UNL d   1       2.183  -0.903  -0.929  0.00  0.00     0.169 HD
ENDROOT
BRANCH   1   5
ATOM      5  C   UNL d   1       0.891  -2.292   0.763  0.00  0.00     0.148 C 
BRANCH   5   6
ATOM      6  C   UNL d   1       0.360  -1.152   1.633  0.00  0.00     0.320 C 
ATOM      7  C   UNL d   1       0.551   0.221   0.963  0.00  0.00     0.251 C 
ATOM      8  N   UNL d   1       0.276   1.323   1.746  0.00  0.00    -0.358 N 
ATOM      9  O   UNL d   1       0.836   0.361  -0.225  0.00  0.00    -0.271 OA
ATOM     10  C   UNL d   1       0.386   1.285   3.191  0.00  0.00     0.152 C 
ATOM     11  H   UNL d   1       0.412   2.208   1.273  0.00  0.00     0.162 HD
ATOM     12  C   UNL d   1       0.202  -0.112   3.798  0.00  0.00     0.290 C 
ATOM     13  N   UNL d   1       0.876  -1.162   3.022  0.00  0.00     0.099 N 
ATOM     14  H   UNL d   1       1.886  -0.998   3.008  0.00  0.00     0.317 HD
ENDBRANCH   5   6
ENDBRANCH   1   5
BRANCH   2  15
ATOM     15  C   UNL d   1       4.148  -1.589  -1.043  0.00  0.00     0.034 A 
ATOM     16  C   UNL d   1       5.093  -2.559  -0.698  0.00  0.00     0.032 A 
ATOM     17  C   UNL d   1       6.420  -2.451  -1.123  0.00  0.00     0.039 A 
ATOM     18  C   UNL d   1       6.816  -1.366  -1.899  0.00  0.00     0.068 A 
ATOM     19  C   UNL d   1       5.858  -0.452  -2.337  0.00  0.00     0.039 A 
ATOM     20  C   UNL d   1       4.526  -0.564  -1.915  0.00  0.00     0.032 A 
BRANCH  18  21
ATOM     21  O   UNL d   1       8.106  -1.140  -2.298  0.00  0.00    -0.356 OA
ATOM     22  C   UNL d   1       9.077  -1.454  -1.299  0.00  0.00     0.210 C 
ENDBRANCH  18  21
ENDBRANCH   2  15
TORSDOF 4
