REMARK  4 active torsions:
REMARK  status: ('A' for Active; 'I' for Inactive)
REMARK    1  A    between atoms: C_2  and  S_1 
REMARK    2  A    between atoms: N_9  and  S_1 
REMARK    3  A    between atoms: C_5  and  C_4 
REMARK    4  A    between atoms: O_13  and  C_5 
ROOT
ATOM      1  C   UNL d   1       0.396   1.601   0.135  0.00  0.00     0.097 A 
ATOM      2  C   UNL d   1      -0.981   1.835   0.308  0.00  0.00     0.044 A 
ATOM      3  C   UNL d   1      -1.464   3.148   0.360  0.00  0.00     0.039 A 
ATOM      4  C   UNL d   1       1.291   2.674   0.046  0.00  0.00     0.057 A 
ATOM      5  C   UNL d   1      -0.567   4.219   0.274  0.00  0.00     0.020 A 
ATOM      6  C   UNL d   1       0.803   3.982   0.122  0.00  0.00     0.026 A 
ATOM      7 CL   UNL d   1       3.000   2.498  -0.128  0.00  0.00    -0.083 Cl
ENDROOT
BRANCH   1   8
ATOM      8  S   UNL d   1       0.953  -0.061  -0.058  0.00  0.00     0.241 S 
ATOM      9  O   UNL d   1       1.744  -0.154  -1.263  0.00  0.00    -0.206 OA
ATOM     10  O   UNL d   1      -0.169  -0.948   0.173  0.00  0.00    -0.206 OA
BRANCH   8  11
ATOM     11  N   UNL d   1       1.978  -0.290   1.244  0.00  0.00    -0.225 NA
ATOM     12  H   UNL d   1       2.954  -0.172   0.958  0.00  0.00     0.136 HD
ATOM     13  H   UNL d   1       1.791  -1.195   1.678  0.00  0.00     0.136 HD
ENDBRANCH   8  11
ENDBRANCH   1   8
BRANCH   3  14
ATOM     14  C   UNL d   1      -2.904   3.468   0.541  0.00  0.00     0.176 C 
ATOM     15  O   UNL d   1      -3.280   4.495   1.079  0.00  0.00    -0.646 OA
BRANCH  14  16
ATOM     16  O   UNL d   1      -3.750   2.557   0.022  0.00  0.00    -0.773 OA
ATOM     17  H   UNL d   1      -3.356   1.863  -0.536  0.00  0.00     0.167 HD
ENDBRANCH  14  16
ENDBRANCH   3  14
TORSDOF 4
