REMARK  3 active torsions:
REMARK  status: ('A' for Active; 'I' for Inactive)
REMARK    1  A    between atoms: O_2  and  C_1 
REMARK    2  A    between atoms: C_3  and  O_2 
REMARK    3  A    between atoms: N_11  and  C_7 
ROOT
ATOM      1  C   UNL d   1       0.405  -2.105  -1.456  0.00  0.00     0.169 A 
ATOM      2  N   UNL d   1       1.213  -1.454  -2.329  0.00  0.00    -0.345 N 
ATOM      3  HN  UNL d   1       2.147  -1.141  -2.063  1.00  0.00     0.167 HD
ATOM      4  C   UNL d   1      -0.894  -2.546  -1.752  0.00  0.00     0.058 A 
ATOM      5  C   UNL d   1       0.723  -1.240  -3.567  0.00  0.00     0.090 A 
ATOM      6  C   UNL d   1      -1.370  -2.260  -3.033  0.00  0.00     0.029 A 
ATOM      7  C   UNL d   1      -0.546  -1.627  -3.962  0.00  0.00     0.019 A 
ENDROOT
BRANCH   1   8
ATOM      8  O   UNL d   1       0.890  -2.401  -0.180  0.00  0.00    -0.291 OA
BRANCH   8   9
ATOM      9  C   UNL d   1       2.246  -2.633  -0.056  0.00  0.00     0.084 A 
ATOM     10  C   UNL d   1       2.905  -2.147   1.084  0.00  0.00    -0.026 A 
ATOM     11  C   UNL d   1       4.294  -2.337   1.195  0.00  0.00     0.033 A 
ATOM     12  C   UNL d   1       2.193  -1.390   2.168  0.00  0.00     0.051 C 
ATOM     13  C   UNL d   1       4.997  -3.035   0.211  0.00  0.00     0.034 A 
ATOM     14  C   UNL d   1       4.329  -3.578  -0.879  0.00  0.00     0.026 A 
ATOM     15 CL   UNL d   1       6.700  -3.228   0.350  0.00  0.00    -0.084 Cl
ATOM     16  C   UNL d   1       2.952  -3.393  -1.003  0.00  0.00     0.039 A 
ENDBRANCH   8   9
ENDBRANCH   1   8
BRANCH   4  17
ATOM     17  N   UNL d   1      -1.771  -3.055  -0.780  0.00  0.00    -0.299 NA
ATOM     18  H   UNL d   1      -1.283  -3.444   0.024  0.00  0.00     0.124 HD
ATOM     19  H   UNL d   1      -2.493  -3.667  -1.143  0.00  0.00     0.124 HD
ENDBRANCH   4  17
TORSDOF 3
