REMARK  3 active torsions:
REMARK  status: ('A' for Active; 'I' for Inactive)
REMARK    1  A    between atoms: O_4  and  C_1 
REMARK    2  A    between atoms: C_3  and  C_2 
REMARK       I    between atoms: N_8  and  C_3 
REMARK    3  A    between atoms: C_9  and  O_4 
ROOT
ATOM      1  C   UNL d   1      -0.427   1.249   0.140  0.00  0.00     0.163 A 
ATOM      2  C   UNL d   1      -0.758  -0.020  -0.331  0.00  0.00     0.083 A 
ATOM      3  N   UNL d   1       0.763   1.539   0.736  0.00  0.00    -0.346 N 
ATOM      4  HN  UNL d   1       0.952   2.468   1.113  1.00  0.00     0.167 HD
ATOM      5  C   UNL d   1       0.229  -1.014  -0.222  0.00  0.00     0.023 A 
ATOM      6  C   UNL d   1       1.683   0.556   0.811  0.00  0.00     0.090 A 
ATOM      7  C   UNL d   1       1.467  -0.724   0.344  0.00  0.00     0.018 A 
ENDROOT
BRANCH   1   8
ATOM      8  O   UNL d   1      -1.341   2.287   0.036  0.00  0.00    -0.293 OA
BRANCH   8   9
ATOM      9  C   UNL d   1      -0.851   3.540  -0.270  0.00  0.00     0.077 A 
ATOM     10  C   UNL d   1       0.213   3.757  -1.151  0.00  0.00     0.038 A 
ATOM     11  C   UNL d   1       0.624   5.056  -1.452  0.00  0.00     0.009 A 
ATOM     12  C   UNL d   1      -0.044   6.157  -0.906  0.00  0.00    -0.062 A 
ATOM     13  C   UNL d   1      -1.117   5.936  -0.033  0.00  0.00     0.009 A 
ATOM     14  C   UNL d   1       0.394   7.543  -1.273  0.00  0.00     0.048 C 
ATOM     15  C   UNL d   1      -1.522   4.634   0.279  0.00  0.00     0.038 A 
ENDBRANCH   8   9
ENDBRANCH   1   8
BRANCH   2  16
ATOM     16  C   UNL d   1      -2.045  -0.411  -0.963  0.00  0.00     0.253 C 
ATOM     17  O   UNL d   1      -2.232  -1.560  -1.354  0.00  0.00    -0.268 OA
ATOM     18  N   UNL d   1      -3.032   0.517  -1.110  0.00  0.00    -0.366 N 
ATOM     19  H   UNL d   1      -2.942   1.485  -0.825  0.00  0.00     0.159 HD
ATOM     20  H   UNL d   1      -3.892   0.220  -1.552  0.00  0.00     0.159 HD
ENDBRANCH   2  16
TORSDOF 3
