REMARK  7 active torsions:
REMARK  status: ('A' for Active; 'I' for Inactive)
REMARK    1  A    between atoms: C_5  and  C_1 
REMARK    2  A    between atoms: C_2  and  C_9 
REMARK    3  A    between atoms: C_3  and  C_10 
REMARK    4  A    between atoms: C_11  and  C_4 
REMARK    5  A    between atoms: C_7  and  C_5 
REMARK    6  A    between atoms: C_10  and  O_13 
REMARK    7  A    between atoms: O_13  and  C_16 
ROOT
ATOM      1  C   UNL d   1      -0.846   0.324  -1.435  0.00  0.00     0.096 C 
ATOM      2  C   UNL d   1       0.311   0.858  -0.984  0.00  0.00     0.041 C 
ATOM      3  C   UNL d   1      -1.444  -0.736  -0.687  0.00  0.00     0.103 C 
ATOM      4  N   UNL d   1      -1.950  -1.561  -0.051  0.00  0.00    -0.191 NA
ENDROOT
BRANCH   1   5
ATOM      5  C   UNL d   1      -1.501   0.795  -2.697  0.00  0.00     0.202 C 
ATOM      6  O   UNL d   1      -0.884   1.380  -3.583  0.00  0.00    -0.286 OA
BRANCH   5   7
ATOM      7  C   UNL d   1      -2.936   0.504  -2.964  0.00  0.00     0.016 A 
ATOM      8  C   UNL d   1      -3.950   0.701  -2.017  0.00  0.00     0.031 A 
ATOM      9  C   UNL d   1      -5.300   0.501  -2.373  0.00  0.00     0.048 A 
ATOM     10  C   UNL d   1      -5.612   0.109  -3.686  0.00  0.00     0.016 A 
ATOM     11  C   UNL d   1      -4.605  -0.081  -4.629  0.00  0.00     0.002 A 
ATOM     12  C   UNL d   1      -3.274   0.121  -4.270  0.00  0.00     0.015 A 
BRANCH   9  13
ATOM     13  C   UNL d   1      -6.423   0.727  -1.387  0.00  0.00     0.417 C 
ATOM     14  F   UNL d   1      -5.994   1.090  -0.147  0.00  0.00    -0.166 F 
ATOM     15  F   UNL d   1      -7.272   1.713  -1.790  0.00  0.00    -0.166 F 
ATOM     16  F   UNL d   1      -7.195  -0.380  -1.211  0.00  0.00    -0.166 F 
ENDBRANCH   9  13
ENDBRANCH   5   7
ENDBRANCH   1   5
BRANCH   2  17
ATOM     17  C   UNL d   1       1.021   2.037  -1.510  0.00  0.00    -0.001 A 
ATOM     18  C   UNL d   1       2.063   1.975  -2.459  0.00  0.00     0.079 A 
ATOM     19  C   UNL d   1       2.671   3.178  -2.860  0.00  0.00     0.037 A 
ATOM     20  C   UNL d   1       2.273   4.408  -2.330  0.00  0.00     0.003 A 
ATOM     21  C   UNL d   1       1.259   4.461  -1.386  0.00  0.00     0.001 A 
ATOM     22  C   UNL d   1       0.636   3.283  -0.979  0.00  0.00     0.014 A 
BRANCH  18  23
ATOM     23  O   UNL d   1       2.420   0.732  -2.946  0.00  0.00    -0.346 OA
BRANCH  23  24
ATOM     24  C   UNL d   1       3.614   0.698  -3.736  0.00  0.00     0.217 C 
BRANCH  24  25
ATOM     25  C   UNL d   1       3.849  -0.648  -4.386  0.00  0.00     0.009 A 
ATOM     26  C   UNL d   1       3.289  -0.946  -5.644  0.00  0.00     0.044 A 
ATOM     27 CL   UNL d   1       2.208   0.138  -6.454  0.00  0.00    -0.084 Cl
ATOM     28  C   UNL d   1       3.610  -2.130  -6.320  0.00  0.00     0.024 A 
ATOM     29  C   UNL d   1       4.481  -3.050  -5.748  0.00  0.00     0.003 A 
ATOM     30  C   UNL d   1       5.014  -2.795  -4.488  0.00  0.00     0.024 A 
ATOM     31  C   UNL d   1       4.697  -1.610  -3.809  0.00  0.00     0.044 A 
ATOM     32 CL   UNL d   1       5.424  -1.385  -2.256  0.00  0.00    -0.084 Cl
ENDBRANCH  24  25
ENDBRANCH  23  24
ENDBRANCH  18  23
ENDBRANCH   2  17
TORSDOF 7
