REMARK  1 active torsions:
REMARK  status: ('A' for Active; 'I' for Inactive)
REMARK    1  A    between atoms: C_13  and  N_4 
ROOT
ATOM      1  C   UNL d   1      -0.336   0.567   0.082  0.00  0.00     0.139 A 
ATOM      2  C   UNL d   1       0.685   1.599   0.068  0.00  0.00     0.296 A 
ATOM      3  C   UNL d   1      -0.018  -0.796   0.016  0.00  0.00     0.053 A 
ATOM      4  N   UNL d   1       1.998   1.062  -0.028  0.00  0.00    -0.219 N 
ATOM      5  N   UNL d   1       2.287  -0.318  -0.115  0.00  0.00    -0.294 N 
ATOM      6  HN  UNL d   1       3.257  -0.617  -0.213  1.00  0.00     0.187 HD
ATOM      7  N   UNL d   1      -1.658   0.765   0.156  0.00  0.00    -0.255 N 
ATOM      8  HN  UNL d   1      -2.149   1.658   0.215  1.00  0.00     0.195 HD
ATOM      9  C   UNL d   1       1.347  -1.217  -0.073  0.00  0.00     0.037 A 
ATOM     10  O   UNL d   1      -2.216  -0.503   0.134  0.00  0.00    -0.241 OA
ATOM     11  C   UNL d   1      -1.228  -1.443   0.052  0.00  0.00     0.087 A 
ATOM     12  O   UNL d   1       0.390   2.791   0.105  0.00  0.00    -0.264 OA
ATOM     13  C   UNL d   1       1.728  -2.669  -0.103  0.00  0.00     0.070 C 
ATOM     14  C   UNL d   1      -1.703  -2.838   0.019  0.00  0.00     0.080 C 
ENDROOT
BRANCH   4  15
ATOM     15  C   UNL d   1       3.176   1.884  -0.000  0.00  0.00     0.060 A 
ATOM     16  C   UNL d   1       3.183   3.159   0.584  0.00  0.00     0.031 A 
ATOM     17  C   UNL d   1       4.346   3.937   0.616  0.00  0.00     0.002 A 
ATOM     18  C   UNL d   1       5.523   3.460   0.050  0.00  0.00     0.000 A 
ATOM     19  C   UNL d   1       5.541   2.199  -0.537  0.00  0.00     0.002 A 
ATOM     20  C   UNL d   1       4.382   1.414  -0.549  0.00  0.00     0.031 A 
ENDBRANCH   4  15
TORSDOF 1
