REMARK  2 active torsions:
REMARK  status: ('A' for Active; 'I' for Inactive)
REMARK    1  A    between atoms: C_12  and  C_7 
REMARK    2  A    between atoms: O_18  and  C_14 
ROOT
ATOM      1  C   UNL d   1       3.281   1.256  -0.118  0.00  0.00     0.101 A 
ATOM      2  N   UNL d   1       2.603   3.538  -0.533  0.00  0.00    -0.299 N 
ATOM      3  N   UNL d   1       4.755   2.884  -1.113  0.00  0.00    -0.299 N 
ATOM      4  C   UNL d   1       2.237   2.314  -0.043  0.00  0.00     0.263 A 
ATOM      5  C   UNL d   1       4.619   1.593  -0.672  0.00  0.00     0.263 A 
ATOM      6  C   UNL d   1       3.810   3.861  -1.069  0.00  0.00     0.181 A 
ATOM      7  C   UNL d   1       2.929   0.036   0.331  0.00  0.00     0.034 C 
ATOM      8  S   UNL d   1       4.118   5.390  -1.644  0.00  0.00    -0.040 SA
ATOM      9  O   UNL d   1       5.560   0.812  -0.750  0.00  0.00    -0.267 OA
ATOM     10  O   UNL d   1       1.115   2.132   0.419  0.00  0.00    -0.267 OA
ATOM     11  H   UNL d   1       1.895   4.259  -0.487  0.00  0.00     0.171 HD
ATOM     12  H   UNL d   1       5.661   3.117  -1.498  0.00  0.00     0.171 HD
ENDROOT
BRANCH   7  13
ATOM     13  C   UNL d   1       3.760  -1.167   0.369  0.00  0.00    -0.034 A 
ATOM     14  C   UNL d   1       3.830  -2.018  -0.738  0.00  0.00     0.033 A 
ATOM     15  C   UNL d   1       4.582  -3.209  -0.699  0.00  0.00     0.045 A 
ATOM     16 BR   UNL d   1       4.517  -4.209  -2.316  0.00  0.00    -0.048 Br
ATOM     17  C   UNL d   1       5.279  -3.554   0.468  0.00  0.00     0.085 A 
ATOM     18  C   UNL d   1       5.210  -2.674   1.564  0.00  0.00     0.039 A 
ATOM     19  C   UNL d   1       4.461  -1.497   1.523  0.00  0.00     0.014 A 
BRANCH  17  20
ATOM     20  O   UNL d   1       6.056  -4.634   0.774  0.00  0.00    -0.355 OA
ATOM     21  C   UNL d   1       6.239  -5.695  -0.142  0.00  0.00     0.210 C 
ENDBRANCH  17  20
ENDBRANCH   7  13
TORSDOF 2
