REMARK  7 active torsions:
REMARK  status: ('A' for Active; 'I' for Inactive)
REMARK    1  A    between atoms: S_8  and  C_2 
REMARK    2  A    between atoms: S_9  and  C_3 
REMARK    3  A    between atoms: C_10  and  S_9 
REMARK    4  A    between atoms: C_11  and  C_10 
REMARK    5  A    between atoms: C_14  and  C_11 
REMARK    6  A    between atoms: C_12  and  C_13 
REMARK    7  A    between atoms: C_13  and  C_14 
ROOT
ATOM      1  S   UNL d   1       0.866  -1.165  -0.005  0.00  0.00    -0.038 SA
ATOM      2  C   UNL d   1      -0.179   0.188  -0.001  0.00  0.00     0.126 A 
ATOM      3  C   UNL d   1       2.180  -0.053  -0.005  0.00  0.00     0.129 A 
ATOM      4  N   UNL d   1       0.439   1.351  -0.000  0.00  0.00    -0.287 N 
ATOM      5  HN  UNL d   1      -0.041   2.251   0.002  1.00  0.00     0.188 HD
ATOM      6  N   UNL d   1       1.819   1.208  -0.003  0.00  0.00    -0.287 N 
ATOM      7  HN  UNL d   1       2.475   1.990  -0.003  1.00  0.00     0.188 HD
ENDROOT
BRANCH   3   8
ATOM      8  S   UNL d   1       3.848  -0.599  -0.010  0.00  0.00    -0.103 SA
BRANCH   8   9
ATOM      9  C   UNL d   1       4.793   0.960  -0.009  0.00  0.00     0.081 C 
BRANCH   9  10
ATOM     10  C   UNL d   1       6.295   0.631  -0.014  0.00  0.00     0.010 C 
BRANCH  10  11
ATOM     11  C   UNL d   1       7.176   1.889  -0.014  0.00  0.00     0.001 C 
BRANCH  11  12
ATOM     12  C   UNL d   1       8.671   1.534  -0.019  0.00  0.00    -0.000 C 
BRANCH  12  13
ATOM     13  C   UNL d   1       9.554   2.785  -0.021  0.00  0.00    -0.005 C 
ATOM     14  C   UNL d   1      11.036   2.435  -0.026  0.00  0.00     0.005 C 
ENDBRANCH  12  13
ENDBRANCH  11  12
ENDBRANCH  10  11
ENDBRANCH   9  10
ENDBRANCH   8   9
ENDBRANCH   3   8
BRANCH   2  15
ATOM     15  S   UNL d   1      -1.920   0.068   0.001  0.00  0.00    -0.117 SA
ATOM     16  H   UNL d   1      -2.014  -1.269  -0.000  0.00  0.00     0.109 HD
ENDBRANCH   2  15
TORSDOF 7
