REMARK  3 active torsions:
REMARK  status: ('A' for Active; 'I' for Inactive)
REMARK    1  A    between atoms: S_11  and  C_3 
REMARK    2  A    between atoms: C_9  and  C_4 
REMARK    3  A    between atoms: C_10  and  C_5 
ROOT
ATOM      1  N   UNL d   1      -0.717   1.208   0.026  0.00  0.00    -0.336 N 
ATOM      2  HN  UNL d   1      -1.205   2.103   0.045  1.00  0.00     0.168 HD
ATOM      3  C   UNL d   1      -1.395   0.039  -0.035  0.00  0.00     0.084 A 
ATOM      4  C   UNL d   1      -0.776  -1.202  -0.023  0.00  0.00     0.065 A 
ATOM      5  C   UNL d   1       0.623   1.145   0.062  0.00  0.00     0.116 A 
ATOM      6  N   UNL d   1       1.311  -0.008   0.072  0.00  0.00    -0.345 N 
ATOM      7  HN  UNL d   1       2.330  -0.009   0.114  1.00  0.00     0.167 HD
ATOM      8  C   UNL d   1       0.614  -1.170   0.026  0.00  0.00     0.023 A 
ATOM      9  C   UNL d   1       1.466  -2.408   0.022  0.00  0.00     0.069 C 
ENDROOT
BRANCH   5  10
ATOM     10  C   UNL d   1       1.383   2.411   0.025  0.00  0.00     0.008 A 
ATOM     11  C   UNL d   1       0.738   3.660   0.074  0.00  0.00     0.015 A 
ATOM     12  C   UNL d   1       1.450   4.863   0.001  0.00  0.00     0.001 A 
ATOM     13  C   UNL d   1       2.840   4.840  -0.107  0.00  0.00     0.000 A 
ATOM     14  C   UNL d   1       3.508   3.621  -0.150  0.00  0.00     0.001 A 
ATOM     15  C   UNL d   1       2.788   2.424  -0.080  0.00  0.00     0.015 A 
ENDBRANCH   5  10
BRANCH   3  16
ATOM     16  S   UNL d   1      -3.144   0.309  -0.224  0.00  0.00    -0.124 SA
ATOM     17  H   UNL d   1      -3.049   1.639  -0.086  0.00  0.00     0.108 HD
ENDBRANCH   3  16
BRANCH   4  18
ATOM     18  C   UNL d   1      -1.494  -2.495  -0.125  0.00  0.00     0.160 C 
ATOM     19  O   UNL d   1      -1.070  -3.354  -0.895  0.00  0.00    -0.293 OA
ATOM     20  C   UNL d   1      -2.698  -2.772   0.738  0.00  0.00     0.097 C 
ENDBRANCH   4  18
TORSDOF 3
