REMARK  3 active torsions:
REMARK  status: ('A' for Active; 'I' for Inactive)
REMARK    1  A    between atoms: C_9  and  C_5 
REMARK    2  A    between atoms: S_8  and  C_9 
REMARK    3  A    between atoms: C_10  and  S_8 
ROOT
ATOM      1  C   UNL d   1      -2.731   1.530   0.051  0.00  0.00     0.134 C 
ENDROOT
BRANCH   1   2
ATOM      2  S   UNL d   1      -2.337   3.304   0.013  0.00  0.00    -0.124 SA
BRANCH   2   3
ATOM      3  C   UNL d   1      -3.938   4.102   0.085  0.00  0.00     0.001 A 
ATOM      4  C   UNL d   1      -5.170   3.439   0.126  0.00  0.00     0.020 A 
ATOM      5  C   UNL d   1      -6.370   4.163   0.175  0.00  0.00     0.025 A 
ATOM      6  C   UNL d   1      -6.344   5.556   0.184  0.00  0.00     0.034 A 
ATOM      7  C   UNL d   1      -5.130   6.232   0.144  0.00  0.00     0.025 A 
ATOM      8 CL   UNL d   1      -7.817   6.440   0.242  0.00  0.00    -0.084 Cl
ATOM      9  C   UNL d   1      -3.935   5.506   0.095  0.00  0.00     0.020 A 
ENDBRANCH   2   3
ENDBRANCH   1   2
BRANCH   1  10
ATOM     10  C   UNL d   1      -1.469   0.727  -0.032  0.00  0.00     0.022 A 
ATOM     11  N   UNL d   1      -1.214  -0.112  -0.995  0.00  0.00    -0.305 N 
ATOM     12  N   UNL d   1      -0.004  -0.675  -0.692  0.00  0.00    -0.270 N 
ATOM     13  HN  UNL d   1      -1.797  -0.309  -1.808  1.00  0.00     0.186 HD
ATOM     14  C   UNL d   1       0.567  -0.231   0.488  0.00  0.00     0.241 A 
ATOM     15  H   UNL d   1       0.416  -1.371  -1.298  0.00  0.00     0.190 HD
ATOM     16  O   UNL d   1       1.622  -0.583   0.982  0.00  0.00    -0.271 OA
ATOM     17  C   UNL d   1      -0.403   0.773   1.030  0.00  0.00     0.159 A 
ENDBRANCH   1  10
TORSDOF 3
