REMARK  5 active torsions:
REMARK  status: ('A' for Active; 'I' for Inactive)
REMARK    1  A    between atoms: C_9  and  C_1 
REMARK    2  A    between atoms: C_12  and  C_7 
REMARK    3  A    between atoms: C_8  and  C_10 
REMARK    4  A    between atoms: C_11  and  O_13 
REMARK    5  A    between atoms: O_13  and  C_22 
ROOT
ATOM      1  C   UNL d   1      -0.133  -1.059   0.036  0.00  0.00     0.175 A 
ATOM      2  O   UNL d   1      -1.023  -0.012   0.069  0.00  0.00    -0.273 OA
ATOM      3  N   UNL d   1       1.121  -0.660   0.052  0.00  0.00    -0.277 N 
ATOM      4  HN  UNL d   1       1.951  -1.253   0.053  1.00  0.00     0.189 HD
ATOM      5  N   UNL d   1       1.091   0.718   0.067  0.00  0.00    -0.277 N 
ATOM      6  HN  UNL d   1       1.897   1.344   0.068  1.00  0.00     0.189 HD
ATOM      7  C   UNL d   1      -0.176   1.070   0.079  0.00  0.00     0.174 A 
ENDROOT
BRANCH   7   8
ATOM      8  C   UNL d   1      -0.761   2.404   0.137  0.00  0.00     0.017 A 
ATOM      9  C   UNL d   1      -2.138   2.629   0.265  0.00  0.00     0.018 A 
ATOM     10  C   UNL d   1      -2.650   3.932   0.378  0.00  0.00     0.038 A 
ATOM     11  C   UNL d   1      -1.786   5.025   0.390  0.00  0.00     0.078 A 
ATOM     12  C   UNL d   1      -0.421   4.814   0.202  0.00  0.00     0.038 A 
ATOM     13  C   UNL d   1       0.089   3.520   0.084  0.00  0.00     0.018 A 
BRANCH  11  14
ATOM     14  O   UNL d   1      -2.147   6.331   0.523  0.00  0.00    -0.255 OA
BRANCH  14  15
ATOM     15  C   UNL d   1      -3.245   6.655   1.363  0.00  0.00     0.530 C 
ATOM     16  F   UNL d   1      -3.648   5.640   2.157  0.00  0.00    -0.144 F 
ATOM     17  F   UNL d   1      -2.883   7.684   2.162  0.00  0.00    -0.144 F 
ATOM     18  F   UNL d   1      -4.286   7.056   0.605  0.00  0.00    -0.144 F 
ENDBRANCH  14  15
ENDBRANCH  11  14
ENDBRANCH   7   8
BRANCH   1  19
ATOM     19  C   UNL d   1      -0.686  -2.406   0.038  0.00  0.00     0.032 A 
ATOM     20  C   UNL d   1      -0.138  -3.457  -0.725  0.00  0.00     0.062 A 
ATOM     21  C   UNL d   1      -0.665  -4.760  -0.574  0.00  0.00     0.017 A 
ATOM     22  C   UNL d   1      -1.732  -5.014   0.287  0.00  0.00     0.001 A 
ATOM     23  C   UNL d   1      -2.298  -3.971   1.008  0.00  0.00     0.001 A 
ATOM     24  C   UNL d   1      -1.778  -2.681   0.886  0.00  0.00     0.017 A 
BRANCH  20  25
ATOM     25  C   UNL d   1       0.999  -3.289  -1.711  0.00  0.00     0.418 C 
ATOM     26  F   UNL d   1       1.218  -2.023  -2.149  0.00  0.00    -0.166 F 
ATOM     27  F   UNL d   1       2.182  -3.747  -1.220  0.00  0.00    -0.166 F 
ATOM     28  F   UNL d   1       0.777  -4.011  -2.852  0.00  0.00    -0.166 F 
ENDBRANCH  20  25
ENDBRANCH   1  19
TORSDOF 5
