REMARK  4 active torsions:
REMARK  status: ('A' for Active; 'I' for Inactive)
REMARK    1  A    between atoms: S_12  and  C_4 
REMARK    2  A    between atoms: C_9  and  C_16 
REMARK       I    between atoms: N_15  and  C_9 
REMARK    3  A    between atoms: C_16  and  S_12 
REMARK    4  A    between atoms: N_17  and  N_15 
ROOT
ATOM      1  C   UNL d   1       0.162  -0.775   0.032  0.00  0.00     0.065 A 
ATOM      2  S   UNL d   1      -1.407  -1.478   0.056  0.00  0.00    -0.096 SA
ATOM      3  C   UNL d   1       0.075   0.617  -0.010  0.00  0.00     0.059 A 
ATOM      4  C   UNL d   1       1.430  -1.356   0.048  0.00  0.00     0.090 A 
ATOM      5  C   UNL d   1      -1.280   1.093  -0.022  0.00  0.00    -0.027 A 
ATOM      6  C   UNL d   1      -2.176   0.043   0.010  0.00  0.00     0.059 A 
ATOM      7  N   UNL d   1       2.520  -0.565   0.010  0.00  0.00    -0.346 N 
ATOM      8  HN  UNL d   1       3.458  -0.964   0.004  1.00  0.00     0.167 HD
ATOM      9  N   UNL d   1       1.173   1.415  -0.035  0.00  0.00    -0.351 N 
ATOM     10  HN  UNL d   1       1.115   2.433  -0.063  1.00  0.00     0.166 HD
ATOM     11  C   UNL d   1       2.335   0.759  -0.019  0.00  0.00     0.181 A 
ATOM     12  C   UNL d   1      -1.680   2.530  -0.067  0.00  0.00     0.051 C 
ENDROOT
BRANCH   4  13
ATOM     13  S   UNL d   1       1.654  -3.117   0.076  0.00  0.00    -0.102 SA
BRANCH  13  14
ATOM     14  C   UNL d   1       3.317  -3.225   0.818  0.00  0.00     0.184 C 
BRANCH  14  15
ATOM     15  C   UNL d   1       3.313  -2.811   2.279  0.00  0.00     0.241 C 
ATOM     16  O   UNL d   1       4.114  -2.007   2.753  0.00  0.00    -0.271 OA
ATOM     17  N   UNL d   1       2.396  -3.506   3.067  0.00  0.00    -0.293 N 
ATOM     18  H   UNL d   1       1.625  -3.990   2.605  0.00  0.00     0.183 HD
BRANCH  17  19
ATOM     19  N   UNL d   1       2.262  -3.167   4.431  0.00  0.00    -0.247 NA
ATOM     20  H   UNL d   1       2.806  -2.303   4.578  0.00  0.00     0.143 HD
ATOM     21  H   UNL d   1       2.766  -3.867   4.980  0.00  0.00     0.143 HD
ENDBRANCH  17  19
ENDBRANCH  14  15
ENDBRANCH  13  14
ENDBRANCH   4  13
TORSDOF 4
