REMARK  5 active torsions:
REMARK  status: ('A' for Active; 'I' for Inactive)
REMARK    1  A    between atoms: C_4  and  C_1 
REMARK       I    between atoms: N_7  and  C_1 
REMARK    2  A    between atoms: O_8  and  C_5 
REMARK    3  A    between atoms: C_14  and  C_6 
REMARK    4  A    between atoms: C_10  and  N_7 
REMARK    5  A    between atoms: C_12  and  O_8 
ROOT
ATOM      1  N   UNL d   1      -3.201   0.218   2.250  0.00  0.00    -0.344 N 
ATOM      2  HN  UNL d   1      -3.697   0.648   3.031  1.00  0.00     0.167 HD
ATOM      3  C   UNL d   1      -3.865  -0.384   1.242  0.00  0.00     0.148 A 
ATOM      4  C   UNL d   1      -1.118  -0.307   1.126  0.00  0.00     0.050 A 
ATOM      5  C   UNL d   1      -1.850   0.225   2.182  0.00  0.00     0.119 A 
ATOM      6  C   UNL d   1      -3.235  -0.918   0.129  0.00  0.00     0.059 A 
ATOM      7  C   UNL d   1      -1.840  -0.874   0.071  0.00  0.00     0.035 A 
ENDROOT
BRANCH   4   8
ATOM      8  N   UNL d   1       0.291  -0.271   1.044  0.00  0.00    -0.322 N 
ATOM      9  C   UNL d   1       1.137   0.109   2.068  0.00  0.00     0.245 C 
ATOM     10  O   UNL d   1       0.824   0.309   3.232  0.00  0.00    -0.268 OA
ATOM     11  H   UNL d   1       0.699  -0.553   0.163  0.00  0.00     0.169 HD
BRANCH   9  12
ATOM     12  C   UNL d   1       2.543   0.262   1.611  0.00  0.00     0.075 C 
ATOM     13  C   UNL d   1       3.480   0.687   2.475  0.00  0.00     0.017 C 
BRANCH  13  14
ATOM     14  C   UNL d   1       4.886   0.911   2.110  0.00  0.00    -0.036 A 
ATOM     15  C   UNL d   1       5.263   1.349   0.834  0.00  0.00     0.011 A 
ATOM     16  C   UNL d   1       6.608   1.556   0.522  0.00  0.00     0.001 A 
ATOM     17  C   UNL d   1       7.588   1.346   1.487  0.00  0.00     0.000 A 
ATOM     18  C   UNL d   1       7.223   0.944   2.770  0.00  0.00     0.001 A 
ATOM     19  C   UNL d   1       5.878   0.734   3.083  0.00  0.00     0.011 A 
ENDBRANCH  13  14
ENDBRANCH   9  12
ENDBRANCH   4   8
BRANCH   3  20
ATOM     20  O   UNL d   1      -5.250  -0.470   1.298  0.00  0.00    -0.294 OA
BRANCH  20  21
ATOM     21  C   UNL d   1      -5.832  -0.490   2.548  0.00  0.00     0.078 A 
ATOM     22  C   UNL d   1      -7.032   0.211   2.701  0.00  0.00     0.040 A 
ATOM     23  C   UNL d   1      -7.684   0.210   3.936  0.00  0.00     0.045 A 
ATOM     24  C   UNL d   1      -7.137  -0.495   5.003  0.00  0.00     0.116 A 
ATOM     25  C   UNL d   1      -5.957  -1.213   4.858  0.00  0.00     0.045 A 
ATOM     26  F   UNL d   1      -7.761  -0.488   6.189  0.00  0.00    -0.206 F 
ATOM     27  C   UNL d   1      -5.312  -1.226   3.622  0.00  0.00     0.040 A 
ENDBRANCH  20  21
ENDBRANCH   3  20
TORSDOF 5
