REMARK  1 active torsions:
REMARK  status: ('A' for Active; 'I' for Inactive)
REMARK    1  A    between atoms: O_12  and  C_5 
ROOT
ATOM      1  C   UNL d   1       0.006  -0.750  -0.000  0.00  0.00     0.025 A 
ATOM      2  C   UNL d   1       0.048   0.663  -0.002  0.00  0.00     0.051 A 
ATOM      3  N   UNL d   1       1.219   1.337  -0.004  0.00  0.00    -0.359 N 
ATOM      4  HN  UNL d   1       1.221   2.357  -0.004  1.00  0.00     0.166 HD
ATOM      5  C   UNL d   1       1.247  -1.420  -0.001  0.00  0.00     0.080 A 
ATOM      6  C   UNL d   1      -1.165   1.369  -0.000  0.00  0.00    -0.034 A 
ATOM      7  C   UNL d   1       2.443  -0.720  -0.004  0.00  0.00     0.062 A 
ATOM      8  C   UNL d   1      -1.249  -1.408   0.001  0.00  0.00     0.023 A 
ATOM      9  C   UNL d   1       2.389   0.659  -0.006  0.00  0.00     0.008 A 
ATOM     10  C   UNL d   1      -2.400   0.693   0.002  0.00  0.00     0.015 A 
ATOM     11  C   UNL d   1      -2.451  -0.697   0.002  0.00  0.00    -0.060 A 
ATOM     12  C   UNL d   1      -1.203   2.876  -0.002  0.00  0.00     0.050 C 
ATOM     13  C   UNL d   1       3.647   1.475  -0.010  0.00  0.00     0.068 C 
ATOM     14  C   UNL d   1      -3.759  -1.431   0.003  0.00  0.00     0.048 C 
ENDROOT
BRANCH   5  15
ATOM     15  O   UNL d   1       1.387  -2.784   0.000  0.00  0.00    -0.360 OA
ATOM     16  H   UNL d   1       0.516  -3.206   0.001  0.00  0.00     0.217 HD
ENDBRANCH   5  15
TORSDOF 1
