REMARK  8 active torsions:
REMARK  status: ('A' for Active; 'I' for Inactive)
REMARK    1  A    between atoms: C_4  and  C_1 
REMARK    2  A    between atoms: C_2  and  C_7 
REMARK    3  A    between atoms: O_11  and  C_3 
REMARK    4  A    between atoms: O_25  and  C_4 
REMARK    5  A    between atoms: O_24  and  C_6 
REMARK    6  A    between atoms: N_8  and  C_21 
REMARK    7  A    between atoms: C_17  and  O_11 
REMARK    8  A    between atoms: C_31  and  O_25 
ROOT
ATOM      1  C   UNL d   1       1.622  -0.124   0.190  0.00  0.00     0.075 A 
ATOM      2  C   UNL d   1       0.790  -1.220  -0.063  0.00  0.00     0.092 A 
ATOM      3  C   UNL d   1       1.068   1.165   0.263  0.00  0.00     0.050 A 
ATOM      4  C   UNL d   1      -0.582  -1.031  -0.241  0.00  0.00     0.040 A 
ATOM      5  C   UNL d   1      -0.312   1.361   0.118  0.00  0.00     0.033 A 
ATOM      6  C   UNL d   1      -1.123   0.252  -0.167  0.00  0.00     0.032 A 
ENDROOT
BRANCH   5   7
ATOM      7  N   UNL d   1      -0.831   2.664   0.237  0.00  0.00    -0.365 N 
ATOM      8  C   UNL d   1      -1.908   2.828   0.944  0.00  0.00     0.102 C 
ATOM      9  HN  UNL d   1      -0.375   3.455  -0.218  1.00  0.00     0.165 HD
BRANCH   8  10
ATOM     10  C   UNL d   1      -2.550   4.152   1.110  0.00  0.00     0.016 A 
ATOM     11  C   UNL d   1      -3.813   4.252   1.703  0.00  0.00     0.099 A 
ATOM     12  C   UNL d   1      -4.410   5.509   1.856  0.00  0.00     0.069 A 
ATOM     13 CL   UNL d   1      -5.975   5.646   2.576  0.00  0.00    -0.081 Cl
ATOM     14  C   UNL d   1      -3.761   6.661   1.425  0.00  0.00     0.050 A 
ATOM     15  C   UNL d   1      -2.502   6.554   0.835  0.00  0.00     0.036 A 
ATOM     16  C   UNL d   1      -1.894   5.308   0.671  0.00  0.00     0.039 A 
ATOM     17 CL   UNL d   1      -1.690   7.976   0.309  0.00  0.00    -0.084 Cl
BRANCH  11  18
ATOM     18  O   UNL d   1      -4.464   3.118   2.121  0.00  0.00    -0.358 OA
ATOM     19  H   UNL d   1      -5.326   3.390   2.495  0.00  0.00     0.217 HD
ENDBRANCH  11  18
ENDBRANCH   8  10
ENDBRANCH   5   7
BRANCH   1  20
ATOM     20  C   UNL d   1       3.066  -0.325   0.452  0.00  0.00     0.296 C 
ATOM     21  O   UNL d   1       3.514  -1.202   1.171  0.00  0.00    -0.259 OA
BRANCH  20  22
ATOM     22  O   UNL d   1       3.784   0.611  -0.220  0.00  0.00    -0.318 OA
BRANCH  22  23
ATOM     23  C   UNL d   1       5.181   0.677   0.114  0.00  0.00     0.174 C 
ATOM     24  C   UNL d   1       6.007  -0.367  -0.618  0.00  0.00     0.034 C 
ENDBRANCH  22  23
ENDBRANCH  20  22
ENDBRANCH   1  20
BRANCH   2  25
ATOM     25  O   UNL d   1       1.254  -2.511  -0.036  0.00  0.00    -0.308 OA
BRANCH  25  26
ATOM     26  C   UNL d   1       1.650  -3.084  -1.220  0.00  0.00     0.093 A 
ATOM     27  C   UNL d   1       2.083  -2.401  -2.355  0.00  0.00     0.064 A 
ATOM     28  C   UNL d   1       2.528  -3.133  -3.453  0.00  0.00     0.052 A 
ATOM     29 CL   UNL d   1       3.105  -2.329  -4.857  0.00  0.00    -0.083 Cl
ATOM     30  C   UNL d   1       2.513  -4.519  -3.386  0.00  0.00     0.111 A 
ATOM     31  N   UNL d   1       2.086  -5.214  -2.305  0.00  0.00    -0.371 N 
ATOM     32  C   UNL d   1       1.677  -4.476  -1.245  0.00  0.00     0.124 A 
ATOM     33  HN  UNL d   1       2.073  -6.234  -2.290  1.00  0.00     0.164 HD
ENDBRANCH  25  26
ENDBRANCH   2  25
TORSDOF 8
