REMARK  10 active torsions:
REMARK  status: ('A' for Active; 'I' for Inactive)
REMARK    1  A    between atoms: C_2  and  C_1 
REMARK    2  A    between atoms: C_10  and  C_8 
REMARK    3  A    between atoms: C_11  and  C_10 
REMARK    4  A    between atoms: C_17  and  C_11 
REMARK    5  A    between atoms: C_12  and  C_13 
REMARK    6  A    between atoms: C_13  and  C_16 
REMARK    7  A    between atoms: C_14  and  C_15 
REMARK    8  A    between atoms: C_18  and  C_14 
REMARK    9  A    between atoms: C_15  and  C_17 
REMARK   10  A    between atoms: C_16  and  C_18 
ROOT
ATOM      1  C   UNL d   1      -0.224   4.692   3.971  0.00  0.00     0.038 C 
ENDROOT
BRANCH   1   2
ATOM      2  C   UNL d   1       0.674   3.860   3.096  0.00  0.00    -0.058 A 
ATOM      3  C   UNL d   1       1.446   4.477   2.103  0.00  0.00     0.008 A 
ATOM      4  C   UNL d   1       2.316   3.726   1.313  0.00  0.00     0.015 A 
ATOM      5  C   UNL d   1       2.420   2.348   1.513  0.00  0.00     0.009 A 
ATOM      6  C   UNL d   1       1.621   1.722   2.476  0.00  0.00     0.015 A 
ATOM      7  C   UNL d   1       0.752   2.475   3.267  0.00  0.00     0.008 A 
BRANCH   5   8
ATOM      8  C   UNL d   1       3.368   1.516   0.728  0.00  0.00     0.155 C 
ATOM      9  O   UNL d   1       3.127   0.322   0.550  0.00  0.00    -0.293 OA
ATOM     10  C   UNL d   1       4.614   2.155   0.174  0.00  0.00     0.096 C 
ENDBRANCH   5   8
ENDBRANCH   1   2
BRANCH   1  11
ATOM     11  C   UNL d   1      -1.607   4.908   3.352  0.00  0.00     0.005 C 
BRANCH  11  12
ATOM     12  C   UNL d   1      -2.489   5.827   4.202  0.00  0.00     0.000 C 
BRANCH  12  13
ATOM     13  C   UNL d   1      -1.899   7.231   4.333  0.00  0.00     0.000 C 
BRANCH  13  14
ATOM     14  C   UNL d   1      -2.776   8.151   5.173  0.00  0.00     0.000 C 
BRANCH  14  15
ATOM     15  C   UNL d   1      -2.108   9.519   5.305  0.00  0.00     0.000 C 
BRANCH  15  16
ATOM     16  C   UNL d   1      -2.949  10.462   6.159  0.00  0.00     0.000 C 
BRANCH  16  17
ATOM     17  C   UNL d   1      -2.282  11.830   6.278  0.00  0.00    -0.000 C 
BRANCH  17  18
ATOM     18  C   UNL d   1      -3.128  12.774   7.127  0.00  0.00    -0.005 C 
ATOM     19  C   UNL d   1      -2.477  14.141   7.249  0.00  0.00     0.005 C 
ENDBRANCH  17  18
ENDBRANCH  16  17
ENDBRANCH  15  16
ENDBRANCH  14  15
ENDBRANCH  13  14
ENDBRANCH  12  13
ENDBRANCH  11  12
ENDBRANCH   1  11
TORSDOF 10
