REMARK  4 active torsions:
REMARK  status: ('A' for Active; 'I' for Inactive)
REMARK    1  A    between atoms: N_2  and  C_1 
REMARK       I    between atoms: C_3  and  N_2 
REMARK    2  A    between atoms: C_7  and  C_3 
REMARK    3  A    between atoms: S_9  and  C_7 
REMARK    4  A    between atoms: C_12  and  S_9 
ROOT
ATOM      1  N   UNL d   1       2.530  -1.799   0.091  0.00  0.00    -0.319 N 
ATOM      2  C   UNL d   1       2.649  -3.197  -0.062  0.00  0.00     0.233 C 
ATOM      3  O   UNL d   1       1.699  -3.936  -0.336  0.00  0.00    -0.272 OA
ATOM      4  C   UNL d   1       3.707  -0.933   0.043  0.00  0.00     0.159 C 
ENDROOT
BRANCH   2   5
ATOM      5  C   UNL d   1       4.046  -3.810  -0.023  0.00  0.00     0.182 C 
BRANCH   5   6
ATOM      6  S   UNL d   1       4.684  -3.936   1.682  0.00  0.00    -0.121 SA
BRANCH   6   7
ATOM      7  C   UNL d   1       6.312  -4.601   1.365  0.00  0.00     0.001 A 
ATOM      8  C   UNL d   1       7.435  -3.950   1.892  0.00  0.00     0.020 A 
ATOM      9  C   UNL d   1       8.718  -4.474   1.694  0.00  0.00     0.025 A 
ATOM     10  C   UNL d   1       8.879  -5.656   0.976  0.00  0.00     0.034 A 
ATOM     11  C   UNL d   1       7.771  -6.316   0.452  0.00  0.00     0.025 A 
ATOM     12 CL   UNL d   1      10.453  -6.314   0.748  0.00  0.00    -0.084 Cl
ATOM     13  C   UNL d   1       6.490  -5.791   0.650  0.00  0.00     0.020 A 
ENDBRANCH   6   7
ENDBRANCH   5   6
ENDBRANCH   2   5
BRANCH   1  14
ATOM     14  C   UNL d   1       1.231  -1.172   0.067  0.00  0.00     0.075 A 
ATOM     15  C   UNL d   1       0.097  -1.766   0.656  0.00  0.00     0.146 A 
ATOM     16  C   UNL d   1      -1.159  -1.158   0.616  0.00  0.00     0.086 A 
ATOM     17  F   UNL d   1       0.200  -2.893   1.377  0.00  0.00    -0.204 F 
ATOM     18  C   UNL d   1      -1.294   0.076   0.003  0.00  0.00     0.119 A 
ATOM     19  C   UNL d   1      -0.197   0.712  -0.563  0.00  0.00     0.044 A 
ATOM     20  F   UNL d   1      -2.491   0.675  -0.030  0.00  0.00    -0.206 F 
ATOM     21  C   UNL d   1       1.058   0.090  -0.532  0.00  0.00     0.036 A 
ENDBRANCH   1  14
TORSDOF 4
