REMARK  18 active torsions:
REMARK  status: ('A' for Active; 'I' for Inactive)
REMARK    1  A    between atoms: C12_7  and  C1_1 
REMARK    2  A    between atoms: C7_6  and  O1_8 
REMARK       I    between atoms: N_32  and  C7_6 
REMARK    3  A    between atoms: O1_8  and  C12_7 
REMARK    4  A    between atoms: C_18  and  CA_20 
REMARK       I    between atoms: N_30  and  C_18 
REMARK       I    between atoms: N_19  and  C_49 
REMARK    5  A    between atoms: CA_20  and  N_19 
REMARK    6  A    between atoms: CB_24  and  CA_20 
REMARK    7  A    between atoms: CD_21  and  CG_25 
REMARK       I    between atoms: NE2_26  and  CD_21 
REMARK    8  A    between atoms: CG_25  and  CB_24 
REMARK    9  A    between atoms: CA_33  and  N_30 
REMARK   10  A    between atoms: C_31  and  CA_34 
REMARK       I    between atoms: N_50  and  C_31 
REMARK   11  A    between atoms: CA_34  and  N_32 
REMARK   12  A    between atoms: C_35  and  CA_33 
REMARK   13  A    between atoms: CB_38  and  CA_33 
REMARK   14  A    between atoms: CB_39  and  CA_34 
REMARK   15  A    between atoms: OXT_40  and  C_35 
REMARK   16  A    between atoms: CG_41  and  CB_38 
REMARK   17  A    between atoms: C_49  and  CA_52 
REMARK   18  A    between atoms: CA_52  and  N_50 
ROOT
ATOM      1  C   VAL d   1       1.815   4.699   2.503  0.00  0.00     0.241 C 
ATOM      2  O   VAL d   1       1.231   5.242   3.448  0.00  0.00    -0.271 OA
ATOM      3  N   GLY d   2       3.198   4.604   2.482  0.00  0.00    -0.351 N 
ATOM      4  H   GLY d   2       3.684   4.474   1.600  0.00  0.00     0.163 HD
ENDROOT
BRANCH   3   5
ATOM      5  CA  GLY d   2       3.942   5.118   3.628  0.00  0.00     0.225 C 
BRANCH   5   6
ATOM      6  C   GLY d   2       5.458   4.867   3.719  0.00  0.00     0.236 C 
ATOM      7  N   GLN d   3       5.989   3.967   2.833  0.00  0.00    -0.346 N 
ATOM      8  H   GLN d   3       5.334   3.385   2.329  0.00  0.00     0.163 HD
ATOM      9  O   GLY d   2       6.146   5.394   4.594  0.00  0.00    -0.272 OA
BRANCH   7  10
ATOM     10  CA  GLN d   3       7.426   3.643   2.774  0.00  0.00     0.177 C 
BRANCH  10  11
ATOM     11  C   GLN d   3       7.780   2.352   3.553  0.00  0.00     0.241 C 
ATOM     12  N   VAL d   1       7.111   2.198   4.746  0.00  0.00    -0.345 N 
ATOM     13  H   VAL d   1       6.762   3.050   5.179  0.00  0.00     0.163 HD
ATOM     14  O   GLN d   3       8.645   1.561   3.180  0.00  0.00    -0.271 OA
BRANCH  12  15
ATOM     15  CA  VAL d   1       7.325   1.025   5.596  0.00  0.00     0.182 C 
BRANCH  15  16
ATOM     16  C   VAL d   1       8.366   1.246   6.703  0.00  0.00     0.163 C 
ATOM     17  O   VAL d   1       8.596   0.485   7.631  0.00  0.00    -0.648 OA
BRANCH  16  18
ATOM     18  OXT VAL d   1       9.141   2.336   6.522  0.00  0.00    -0.775 OA
ATOM     19  HXT VAL d   1       9.848   2.243   7.194  0.00  0.00     0.167 HD
ENDBRANCH  16  18
ENDBRANCH  15  16
BRANCH  15  20
ATOM     20  CB  VAL d   1       5.983   0.531   6.161  0.00  0.00     0.040 C 
BRANCH  20  21
ATOM     21  CG  VAL d   1       4.967   0.119   5.066  0.00  0.00    -0.020 C 
ATOM     22  CD1 VAL d   1       5.502  -0.995   4.162  0.00  0.00     0.009 C 
ATOM     23  CD2 VAL d   1       3.646  -0.329   5.695  0.00  0.00     0.009 C 
ENDBRANCH  20  21
ENDBRANCH  15  20
ENDBRANCH  12  15
ENDBRANCH  10  11
BRANCH  10  24
ATOM     24  CB  GLN d   3       7.952   3.614   1.323  0.00  0.00     0.044 C 
BRANCH  24  25
ATOM     25  CG  GLN d   3       7.508   2.432   0.457  0.00  0.00     0.105 C 
BRANCH  25  26
ATOM     26  CD  GLN d   3       6.013   2.330   0.302  0.00  0.00     0.215 C 
ATOM     27  OE1 GLN d   3       5.266   3.304   0.211  0.00  0.00    -0.274 OA
ATOM     28  NE2 GLN d   3       5.546   1.051   0.351  0.00  0.00    -0.370 N 
ATOM     29 1HE2 GLN d   3       6.140   0.259   0.551  0.00  0.00     0.159 HD
ATOM     30 2HE2 GLN d   3       4.553   0.868   0.308  0.00  0.00     0.159 HD
ENDBRANCH  25  26
ENDBRANCH  24  25
ENDBRANCH  10  24
ENDBRANCH   7  10
ENDBRANCH   5   6
ENDBRANCH   3   5
BRANCH   1  31
ATOM     31  CA  VAL d   1       0.984   4.061   1.337  0.00  0.00     0.182 C 
BRANCH  31  32
ATOM     32  N   VAL d   1      -0.043   3.155   1.851  0.00  0.00    -0.323 N 
ATOM     33  C7  <1> d   1       0.160   2.245   2.843  0.00  0.00     0.361 C 
ATOM     34  O3  <1> d   1       1.230   2.010   3.381  0.00  0.00    -0.239 OA
ATOM     35  H   VAL d   1      -0.947   3.115   1.404  0.00  0.00     0.165 HD
BRANCH  33  36
ATOM     36  O1  <1> d   1      -1.023   1.655   3.144  0.00  0.00    -0.303 OA
BRANCH  36  37
ATOM     37  C12 <1> d   1      -1.017   0.704   4.229  0.00  0.00     0.194 C 
BRANCH  37  38
ATOM     38  C1  <1> d   1      -2.132   1.013   5.244  0.00  0.00     0.078 A 
ATOM     39  C4  <1> d   1      -2.050   0.047   6.425  0.00  0.00    -0.036 A 
ATOM     40  C3  <1> d   1      -3.202  -0.768   6.475  0.00  0.00    -0.018 A 
ATOM     41  C24 <1> d   1      -1.009  -0.120   7.327  0.00  0.00     0.009 A 
ATOM     42  C22 <1> d   1      -3.302  -1.786   7.409  0.00  0.00     0.013 A 
ATOM     43  C2  <1> d   1      -4.109  -0.363   5.422  0.00  0.00    -0.018 A 
ATOM     44  C31 <1> d   1      -2.240  -1.983   8.297  0.00  0.00     0.001 A 
ATOM     45  C33 <1> d   1      -1.108  -1.152   8.262  0.00  0.00     0.001 A 
ATOM     46  C5  <1> d   1      -3.520   0.693   4.692  0.00  0.00    -0.036 A 
ATOM     47  C21 <1> d   1      -5.356  -0.852   5.068  0.00  0.00     0.013 A 
ATOM     48  C23 <1> d   1      -4.177   1.284   3.623  0.00  0.00     0.009 A 
ATOM     49  C30 <1> d   1      -5.429   0.783   3.262  0.00  0.00     0.001 A 
ATOM     50  C32 <1> d   1      -6.012  -0.278   3.975  0.00  0.00     0.001 A 
ENDBRANCH  37  38
ENDBRANCH  36  37
ENDBRANCH  33  36
ENDBRANCH  31  32
BRANCH  31  51
ATOM     51  CB  VAL d   1       1.737   3.538   0.104  0.00  0.00     0.009 C 
ATOM     52  CG1 VAL d   1       2.503   2.253   0.366  0.00  0.00     0.012 C 
ATOM     53  CG2 VAL d   1       0.818   3.291  -1.100  0.00  0.00     0.012 C 
ENDBRANCH  31  51
ENDBRANCH   1  31
TORSDOF 18
