REMARK  5 active torsions:
REMARK  status: ('A' for Active; 'I' for Inactive)
REMARK    1  A    between atoms: C_6  and  C_3 
REMARK    2  A    between atoms: O_10  and  C_9 
REMARK    3  A    between atoms: C_12  and  O_10 
REMARK    4  A    between atoms: C_11  and  C_17 
REMARK    5  A    between atoms: C_18  and  C_12 
ROOT
ATOM      1  C   UNL d   1       1.286  -2.808  -0.332  0.00  0.00    -0.006 A 
ATOM      2  C   UNL d   1       1.666  -5.609  -0.299  0.00  0.00     0.091 A 
ATOM      3  C   UNL d   1       2.440  -4.782   0.538  0.00  0.00    -0.027 A 
ATOM      4  C   UNL d   1       0.786  -5.043  -1.235  0.00  0.00    -0.027 A 
ATOM      5  C   UNL d   1       2.213  -3.397   0.537  0.00  0.00     0.023 A 
ATOM      6  C   UNL d   1       0.627  -3.635  -1.251  0.00  0.00     0.023 A 
ATOM      7  C   UNL d   1       0.016  -5.835  -2.252  0.00  0.00     0.051 C 
ATOM      8  C   UNL d   1       3.518  -5.333   1.426  0.00  0.00     0.051 C 
ENDROOT
BRANCH   1   9
ATOM      9  C   UNL d   1       1.143  -1.308  -0.277  0.00  0.00     0.070 A 
ATOM     10  N   UNL d   1       2.232  -0.655   0.020  0.00  0.00    -0.294 N 
ATOM     11  N   UNL d   1       2.221   0.708   0.106  0.00  0.00    -0.261 N 
ATOM     12  HN  UNL d   1       3.099  -1.166   0.189  1.00  0.00     0.187 HD
ATOM     13  C   UNL d   1       1.118   1.503  -0.154  0.00  0.00     0.272 A 
ATOM     14  C   UNL d   1       3.461   1.346   0.506  0.00  0.00     0.181 C 
ATOM     15  C   UNL d   1      -0.127   0.792  -0.494  0.00  0.00     0.046 A 
ATOM     16  O   UNL d   1       1.122   2.728  -0.091  0.00  0.00    -0.266 OA
ATOM     17  C   UNL d   1      -1.290   1.540  -0.745  0.00  0.00     0.018 A 
ATOM     18  C   UNL d   1      -0.152  -0.604  -0.509  0.00  0.00     0.009 A 
ATOM     19  C   UNL d   1      -2.493   0.892  -1.002  0.00  0.00     0.001 A 
ATOM     20  C   UNL d   1      -2.541  -0.498  -0.967  0.00  0.00     0.001 A 
ATOM     21  C   UNL d   1      -1.383  -1.240  -0.699  0.00  0.00     0.015 A 
ENDBRANCH   1   9
BRANCH   2  22
ATOM     22  O   UNL d   1       1.945  -6.997  -0.210  0.00  0.00    -0.274 OA
BRANCH  22  23
ATOM     23  C   UNL d   1       0.954  -7.907   0.143  0.00  0.00     0.298 C 
ATOM     24  O   UNL d   1      -0.254  -7.755   0.055  0.00  0.00    -0.259 OA
BRANCH  23  25
ATOM     25  C   UNL d   1       1.573  -9.138   0.725  0.00  0.00     0.040 A 
ATOM     26  C   UNL d   1       0.829 -10.325   0.779  0.00  0.00     0.018 A 
ATOM     27  C   UNL d   1       1.301 -11.429   1.505  0.00  0.00     0.017 A 
ATOM     28  C   UNL d   1       2.518 -11.357   2.200  0.00  0.00     0.048 A 
ATOM     29  C   UNL d   1       3.291 -10.194   2.084  0.00  0.00     0.017 A 
ATOM     30  C   UNL d   1       2.826  -9.097   1.351  0.00  0.00     0.018 A 
BRANCH  28  31
ATOM     31  C   UNL d   1       2.982 -12.473   3.111  0.00  0.00     0.417 C 
ATOM     32  F   UNL d   1       2.115 -13.520   3.182  0.00  0.00    -0.166 F 
ATOM     33  F   UNL d   1       4.179 -12.998   2.733  0.00  0.00    -0.166 F 
ATOM     34  F   UNL d   1       3.152 -12.044   4.394  0.00  0.00    -0.166 F 
ENDBRANCH  28  31
ENDBRANCH  23  25
ENDBRANCH  22  23
ENDBRANCH   2  22
TORSDOF 5
