REMARK  4 active torsions:
REMARK  status: ('A' for Active; 'I' for Inactive)
REMARK    1  A    between atoms: C_2  and  S_1 
REMARK    2  A    between atoms: C_5  and  S_1 
REMARK    3  A    between atoms: C_11  and  C_5 
REMARK    4  A    between atoms: N_14  and  C_13 
ROOT
ATOM      1  S   UNL d   1       1.097   0.025   0.126  0.00  0.00     0.180 S 
ATOM      2  O   UNL d   1       0.583   0.946  -0.869  0.00  0.00    -0.222 OA
ATOM      3  O   UNL d   1       2.529  -0.090   0.347  0.00  0.00    -0.222 OA
ENDROOT
BRANCH   1   4
ATOM      4  C   UNL d   1       0.527  -1.611  -0.360  0.00  0.00     0.066 A 
ATOM      5  C   UNL d   1       1.495  -2.633  -0.420  0.00  0.00     0.032 A 
ATOM      6  C   UNL d   1       1.171  -3.926  -0.864  0.00  0.00    -0.039 A 
ATOM      7  C   UNL d   1       2.249  -4.969  -0.963  0.00  0.00     0.050 C 
ATOM      8  C   UNL d   1      -0.147  -4.182  -1.252  0.00  0.00     0.040 A 
ATOM      9  C   UNL d   1      -1.112  -3.171  -1.193  0.00  0.00     0.032 A 
ATOM     10 CL   UNL d   1      -0.635  -5.732  -1.839  0.00  0.00    -0.084 Cl
ATOM     11  C   UNL d   1      -0.797  -1.868  -0.757  0.00  0.00    -0.039 A 
ATOM     12  C   UNL d   1      -1.909  -0.859  -0.821  0.00  0.00     0.050 C 
ENDBRANCH   1   4
BRANCH   1  13
ATOM     13  C   UNL d   1       0.308   0.321   1.712  0.00  0.00     0.184 C 
BRANCH  13  14
ATOM     14  C   UNL d   1       0.789   1.648   2.246  0.00  0.00    -0.044 A 
ATOM     15  C   UNL d   1       0.144   2.842   1.897  0.00  0.00     0.010 A 
ATOM     16  C   UNL d   1       0.640   4.073   2.341  0.00  0.00     0.024 A 
ATOM     17  C   UNL d   1       1.811   4.141   3.097  0.00  0.00     0.005 A 
ATOM     18  C   UNL d   1       2.404   2.949   3.515  0.00  0.00     0.024 A 
ATOM     19  C   UNL d   1       1.914   1.714   3.078  0.00  0.00     0.010 A 
BRANCH  17  20
ATOM     20  N   UNL d   1       2.254   5.367   3.610  0.00  0.00    -0.303 NA
ATOM     21  H   UNL d   1       3.243   5.367   3.841  0.00  0.00     0.124 HD
ATOM     22  H   UNL d   1       2.006   6.158   3.022  0.00  0.00     0.124 HD
ENDBRANCH  17  20
ENDBRANCH  13  14
ENDBRANCH   1  13
TORSDOF 4
