REMARK  6 active torsions:
REMARK  status: ('A' for Active; 'I' for Inactive)
REMARK    1  A    between atoms: N_2  and  S_1 
REMARK    2  A    between atoms: C_13  and  S_1 
REMARK    3  A    between atoms: C_14  and  C_5 
REMARK    4  A    between atoms: C_12  and  C_16 
REMARK    5  A    between atoms: O_25  and  C_14 
REMARK    6  A    between atoms: C_29  and  O_25 
ROOT
ATOM      1  N   UNL d   1       0.372   1.527  -0.277  0.00  0.00    -0.175 N 
ATOM      2  C   UNL d   1      -0.921   1.901  -0.643  0.00  0.00     0.106 A 
ATOM      3  C   UNL d   1      -2.026   1.068  -1.014  0.00  0.00     0.130 A 
ATOM      4  C   UNL d   1      -3.979   0.252  -1.722  0.00  0.00     0.132 A 
ATOM      5  C   UNL d   1      -3.311   1.448  -1.354  0.00  0.00     0.079 A 
ATOM      6  N   UNL d   1      -3.166  -0.800  -1.548  0.00  0.00    -0.255 N 
ATOM      7  HN  UNL d   1      -3.393  -1.783  -1.701  1.00  0.00     0.195 HD
ATOM      8  O   UNL d   1      -1.968  -0.287  -1.123  0.00  0.00    -0.235 OA
ATOM      9  N   UNL d   1       1.153   2.616   0.012  0.00  0.00    -0.295 N 
ATOM     10  HN  UNL d   1       2.117   2.620   0.346  1.00  0.00     0.187 HD
ATOM     11  C   UNL d   1      -0.916   3.288  -0.617  0.00  0.00     0.054 A 
ATOM     12  C   UNL d   1       0.377   3.663  -0.241  0.00  0.00     0.111 A 
ENDROOT
BRANCH   1  13
ATOM     13  S   UNL d   1       0.962  -0.112  -0.123  0.00  0.00     0.282 S 
ATOM     14  O   UNL d   1       2.348  -0.011   0.302  0.00  0.00    -0.198 OA
ATOM     15  O   UNL d   1       0.601  -0.785  -1.356  0.00  0.00    -0.198 OA
BRANCH  13  16
ATOM     16  C   UNL d   1       0.056  -0.787   1.246  0.00  0.00     0.082 A 
ATOM     17  C   UNL d   1       0.190  -0.192   2.505  0.00  0.00     0.041 A 
ATOM     18  C   UNL d   1      -0.530  -0.701   3.602  0.00  0.00     0.049 A 
ATOM     19  C   UNL d   1      -1.401  -1.784   3.399  0.00  0.00     0.016 A 
ATOM     20  C   UNL d   1      -1.497  -2.398   2.148  0.00  0.00     0.002 A 
ATOM     21  C   UNL d   1      -0.745  -1.915   1.074  0.00  0.00     0.025 A 
BRANCH  18  22
ATOM     22  C   UNL d   1      -0.366  -0.117   4.987  0.00  0.00     0.417 C 
ATOM     23  F   UNL d   1       0.561   0.877   5.048  0.00  0.00    -0.166 F 
ATOM     24  F   UNL d   1      -1.522   0.418   5.464  0.00  0.00    -0.166 F 
ATOM     25  F   UNL d   1       0.023  -1.050   5.900  0.00  0.00    -0.166 F 
ENDBRANCH  18  22
ENDBRANCH  13  16
ENDBRANCH   1  13
BRANCH   4  26
ATOM     26  C   UNL d   1      -5.354   0.111  -2.172  0.00  0.00     0.311 C 
ATOM     27  O   UNL d   1      -6.123   1.064  -2.265  0.00  0.00    -0.258 OA
BRANCH  26  28
ATOM     28  O   UNL d   1      -5.704  -1.191  -2.381  0.00  0.00    -0.317 OA
BRANCH  28  29
ATOM     29  C   UNL d   1      -7.103  -1.473  -2.302  0.00  0.00     0.175 C 
ATOM     30  C   UNL d   1      -7.451  -1.676  -0.838  0.00  0.00     0.034 C 
ENDBRANCH  28  29
ENDBRANCH  26  28
ENDBRANCH   4  26
TORSDOF 6
