REMARK  5 active torsions:
REMARK  status: ('A' for Active; 'I' for Inactive)
REMARK    1  A    between atoms: N_8  and  C_1 
REMARK       I    between atoms: N_2  and  C_5 
REMARK    2  A    between atoms: C_6  and  N_2 
REMARK    3  A    between atoms: C_5  and  C_11 
REMARK    4  A    between atoms: C_7  and  C_10 
REMARK    5  A    between atoms: C_11  and  N_9 
ROOT
ATOM      1  N   UNL d   1       0.144   2.644  -0.193  0.00  0.00    -0.214 N 
ATOM      2  N   UNL d   1       0.622   5.568  -0.012  0.00  0.00     0.104 N 
ATOM      3  C   UNL d   1      -0.629   3.450   0.756  0.00  0.00     0.171 C 
ATOM      4  C   UNL d   1       1.442   3.188  -0.600  0.00  0.00     0.171 C 
ATOM      5  C   UNL d   1       1.300   4.678  -1.004  0.00  0.00     0.294 C 
ATOM      6  C   UNL d   1      -0.701   4.918   0.258  0.00  0.00     0.294 C 
ENDROOT
BRANCH   2   7
ATOM      7  C   UNL d   1       1.420   5.706   1.246  0.00  0.00     0.310 C 
ATOM      8  C   UNL d   1       0.724   6.561   2.315  0.00  0.00     0.053 C 
BRANCH   7   9
ATOM      9  C   UNL d   1       2.817   6.334   1.034  0.00  0.00     0.255 C 
ATOM     10  N   UNL d   1       2.936   7.236  -0.005  0.00  0.00    -0.320 N 
ATOM     11  H   UNL d   1       2.069   7.537  -0.435  0.00  0.00     0.169 HD
ATOM     12  O   UNL d   1       3.696   6.092   1.859  0.00  0.00    -0.271 OA
BRANCH  10  13
ATOM     13  C   UNL d   1       4.127   7.936  -0.349  0.00  0.00     0.112 A 
ATOM     14  C   UNL d   1       5.424   7.522  -0.018  0.00  0.00     0.146 A 
ATOM     15  F   UNL d   1       5.668   6.306   0.488  0.00  0.00    -0.204 F 
ATOM     16  C   UNL d   1       6.540   8.321  -0.290  0.00  0.00     0.045 A 
ATOM     17  C   UNL d   1       6.387   9.542  -0.938  0.00  0.00     0.006 A 
ATOM     18  C   UNL d   1       5.117   9.937  -1.353  0.00  0.00     0.045 A 
ATOM     19  C   UNL d   1       4.008   9.133  -1.068  0.00  0.00     0.146 A 
ATOM     20  F   UNL d   1       2.796   9.547  -1.473  0.00  0.00    -0.204 F 
ENDBRANCH  10  13
ENDBRANCH   7   9
ENDBRANCH   2   7
BRANCH   1  21
ATOM     21  C   UNL d   1       0.074   1.272  -0.020  0.00  0.00     0.680 A 
ATOM     22  N   UNL d   1       1.110   0.512  -0.408  0.00  0.00    -0.186 N 
ATOM     23  C   UNL d   1       0.998  -0.840  -0.329  0.00  0.00     0.133 A 
ATOM     24  HN  UNL d   1       1.967   0.942  -0.756  1.00  0.00     0.184 HD
ATOM     25  C   UNL d   1      -0.157  -1.447   0.119  0.00  0.00     0.052 A 
ATOM     26  C   UNL d   1      -1.161  -0.601   0.507  0.00  0.00     0.108 A 
ATOM     27  N   UNL d   1      -1.061   0.739   0.458  0.00  0.00    -0.202 N 
ATOM     28  HN  UNL d   1      -1.826   1.334   0.776  1.00  0.00     0.183 HD
BRANCH  23  29
ATOM     29  C   UNL d   1       2.167  -1.708  -0.754  0.00  0.00     0.433 C 
ATOM     30  F   UNL d   1       3.277  -1.016  -1.137  0.00  0.00    -0.165 F 
ATOM     31  F   UNL d   1       2.579  -2.547   0.242  0.00  0.00    -0.165 F 
ATOM     32  F   UNL d   1       1.855  -2.522  -1.805  0.00  0.00    -0.165 F 
ENDBRANCH  23  29
ENDBRANCH   1  21
TORSDOF 5
