REMARK  3 active torsions:
REMARK  status: ('A' for Active; 'I' for Inactive)
REMARK       I    between atoms: N_2  and  C_1 
REMARK       I    between atoms: N_4  and  C_1 
REMARK    1  A    between atoms: C_5  and  N_3 
REMARK    2  A    between atoms: C_11  and  N_4 
REMARK    3  A    between atoms: O_15  and  C_12 
ROOT
ATOM      1  C   UNL d   1       1.064   0.076   0.086  0.00  0.00     0.323 C 
ATOM      2  N   UNL d   1       0.589   1.338  -0.295  0.00  0.00    -0.331 N 
ATOM      3  N   UNL d   1      -0.566   3.673  -1.508  0.00  0.00    -0.376 N 
ATOM      4  N   UNL d   1       0.612  -0.357   1.310  0.00  0.00    -0.309 N 
ATOM      5  O   UNL d   1       1.847  -0.542  -0.632  0.00  0.00    -0.247 OA
ATOM      6  C   UNL d   1       1.044   1.812  -1.615  0.00  0.00     0.147 C 
ATOM      7  C   UNL d   1      -0.736   1.841   0.109  0.00  0.00     0.147 C 
ATOM      8  C   UNL d   1       0.825   3.323  -1.859  0.00  0.00     0.143 C 
ATOM      9  C   UNL d   1      -0.873   3.356  -0.103  0.00  0.00     0.143 C 
ATOM     10  H   UNL d   1       0.245   0.355   1.918  0.00  0.00     0.170 HD
ENDROOT
BRANCH   4  11
ATOM     11  C   UNL d   1       0.892  -1.595   1.937  0.00  0.00     0.036 A 
ATOM     12  C   UNL d   1       1.481  -2.679   1.284  0.00  0.00     0.036 A 
ATOM     13  C   UNL d   1       1.774  -3.864   1.978  0.00  0.00    -0.060 A 
ATOM     14  C   UNL d   1       2.432  -5.018   1.282  0.00  0.00     0.048 C 
ATOM     15  C   UNL d   1       1.449  -3.960   3.335  0.00  0.00     0.007 A 
ATOM     16  C   UNL d   1       0.834  -2.894   3.987  0.00  0.00     0.003 A 
ATOM     17  C   UNL d   1       0.551  -1.717   3.288  0.00  0.00     0.029 A 
ENDBRANCH   4  11
BRANCH   3  18
ATOM     18  C   UNL d   1      -1.134   4.814  -2.081  0.00  0.00     0.064 A 
ATOM     19  C   UNL d   1      -1.370   4.945  -3.470  0.00  0.00     0.094 A 
ATOM     20  C   UNL d   1      -2.064   6.054  -3.983  0.00  0.00     0.039 A 
ATOM     21  C   UNL d   1      -2.535   7.057  -3.142  0.00  0.00     0.003 A 
ATOM     22  C   UNL d   1      -2.271   6.981  -1.784  0.00  0.00     0.002 A 
ATOM     23  C   UNL d   1      -1.577   5.881  -1.269  0.00  0.00     0.032 A 
BRANCH  19  24
ATOM     24  O   UNL d   1      -0.928   4.088  -4.447  0.00  0.00    -0.354 OA
ATOM     25  C   UNL d   1      -1.300   2.726  -4.286  0.00  0.00     0.210 C 
ENDBRANCH  19  24
ENDBRANCH   3  18
TORSDOF 3
