REMARK  6 active torsions:
REMARK  status: ('A' for Active; 'I' for Inactive)
REMARK    1  A    between atoms: C_6  and  C_1 
REMARK    2  A    between atoms: N_4  and  C_2 
REMARK       I    between atoms: C_3  and  N_5 
REMARK    3  A    between atoms: C_10  and  C_3 
REMARK    4  A    between atoms: C_7  and  N_4 
REMARK    5  A    between atoms: N_5  and  C_8 
REMARK    6  A    between atoms: O_17  and  C_6 
ROOT
ATOM      1  C   UNL d   1       3.138  -0.620  -0.599  0.00  0.00     0.059 C 
ATOM      2  C   UNL d   1       3.638  -0.486   0.727  0.00  0.00     0.061 C 
ATOM      3  C   UNL d   1       4.987  -0.187   0.947  0.00  0.00     0.032 C 
ATOM      4  C   UNL d   1       4.061  -0.648  -1.648  0.00  0.00     0.032 C 
ATOM      5  C   UNL d   1       5.423  -0.431  -1.411  0.00  0.00     0.002 C 
ATOM      6  C   UNL d   1       5.879  -0.166  -0.122  0.00  0.00     0.002 C 
ENDROOT
BRANCH   1   7
ATOM      7  N   UNL d   1       1.744  -0.612  -0.796  0.00  0.00    -0.356 N 
ATOM      8  H   UNL d   1       1.270  -0.225   0.027  0.00  0.00     0.166 HD
BRANCH   7   9
ATOM      9  C   UNL d   1       0.864  -1.056  -1.760  0.00  0.00     0.032 A 
ATOM     10  C   UNL d   1      -0.471  -0.850  -1.696  0.00  0.00     0.050 A 
ATOM     11  C   UNL d   1      -1.321  -1.414  -2.776  0.00  0.00     0.121 A 
ATOM     12  S   UNL d   1      -0.191  -2.257  -3.911  0.00  0.00    -0.158 SA
ATOM     13  C   UNL d   1       1.292  -1.937  -2.903  0.00  0.00     0.132 A 
BRANCH  10  14
ATOM     14  C   UNL d   1      -1.104  -0.144  -0.557  0.00  0.00     0.291 C 
ATOM     15  O   UNL d   1      -0.487   0.391   0.354  0.00  0.00    -0.260 OA
BRANCH  14  16
ATOM     16  O   UNL d   1      -2.456  -0.236  -0.634  0.00  0.00    -0.323 OA
ATOM     17  C   UNL d   1      -3.138   0.292   0.506  0.00  0.00     0.213 C 
ENDBRANCH  14  16
ENDBRANCH  10  14
ENDBRANCH   7   9
ENDBRANCH   1   7
BRANCH   2  18
ATOM     18  N   UNL d   1       2.808  -0.609   1.874  0.00  0.00    -0.321 N 
ATOM     19  C   UNL d   1       1.833  -1.595   2.007  0.00  0.00     0.256 C 
ATOM     20  O   UNL d   1       1.631  -2.514   1.225  0.00  0.00    -0.267 OA
ATOM     21  H   UNL d   1       3.118  -0.138   2.712  0.00  0.00     0.169 HD
BRANCH  19  22
ATOM     22  C   UNL d   1       0.968  -1.524   3.210  0.00  0.00     0.032 A 
ATOM     23  C   UNL d   1      -0.378  -1.893   3.046  0.00  0.00     0.018 A 
ATOM     24  C   UNL d   1      -1.250  -1.896   4.134  0.00  0.00     0.025 A 
ATOM     25  C   UNL d   1      -0.773  -1.541   5.393  0.00  0.00     0.034 A 
ATOM     26  C   UNL d   1       0.564  -1.180   5.569  0.00  0.00     0.025 A 
ATOM     27 CL   UNL d   1      -1.838  -1.565   6.744  0.00  0.00    -0.084 Cl
ATOM     28  C   UNL d   1       1.440  -1.170   4.477  0.00  0.00     0.018 A 
ENDBRANCH  19  22
ENDBRANCH   2  18
TORSDOF 6
