REMARK  3 active torsions:
REMARK  status: ('A' for Active; 'I' for Inactive)
REMARK    1  A    between atoms: C_3  and  C_1 
REMARK       I    between atoms: N_10  and  C_3 
REMARK    2  A    between atoms: N_7  and  N_10 
REMARK    3  A    between atoms: C_18  and  C_17 
ROOT
ATOM      1  N   UNL d   1      -3.914   2.872   0.224  0.00  0.00    -0.308 N 
ATOM      2  HN  UNL d   1      -3.115   3.504   0.284  1.00  0.00     0.186 HD
ATOM      3  C   UNL d   1      -5.097   3.325  -0.080  0.00  0.00     0.118 C 
ENDROOT
BRANCH   1   4
ATOM      4  N   UNL d   1      -3.764   1.539   0.459  0.00  0.00    -0.266 N 
ATOM      5  C   UNL d   1      -2.697   1.066   1.202  0.00  0.00     0.271 C 
ATOM      6  O   UNL d   1      -1.851   1.775   1.740  0.00  0.00    -0.266 OA
ATOM      7  H   UNL d   1      -4.402   0.897  -0.003  0.00  0.00     0.190 HD
BRANCH   5   8
ATOM      8  C   UNL d   1      -2.647  -0.410   1.444  0.00  0.00     0.057 A 
ATOM      9  C   UNL d   1      -3.093  -1.404   0.555  0.00  0.00     0.071 A 
ATOM     10  C   UNL d   1      -2.966  -2.760   0.922  0.00  0.00     0.056 A 
ATOM     11 CL   UNL d   1      -3.766  -1.009  -0.997  0.00  0.00    -0.081 Cl
ATOM     12 CL   UNL d   1      -3.481  -4.056  -0.107  0.00  0.00    -0.083 Cl
ATOM     13  C   UNL d   1      -2.407  -3.122   2.152  0.00  0.00     0.026 A 
ATOM     14  C   UNL d   1      -1.968  -2.140   3.033  0.00  0.00     0.003 A 
ATOM     15  C   UNL d   1      -2.087  -0.797   2.680  0.00  0.00     0.019 A 
ENDBRANCH   5   8
ENDBRANCH   1   4
BRANCH   3  16
ATOM     16  C   UNL d   1      -6.405   2.630  -0.014  0.00  0.00    -0.019 A 
ATOM     17  C   UNL d   1      -7.423   3.026  -0.888  0.00  0.00     0.022 A 
ATOM     18  C   UNL d   1      -8.679   2.394  -0.840  0.00  0.00    -0.024 A 
ATOM     19  C   UNL d   1      -9.784   2.827  -1.757  0.00  0.00     0.044 C 
ATOM     20  C   UNL d   1      -8.876   1.341   0.061  0.00  0.00     0.076 A 
ATOM     21  C   UNL d   1     -11.124   2.292  -1.262  0.00  0.00     0.042 C 
ATOM     22  C   UNL d   1     -11.016   0.812  -0.865  0.00  0.00     0.061 C 
ATOM     23  O   UNL d   1     -10.028   0.615   0.159  0.00  0.00    -0.340 OA
ATOM     24  C   UNL d   1     -12.340   0.356  -0.237  0.00  0.00     0.046 C 
ATOM     25  C   UNL d   1     -10.699  -0.102  -2.058  0.00  0.00     0.046 C 
ATOM     26  C   UNL d   1      -7.878   0.988   0.966  0.00  0.00     0.038 A 
ATOM     27  C   UNL d   1      -6.654   1.650   0.949  0.00  0.00     0.015 A 
ENDBRANCH   3  16
TORSDOF 3
