REMARK  6 active torsions:
REMARK  status: ('A' for Active; 'I' for Inactive)
REMARK    1  A    between atoms: C_2  and  S_1 
REMARK    2  A    between atoms: C_7  and  S_1 
REMARK    3  A    between atoms: C_8  and  C_2 
REMARK    4  A    between atoms: S_3  and  N_5 
REMARK    5  A    between atoms: C_9  and  S_3 
REMARK    6  A    between atoms: N_5  and  C_4 
ROOT
ATOM      1  C   UNL d   1       0.460   0.891   1.381  0.00  0.00     0.125 C 
ATOM      2  C   UNL d   1      -0.269   2.008   1.245  0.00  0.00     0.124 C 
ENDROOT
BRANCH   1   3
ATOM      3  S   UNL d   1       0.908   0.348   2.971  0.00  0.00     0.211 S 
ATOM      4  O   UNL d   1       2.350   0.463   3.117  0.00  0.00    -0.217 OA
ATOM      5  O   UNL d   1       0.234  -0.898   3.287  0.00  0.00    -0.217 OA
BRANCH   3   6
ATOM      6  C   UNL d   1       0.234   1.514   4.160  0.00  0.00     0.064 A 
ATOM      7  C   UNL d   1      -1.040   1.287   4.705  0.00  0.00     0.025 A 
ATOM      8  C   UNL d   1      -1.536   2.154   5.676  0.00  0.00     0.025 A 
ATOM      9  C   UNL d   1      -0.767   3.238   6.108  0.00  0.00     0.034 A 
ATOM     10  C   UNL d   1       0.510   3.450   5.574  0.00  0.00     0.025 A 
ATOM     11 CL   UNL d   1      -1.385   4.299   7.306  0.00  0.00    -0.084 Cl
ATOM     12  C   UNL d   1       1.018   2.585   4.606  0.00  0.00     0.025 A 
ENDBRANCH   3   6
ENDBRANCH   1   3
BRANCH   1  13
ATOM     13  C   UNL d   1       0.928   0.014   0.274  0.00  0.00     0.168 C 
ATOM     14  O   UNL d   1       1.143  -1.182   0.487  0.00  0.00    -0.292 OA
ATOM     15  C   UNL d   1       1.208   0.547  -1.113  0.00  0.00     0.097 C 
ENDBRANCH   1  13
BRANCH   2  16
ATOM     16  N   UNL d   1      -0.782   2.429  -0.027  0.00  0.00    -0.322 N 
ATOM     17  HN  UNL d   1      -0.646   1.837  -0.846  1.00  0.00     0.175 HD
BRANCH  16  18
ATOM     18  S   UNL d   1      -1.541   3.771  -0.171  0.00  0.00     0.052 S 
ATOM     19  O   UNL d   1      -1.051   5.026   0.367  0.00  0.00    -0.245 OA
ATOM     20  C   UNL d   1      -1.861   4.027  -1.898  0.00  0.00     0.142 C 
BRANCH  18  21
ATOM     21  C   UNL d   1      -3.151   3.495   0.540  0.00  0.00     0.038 A 
ATOM     22  C   UNL d   1      -3.598   4.311   1.580  0.00  0.00     0.022 A 
ATOM     23  C   UNL d   1      -4.836   4.052   2.170  0.00  0.00     0.008 A 
ATOM     24  C   UNL d   1      -5.625   2.981   1.727  0.00  0.00    -0.062 A 
ATOM     25  C   UNL d   1      -5.163   2.174   0.679  0.00  0.00     0.008 A 
ATOM     26  C   UNL d   1      -6.949   2.708   2.381  0.00  0.00     0.048 C 
ATOM     27  C   UNL d   1      -3.925   2.424   0.087  0.00  0.00     0.022 A 
ENDBRANCH  18  21
ENDBRANCH  16  18
ENDBRANCH   2  16
TORSDOF 6
