REMARK  2 active torsions:
REMARK  status: ('A' for Active; 'I' for Inactive)
REMARK    1  A    between atoms: C_4  and  C_1 
REMARK    2  A    between atoms: N_12  and  C_5 
ROOT
ATOM      1  C   UNL d   1      -1.157  -1.232   0.024  0.00  0.00     0.058 A 
ATOM      2  N   UNL d   1       0.205  -1.347   0.258  0.00  0.00    -0.335 N 
ATOM      3  HN  UNL d   1       0.692  -2.222   0.453  1.00  0.00     0.168 HD
ATOM      4  C   UNL d   1       0.774  -0.171   0.190  0.00  0.00     0.142 A 
ATOM      5  S   UNL d   1      -0.278   1.143  -0.150  0.00  0.00    -0.064 SA
ATOM      6  C   UNL d   1      -1.599   0.054  -0.214  0.00  0.00     0.084 A 
ENDROOT
BRANCH   1   7
ATOM      7  C   UNL d   1      -2.041  -2.443   0.024  0.00  0.00     0.033 A 
ATOM      8  S   UNL d   1      -3.714  -2.442  -0.335  0.00  0.00    -0.081 SA
ATOM      9  C   UNL d   1      -3.811  -4.121  -0.136  0.00  0.00     0.052 A 
ATOM     10 BR   UNL d   1      -5.395  -5.090  -0.380  0.00  0.00    -0.043 Br
ATOM     11  C   UNL d   1      -2.617  -4.696   0.218  0.00  0.00     0.028 A 
ATOM     12  C   UNL d   1      -1.583  -3.714   0.311  0.00  0.00     0.023 A 
ENDBRANCH   1   7
BRANCH   4  13
ATOM     13  N   UNL d   1       2.094   0.017   0.347  0.00  0.00    -0.380 N 
ATOM     14  H   UNL d   1       2.666  -0.815   0.259  0.00  0.00     0.158 HD
ATOM     15  H   UNL d   1       2.505   0.850  -0.057  0.00  0.00     0.158 HD
ENDBRANCH   4  13
TORSDOF 2
