REMARK  2 active torsions:
REMARK  status: ('A' for Active; 'I' for Inactive)
REMARK    1  A    between atoms: C_9  and  C_5 
REMARK    2  A    between atoms: O_7  and  C_9 
ROOT
ATOM      1  O   UNL d   1       1.105   1.423  -0.013  0.00  0.00    -0.339 OA
ATOM      2  O   UNL d   1       1.073  -1.482   0.000  0.00  0.00    -0.346 OA
ATOM      3  C   UNL d   1      -0.047   0.681   0.036  0.00  0.00     0.102 A 
ATOM      4  C   UNL d   1      -0.064  -0.716   0.026  0.00  0.00     0.102 A 
ATOM      5  C   UNL d   1       2.255   0.633  -0.363  0.00  0.00     0.176 C 
ATOM      6  C   UNL d   1       2.225  -0.712   0.360  0.00  0.00     0.210 C 
ATOM      7  C   UNL d   1      -1.245   1.392   0.077  0.00  0.00     0.039 A 
ATOM      8  C   UNL d   1      -1.278  -1.402   0.005  0.00  0.00     0.039 A 
ATOM      9  C   UNL d   1      -2.461   0.707   0.072  0.00  0.00     0.003 A 
ATOM     10  C   UNL d   1      -2.477  -0.689   0.028  0.00  0.00     0.003 A 
ENDROOT
BRANCH   5  11
ATOM     11  C   UNL d   1       2.361   0.504  -1.889  0.00  0.00     0.198 C 
BRANCH  11  12
ATOM     12  O   UNL d   1       3.542  -0.197  -2.261  0.00  0.00    -0.398 OA
ATOM     13  H   UNL d   1       3.475  -0.369  -3.217  0.00  0.00     0.209 HD
ENDBRANCH  11  12
ENDBRANCH   5  11
TORSDOF 2
