REMARK  5 active torsions:
REMARK  status: ('A' for Active; 'I' for Inactive)
REMARK    1  A    between atoms: C_2  and  C_1 
REMARK    2  A    between atoms: C_3  and  C_1 
REMARK    3  A    between atoms: N_4  and  C_1 
REMARK    4  A    between atoms: N_5  and  C_1 
REMARK    5  A    between atoms: C_8  and  N_4 
REMARK       I    between atoms: C_9  and  N_5 
ROOT
ATOM      1  C   UNL d   1       0.924  -0.266  -0.357  0.00  0.00     0.306 C 
ENDROOT
BRANCH   1   2
ATOM      2  C   UNL d   1       0.365   0.860  -1.283  0.00  0.00     0.441 C 
ATOM      3  F   UNL d   1       0.519   0.637  -2.601  0.00  0.00    -0.166 F 
ATOM      4  F   UNL d   1      -0.966   1.050  -1.088  0.00  0.00    -0.166 F 
ATOM      5  F   UNL d   1       0.943   2.056  -0.987  0.00  0.00    -0.166 F 
ENDBRANCH   1   2
BRANCH   1   6
ATOM      6  C   UNL d   1       0.563  -1.602  -1.073  0.00  0.00     0.441 C 
ATOM      7  F   UNL d   1      -0.735  -1.680  -1.441  0.00  0.00    -0.166 F 
ATOM      8  F   UNL d   1       1.295  -1.830  -2.185  0.00  0.00    -0.166 F 
ATOM      9  F   UNL d   1       0.802  -2.662  -0.250  0.00  0.00    -0.166 F 
ENDBRANCH   1   6
BRANCH   1  10
ATOM     10  N   UNL d   1       0.462  -0.154   1.073  0.00  0.00    -0.346 N 
ATOM     11  H   UNL d   1       0.713   0.750   1.475  0.00  0.00     0.163 HD
BRANCH  10  12
ATOM     12  C   UNL d   1      -0.700  -0.659   1.644  0.00  0.00     0.072 A 
ATOM     13  C   UNL d   1      -0.688  -0.977   3.022  0.00  0.00     0.184 A 
ATOM     14  C   UNL d   1      -1.806  -1.493   3.671  0.00  0.00     0.195 A 
ATOM     15  F   UNL d   1       0.443  -0.793   3.722  0.00  0.00    -0.200 F 
ATOM     16  F   UNL d   1      -1.745  -1.807   4.972  0.00  0.00    -0.199 F 
ATOM     17  C   UNL d   1      -2.980  -1.681   2.964  0.00  0.00     0.158 A 
ATOM     18  C   UNL d   1      -3.046  -1.343   1.620  0.00  0.00     0.048 A 
ATOM     19  F   UNL d   1      -4.067  -2.176   3.570  0.00  0.00    -0.203 F 
ATOM     20  C   UNL d   1      -1.914  -0.829   0.971  0.00  0.00     0.036 A 
ENDBRANCH  10  12
ENDBRANCH   1  10
BRANCH   1  21
ATOM     21  N   UNL d   1       2.376  -0.166  -0.063  0.00  0.00    -0.320 N 
ATOM     22  C   UNL d   1       3.312   0.014  -1.045  0.00  0.00     0.216 C 
ATOM     23  O   UNL d   1       3.011   0.244  -2.209  0.00  0.00    -0.274 OA
ATOM     24  C   UNL d   1       4.739  -0.103  -0.589  0.00  0.00     0.117 C 
ATOM     25  H   UNL d   1       2.658  -0.583   0.814  0.00  0.00     0.165 HD
ENDBRANCH   1  21
TORSDOF 5
