REMARK  2 active torsions:
REMARK  status: ('A' for Active; 'I' for Inactive)
REMARK    1  A    between atoms: C_17  and  C_6 
REMARK    2  A    between atoms: C_14  and  C_11 
ROOT
ATOM      1  C   UNL d   1      -0.134  -1.134  -0.059  0.00  0.00     0.082 A 
ATOM      2  C   UNL d   1      -0.275  -2.558  -0.123  0.00  0.00     0.183 A 
ATOM      3  S   UNL d   1       1.399  -0.366  -0.046  0.00  0.00    -0.065 SA
ATOM      4  N   UNL d   1      -0.675   1.137   0.029  0.00  0.00    -0.352 N 
ATOM      5  HN  UNL d   1      -1.278   1.957   0.095  1.00  0.00     0.166 HD
ATOM      6  C   UNL d   1       0.641   1.180  -0.029  0.00  0.00     0.085 A 
ATOM      7  O   UNL d   1       0.772  -3.453  -0.152  0.00  0.00    -0.276 OA
ATOM      8  N   UNL d   1      -1.441  -3.179  -0.177  0.00  0.00    -0.277 N 
ATOM      9  HN  UNL d   1      -2.361  -2.739  -0.166  1.00  0.00     0.189 HD
ATOM     10  C   UNL d   1      -1.131  -0.172  -0.013  0.00  0.00     0.027 A 
ATOM     11  C   UNL d   1       0.126  -4.659  -0.235  0.00  0.00     0.144 A 
ATOM     12  N   UNL d   1      -1.183  -4.527  -0.252  0.00  0.00    -0.281 N 
ATOM     13  HN  UNL d   1      -1.871  -5.278  -0.308  1.00  0.00     0.189 HD
ATOM     14  C   UNL d   1      -2.604  -0.391  -0.017  0.00  0.00     0.070 C 
ENDROOT
BRANCH   6  15
ATOM     15  C   UNL d   1       1.415   2.435  -0.061  0.00  0.00    -0.002 A 
ATOM     16  C   UNL d   1       2.686   2.534  -0.649  0.00  0.00     0.014 A 
ATOM     17  C   UNL d   1       3.358   3.760  -0.703  0.00  0.00     0.001 A 
ATOM     18  C   UNL d   1       2.771   4.905  -0.168  0.00  0.00     0.000 A 
ATOM     19  C   UNL d   1       1.513   4.827   0.422  0.00  0.00     0.001 A 
ATOM     20  C   UNL d   1       0.841   3.602   0.471  0.00  0.00     0.014 A 
ENDBRANCH   6  15
BRANCH  11  21
ATOM     21  C   UNL d   1       0.812  -6.011  -0.309  0.00  0.00     0.062 A 
ATOM     22  C   UNL d   1       2.107  -6.218   0.449  0.00  0.00     0.013 A 
ATOM     23  C   UNL d   1       2.136  -6.117  -1.037  0.00  0.00     0.013 A 
ENDBRANCH  11  21
TORSDOF 2
