REMARK  6 active torsions:
REMARK  status: ('A' for Active; 'I' for Inactive)
REMARK    1  A    between atoms: C_6  and  N_1 
REMARK    2  A    between atoms: N_2  and  C_4 
REMARK       I    between atoms: C_3  and  N_2 
REMARK    3  A    between atoms: C_15  and  C_3 
REMARK    4  A    between atoms: C_4  and  N_10 
REMARK    5  A    between atoms: C_5  and  C_8 
REMARK       I    between atoms: N_7  and  C_5 
REMARK    6  A    between atoms: N_10  and  N_7 
ROOT
ATOM      1  N   UNL d   1      -1.760  -1.769   5.854  0.00  0.00    -0.273 N 
ATOM      2  H   UNL d   1      -2.378  -1.594   5.051  0.00  0.00     0.189 HD
ENDROOT
BRANCH   1   3
ATOM      3  C   UNL d   1      -2.228  -2.367   6.995  0.00  0.00     0.193 C 
ATOM      4  S   UNL d   1      -1.279  -2.786   8.313  0.00  0.00    -0.039 SA
BRANCH   3   5
ATOM      5  N   UNL d   1      -3.582  -2.592   7.076  0.00  0.00    -0.298 N 
ATOM      6  C   UNL d   1      -4.562  -2.194   6.181  0.00  0.00     0.257 C 
ATOM      7  O   UNL d   1      -4.328  -1.885   5.016  0.00  0.00    -0.267 OA
ATOM      8  H   UNL d   1      -3.868  -2.998   7.956  0.00  0.00     0.171 HD
BRANCH   6   9
ATOM      9  C   UNL d   1      -5.967  -2.194   6.689  0.00  0.00     0.032 A 
ATOM     10  C   UNL d   1      -6.272  -2.037   8.049  0.00  0.00     0.017 A 
ATOM     11  C   UNL d   1      -7.605  -1.976   8.467  0.00  0.00     0.001 A 
ATOM     12  C   UNL d   1      -8.636  -2.062   7.533  0.00  0.00     0.000 A 
ATOM     13  C   UNL d   1      -8.341  -2.214   6.180  0.00  0.00     0.001 A 
ATOM     14  C   UNL d   1      -7.011  -2.278   5.758  0.00  0.00     0.017 A 
ENDBRANCH   6   9
ENDBRANCH   3   5
ENDBRANCH   1   3
BRANCH   1  15
ATOM     15  N   UNL d   1      -0.445  -1.299   5.769  0.00  0.00    -0.264 N 
ATOM     16  C   UNL d   1       0.050  -0.853   4.560  0.00  0.00     0.270 C 
ATOM     17  O   UNL d   1      -0.577  -0.871   3.508  0.00  0.00    -0.266 OA
ATOM     18  H   UNL d   1       0.139  -1.438   6.589  0.00  0.00     0.190 HD
BRANCH  16  19
ATOM     19  C   UNL d   1       1.448  -0.338   4.593  0.00  0.00     0.036 A 
ATOM     20  C   UNL d   1       2.248  -0.478   3.451  0.00  0.00     0.053 A 
ATOM     21  C   UNL d   1       3.560   0.016   3.468  0.00  0.00     0.103 A 
ATOM     22  C   UNL d   1       4.072   0.656   4.606  0.00  0.00     0.036 A 
ATOM     23  C   UNL d   1       3.263   0.809   5.732  0.00  0.00     0.003 A 
ATOM     24  C   UNL d   1       1.956   0.317   5.726  0.00  0.00     0.017 A 
BRANCH  21  25
ATOM     25  N   UNL d   1       4.415  -0.138   2.282  0.00  0.00    -0.116 N 
ATOM     26  O   UNL d   1       3.943  -0.732   1.303  0.00  0.00    -0.532 OA
ATOM     27  O   UNL d   1       5.562   0.330   2.336  0.00  0.00    -0.532 OA
ENDBRANCH  21  25
ENDBRANCH  16  19
ENDBRANCH   1  15
TORSDOF 6
