REMARK  3 active torsions:
REMARK  status: ('A' for Active; 'I' for Inactive)
REMARK    1  A    between atoms: C_4  and  C_1 
REMARK    2  A    between atoms: S_3  and  C_4 
REMARK    3  A    between atoms: C_6  and  S_3 
ROOT
ATOM      1  S   UNL d   1      -1.716  -0.857   0.167  0.00  0.00    -0.123 SA
ENDROOT
BRANCH   1   2
ATOM      2  C   UNL d   1      -1.279  -1.324  -1.545  0.00  0.00     0.148 C 
BRANCH   2   3
ATOM      3  C   UNL d   1      -0.727  -0.120  -2.284  0.00  0.00     0.080 C 
ATOM      4  S   UNL d   1       0.826  -0.067  -2.893  0.00  0.00    -0.065 SA
ATOM      5  N   UNL d   1      -1.577   0.926  -2.506  0.00  0.00    -0.393 N 
ATOM      6  H   UNL d   1      -1.215   1.762  -2.951  0.00  0.00     0.156 HD
ATOM      7  H   UNL d   1      -2.453   1.008  -2.002  0.00  0.00     0.156 HD
ENDBRANCH   2   3
ENDBRANCH   1   2
BRANCH   1   8
ATOM      8  C   UNL d   1      -2.436  -2.376   0.786  0.00  0.00     0.000 A 
ATOM      9  C   UNL d   1      -1.976  -3.643   0.419  0.00  0.00     0.018 A 
ATOM     10  C   UNL d   1      -2.571  -4.796   0.940  0.00  0.00     0.001 A 
ATOM     11  C   UNL d   1      -3.623  -4.691   1.846  0.00  0.00     0.000 A 
ATOM     12  C   UNL d   1      -4.075  -3.433   2.237  0.00  0.00     0.001 A 
ATOM     13  C   UNL d   1      -3.483  -2.281   1.711  0.00  0.00     0.018 A 
ENDBRANCH   1   8
TORSDOF 3
