REMARK  6 active torsions:
REMARK  status: ('A' for Active; 'I' for Inactive)
REMARK    1  A    between atoms: S_2  and  N_1 
REMARK    2  A    between atoms: S_3  and  N_1 
REMARK    3  A    between atoms: C_6  and  N_1 
REMARK    4  A    between atoms: C_4  and  S_2 
REMARK    5  A    between atoms: C_5  and  S_3 
REMARK    6  A    between atoms: C_17  and  C_6 
ROOT
ATOM      1  N   UNL d   1       0.966   0.310   0.187  0.00  0.00    -0.190 N 
ENDROOT
BRANCH   1   2
ATOM      2  S   UNL d   1       0.218   0.829   1.612  0.00  0.00     0.274 S 
ATOM      3  O   UNL d   1      -1.028   1.512   1.347  0.00  0.00    -0.199 OA
ATOM      4  O   UNL d   1       0.222  -0.274   2.548  0.00  0.00    -0.199 OA
BRANCH   2   5
ATOM      5  C   UNL d   1       1.318   2.062   2.300  0.00  0.00     0.080 A 
ATOM      6  C   UNL d   1       1.174   3.406   1.947  0.00  0.00     0.027 A 
ATOM      7  C   UNL d   1       2.009   4.363   2.533  0.00  0.00     0.025 A 
ATOM      8  C   UNL d   1       2.972   3.973   3.466  0.00  0.00     0.034 A 
ATOM      9  C   UNL d   1       3.096   2.635   3.839  0.00  0.00     0.025 A 
ATOM     10 CL   UNL d   1       4.011   5.150   4.170  0.00  0.00    -0.084 Cl
ATOM     11  C   UNL d   1       2.257   1.677   3.268  0.00  0.00     0.027 A 
ENDBRANCH   2   5
ENDBRANCH   1   2
BRANCH   1  12
ATOM     12  S   UNL d   1       0.462   1.029  -1.240  0.00  0.00     0.274 S 
ATOM     13  O   UNL d   1      -0.977   1.057  -1.350  0.00  0.00    -0.199 OA
ATOM     14  O   UNL d   1       1.264   2.222  -1.421  0.00  0.00    -0.199 OA
BRANCH  12  15
ATOM     15  C   UNL d   1       0.963  -0.137  -2.511  0.00  0.00     0.080 A 
ATOM     16  C   UNL d   1       0.477  -1.450  -2.471  0.00  0.00     0.027 A 
ATOM     17  C   UNL d   1       0.808  -2.337  -3.500  0.00  0.00     0.025 A 
ATOM     18  C   UNL d   1       1.607  -1.908  -4.561  0.00  0.00     0.034 A 
ATOM     19  C   UNL d   1       2.095  -0.601  -4.596  0.00  0.00     0.025 A 
ATOM     20 CL   UNL d   1       1.975  -2.990  -5.847  0.00  0.00    -0.084 Cl
ATOM     21  C   UNL d   1       1.776   0.291  -3.567  0.00  0.00     0.027 A 
ENDBRANCH  12  15
ENDBRANCH   1  12
BRANCH   1  22
ATOM     22  C   UNL d   1       2.411   0.006   0.263  0.00  0.00     0.193 C 
BRANCH  22  23
ATOM     23  C   UNL d   1       2.815  -1.243   1.014  0.00  0.00    -0.038 A 
ATOM     24  C   UNL d   1       1.961  -2.348   1.135  0.00  0.00     0.009 A 
ATOM     25  C   UNL d   1       2.401  -3.526   1.741  0.00  0.00     0.001 A 
ATOM     26  C   UNL d   1       3.706  -3.623   2.214  0.00  0.00     0.000 A 
ATOM     27  C   UNL d   1       4.568  -2.535   2.103  0.00  0.00     0.001 A 
ATOM     28  C   UNL d   1       4.126  -1.352   1.508  0.00  0.00     0.009 A 
ENDBRANCH  22  23
ENDBRANCH   1  22
TORSDOF 6
