REMARK  4 active torsions:
REMARK  status: ('A' for Active; 'I' for Inactive)
REMARK    1  A    between atoms: C_5  and  C_1 
REMARK    2  A    between atoms: C_8  and  C_2 
REMARK    3  A    between atoms: C_6  and  N_10 
REMARK       I    between atoms: N_11  and  C_8 
REMARK    4  A    between atoms: N_10  and  N_11 
ROOT
ATOM      1  C   UNL d   1      -1.406  -0.702   0.187  0.00  0.00     0.088 A 
ATOM      2  C   UNL d   1      -0.115  -1.333   0.107  0.00  0.00     0.094 A 
ATOM      3  N   UNL d   1      -1.257   0.630   0.085  0.00  0.00    -0.259 N 
ATOM      4  HN  UNL d   1      -2.007   1.322   0.067  1.00  0.00     0.195 HD
ATOM      5  O   UNL d   1       0.082   0.889   0.010  0.00  0.00    -0.241 OA
ATOM      6  C   UNL d   1       0.771  -0.274   0.016  0.00  0.00     0.090 A 
ATOM      7  C   UNL d   1       2.238  -0.131  -0.055  0.00  0.00     0.080 C 
ENDROOT
BRANCH   2   8
ATOM      8  C   UNL d   1       0.302  -2.724   0.068  0.00  0.00     0.271 C 
ATOM      9  N   UNL d   1      -0.354  -3.570   0.957  0.00  0.00    -0.282 N 
ATOM     10  H   UNL d   1      -0.853  -3.182   1.753  0.00  0.00     0.184 HD
ATOM     11  O   UNL d   1       1.194  -3.106  -0.682  0.00  0.00    -0.266 OA
BRANCH   9  12
ATOM     12  N   UNL d   1       0.190  -4.866   1.091  0.00  0.00    -0.200 NA
ATOM     13  H   UNL d   1       0.194  -5.360   0.190  0.00  0.00     0.153 HD
BRANCH  12  14
ATOM     14  C   UNL d   1      -0.298  -5.668   2.158  0.00  0.00     0.073 A 
ATOM     15  C   UNL d   1      -0.446  -7.057   1.953  0.00  0.00     0.073 A 
ATOM     16 CL   UNL d   1      -0.177  -7.777   0.405  0.00  0.00    -0.081 Cl
ATOM     17  C   UNL d   1      -0.828  -7.875   3.011  0.00  0.00     0.113 A 
ATOM     18  N   UNL d   1      -1.062  -7.424   4.263  0.00  0.00    -0.372 N 
ATOM     19  C   UNL d   1      -0.886  -6.098   4.460  0.00  0.00     0.113 A 
ATOM     20  HN  UNL d   1      -1.355  -8.047   5.016  1.00  0.00     0.164 HD
ATOM     21  C   UNL d   1      -0.510  -5.196   3.466  0.00  0.00     0.073 A 
ATOM     22 CL   UNL d   1      -0.282  -3.548   3.937  0.00  0.00    -0.081 Cl
ENDBRANCH  12  14
ENDBRANCH   9  12
ENDBRANCH   2   8
BRANCH   1  23
ATOM     23  C   UNL d   1      -2.766  -1.261   0.278  0.00  0.00     0.054 A 
ATOM     24  C   UNL d   1      -3.087  -2.449  -0.395  0.00  0.00     0.130 A 
ATOM     25  F   UNL d   1      -2.168  -3.093  -1.127  0.00  0.00    -0.205 F 
ATOM     26  C   UNL d   1      -4.369  -3.004  -0.358  0.00  0.00     0.043 A 
ATOM     27  C   UNL d   1      -5.390  -2.352   0.321  0.00  0.00     0.005 A 
ATOM     28  C   UNL d   1      -5.114  -1.159   0.979  0.00  0.00     0.025 A 
ATOM     29  C   UNL d   1      -3.814  -0.623   0.977  0.00  0.00     0.049 A 
ATOM     30 CL   UNL d   1      -3.616   0.819   1.921  0.00  0.00    -0.083 Cl
ENDBRANCH   1  23
TORSDOF 4
