REMARK  4 active torsions:
REMARK  status: ('A' for Active; 'I' for Inactive)
REMARK    1  A    between atoms: C_4  and  C_1 
REMARK       I    between atoms: N_9  and  C_4 
REMARK    2  A    between atoms: C_8  and  N_10 
REMARK    3  A    between atoms: N_13  and  C_8 
REMARK    4  A    between atoms: N_10  and  N_9 
ROOT
ATOM      1  C   UNL d   1       2.113  -2.319  -0.035  0.00  0.00     0.287 C 
ATOM      2  N   UNL d   1       3.461  -2.038  -0.078  0.00  0.00    -0.262 N 
ATOM      3  O   UNL d   1       1.672  -3.469  -0.034  0.00  0.00    -0.264 OA
ATOM      4  H   UNL d   1       3.800  -1.077  -0.051  0.00  0.00     0.190 HD
ENDROOT
BRANCH   1   5
ATOM      5  C   UNL d   1       1.261  -1.129  -0.006  0.00  0.00     0.109 A 
ATOM      6  N   UNL d   1       1.792   0.166  -0.039  0.00  0.00    -0.349 N 
ATOM      7  C   UNL d   1       0.816   1.052  -0.015  0.00  0.00     0.047 A 
ATOM      8  HN  UNL d   1       2.786   0.391  -0.076  1.00  0.00     0.166 HD
ATOM      9  C   UNL d   1       1.007   2.529  -0.037  0.00  0.00     0.076 C 
ATOM     10  S   UNL d   1      -0.774   0.403   0.048  0.00  0.00    -0.087 SA
ATOM     11  C   UNL d   1      -0.120  -1.177   0.041  0.00  0.00     0.086 A 
ENDBRANCH   1   5
BRANCH   2  12
ATOM     12  N   UNL d   1       4.388  -3.090  -0.141  0.00  0.00    -0.274 N 
ATOM     13  H   UNL d   1       3.964  -4.016  -0.176  0.00  0.00     0.189 HD
BRANCH  12  14
ATOM     14  C   UNL d   1       5.668  -2.954   0.382  0.00  0.00     0.186 C 
ATOM     15  S   UNL d   1       6.264  -1.531   1.029  0.00  0.00    -0.040 SA
BRANCH  14  16
ATOM     16  N   UNL d   1       6.376  -4.135   0.251  0.00  0.00    -0.370 N 
ATOM     17  C   UNL d   1       7.760  -4.380   0.619  0.00  0.00     0.148 C 
ATOM     18  H   UNL d   1       5.946  -4.854  -0.313  0.00  0.00     0.161 HD
ENDBRANCH  14  16
ENDBRANCH  12  14
ENDBRANCH   2  12
TORSDOF 4
