REMARK  5 active torsions:
REMARK  status: ('A' for Active; 'I' for Inactive)
REMARK    1  A    between atoms: C_6  and  C_1 
REMARK    2  A    between atoms: C_8  and  C_2 
REMARK    3  A    between atoms: C_13  and  N_3 
REMARK       I    between atoms: N_11  and  C_8 
REMARK       I    between atoms: C_9  and  N_12 
REMARK    4  A    between atoms: C_10  and  C_9 
REMARK    5  A    between atoms: N_12  and  N_11 
ROOT
ATOM      1  C   UNL d   1       1.109  -0.773  -0.323  0.00  0.00     0.157 A 
ATOM      2  C   UNL d   1      -0.174  -1.284  -0.114  0.00  0.00     0.084 A 
ATOM      3  N   UNL d   1       1.035   0.603  -0.127  0.00  0.00    -0.251 N 
ATOM      4  N   UNL d   1      -0.215   0.972   0.250  0.00  0.00    -0.303 N 
ATOM      5  HN  UNL d   1      -0.533   1.907   0.503  1.00  0.00     0.186 HD
ATOM      6  C   UNL d   1      -0.935  -0.144   0.218  0.00  0.00     0.127 A 
ENDROOT
BRANCH   2   7
ATOM      7  C   UNL d   1      -0.727  -2.638  -0.111  0.00  0.00     0.273 C 
ATOM      8  N   UNL d   1       0.046  -3.664  -0.612  0.00  0.00    -0.263 N 
ATOM      9  H   UNL d   1       1.035  -3.571  -0.846  0.00  0.00     0.190 HD
ATOM     10  O   UNL d   1      -1.853  -2.862   0.335  0.00  0.00    -0.266 OA
BRANCH   8  11
ATOM     11  N   UNL d   1      -0.388  -4.990  -0.414  0.00  0.00    -0.263 N 
ATOM     12  C   UNL d   1       0.545  -5.996  -0.609  0.00  0.00     0.270 C 
ATOM     13  O   UNL d   1       1.664  -5.780  -1.061  0.00  0.00    -0.266 OA
ATOM     14  H   UNL d   1      -1.222  -5.102   0.162  0.00  0.00     0.190 HD
BRANCH  12  15
ATOM     15  C   UNL d   1       0.152  -7.362  -0.183  0.00  0.00     0.036 A 
ATOM     16  C   UNL d   1      -1.182  -7.787  -0.186  0.00  0.00     0.041 A 
ATOM     17  C   UNL d   1      -1.492  -9.075   0.255  0.00  0.00     0.036 A 
ATOM     18 CL   UNL d   1      -3.132  -9.595   0.263  0.00  0.00    -0.084 Cl
ATOM     19  C   UNL d   1      -0.494  -9.942   0.693  0.00  0.00     0.047 A 
ATOM     20  C   UNL d   1       0.833  -9.521   0.668  0.00  0.00     0.036 A 
ATOM     21  C   UNL d   1       1.163  -8.242   0.225  0.00  0.00     0.041 A 
ATOM     22 CL   UNL d   1       2.074 -10.586   1.202  0.00  0.00    -0.084 Cl
ENDBRANCH  12  15
ENDBRANCH   8  11
ENDBRANCH   2   7
BRANCH   1  23
ATOM     23  C   UNL d   1       2.397  -1.441  -0.556  0.00  0.00     0.435 C 
ATOM     24  F   UNL d   1       2.329  -2.771  -0.298  0.00  0.00    -0.165 F 
ATOM     25  F   UNL d   1       2.790  -1.339  -1.847  0.00  0.00    -0.165 F 
ATOM     26  F   UNL d   1       3.396  -0.973   0.226  0.00  0.00    -0.165 F 
ENDBRANCH   1  23
BRANCH   3  27
ATOM     27  C   UNL d   1       2.050   1.609  -0.171  0.00  0.00     0.057 A 
ATOM     28  C   UNL d   1       3.160   1.527  -1.018  0.00  0.00     0.031 A 
ATOM     29  C   UNL d   1       4.189   2.469  -0.928  0.00  0.00     0.002 A 
ATOM     30  C   UNL d   1       4.107   3.514  -0.011  0.00  0.00     0.000 A 
ATOM     31  C   UNL d   1       2.974   3.645   0.788  0.00  0.00     0.002 A 
ATOM     32  C   UNL d   1       1.941   2.708   0.698  0.00  0.00     0.031 A 
ENDBRANCH   3  27
TORSDOF 5
