REMARK  7 active torsions:
REMARK  status: ('A' for Active; 'I' for Inactive)
REMARK    1  A    between atoms: N_4  and  S_1 
REMARK    2  A    between atoms: C_5  and  S_1 
REMARK    3  A    between atoms: C_10  and  C_2 
REMARK    4  A    between atoms: C_3  and  N_4 
REMARK    5  A    between atoms: C_6  and  C_8 
REMARK    6  A    between atoms: C_7  and  C_9 
REMARK    7  A    between atoms: O_26  and  C_10 
ROOT
ATOM      1  C   UNL d   1       0.146  -1.538   0.574  0.00  0.00     0.076 A 
ATOM      2  C   UNL d   1       0.762  -3.842   1.044  0.00  0.00     0.050 A 
ATOM      3  C   UNL d   1      -1.554  -3.095   1.340  0.00  0.00     0.050 A 
ATOM      4  C   UNL d   1       1.117  -2.541   0.657  0.00  0.00     0.041 A 
ATOM      5  C   UNL d   1      -1.184  -1.810   0.914  0.00  0.00     0.041 A 
ATOM      6  C   UNL d   1      -0.578  -4.108   1.379  0.00  0.00     0.032 A 
ENDROOT
BRANCH   1   7
ATOM      7  S   UNL d   1       0.644   0.141   0.233  0.00  0.00     0.245 S 
ATOM      8  O   UNL d   1      -0.418   1.006   0.699  0.00  0.00    -0.206 OA
ATOM      9  O   UNL d   1       2.006   0.290   0.689  0.00  0.00    -0.206 OA
BRANCH   7  10
ATOM     10  N   UNL d   1       0.584   0.205  -1.479  0.00  0.00    -0.180 NA
ATOM     11  H   UNL d   1      -0.399   0.410  -1.680  0.00  0.00     0.146 HD
BRANCH  10  12
ATOM     12  C   UNL d   1       1.428   1.182  -2.078  0.00  0.00     0.046 A 
ATOM     13  C   UNL d   1       2.736   1.022  -2.510  0.00  0.00     0.102 A 
ATOM     14  S   UNL d   1       3.353   2.502  -3.160  0.00  0.00    -0.094 SA
ATOM     15  C   UNL d   1       1.890   3.327  -2.890  0.00  0.00     0.052 A 
ATOM     16  C   UNL d   1       0.942   2.508  -2.323  0.00  0.00     0.033 A 
BRANCH  13  17
ATOM     17  C   UNL d   1       3.629  -0.122  -2.532  0.00  0.00     0.301 C 
ATOM     18  O   UNL d   1       4.758  -0.142  -3.014  0.00  0.00    -0.259 OA
BRANCH  17  19
ATOM     19  O   UNL d   1       3.040  -1.223  -1.975  0.00  0.00    -0.322 OA
ATOM     20  C   UNL d   1       3.854  -2.399  -2.001  0.00  0.00     0.213 C 
ENDBRANCH  17  19
ENDBRANCH  13  17
ENDBRANCH  10  12
ENDBRANCH   7  10
ENDBRANCH   1   7
BRANCH   2  21
ATOM     21  C   UNL d   1       1.797  -4.941   1.152  0.00  0.00     0.417 C 
ATOM     22  F   UNL d   1       3.058  -4.535   0.841  0.00  0.00    -0.166 F 
ATOM     23  F   UNL d   1       1.868  -5.462   2.407  0.00  0.00    -0.166 F 
ATOM     24  F   UNL d   1       1.526  -5.987   0.325  0.00  0.00    -0.166 F 
ENDBRANCH   2  21
BRANCH   3  25
ATOM     25  C   UNL d   1      -2.961  -3.384   1.815  0.00  0.00     0.417 C 
ATOM     26  F   UNL d   1      -3.775  -2.294   1.787  0.00  0.00    -0.166 F 
ATOM     27  F   UNL d   1      -3.579  -4.337   1.067  0.00  0.00    -0.166 F 
ATOM     28  F   UNL d   1      -2.984  -3.837   3.099  0.00  0.00    -0.166 F 
ENDBRANCH   3  25
TORSDOF 7
