REMARK  3 active torsions:
REMARK  status: ('A' for Active; 'I' for Inactive)
REMARK    1  A    between atoms: C_8  and  C_1 
REMARK    2  A    between atoms: O_10  and  C_2 
REMARK    3  A    between atoms: O_11  and  C_3 
ROOT
ATOM      1  C   UNL d   1       2.523  -0.700  -0.080  0.00  0.00     0.094 A 
ATOM      2  C   UNL d   1       2.412   0.674   0.035  0.00  0.00     0.157 A 
ATOM      3  C   UNL d   1       1.308  -1.402  -0.102  0.00  0.00     0.096 A 
ATOM      4  N   UNL d   1       1.256   1.369   0.068  0.00  0.00    -0.335 N 
ATOM      5  HN  UNL d   1       1.257   2.387   0.131  1.00  0.00     0.168 HD
ATOM      6  C   UNL d   1       0.069  -0.727  -0.050  0.00  0.00     0.025 A 
ATOM      7  C   UNL d   1       0.104   0.680   0.015  0.00  0.00     0.047 A 
ATOM      8  C   UNL d   1      -1.178  -1.390  -0.059  0.00  0.00     0.016 A 
ATOM      9  C   UNL d   1      -1.100   1.373   0.035  0.00  0.00     0.030 A 
ATOM     10  C   UNL d   1      -2.372  -0.674  -0.022  0.00  0.00     0.001 A 
ATOM     11  C   UNL d   1      -2.333   0.713   0.016  0.00  0.00     0.002 A 
ENDROOT
BRANCH   1  12
ATOM     12  C   UNL d   1       3.810  -1.441  -0.167  0.00  0.00     0.162 C 
ATOM     13  O   UNL d   1       3.779  -2.669  -0.031  0.00  0.00    -0.293 OA
ATOM     14  C   UNL d   1       5.123  -0.753  -0.428  0.00  0.00     0.097 C 
ENDBRANCH   1  12
BRANCH   2  15
ATOM     15  O   UNL d   1       3.473   1.499   0.180  0.00  0.00    -0.345 OA
ATOM     16  H   UNL d   1       3.010   2.356   0.260  0.00  0.00     0.219 HD
ENDBRANCH   2  15
BRANCH   3  17
ATOM     17  O   UNL d   1       1.264  -2.779  -0.174  0.00  0.00    -0.359 OA
ATOM     18  H   UNL d   1       2.185  -3.124  -0.116  0.00  0.00     0.217 HD
ENDBRANCH   3  17
TORSDOF 3
