REMARK  6 active torsions:
REMARK  status: ('A' for Active; 'I' for Inactive)
REMARK    1  A    between atoms: C_5  and  C_1 
REMARK    2  A    between atoms: C_4  and  C_2 
REMARK    3  A    between atoms: N_10  and  C_3 
REMARK    4  A    between atoms: C_6  and  C_4 
REMARK    5  A    between atoms: O_20  and  C_5 
REMARK    6  A    between atoms: C_7  and  N_10 
ROOT
ATOM      1  C   UNL d   1       3.570   4.164  -0.174  0.00  0.00     0.111 C 
ATOM      2  C   UNL d   1       2.514   3.331  -0.114  0.00  0.00     0.115 C 
ATOM      3  C   UNL d   1       3.418   5.571  -0.181  0.00  0.00     0.105 C 
ATOM      4  N   UNL d   1       3.280   6.721  -0.171  0.00  0.00    -0.191 NA
ENDROOT
BRANCH   1   5
ATOM      5  C   UNL d   1       4.931   3.526  -0.312  0.00  0.00     0.210 C 
ATOM      6  O   UNL d   1       4.987   2.370  -0.742  0.00  0.00    -0.285 OA
BRANCH   5   7
ATOM      7  C   UNL d   1       6.139   4.266   0.051  0.00  0.00     0.056 A 
ATOM      8  S   UNL d   1       7.612   3.849  -0.738  0.00  0.00    -0.098 SA
ATOM      9  C   UNL d   1       8.501   5.014   0.136  0.00  0.00     0.050 A 
ATOM     10  C   UNL d   1       7.711   5.698   1.029  0.00  0.00     0.009 A 
ATOM     11  C   UNL d   1       6.351   5.262   0.989  0.00  0.00     0.023 A 
ENDBRANCH   5   7
ENDBRANCH   1   5
BRANCH   2  12
ATOM     12  N   UNL d   1       1.143   3.552  -0.035  0.00  0.00    -0.363 N 
ATOM     13  H   UNL d   1       0.863   4.537  -0.009  0.00  0.00     0.165 HD
BRANCH  12  14
ATOM     14  C   UNL d   1       0.153   2.601  -0.013  0.00  0.00     0.055 A 
ATOM     15  C   UNL d   1      -1.212   2.860   0.073  0.00  0.00     0.106 A 
ATOM     16  S   UNL d   1      -2.125   1.389   0.096  0.00  0.00    -0.094 SA
ATOM     17  C   UNL d   1      -0.735   0.427  -0.037  0.00  0.00     0.053 A 
ATOM     18  C   UNL d   1       0.406   1.189  -0.090  0.00  0.00     0.038 A 
BRANCH  15  19
ATOM     19  C   UNL d   1      -1.996   4.084   0.143  0.00  0.00     0.302 C 
ATOM     20  O   UNL d   1      -3.221   4.152   0.174  0.00  0.00    -0.259 OA
BRANCH  19  21
ATOM     21  O   UNL d   1      -1.188   5.191   0.167  0.00  0.00    -0.322 OA
ATOM     22  C   UNL d   1      -1.934   6.413   0.222  0.00  0.00     0.213 C 
ENDBRANCH  19  21
ENDBRANCH  15  19
ENDBRANCH  12  14
ENDBRANCH   2  12
TORSDOF 6
