REMARK  4 active torsions:
REMARK  status: ('A' for Active; 'I' for Inactive)
REMARK    1  A    between atoms: C_11  and  N_1 
REMARK    2  A    between atoms: C_7  and  C_5 
REMARK       I    between atoms: C_9  and  N_10 
REMARK    3  A    between atoms: C_16  and  C_9 
REMARK    4  A    between atoms: N_10  and  C_23 
ROOT
ATOM      1  C   UNL d   1       2.150  -1.368  -0.172  0.00  0.00     0.057 A 
ATOM      2  C   UNL d   1       2.315  -2.338  -1.169  0.00  0.00     0.034 A 
ATOM      3  C   UNL d   1       3.188  -1.122   0.728  0.00  0.00     0.034 A 
ATOM      4  C   UNL d   1       4.485  -2.936  -0.249  0.00  0.00     0.035 A 
ATOM      5  C   UNL d   1       4.337  -1.917   0.699  0.00  0.00     0.032 A 
ATOM      6  C   UNL d   1       3.489  -3.105  -1.214  0.00  0.00     0.032 A 
ENDROOT
BRANCH   1   7
ATOM      7  N   UNL d   1       0.938  -0.635  -0.043  0.00  0.00    -0.255 N 
ATOM      8  C   UNL d   1      -0.363  -1.041  -0.318  0.00  0.00     0.076 C 
ATOM      9  C   UNL d   1      -1.130   0.105  -0.255  0.00  0.00     0.069 C 
ATOM     10  C   UNL d   1      -0.811  -2.400  -0.469  0.00  0.00     0.033 A 
ATOM     11  C   UNL d   1      -0.277   1.113   0.258  0.00  0.00     0.135 C 
ATOM     12  N   UNL d   1       0.967   0.635   0.445  0.00  0.00    -0.289 N 
ATOM     13  HN  UNL d   1       1.761   1.120   0.863  1.00  0.00     0.187 HD
ATOM     14  S   UNL d   1      -2.051  -2.828  -1.572  0.00  0.00    -0.100 SA
ATOM     15  C   UNL d   1      -0.390  -3.500   0.258  0.00  0.00     0.021 A 
ATOM     16  C   UNL d   1      -2.008  -4.468  -1.088  0.00  0.00     0.050 A 
ATOM     17  C   UNL d   1      -1.072  -4.695  -0.108  0.00  0.00     0.008 A 
BRANCH  11  18
ATOM     18  C   UNL d   1      -0.689   2.515   0.621  0.00  0.00     0.434 C 
ATOM     19  F   UNL d   1       0.287   3.235   1.234  0.00  0.00    -0.165 F 
ATOM     20  F   UNL d   1      -1.069   3.224  -0.477  0.00  0.00    -0.165 F 
ATOM     21  F   UNL d   1      -1.759   2.515   1.464  0.00  0.00    -0.165 F 
ENDBRANCH  11  18
ENDBRANCH   1   7
BRANCH   4  22
ATOM     22  N   UNL d   1       5.601  -3.802  -0.276  0.00  0.00    -0.323 N 
ATOM     23  C   UNL d   1       6.475  -4.007   0.781  0.00  0.00     0.256 C 
ATOM     24  O   UNL d   1       6.348  -3.545   1.911  0.00  0.00    -0.267 OA
ATOM     25  H   UNL d   1       5.668  -4.434  -1.063  0.00  0.00     0.169 HD
BRANCH  23  26
ATOM     26  C   UNL d   1       7.639  -4.903   0.536  0.00  0.00     0.032 A 
ATOM     27  C   UNL d   1       8.233  -5.043  -0.723  0.00  0.00     0.017 A 
ATOM     28  C   UNL d   1       9.382  -5.830  -0.864  0.00  0.00     0.001 A 
ATOM     29  C   UNL d   1       9.938  -6.473   0.245  0.00  0.00     0.000 A 
ATOM     30  C   UNL d   1       9.346  -6.340   1.498  0.00  0.00     0.001 A 
ATOM     31  C   UNL d   1       8.201  -5.558   1.643  0.00  0.00     0.017 A 
ENDBRANCH  23  26
ENDBRANCH   4  22
TORSDOF 4
