REMARK  6 active torsions:
REMARK  status: ('A' for Active; 'I' for Inactive)
REMARK    1  A    between atoms: C_5  and  C_1 
REMARK    2  A    between atoms: C_8  and  C_2 
REMARK    3  A    between atoms: S_10  and  C_8 
REMARK    4  A    between atoms: C_9  and  S_10 
REMARK    5  A    between atoms: O_14  and  C_9 
REMARK    6  A    between atoms: C_21  and  O_14 
ROOT
ATOM      1  C   UNL d   1      -1.232  -0.930   0.309  0.00  0.00     0.078 A 
ATOM      2  C   UNL d   1       0.134  -1.359   0.104  0.00  0.00     0.012 A 
ATOM      3  N   UNL d   1      -1.273   0.365   0.646  0.00  0.00    -0.260 N 
ATOM      4  HN  UNL d   1      -2.103   0.906   0.889  1.00  0.00     0.195 HD
ATOM      5  O   UNL d   1       0.017   0.823   0.603  0.00  0.00    -0.242 OA
ATOM      6  C   UNL d   1       0.856  -0.195   0.281  0.00  0.00     0.082 A 
ATOM      7  C   UNL d   1       2.280   0.200   0.196  0.00  0.00     0.079 C 
ENDROOT
BRANCH   1   8
ATOM      8  C   UNL d   1      -2.485  -1.683   0.194  0.00  0.00     0.036 A 
ATOM      9  C   UNL d   1      -2.775  -2.782   1.024  0.00  0.00     0.048 A 
ATOM     10 CL   UNL d   1      -1.717  -3.317   2.286  0.00  0.00    -0.083 Cl
ATOM     11  C   UNL d   1      -3.982  -3.486   0.894  0.00  0.00     0.025 A 
ATOM     12  C   UNL d   1      -4.939  -3.085  -0.033  0.00  0.00     0.003 A 
ATOM     13  C   UNL d   1      -4.686  -1.982  -0.842  0.00  0.00     0.025 A 
ATOM     14  C   UNL d   1      -3.469  -1.294  -0.742  0.00  0.00     0.048 A 
ATOM     15 CL   UNL d   1      -3.251   0.025  -1.848  0.00  0.00    -0.083 Cl
ENDBRANCH   1   8
BRANCH   2  16
ATOM     16  C   UNL d   1       0.579  -2.759  -0.172  0.00  0.00     0.126 C 
BRANCH  16  17
ATOM     17  S   UNL d   1       2.157  -2.963  -1.034  0.00  0.00    -0.089 SA
BRANCH  17  18
ATOM     18  C   UNL d   1       2.442  -4.657  -0.623  0.00  0.00     0.175 C 
ATOM     19  S   UNL d   1       1.631  -5.904  -1.391  0.00  0.00    -0.045 SA
BRANCH  18  20
ATOM     20  O   UNL d   1       3.369  -4.869   0.360  0.00  0.00    -0.336 OA
BRANCH  20  21
ATOM     21  C   UNL d   1       3.715  -6.193   0.835  0.00  0.00     0.172 C 
ATOM     22  C   UNL d   1       4.824  -6.065   1.864  0.00  0.00     0.034 C 
ENDBRANCH  20  21
ENDBRANCH  18  20
ENDBRANCH  17  18
ENDBRANCH  16  17
ENDBRANCH   2  16
TORSDOF 6
