REMARK  4 active torsions:
REMARK  status: ('A' for Active; 'I' for Inactive)
REMARK    1  A    between atoms: C_2  and  C_1 
REMARK    2  A    between atoms: C_11  and  C_2 
REMARK    3  A    between atoms: N_6  and  C_3 
REMARK    4  A    between atoms: C_7  and  N_6 
ROOT
ATOM      1  C   UNL d   1       0.975  -0.133  -0.124  0.00  0.00     0.110 C 
ATOM      2  C   UNL d   1       0.297   0.911   0.389  0.00  0.00     0.116 C 
ATOM      3  C   UNL d   1       0.292  -1.214  -0.742  0.00  0.00     0.105 C 
ATOM      4  N   UNL d   1      -0.279  -2.109  -1.213  0.00  0.00    -0.191 NA
ENDROOT
BRANCH   1   5
ATOM      5  C   UNL d   1       2.469  -0.103  -0.056  0.00  0.00     0.204 C 
ATOM      6  O   UNL d   1       3.085   0.960   0.015  0.00  0.00    -0.286 OA
BRANCH   5   7
ATOM      7  C   UNL d   1       3.229  -1.386  -0.066  0.00  0.00     0.015 A 
ATOM      8  C   UNL d   1       4.512  -1.408  -0.630  0.00  0.00     0.015 A 
ATOM      9  C   UNL d   1       5.240  -2.601  -0.671  0.00  0.00     0.001 A 
ATOM     10  C   UNL d   1       4.695  -3.772  -0.144  0.00  0.00     0.000 A 
ATOM     11  C   UNL d   1       3.436  -3.749   0.449  0.00  0.00     0.001 A 
ATOM     12  C   UNL d   1       2.714  -2.557   0.508  0.00  0.00     0.015 A 
ENDBRANCH   5   7
ENDBRANCH   1   5
BRANCH   2  13
ATOM     13  N   UNL d   1      -1.065   1.048   0.523  0.00  0.00    -0.351 N 
ATOM     14  H   UNL d   1      -1.624   0.200   0.590  0.00  0.00     0.166 HD
BRANCH  13  15
ATOM     15  C   UNL d   1      -1.787   2.122   1.044  0.00  0.00     0.104 A 
ATOM     16  N   UNL d   1      -2.975   1.806   1.600  0.00  0.00    -0.352 N 
ATOM     17  C   UNL d   1      -3.722   2.811   2.109  0.00  0.00     0.089 A 
ATOM     18  HN  UNL d   1      -3.299   0.840   1.636  1.00  0.00     0.166 HD
ATOM     19  C   UNL d   1      -3.351   4.143   2.070  0.00  0.00     0.017 A 
ATOM     20  C   UNL d   1      -2.137   4.460   1.479  0.00  0.00     0.005 A 
ATOM     21  C   UNL d   1      -1.340   3.438   0.967  0.00  0.00     0.048 A 
ENDBRANCH  13  15
ENDBRANCH   2  13
TORSDOF 4
