REMARK  4 active torsions:
REMARK  status: ('A' for Active; 'I' for Inactive)
REMARK    1  A    between atoms: O_9  and  C_3 
REMARK    2  A    between atoms: O_11  and  C_4 
REMARK    3  A    between atoms: N_10  and  C_5 
REMARK    4  A    between atoms: C_12  and  O_9 
ROOT
ATOM      1  N   UNL d   1      -0.593   1.323   0.158  0.00  0.00    -0.311 N 
ATOM      2  HN  UNL d   1      -1.013   2.246   0.268  1.00  0.00     0.170 HD
ATOM      3  C   UNL d   1      -0.803  -1.074   0.126  0.00  0.00     0.149 A 
ATOM      4  C   UNL d   1      -1.311   0.199   0.300  0.00  0.00     0.179 A 
ATOM      5  C   UNL d   1       0.696   1.169  -0.134  0.00  0.00     0.157 A 
ATOM      6  N   UNL d   1       1.316  -0.008  -0.240  0.00  0.00    -0.334 N 
ATOM      7  HN  UNL d   1       2.319  -0.064  -0.418  1.00  0.00     0.168 HD
ATOM      8  C   UNL d   1       0.563  -1.124  -0.104  0.00  0.00     0.046 A 
ATOM      9  C   UNL d   1       1.289  -2.433  -0.190  0.00  0.00     0.071 C 
ENDROOT
BRANCH   3  10
ATOM     10  O   UNL d   1      -1.491  -2.243   0.290  0.00  0.00    -0.304 OA
BRANCH  10  11
ATOM     11  C   UNL d   1      -2.681  -2.450  -0.376  0.00  0.00     0.076 A 
ATOM     12  C   UNL d   1      -3.081  -1.797  -1.545  0.00  0.00     0.039 A 
ATOM     13  C   UNL d   1      -4.347  -2.052  -2.084  0.00  0.00     0.026 A 
ATOM     14  C   UNL d   1      -5.192  -2.979  -1.475  0.00  0.00     0.034 A 
ATOM     15  C   UNL d   1      -4.778  -3.666  -0.337  0.00  0.00     0.026 A 
ATOM     16 CL   UNL d   1      -6.755  -3.273  -2.130  0.00  0.00    -0.084 Cl
ATOM     17  C   UNL d   1      -3.520  -3.403   0.209  0.00  0.00     0.039 A 
ENDBRANCH  10  11
ENDBRANCH   3  10
BRANCH   4  18
ATOM     18  O   UNL d   1      -2.602   0.428   0.687  0.00  0.00    -0.344 OA
ATOM     19  H   UNL d   1      -2.992  -0.421   0.941  0.00  0.00     0.219 HD
ENDBRANCH   4  18
BRANCH   5  20
ATOM     20  N   UNL d   1       1.460   2.309  -0.263  0.00  0.00    -0.274 NA
ATOM     21  H   UNL d   1       1.009   3.070   0.226  0.00  0.00     0.127 HD
ATOM     22  H   UNL d   1       2.419   2.105  -0.019  0.00  0.00     0.127 HD
ENDBRANCH   5  20
TORSDOF 4
