REMARK  6 active torsions:
REMARK  status: ('A' for Active; 'I' for Inactive)
REMARK    1  A    between atoms: C_6  and  C_3 
REMARK    2  A    between atoms: N_10  and  C_4 
REMARK    3  A    between atoms: C_9  and  C_5 
REMARK    4  A    between atoms: O_13  and  C_9 
REMARK    5  A    between atoms: C_12  and  C_21 
REMARK    6  A    between atoms: C_21  and  O_13 
ROOT
ATOM      1  N   UNL d   1       1.212   0.525   0.090  0.00  0.00    -0.185 N 
ATOM      2  HN  UNL d   1       2.127   0.975   0.076  1.00  0.00     0.184 HD
ATOM      3  C   UNL d   1       1.122  -0.844   0.125  0.00  0.00     0.150 A 
ATOM      4  C   UNL d   1       0.103   1.271   0.076  0.00  0.00     0.680 A 
ATOM      5  C   UNL d   1      -0.098  -1.500   0.152  0.00  0.00     0.087 A 
ATOM      6  N   UNL d   1      -1.108   0.703   0.121  0.00  0.00    -0.201 N 
ATOM      7  HN  UNL d   1      -1.954   1.274   0.130  1.00  0.00     0.183 HD
ATOM      8  C   UNL d   1      -1.183  -0.651   0.154  0.00  0.00     0.126 A 
ENDROOT
BRANCH   5   9
ATOM      9  C   UNL d   1      -0.242  -2.979   0.095  0.00  0.00     0.297 C 
ATOM     10  O   UNL d   1       0.725  -3.724   0.026  0.00  0.00    -0.259 OA
BRANCH   9  11
ATOM     11  O   UNL d   1      -1.536  -3.387   0.026  0.00  0.00    -0.317 OA
BRANCH  11  12
ATOM     12  C   UNL d   1      -1.732  -4.683  -0.587  0.00  0.00     0.183 C 
BRANCH  12  13
ATOM     13  C   UNL d   1      -2.284  -5.718   0.351  0.00  0.00     0.010 A 
ATOM     14  C   UNL d   1      -1.549  -6.297   1.537  0.00  0.00     0.007 A 
ATOM     15  C   UNL d   1      -1.677  -7.107   0.281  0.00  0.00     0.007 A 
ENDBRANCH  12  13
ENDBRANCH  11  12
ENDBRANCH   9  11
ENDBRANCH   5   9
BRANCH   3  16
ATOM     16  C   UNL d   1       2.449  -1.590   0.098  0.00  0.00     0.434 C 
ATOM     17  F   UNL d   1       3.527  -0.743   0.088  0.00  0.00    -0.165 F 
ATOM     18  F   UNL d   1       2.644  -2.379   1.192  0.00  0.00    -0.165 F 
ATOM     19  F   UNL d   1       2.620  -2.368  -1.007  0.00  0.00    -0.165 F 
ENDBRANCH   3  16
BRANCH   4  20
ATOM     20  N   UNL d   1       0.225   2.639  -0.101  0.00  0.00    -0.214 N 
ATOM     21  C   UNL d   1       1.511   3.250   0.264  0.00  0.00     0.167 C 
ATOM     22  C   UNL d   1       1.591   4.665  -0.338  0.00  0.00     0.188 C 
ATOM     23  O   UNL d   1       0.477   5.475   0.075  0.00  0.00    -0.388 OA
ATOM     24  C   UNL d   1      -0.756   4.872  -0.351  0.00  0.00     0.188 C 
ATOM     25  C   UNL d   1      -0.939   3.462   0.240  0.00  0.00     0.167 C 
ENDBRANCH   4  20
TORSDOF 6
