REMARK  1 active torsions:
REMARK  status: ('A' for Active; 'I' for Inactive)
REMARK    1  A    between atoms: C_3  and  C_1 
REMARK       I    between atoms: N_10  and  C_3 
ROOT
ATOM      1  C   UNL d   1       1.342  -1.725   0.005  0.00  0.00     0.067 A 
ATOM      2  C   UNL d   1       2.189  -0.623   0.019  0.00  0.00     0.090 A 
ATOM      3  C   UNL d   1       1.695   0.677   0.031  0.00  0.00    -0.020 A 
ATOM      4  C   UNL d   1      -0.041  -1.483  -0.002  0.00  0.00     0.039 A 
ATOM      5  O   UNL d   1       3.565  -0.664   0.052  0.00  0.00    -0.349 OA
ATOM      6  C   UNL d   1       0.333   0.926   0.036  0.00  0.00     0.029 A 
ATOM      7  C   UNL d   1      -0.533  -0.168   0.014  0.00  0.00     0.012 A 
ATOM      8 BR   UNL d   1      -2.401   0.129   0.015  0.00  0.00    -0.051 Br
ATOM      9  C   UNL d   1       3.973   0.697  -0.212  0.00  0.00     0.180 C 
ATOM     10  C   UNL d   1       2.817   1.640   0.111  0.00  0.00     0.068 C 
ENDROOT
BRANCH   1  11
ATOM     11  C   UNL d   1       1.817  -3.134  -0.010  0.00  0.00     0.252 C 
ATOM     12  O   UNL d   1       1.033  -4.074  -0.017  0.00  0.00    -0.268 OA
ATOM     13  N   UNL d   1       3.165  -3.349  -0.019  0.00  0.00    -0.366 N 
ATOM     14  H   UNL d   1       3.828  -2.583   0.009  0.00  0.00     0.159 HD
ATOM     15  H   UNL d   1       3.505  -4.301  -0.019  0.00  0.00     0.159 HD
ENDBRANCH   1  11
TORSDOF 1
