REMARK  3 active torsions:
REMARK  status: ('A' for Active; 'I' for Inactive)
REMARK    1  A    between atoms: C_12  and  N_2 
REMARK    2  A    between atoms: C_17  and  C_12 
REMARK    3  A    between atoms: C_20  and  C_17 
ROOT
ATOM      1  S   UNL d   1       0.375   1.670   1.113  0.00  0.00     0.268 S 
ATOM      2  N   UNL d   1      -0.401   2.321  -0.262  0.00  0.00    -0.237 N 
ATOM      3  C   UNL d   1      -1.654   1.828  -0.749  0.00  0.00     0.268 C 
ATOM      4  C   UNL d   1       1.657   0.592   0.494  0.00  0.00     0.097 A 
ATOM      5  C   UNL d   1      -2.102   0.496  -0.313  0.00  0.00     0.050 A 
ATOM      6  S   UNL d   1       0.096  -0.587  -1.623  0.00  0.00    -0.088 SA
ATOM      7  C   UNL d   1       1.472  -0.368  -0.509  0.00  0.00     0.029 A 
ATOM      8  C   UNL d   1      -1.333  -0.647  -0.573  0.00  0.00     0.021 A 
ATOM      9  O   UNL d   1       1.036   2.767   1.788  0.00  0.00    -0.200 OA
ATOM     10  O   UNL d   1      -0.519   0.831   1.878  0.00  0.00    -0.200 OA
ATOM     11  O   UNL d   1      -2.361   2.423  -1.552  0.00  0.00    -0.266 OA
ATOM     12  C   UNL d   1       2.902   0.695   1.151  0.00  0.00     0.027 A 
ATOM     13  C   UNL d   1      -3.306   0.412   0.399  0.00  0.00     0.018 A 
ATOM     14  C   UNL d   1       2.553  -1.236  -0.796  0.00  0.00     0.020 A 
ATOM     15  C   UNL d   1      -1.768  -1.877  -0.068  0.00  0.00     0.020 A 
ATOM     16  C   UNL d   1       3.954  -0.160   0.837  0.00  0.00     0.002 A 
ATOM     17  C   UNL d   1      -3.717  -0.816   0.909  0.00  0.00     0.001 A 
ATOM     18  C   UNL d   1       3.775  -1.140  -0.128  0.00  0.00     0.001 A 
ATOM     19  C   UNL d   1      -2.945  -1.956   0.685  0.00  0.00     0.001 A 
ENDROOT
BRANCH   2  20
ATOM     20  C   UNL d   1       0.376   3.412  -0.939  0.00  0.00     0.145 C 
BRANCH  20  21
ATOM     21  C   UNL d   1      -0.496   4.497  -1.572  0.00  0.00     0.021 C 
BRANCH  21  22
ATOM     22  C   UNL d   1       0.329   5.699  -2.037  0.00  0.00    -0.003 C 
ATOM     23  C   UNL d   1      -0.554   6.733  -2.721  0.00  0.00     0.005 C 
ENDBRANCH  21  22
ENDBRANCH  20  21
ENDBRANCH   2  20
TORSDOF 3
