REMARK  3 active torsions:
REMARK  status: ('A' for Active; 'I' for Inactive)
REMARK    1  A    between atoms: O_10  and  N_1 
REMARK    2  A    between atoms: C_9  and  C_13 
REMARK    3  A    between atoms: C_13  and  O_10 
ROOT
ATOM      1  N   UNL d   1      -2.238  -0.170  -0.270  0.00  0.00    -0.153 N 
ATOM      2  C   UNL d   1      -0.209  -0.880   0.282  0.00  0.00     0.129 C 
ATOM      3  C   UNL d   1      -0.148   0.623   0.022  0.00  0.00     0.129 C 
ATOM      4  C   UNL d   1      -1.385  -1.227  -0.553  0.00  0.00     0.258 C 
ATOM      5  C   UNL d   1      -1.590   0.944   0.269  0.00  0.00     0.258 C 
ATOM      6  C   UNL d   1       1.170   0.961   0.700  0.00  0.00     0.159 C 
ATOM      7  C   UNL d   1       1.246  -1.232   0.379  0.00  0.00     0.159 C 
ATOM      8  O   UNL d   1       1.470  -0.246   1.477  0.00  0.00    -0.371 OA
ATOM      9  C   UNL d   1       2.216   0.712  -0.362  0.00  0.00     0.004 C 
ATOM     10  C   UNL d   1       2.197  -0.612  -0.606  0.00  0.00     0.004 C 
ATOM     11  O   UNL d   1      -1.556  -2.253  -1.176  0.00  0.00    -0.270 OA
ATOM     12  O   UNL d   1      -2.036   1.998   0.679  0.00  0.00    -0.270 OA
ENDROOT
BRANCH   1  13
ATOM     13  O   UNL d   1      -3.592  -0.092  -0.602  0.00  0.00    -0.263 OA
BRANCH  13  14
ATOM     14  C   UNL d   1      -4.272  -1.319  -0.313  0.00  0.00     0.245 C 
BRANCH  14  15
ATOM     15  C   UNL d   1      -5.757  -1.177  -0.527  0.00  0.00     0.028 A 
ATOM     16  C   UNL d   1      -6.635  -1.515   0.510  0.00  0.00     0.126 A 
ATOM     17  F   UNL d   1      -6.147  -1.914   1.694  0.00  0.00    -0.205 F 
ATOM     18  C   UNL d   1      -8.019  -1.481   0.347  0.00  0.00     0.043 A 
ATOM     19  C   UNL d   1      -8.561  -1.101  -0.876  0.00  0.00     0.005 A 
ATOM     20  C   UNL d   1      -7.710  -0.762  -1.927  0.00  0.00     0.024 A 
ATOM     21  C   UNL d   1      -6.319  -0.807  -1.758  0.00  0.00     0.045 A 
ATOM     22 CL   UNL d   1      -5.345  -0.437  -3.137  0.00  0.00    -0.084 Cl
ENDBRANCH  14  15
ENDBRANCH  13  14
ENDBRANCH   1  13
TORSDOF 3
