REMARK  6 active torsions:
REMARK  status: ('A' for Active; 'I' for Inactive)
REMARK    1  A    between atoms: C_4  and  C_1 
REMARK    2  A    between atoms: C_6  and  C_1 
REMARK    3  A    between atoms: N_5  and  N_2 
REMARK    4  A    between atoms: O_14  and  C_4 
REMARK    5  A    between atoms: C_7  and  N_5 
REMARK    6  A    between atoms: C_18  and  O_14 
ROOT
ATOM      1  C   UNL d   1       1.090  -0.261   0.045  0.00  0.00     0.169 C 
ATOM      2  N   UNL d   1       0.418  -0.567  -1.033  0.00  0.00    -0.292 N 
ATOM      3  HN  UNL d   1      -0.591  -0.426  -1.080  1.00  0.00     0.187 HD
ENDROOT
BRANCH   2   4
ATOM      4  N   UNL d   1       1.103  -1.081  -2.092  0.00  0.00    -0.300 N 
ATOM      5  H   UNL d   1       1.960  -1.608  -1.887  0.00  0.00     0.187 HD
BRANCH   4   6
ATOM      6  C   UNL d   1       0.358  -1.635  -3.164  0.00  0.00     0.054 A 
ATOM      7  C   UNL d   1       0.998  -2.308  -4.226  0.00  0.00    -0.033 A 
ATOM      8  C   UNL d   1       0.240  -2.728  -5.341  0.00  0.00     0.015 A 
ATOM      9  C   UNL d   1       2.478  -2.586  -4.272  0.00  0.00     0.050 C 
ATOM     10  C   UNL d   1      -1.138  -2.500  -5.420  0.00  0.00    -0.061 A 
ATOM     11  C   UNL d   1      -1.770  -1.849  -4.364  0.00  0.00     0.009 A 
ATOM     12  C   UNL d   1      -1.901  -2.937  -6.634  0.00  0.00     0.048 C 
ATOM     13  C   UNL d   1      -1.028  -1.409  -3.265  0.00  0.00     0.032 A 
ENDBRANCH   4   6
ENDBRANCH   2   4
BRANCH   1  14
ATOM     14  C   UNL d   1       0.287   0.220   1.240  0.00  0.00     0.315 C 
ATOM     15  O   UNL d   1       0.679   0.037   2.379  0.00  0.00    -0.257 OA
BRANCH  14  16
ATOM     16  O   UNL d   1      -0.873   0.779   0.844  0.00  0.00    -0.317 OA
BRANCH  16  17
ATOM     17  C   UNL d   1      -1.881   0.905   1.853  0.00  0.00     0.175 C 
ATOM     18  C   UNL d   1      -2.680  -0.385   1.901  0.00  0.00     0.034 C 
ENDBRANCH  16  17
ENDBRANCH  14  16
ENDBRANCH   1  14
BRANCH   1  19
ATOM     19  C   UNL d   1       2.595  -0.427   0.158  0.00  0.00     0.179 C 
ATOM     20  O   UNL d   1       3.134  -1.400  -0.370  0.00  0.00    -0.291 OA
ATOM     21  C   UNL d   1       3.365   0.622   0.900  0.00  0.00     0.099 C 
ENDBRANCH   1  19
TORSDOF 6
