REMARK  5 active torsions:
REMARK  status: ('A' for Active; 'I' for Inactive)
REMARK    1  A    between atoms: O_13  and  C_2 
REMARK    2  A    between atoms: C_4  and  C_8 
REMARK       I    between atoms: N_9  and  C_4 
REMARK    3  A    between atoms: N_5  and  N_9 
REMARK    4  A    between atoms: C_7  and  C_11 
REMARK    5  A    between atoms: O_14  and  C_10 
ROOT
ATOM      1  N   UNL d   1       6.327   1.099   2.930  0.00  0.00    -0.197 NA
ATOM      2  C   UNL d   1       5.830   2.138   3.061  0.00  0.00     0.068 C 
ATOM      3  C   UNL d   1       5.126   3.401   3.233  0.00  0.00     0.228 C 
ENDROOT
BRANCH   3   4
ATOM      4  C   UNL d   1       3.621   3.258   3.280  0.00  0.00     0.249 C 
ATOM      5  N   UNL d   1       3.095   1.971   3.314  0.00  0.00    -0.270 N 
ATOM      6  H   UNL d   1       3.674   1.135   3.297  0.00  0.00     0.190 HD
ATOM      7  O   UNL d   1       2.932   4.282   3.296  0.00  0.00    -0.271 OA
BRANCH   5   8
ATOM      8  N   UNL d   1       1.748   1.827   3.202  0.00  0.00    -0.308 N 
ATOM      9  C   UNL d   1       1.272   0.623   3.228  0.00  0.00     0.121 C 
ATOM     10  HN  UNL d   1       1.136   2.636   3.103  1.00  0.00     0.186 HD
BRANCH   9  11
ATOM     11  C   UNL d   1      -0.175   0.401   3.008  0.00  0.00     0.017 A 
ATOM     12  C   UNL d   1      -0.705  -0.812   2.520  0.00  0.00     0.113 A 
ATOM     13  C   UNL d   1      -2.100  -0.904   2.328  0.00  0.00     0.102 A 
ATOM     14  C   UNL d   1      -2.927   0.184   2.653  0.00  0.00     0.040 A 
ATOM     15  C   UNL d   1      -2.397   1.367   3.151  0.00  0.00     0.004 A 
ATOM     16  C   UNL d   1      -1.024   1.479   3.316  0.00  0.00     0.016 A 
BRANCH  12  17
ATOM     17  O   UNL d   1       0.050  -1.946   2.364  0.00  0.00    -0.352 OA
ATOM     18  C   UNL d   1       1.144  -1.852   1.453  0.00  0.00     0.210 C 
ENDBRANCH  12  17
BRANCH  13  19
ATOM     19  O   UNL d   1      -2.825  -1.975   1.873  0.00  0.00    -0.353 OA
ATOM     20  C   UNL d   1      -2.171  -2.932   1.055  0.00  0.00     0.210 C 
ENDBRANCH  13  19
ENDBRANCH   9  11
ENDBRANCH   5   8
ENDBRANCH   3   4
TORSDOF 5
