REMARK  3 active torsions:
REMARK  status: ('A' for Active; 'I' for Inactive)
REMARK    1  A    between atoms: C_6  and  C_1 
REMARK    2  A    between atoms: C_10  and  N_4 
REMARK       I    between atoms: N_9  and  C_6 
REMARK    3  A    between atoms: C_15  and  N_9 
ROOT
ATOM      1  C   UNL d   1       1.136  -1.216   0.023  0.00  0.00     0.128 C 
ATOM      2  N   UNL d   1       2.326  -0.717  -0.177  0.00  0.00    -0.285 N 
ATOM      3  HN  UNL d   1       3.131  -1.326  -0.321  1.00  0.00     0.188 HD
ATOM      4  N   UNL d   1       2.467   0.666  -0.189  0.00  0.00    -0.219 N 
ATOM      5  C   UNL d   1       1.370   1.533  -0.323  0.00  0.00     0.278 C 
ATOM      6  C   UNL d   1      -0.046  -0.382   0.329  0.00  0.00     0.013 A 
ATOM      7  C   UNL d   1       0.058   0.968   0.030  0.00  0.00     0.046 A 
ATOM      8  O   UNL d   1       1.409   2.716  -0.656  0.00  0.00    -0.265 OA
ATOM      9  C   UNL d   1      -1.237  -0.867   0.883  0.00  0.00     0.015 A 
ATOM     10  C   UNL d   1      -1.053   1.815   0.165  0.00  0.00     0.018 A 
ATOM     11  C   UNL d   1      -2.338  -0.020   1.044  0.00  0.00     0.001 A 
ATOM     12  C   UNL d   1      -2.255   1.315   0.659  0.00  0.00     0.001 A 
ENDROOT
BRANCH   1  13
ATOM     13  C   UNL d   1       0.976  -2.738  -0.132  0.00  0.00     0.275 C 
ATOM     14  N   UNL d   1       2.170  -3.425  -0.220  0.00  0.00    -0.322 N 
ATOM     15  H   UNL d   1       3.003  -2.846  -0.254  0.00  0.00     0.169 HD
ATOM     16  O   UNL d   1      -0.147  -3.212  -0.225  0.00  0.00    -0.266 OA
BRANCH  14  17
ATOM     17  C   UNL d   1       2.323  -4.822  -0.368  0.00  0.00     0.035 A 
ATOM     18  C   UNL d   1       1.262  -5.731  -0.283  0.00  0.00     0.029 A 
ATOM     19  C   UNL d   1       1.480  -7.104  -0.432  0.00  0.00     0.002 A 
ATOM     20  C   UNL d   1       2.762  -7.587  -0.669  0.00  0.00     0.000 A 
ATOM     21  C   UNL d   1       3.828  -6.692  -0.757  0.00  0.00     0.002 A 
ATOM     22  C   UNL d   1       3.609  -5.318  -0.604  0.00  0.00     0.029 A 
ENDBRANCH  14  17
ENDBRANCH   1  13
BRANCH   4  23
ATOM     23  C   UNL d   1       3.820   1.146  -0.114  0.00  0.00     0.060 A 
ATOM     24  C   UNL d   1       4.106   2.474   0.250  0.00  0.00     0.033 A 
ATOM     25  C   UNL d   1       5.423   2.933   0.377  0.00  0.00     0.026 A 
ATOM     26  C   UNL d   1       6.479   2.067   0.137  0.00  0.00     0.034 A 
ATOM     27  C   UNL d   1       6.229   0.746  -0.224  0.00  0.00     0.026 A 
ATOM     28 CL   UNL d   1       8.098   2.626   0.299  0.00  0.00    -0.084 Cl
ATOM     29  C   UNL d   1       4.909   0.288  -0.339  0.00  0.00     0.033 A 
ENDBRANCH   4  23
TORSDOF 3
