REMARK  4 active torsions:
REMARK  status: ('A' for Active; 'I' for Inactive)
REMARK    1  A    between atoms: C_5  and  C_1 
REMARK    2  A    between atoms: O_6  and  N_2 
REMARK    3  A    between atoms: C_4  and  O_6 
REMARK    4  A    between atoms: C_7  and  C_4 
ROOT
ATOM      1  N   UNL d   1       3.494   1.103   0.018  0.00  0.00    -0.261 N 
ATOM      2  HN  UNL d   1       4.310   1.698  -0.123  1.00  0.00     0.194 HD
ATOM      3  C   UNL d   1       2.272   1.538  -0.020  0.00  0.00     0.040 C 
ATOM      4  C   UNL d   1       1.038   0.667   0.043  0.00  0.00     0.071 C 
ENDROOT
BRANCH   1   5
ATOM      5  O   UNL d   1       3.573  -0.275   0.276  0.00  0.00    -0.195 OA
BRANCH   5   6
ATOM      6  C   UNL d   1       4.843  -0.703   0.027  0.00  0.00     0.315 C 
ATOM      7  O   UNL d   1       5.564  -0.367  -0.901  0.00  0.00    -0.257 OA
BRANCH   6   8
ATOM      8  C   UNL d   1       5.278  -1.641   1.096  0.00  0.00     0.044 A 
ATOM      9  C   UNL d   1       4.505  -1.886   2.238  0.00  0.00     0.059 A 
ATOM     10  C   UNL d   1       5.016  -2.693   3.248  0.00  0.00     0.117 A 
ATOM     11  F   UNL d   1       4.284  -2.907   4.349  0.00  0.00    -0.206 F 
ATOM     12  C   UNL d   1       6.279  -3.267   3.146  0.00  0.00     0.042 A 
ATOM     13  C   UNL d   1       7.048  -3.038   2.008  0.00  0.00     0.004 A 
ATOM     14  C   UNL d   1       6.549  -2.227   0.986  0.00  0.00     0.018 A 
ENDBRANCH   6   8
ENDBRANCH   5   6
ENDBRANCH   1   5
BRANCH   3  15
ATOM     15  C   UNL d   1       2.107   2.991  -0.086  0.00  0.00     0.005 A 
ATOM     16  C   UNL d   1       3.138   3.916  -0.124  0.00  0.00     0.101 A 
ATOM     17  N   UNL d   1       2.605   5.176  -0.126  0.00  0.00    -0.374 N 
ATOM     18  C   UNL d   1       1.240   5.088  -0.093  0.00  0.00     0.088 A 
ATOM     19  H   UNL d   1       3.140   6.035  -0.136  0.00  0.00     0.164 HD
ATOM     20  C   UNL d   1       0.901   3.753  -0.077  0.00  0.00     0.032 A 
ENDBRANCH   3  15
TORSDOF 4
