REMARK  4 active torsions:
REMARK  status: ('A' for Active; 'I' for Inactive)
REMARK    1  A    between atoms: C_5  and  C_3 
REMARK    2  A    between atoms: C_11  and  N_4 
REMARK       I    between atoms: N_10  and  C_5 
REMARK       I    between atoms: C_9  and  N_12 
REMARK       I    between atoms: N_13  and  C_9 
REMARK    3  A    between atoms: N_12  and  N_10 
REMARK    4  A    between atoms: C_23  and  N_13 
ROOT
ATOM      1  N   UNL d   1       0.109   1.247   0.901  0.00  0.00    -0.286 N 
ATOM      2  HN  UNL d   1       0.301   2.086   1.449  1.00  0.00     0.188 HD
ATOM      3  C   UNL d   1       0.997   0.763   0.070  0.00  0.00     0.168 C 
ATOM      4  N   UNL d   1      -1.097   0.581   1.010  0.00  0.00    -0.267 N 
ATOM      5  C   UNL d   1       0.707  -0.457  -0.784  0.00  0.00     0.206 C 
ATOM      6  C   UNL d   1      -0.476  -1.247  -0.434  0.00  0.00     0.076 C 
ATOM      7  C   UNL d   1      -1.302  -0.659   0.430  0.00  0.00     0.120 C 
ATOM      8  O   UNL d   1       1.404  -0.755  -1.740  0.00  0.00    -0.286 OA
ENDROOT
BRANCH   3   9
ATOM      9  C   UNL d   1       2.347   1.447  -0.006  0.00  0.00     0.292 C 
ATOM     10  N   UNL d   1       2.343   2.812   0.201  0.00  0.00    -0.260 N 
ATOM     11  H   UNL d   1       1.518   3.340   0.489  0.00  0.00     0.190 HD
ATOM     12  O   UNL d   1       3.360   0.795  -0.225  0.00  0.00    -0.264 OA
BRANCH  10  13
ATOM     13  N   UNL d   1       3.583   3.479   0.179  0.00  0.00    -0.249 N 
ATOM     14  C   UNL d   1       3.595   4.857   0.247  0.00  0.00     0.335 C 
ATOM     15  N   UNL d   1       4.858   5.360   0.032  0.00  0.00    -0.338 N 
ATOM     16  O   UNL d   1       2.597   5.530   0.470  0.00  0.00    -0.246 OA
ATOM     17  H   UNL d   1       5.620   4.726   0.230  0.00  0.00     0.164 HD
ATOM     18  H   UNL d   1       4.297   3.021  -0.382  0.00  0.00     0.192 HD
BRANCH  15  19
ATOM     19  C   UNL d   1       5.145   6.786   0.119  0.00  0.00     0.078 C 
ATOM     20  C   UNL d   1       5.420   7.199   1.564  0.00  0.00     0.032 C 
ATOM     21  C   UNL d   1       6.337   7.132  -0.769  0.00  0.00     0.032 C 
ENDBRANCH  15  19
ENDBRANCH  10  13
ENDBRANCH   3   9
BRANCH   4  22
ATOM     22  C   UNL d   1      -2.085   1.214   1.833  0.00  0.00     0.056 A 
ATOM     23  C   UNL d   1      -3.464   0.975   1.649  0.00  0.00     0.034 A 
ATOM     24  C   UNL d   1      -4.424   1.580   2.467  0.00  0.00     0.044 A 
ATOM     25  C   UNL d   1      -4.017   2.436   3.479  0.00  0.00     0.116 A 
ATOM     26  C   UNL d   1      -2.672   2.708   3.680  0.00  0.00     0.044 A 
ATOM     27  F   UNL d   1      -4.935   3.009   4.269  0.00  0.00    -0.206 F 
ATOM     28  C   UNL d   1      -1.713   2.106   2.857  0.00  0.00     0.034 A 
ENDBRANCH   4  22
TORSDOF 4
