REMARK  3 active torsions:
REMARK  status: ('A' for Active; 'I' for Inactive)
REMARK    1  A    between atoms: C_8  and  C_1 
REMARK    2  A    between atoms: C_7  and  C_2 
REMARK    3  A    between atoms: O_15  and  C_8 
ROOT
ATOM      1  C   UNL d   1      -1.400  -0.797  -0.029  0.00  0.00     0.144 A 
ATOM      2  C   UNL d   1      -0.073  -1.315  -0.002  0.00  0.00     0.058 A 
ATOM      3  N   UNL d   1      -1.374   0.549  -0.077  0.00  0.00    -0.254 N 
ATOM      4  HN  UNL d   1      -2.178   1.175  -0.130  1.00  0.00     0.195 HD
ATOM      5  O   UNL d   1      -0.046   0.913  -0.043  0.00  0.00    -0.241 OA
ATOM      6  C   UNL d   1       0.734  -0.197   0.003  0.00  0.00     0.087 A 
ATOM      7  C   UNL d   1       2.188   0.054   0.011  0.00  0.00     0.080 C 
ENDROOT
BRANCH   2   8
ATOM      8  C   UNL d   1       0.351  -2.712  -0.010  0.00  0.00     0.064 A 
ATOM      9  N   UNL d   1       1.505  -3.115   0.538  0.00  0.00    -0.300 N 
ATOM     10  N   UNL d   1       1.536  -4.437   0.302  0.00  0.00    -0.311 N 
ATOM     11  HN  UNL d   1       2.200  -2.549   1.023  1.00  0.00     0.187 HD
ATOM     12  C   UNL d   1       0.462  -4.886  -0.404  0.00  0.00     0.109 A 
ATOM     13  H   UNL d   1       2.330  -4.969   0.644  0.00  0.00     0.186 HD
ATOM     14  C   UNL d   1      -0.325  -3.783  -0.634  0.00  0.00     0.050 A 
ENDBRANCH   2   8
BRANCH   1  15
ATOM     15  C   UNL d   1      -2.674  -1.509   0.004  0.00  0.00     0.312 C 
ATOM     16  O   UNL d   1      -2.822  -2.631   0.481  0.00  0.00    -0.258 OA
BRANCH  15  17
ATOM     17  O   UNL d   1      -3.689  -0.812  -0.595  0.00  0.00    -0.321 OA
ATOM     18  C   UNL d   1      -4.926  -1.519  -0.665  0.00  0.00     0.213 C 
ENDBRANCH  15  17
ENDBRANCH   1  15
TORSDOF 3
