REMARK  5 active torsions:
REMARK  status: ('A' for Active; 'I' for Inactive)
REMARK    1  A    between atoms: C_5  and  C_1 
REMARK    2  A    between atoms: C_3  and  C_2 
REMARK    3  A    between atoms: C_6  and  C_4 
REMARK    4  A    between atoms: C_9  and  C_7 
REMARK    5  A    between atoms: C_10  and  C_8 
ROOT
ATOM      1  C   UNL d   1       1.065  -0.033   0.018  0.00  0.00     0.000 C 
ATOM      2  C   UNL d   1       0.350  -0.144   1.148  0.00  0.00     0.000 C 
ENDROOT
BRANCH   2   3
ATOM      3  C   UNL d   1      -1.095  -0.148   1.165  0.00  0.00     0.000 C 
ATOM      4  C   UNL d   1      -1.812  -0.269   2.294  0.00  0.00     0.000 C 
BRANCH   4   5
ATOM      5  C   UNL d   1      -3.258  -0.301   2.294  0.00  0.00     0.001 C 
ATOM      6  C   UNL d   1      -3.989  -0.448   3.411  0.00  0.00     0.011 C 
BRANCH   6   7
ATOM      7  C   UNL d   1      -5.459  -0.522   3.436  0.00  0.00    -0.036 A 
ATOM      8  C   UNL d   1      -6.199  -1.079   2.383  0.00  0.00     0.011 A 
ATOM      9  C   UNL d   1      -7.591  -1.170   2.458  0.00  0.00     0.001 A 
ATOM     10  C   UNL d   1      -8.260  -0.718   3.593  0.00  0.00     0.000 A 
ATOM     11  C   UNL d   1      -7.537  -0.177   4.653  0.00  0.00     0.001 A 
ATOM     12  C   UNL d   1      -6.144  -0.083   4.577  0.00  0.00     0.011 A 
ENDBRANCH   6   7
ENDBRANCH   4   5
ENDBRANCH   2   3
BRANCH   1  13
ATOM     13  C   UNL d   1       2.512  -0.061   0.011  0.00  0.00     0.001 C 
ATOM     14  C   UNL d   1       3.243   0.021  -1.113  0.00  0.00     0.011 C 
BRANCH  14  15
ATOM     15  C   UNL d   1       4.713  -0.044  -1.149  0.00  0.00    -0.036 A 
ATOM     16  C   UNL d   1       5.454  -0.802  -0.231  0.00  0.00     0.011 A 
ATOM     17  C   UNL d   1       6.846  -0.875  -0.322  0.00  0.00     0.001 A 
ATOM     18  C   UNL d   1       7.515  -0.202  -1.341  0.00  0.00     0.000 A 
ATOM     19  C   UNL d   1       6.792   0.542  -2.270  0.00  0.00     0.001 A 
ATOM     20  C   UNL d   1       5.398   0.617  -2.178  0.00  0.00     0.011 A 
ENDBRANCH  14  15
ENDBRANCH   1  13
TORSDOF 5
