REMARK  2 active torsions:
REMARK  status: ('A' for Active; 'I' for Inactive)
REMARK    1  A    between atoms: C_2  and  S_1 
REMARK    2  A    between atoms: N_3  and  S_1 
ROOT
ATOM      1  S   UNL d   1       1.142  -0.145   0.230  0.00  0.00     0.245 S 
ATOM      2  O   UNL d   1       1.013  -0.132  -1.214  0.00  0.00    -0.206 OA
ATOM      3  O   UNL d   1       2.463  -0.139   0.821  0.00  0.00    -0.206 OA
ENDROOT
BRANCH   1   4
ATOM      4  C   UNL d   1       0.333  -1.612   0.809  0.00  0.00     0.098 A 
ATOM      5  C   UNL d   1      -0.143  -2.516  -0.158  0.00  0.00     0.050 A 
ATOM      6  C   UNL d   1      -0.614  -3.771   0.216  0.00  0.00     0.035 A 
ATOM      7 CL   UNL d   1      -1.132  -4.885  -0.987  0.00  0.00    -0.084 Cl
ATOM      8  C   UNL d   1      -0.632  -4.142   1.556  0.00  0.00     0.025 A 
ATOM      9  C   UNL d   1      -0.158  -3.255   2.523  0.00  0.00     0.027 A 
ATOM     10  C   UNL d   1       0.339  -1.989   2.159  0.00  0.00     0.057 A 
ATOM     11 CL   UNL d   1       0.948  -1.002   3.432  0.00  0.00    -0.083 Cl
ENDBRANCH   1   4
BRANCH   1  12
ATOM     12  N   UNL d   1       0.261   1.206   0.832  0.00  0.00    -0.202 NA
ATOM     13  C   UNL d   1      -1.137   1.429   0.328  0.00  0.00     0.070 C 
ATOM     14  C   UNL d   1      -1.932   2.278   1.333  0.00  0.00     0.027 C 
ATOM     15  C   UNL d   1      -1.145   2.094  -1.059  0.00  0.00     0.020 C 
ATOM     16  C   UNL d   1      -0.265   3.341  -1.136  0.00  0.00     0.003 C 
ATOM     17  C   UNL d   1       1.126   3.089  -0.566  0.00  0.00     0.015 C 
ATOM     18  C   UNL d   1       1.067   2.470   0.826  0.00  0.00     0.108 C 
ENDBRANCH   1  12
TORSDOF 2
