REMARK  7 active torsions:
REMARK  status: ('A' for Active; 'I' for Inactive)
REMARK    1  A    between atoms: S_9  and  C_2 
REMARK    2  A    between atoms: C_12  and  C_3 
REMARK    3  A    between atoms: C_8  and  S_11 
REMARK    4  A    between atoms: C_17  and  S_9 
REMARK    5  A    between atoms: S_11  and  C_12 
REMARK    6  A    between atoms: C_18  and  C_17 
REMARK    7  A    between atoms: O_24  and  C_19 
ROOT
ATOM      1  N   UNL d   1       0.878   0.022   0.061  0.00  0.00    -0.319 N 
ATOM      2  C   UNL d   1      -0.003   1.066   0.122  0.00  0.00     0.162 A 
ATOM      3  C   UNL d   1       0.101  -1.119   0.040  0.00  0.00     0.109 A 
ATOM      4  N   UNL d   1      -1.232   0.608   0.081  0.00  0.00    -0.278 N 
ATOM      5  HN  UNL d   1      -2.083   1.170   0.090  1.00  0.00     0.189 HD
ATOM      6  N   UNL d   1      -1.170  -0.761   0.024  0.00  0.00    -0.286 N 
ATOM      7  HN  UNL d   1      -1.968  -1.395  -0.022  1.00  0.00     0.188 HD
ATOM      8  C   UNL d   1       2.318   0.062   0.050  0.00  0.00     0.159 C 
ENDROOT
BRANCH   2   9
ATOM      9  S   UNL d   1       0.454   2.729   0.247  0.00  0.00    -0.088 SA
BRANCH   9  10
ATOM     10  C   UNL d   1      -1.106   3.442   0.854  0.00  0.00     0.121 C 
BRANCH  10  11
ATOM     11  C   UNL d   1      -0.996   4.929   1.088  0.00  0.00    -0.048 A 
ATOM     12  C   UNL d   1      -1.427   5.840   0.112  0.00  0.00     0.011 A 
ATOM     13  C   UNL d   1      -1.346   7.221   0.334  0.00  0.00     0.037 A 
ATOM     14  C   UNL d   1      -0.827   7.710   1.532  0.00  0.00     0.068 A 
ATOM     15  C   UNL d   1      -0.397   6.806   2.506  0.00  0.00     0.037 A 
ATOM     16  C   UNL d   1      -0.470   5.429   2.285  0.00  0.00     0.011 A 
BRANCH  14  17
ATOM     17  O   UNL d   1      -0.715   9.028   1.878  0.00  0.00    -0.356 OA
ATOM     18  C   UNL d   1      -0.764   9.967   0.813  0.00  0.00     0.210 C 
ENDBRANCH  14  17
ENDBRANCH  10  11
ENDBRANCH   9  10
ENDBRANCH   2   9
BRANCH   3  19
ATOM     19  C   UNL d   1       0.612  -2.521   0.031  0.00  0.00     0.158 C 
BRANCH  19  20
ATOM     20  S   UNL d   1       1.241  -2.977   1.675  0.00  0.00    -0.115 SA
BRANCH  20  21
ATOM     21  C   UNL d   1       1.844  -4.617   1.482  0.00  0.00     0.041 A 
ATOM     22  S   UNL d   1       1.530  -5.649   0.155  0.00  0.00    -0.095 SA
ATOM     23  C   UNL d   1       2.418  -6.935   0.849  0.00  0.00     0.051 A 
ATOM     24  C   UNL d   1       2.957  -6.589   2.066  0.00  0.00     0.009 A 
ATOM     25  C   UNL d   1       2.625  -5.251   2.429  0.00  0.00     0.026 A 
ENDBRANCH  20  21
ENDBRANCH  19  20
ENDBRANCH   3  19
TORSDOF 7
