REMARK  8 active torsions:
REMARK  status: ('A' for Active; 'I' for Inactive)
REMARK    1  A    between atoms: C_13  and  C_1 
REMARK    2  A    between atoms: C_12  and  C_4 
REMARK    3  A    between atoms: C_5  and  C_8 
REMARK    4  A    between atoms: C_6  and  C_9 
REMARK    5  A    between atoms: C_7  and  C_14 
REMARK    6  A    between atoms: O_22  and  C_13 
REMARK    7  A    between atoms: C_19  and  C_34 
REMARK    8  A    between atoms: C_34  and  O_22 
ROOT
ATOM      1  C   UNL d   1      -5.844   5.234  -0.097  0.00  0.00     0.086 A 
ATOM      2  O   UNL d   1      -5.552   3.901  -0.088  0.00  0.00    -0.312 OA
ATOM      3  C   UNL d   1      -4.670   5.964  -0.060  0.00  0.00     0.040 A 
ATOM      4  C   UNL d   1      -4.194   3.779   0.011  0.00  0.00     0.078 A 
ATOM      5  C   UNL d   1      -3.612   5.027   0.009  0.00  0.00     0.038 A 
ENDROOT
BRANCH   4   6
ATOM      6  C   UNL d   1      -3.634   2.405   0.102  0.00  0.00     0.244 C 
BRANCH   6   7
ATOM      7  O   UNL d   1      -4.575   1.551   0.771  0.00  0.00    -0.311 OA
BRANCH   7   8
ATOM      8  C   UNL d   1      -4.524   1.551   2.129  0.00  0.00     0.295 C 
ATOM      9  O   UNL d   1      -3.714   2.160   2.806  0.00  0.00    -0.259 OA
BRANCH   8  10
ATOM     10  C   UNL d   1      -5.621   0.694   2.670  0.00  0.00     0.061 A 
ATOM     11  C   UNL d   1      -5.973   0.710   4.024  0.00  0.00     0.022 A 
ATOM     12  N   UNL d   1      -6.990  -0.052   4.519  0.00  0.00    -0.355 N 
ATOM     13  C   UNL d   1      -5.291   1.554   5.059  0.00  0.00     0.069 C 
ATOM     14  C   UNL d   1      -7.697  -0.864   3.681  0.00  0.00     0.117 A 
ATOM     15  HN  UNL d   1      -7.220  -0.017   5.512  1.00  0.00     0.166 HD
ATOM     16  C   UNL d   1      -7.386  -0.945   2.330  0.00  0.00     0.035 A 
ATOM     17  C   UNL d   1      -6.346  -0.162   1.827  0.00  0.00     0.022 A 
BRANCH  14  18
ATOM     18  C   UNL d   1      -8.850  -1.682   4.246  0.00  0.00     0.432 C 
ATOM     19  F   UNL d   1      -9.050  -1.524   5.585  0.00  0.00    -0.165 F 
ATOM     20  F   UNL d   1     -10.042  -1.373   3.655  0.00  0.00    -0.165 F 
ATOM     21  F   UNL d   1      -8.684  -3.022   4.050  0.00  0.00    -0.165 F 
ENDBRANCH  14  18
ENDBRANCH   8  10
ENDBRANCH   7   8
ENDBRANCH   6   7
ENDBRANCH   4   6
BRANCH   1  22
ATOM     22  C   UNL d   1      -7.257   5.586  -0.079  0.00  0.00    -0.001 A 
ATOM     23  C   UNL d   1      -7.668   6.807   0.472  0.00  0.00     0.030 A 
ATOM     24  C   UNL d   1      -9.027   7.150   0.565  0.00  0.00     0.049 A 
ATOM     25  C   UNL d   1      -9.988   6.252   0.077  0.00  0.00     0.032 A 
ATOM     26  C   UNL d   1      -9.605   5.020  -0.477  0.00  0.00     0.049 A 
ATOM     27  C   UNL d   1      -8.237   4.704  -0.557  0.00  0.00     0.030 A 
BRANCH  24  28
ATOM     28  C   UNL d   1      -9.420   8.450   1.224  0.00  0.00     0.417 C 
ATOM     29  F   UNL d   1     -10.765   8.650   1.275  0.00  0.00    -0.166 F 
ATOM     30  F   UNL d   1      -8.981   8.528   2.511  0.00  0.00    -0.166 F 
ATOM     31  F   UNL d   1      -8.901   9.534   0.586  0.00  0.00    -0.166 F 
ENDBRANCH  24  28
BRANCH  26  32
ATOM     32  C   UNL d   1     -10.633   4.019  -0.950  0.00  0.00     0.417 C 
ATOM     33  F   UNL d   1     -11.917   4.422  -0.739  0.00  0.00    -0.166 F 
ATOM     34  F   UNL d   1     -10.536   3.758  -2.282  0.00  0.00    -0.166 F 
ATOM     35  F   UNL d   1     -10.512   2.817  -0.321  0.00  0.00    -0.166 F 
ENDBRANCH  26  32
ENDBRANCH   1  22
TORSDOF 8
