REMARK  4 active torsions:
REMARK  status: ('A' for Active; 'I' for Inactive)
REMARK    1  A    between atoms: C_7  and  N_1 
REMARK    2  A    between atoms: S_2  and  C_6 
REMARK    3  A    between atoms: C_8  and  S_2 
REMARK    4  A    between atoms: C_6  and  C_7 
ROOT
ATOM      1  S   UNL d   1      -0.197  -5.085  -0.221  0.00  0.00     0.177 S 
ATOM      2  O   UNL d   1       0.760  -5.350   0.836  0.00  0.00    -0.223 OA
ATOM      3  O   UNL d   1      -1.446  -5.819  -0.290  0.00  0.00    -0.223 OA
ENDROOT
BRANCH   1   4
ATOM      4  C   UNL d   1      -0.593  -3.354  -0.176  0.00  0.00     0.166 C 
BRANCH   4   5
ATOM      5  C   UNL d   1      -1.546  -2.953  -1.288  0.00  0.00     0.151 C 
BRANCH   5   6
ATOM      6  N   UNL d   1      -1.869  -1.530  -1.242  0.00  0.00    -0.278 N 
ATOM      7  C   UNL d   1      -2.968  -1.072  -0.571  0.00  0.00     0.289 A 
ATOM      8  S   UNL d   1      -3.083   0.666  -0.684  0.00  0.00    -0.059 SA
ATOM      9  O   UNL d   1      -3.771  -1.744   0.055  0.00  0.00    -0.260 OA
ATOM     10  C   UNL d   1      -1.547   0.814  -1.613  0.00  0.00     0.187 A 
ATOM     11  C   UNL d   1      -1.023  -0.589  -1.777  0.00  0.00     0.236 A 
ATOM     12  O   UNL d   1       0.050  -0.848  -2.311  0.00  0.00    -0.272 OA
ENDBRANCH   5   6
ENDBRANCH   4   5
ENDBRANCH   1   4
BRANCH   1  13
ATOM     13  C   UNL d   1       0.664  -5.341  -1.753  0.00  0.00     0.059 A 
ATOM     14  C   UNL d   1       1.857  -4.654  -1.992  0.00  0.00     0.024 A 
ATOM     15  C   UNL d   1       2.529  -4.848  -3.200  0.00  0.00     0.008 A 
ATOM     16  C   UNL d   1       2.022  -5.729  -4.165  0.00  0.00    -0.062 A 
ATOM     17  C   UNL d   1       0.840  -6.433  -3.898  0.00  0.00     0.008 A 
ATOM     18  C   UNL d   1       2.763  -5.929  -5.455  0.00  0.00     0.048 C 
ATOM     19  C   UNL d   1       0.159  -6.241  -2.695  0.00  0.00     0.024 A 
ENDBRANCH   1  13
TORSDOF 4
