REMARK  9 active torsions:
REMARK  status: ('A' for Active; 'I' for Inactive)
REMARK    1  A    between atoms: S_2  and  C_1 
REMARK    2  A    between atoms: N_15  and  S_2 
REMARK    3  A    between atoms: C_10  and  C_4 
REMARK    4  A    between atoms: C_6  and  C_5 
REMARK    5  A    between atoms: C_9  and  N_21 
REMARK    6  A    between atoms: O_25  and  C_10 
REMARK    7  A    between atoms: C_26  and  N_15 
REMARK    8  A    between atoms: N_21  and  C_28 
REMARK    9  A    between atoms: C_28  and  C_26 
ROOT
ATOM      1  C   UNL d   1       2.379   4.562   0.134  0.00  0.00     0.147 C 
ENDROOT
BRANCH   1   2
ATOM      2  N   UNL d   1       1.950   3.185  -0.184  0.00  0.00    -0.313 N 
ATOM      3  H   UNL d   1       2.448   2.715  -0.937  0.00  0.00     0.172 HD
BRANCH   2   4
ATOM      4  S   UNL d   1       0.332   2.746  -0.113  0.00  0.00     0.274 S 
ATOM      5  O   UNL d   1      -0.145   2.893   1.238  0.00  0.00    -0.199 OA
ATOM      6  O   UNL d   1       0.198   1.507  -0.843  0.00  0.00    -0.199 OA
BRANCH   4   7
ATOM      7  C   UNL d   1      -0.575   3.953  -1.067  0.00  0.00     0.151 A 
ATOM      8  N   UNL d   1      -0.465   4.128  -2.438  0.00  0.00    -0.336 N 
ATOM      9  C   UNL d   1      -1.321   5.141  -2.866  0.00  0.00     0.111 A 
ATOM     10  C   UNL d   1       0.405   3.391  -3.336  0.00  0.00     0.157 C 
ATOM     11  C   UNL d   1      -1.967   5.615  -1.736  0.00  0.00     0.039 A 
ATOM     12  C   UNL d   1      -1.501   4.888  -0.626  0.00  0.00     0.046 A 
BRANCH   9  13
ATOM     13  C   UNL d   1      -1.489   5.588  -4.241  0.00  0.00     0.309 C 
ATOM     14  O   UNL d   1      -0.881   5.163  -5.213  0.00  0.00    -0.258 OA
BRANCH  13  15
ATOM     15  O   UNL d   1      -2.439   6.564  -4.285  0.00  0.00    -0.321 OA
ATOM     16  C   UNL d   1      -2.714   7.081  -5.587  0.00  0.00     0.213 C 
ENDBRANCH  13  15
ENDBRANCH   9  13
ENDBRANCH   4   7
ENDBRANCH   2   4
ENDBRANCH   1   2
BRANCH   1  17
ATOM     17  C   UNL d   1       1.925   5.053   1.513  0.00  0.00     0.114 C 
BRANCH  17  18
ATOM     18  N   UNL d   1       2.347   6.443   1.762  0.00  0.00    -0.277 NA
ATOM     19  H   UNL d   1       2.072   7.064   1.003  0.00  0.00     0.129 HD
BRANCH  18  20
ATOM     20  C   UNL d   1       1.854   6.948   2.979  0.00  0.00     0.095 A 
ATOM     21  C   UNL d   1       2.107   8.257   3.385  0.00  0.00     0.087 A 
ATOM     22  C   UNL d   1       1.592   8.684   4.628  0.00  0.00     0.044 A 
ATOM     23  C   UNL d   1       0.848   7.818   5.415  0.00  0.00     0.050 A 
ATOM     24  C   UNL d   1       0.649   6.542   4.944  0.00  0.00     0.113 A 
ATOM     25 CL   UNL d   1       0.199   8.321   6.917  0.00  0.00    -0.083 Cl
ATOM     26  N   UNL d   1       1.143   6.106   3.765  0.00  0.00    -0.355 N 
ATOM     27  HN  UNL d   1       0.980   5.144   3.467  1.00  0.00     0.166 HD
BRANCH  21  28
ATOM     28  C   UNL d   1       2.900   9.239   2.578  0.00  0.00     0.420 C 
ATOM     29  F   UNL d   1       3.292   8.820   1.343  0.00  0.00    -0.166 F 
ATOM     30  F   UNL d   1       2.189  10.384   2.348  0.00  0.00    -0.166 F 
ATOM     31  F   UNL d   1       4.034   9.643   3.216  0.00  0.00    -0.166 F 
ENDBRANCH  21  28
ENDBRANCH  18  20
ENDBRANCH  17  18
ENDBRANCH   1  17
TORSDOF 9
