REMARK  4 active torsions:
REMARK  status: ('A' for Active; 'I' for Inactive)
REMARK    1  A    between atoms: C_8  and  C_5 
REMARK    2  A    between atoms: C_12  and  C_8 
REMARK    3  A    between atoms: S_9  and  C_12 
REMARK    4  A    between atoms: C_11  and  S_9 
ROOT
ATOM      1  N   UNL d   1       0.994   1.103   0.040  0.00  0.00    -0.327 N 
ATOM      2  C   UNL d   1      -0.315   0.619  -0.022  0.00  0.00     0.041 A 
ATOM      3  C   UNL d   1       2.109   0.314  -0.066  0.00  0.00     0.222 C 
ATOM      4  C   UNL d   1      -0.544  -0.761   0.002  0.00  0.00    -0.030 A 
ATOM      5  C   UNL d   1      -2.935  -0.352  -0.085  0.00  0.00     0.011 A 
ATOM      6  C   UNL d   1      -1.858  -1.247  -0.036  0.00  0.00     0.024 A 
ATOM      7  C   UNL d   1      -1.382   1.516  -0.082  0.00  0.00     0.031 A 
ATOM      8  O   UNL d   1       3.236   0.792   0.040  0.00  0.00    -0.273 OA
ATOM      9  C   UNL d   1      -2.689   1.027  -0.125  0.00  0.00     0.017 A 
ATOM     10  C   UNL d   1       0.622  -1.689   0.200  0.00  0.00     0.050 C 
ATOM     11  C   UNL d   1       1.876  -1.130  -0.451  0.00  0.00     0.108 C 
ATOM     12  H   UNL d   1       1.167   2.092   0.167  0.00  0.00     0.169 HD
ENDROOT
BRANCH   5  13
ATOM     13  C   UNL d   1      -4.352  -0.818  -0.059  0.00  0.00     0.169 C 
ATOM     14  O   UNL d   1      -5.201  -0.146  -0.654  0.00  0.00    -0.291 OA
BRANCH  13  15
ATOM     15  C   UNL d   1      -4.732  -2.110   0.651  0.00  0.00     0.163 C 
BRANCH  15  16
ATOM     16  S   UNL d   1      -4.064  -2.136   2.349  0.00  0.00    -0.120 SA
BRANCH  16  17
ATOM     17  C   UNL d   1      -4.488  -3.755   3.002  0.00  0.00     0.022 A 
ATOM     18  C   UNL d   1      -3.791  -4.268   4.120  0.00  0.00     0.052 A 
ATOM     19  C   UNL d   1      -4.194  -5.454   4.744  0.00  0.00     0.049 A 
ATOM     20 CL   UNL d   1      -2.401  -3.480   4.798  0.00  0.00    -0.083 Cl
ATOM     21  C   UNL d   1      -5.290  -6.151   4.253  0.00  0.00     0.035 A 
ATOM     22  C   UNL d   1      -5.968  -5.689   3.129  0.00  0.00     0.025 A 
ATOM     23 CL   UNL d   1      -5.821  -7.579   5.050  0.00  0.00    -0.084 Cl
ATOM     24  C   UNL d   1      -5.570  -4.498   2.507  0.00  0.00     0.022 A 
ENDBRANCH  16  17
ENDBRANCH  15  16
ENDBRANCH  13  15
ENDBRANCH   5  13
TORSDOF 4
