REMARK  3 active torsions:
REMARK  status: ('A' for Active; 'I' for Inactive)
REMARK    1  A    between atoms: C_5  and  C_1 
REMARK    2  A    between atoms: C_8  and  C_4 
REMARK    3  A    between atoms: C_12  and  C_5 
ROOT
ATOM      1  C   UNL d   1      -0.033  -2.686   0.018  0.00  0.00     0.218 C 
ATOM      2  C   UNL d   1      -0.670  -3.068   1.306  0.00  0.00     0.078 C 
ATOM      3  N   UNL d   1      -1.125  -3.366   2.331  0.00  0.00    -0.196 NA
ENDROOT
BRANCH   1   4
ATOM      4  C   UNL d   1       0.194  -1.192  -0.049  0.00  0.00     0.076 A 
ATOM      5  N   UNL d   1       1.379  -0.617  -0.166  0.00  0.00    -0.351 N 
ATOM      6  C   UNL d   1       1.262   0.768  -0.052  0.00  0.00     0.049 A 
ATOM      7  HN  UNL d   1       2.255  -1.116  -0.317  1.00  0.00     0.166 HD
ATOM      8  C   UNL d   1      -0.034   1.229   0.052  0.00  0.00     0.081 A 
ATOM      9  S   UNL d   1      -1.130  -0.083   0.058  0.00  0.00    -0.085 SA
BRANCH   6  10
ATOM     10  C   UNL d   1       2.432   1.641  -0.054  0.00  0.00    -0.008 A 
ATOM     11  C   UNL d   1       3.570   1.281  -0.791  0.00  0.00     0.022 A 
ATOM     12  C   UNL d   1       4.718   2.095  -0.815  0.00  0.00    -0.039 A 
ATOM     13  C   UNL d   1       5.907   1.673  -1.631  0.00  0.00     0.050 C 
ATOM     14  C   UNL d   1       4.716   3.282  -0.069  0.00  0.00     0.040 A 
ATOM     15  C   UNL d   1       3.594   3.648   0.676  0.00  0.00     0.025 A 
ATOM     16 CL   UNL d   1       6.087   4.332  -0.033  0.00  0.00    -0.084 Cl
ATOM     17  C   UNL d   1       2.458   2.834   0.684  0.00  0.00     0.015 A 
ENDBRANCH   6  10
ENDBRANCH   1   4
BRANCH   1  18
ATOM     18  C   UNL d   1      -0.892  -3.104  -1.166  0.00  0.00     0.147 C 
ATOM     19  O   UNL d   1      -2.112  -3.239  -1.086  0.00  0.00    -0.297 OA
ATOM     20  C   UNL d   1      -0.217  -3.361  -2.495  0.00  0.00     0.093 C 
ENDBRANCH   1  18
TORSDOF 3
