REMARK  6 active torsions:
REMARK  status: ('A' for Active; 'I' for Inactive)
REMARK    1  A    between atoms: C_2  and  C_1 
REMARK       I    between atoms: N_4  and  C_2 
REMARK    2  A    between atoms: C_3  and  C_11 
REMARK    3  A    between atoms: C_17  and  N_4 
REMARK    4  A    between atoms: O_8  and  C_5 
REMARK    5  A    between atoms: C_11  and  O_8 
REMARK    6  A    between atoms: O_19  and  C_16 
ROOT
ATOM      1  C   UNL d   1       1.512  -0.195   0.099  0.00  0.00     0.068 A 
ATOM      2  C   UNL d   1       0.728  -1.355   0.159  0.00  0.00     0.085 A 
ATOM      3  C   UNL d   1       0.886   1.057  -0.032  0.00  0.00     0.056 A 
ATOM      4  C   UNL d   1      -0.667  -1.246   0.099  0.00  0.00     0.040 A 
ATOM      5  C   UNL d   1      -0.506   1.155  -0.081  0.00  0.00     0.069 A 
ATOM      6  C   UNL d   1      -1.284   0.001  -0.035  0.00  0.00     0.039 A 
ENDROOT
BRANCH   1   7
ATOM      7  C   UNL d   1       2.993  -0.240   0.265  0.00  0.00     0.259 C 
ATOM      8  N   UNL d   1       3.717   0.628  -0.533  0.00  0.00    -0.322 N 
ATOM      9  H   UNL d   1       3.217   1.310  -1.089  0.00  0.00     0.169 HD
ATOM     10  O   UNL d   1       3.471  -1.018   1.080  0.00  0.00    -0.267 OA
BRANCH   8  11
ATOM     11  C   UNL d   1       5.128   0.679  -0.618  0.00  0.00     0.050 A 
ATOM     12  C   UNL d   1       5.988  -0.306  -0.132  0.00  0.00     0.117 A 
ATOM     13  N   UNL d   1       7.339  -0.264  -0.248  0.00  0.00    -0.373 N 
ATOM     14  C   UNL d   1       7.865   0.819  -0.851  0.00  0.00     0.088 A 
ATOM     15  HN  UNL d   1       7.929  -1.017   0.105  1.00  0.00     0.164 HD
ATOM     16  C   UNL d   1       7.102   1.855  -1.362  0.00  0.00     0.019 A 
ATOM     17  C   UNL d   1       5.714   1.774  -1.253  0.00  0.00     0.032 A 
ENDBRANCH   8  11
ENDBRANCH   1   7
BRANCH   2  18
ATOM     18  O   UNL d   1       1.188  -2.633   0.352  0.00  0.00    -0.341 OA
BRANCH  18  19
ATOM     19  C   UNL d   1       2.137  -3.085  -0.629  0.00  0.00     0.293 C 
BRANCH  19  20
ATOM     20  C   UNL d   1       1.891  -4.542  -1.003  0.00  0.00     0.408 C 
ATOM     21  F   UNL d   1       0.576  -4.853  -1.015  0.00  0.00    -0.169 F 
ATOM     22  F   UNL d   1       2.369  -4.791  -2.247  0.00  0.00    -0.169 F 
ATOM     23  F   UNL d   1       2.513  -5.392  -0.157  0.00  0.00    -0.169 F 
ENDBRANCH  19  20
ENDBRANCH  18  19
ENDBRANCH   2  18
BRANCH   5  24
ATOM     24  O   UNL d   1      -0.998   2.426  -0.189  0.00  0.00    -0.356 OA
ATOM     25  C   UNL d   1      -2.233   2.651   0.488  0.00  0.00     0.210 C 
ENDBRANCH   5  24
TORSDOF 6
