REMARK  5 active torsions:
REMARK  status: ('A' for Active; 'I' for Inactive)
REMARK    1  A    between atoms: C_2  and  C_1 
REMARK    2  A    between atoms: O_6  and  C_1 
REMARK    3  A    between atoms: N_3  and  O_6 
REMARK    4  A    between atoms: C_7  and  C_5 
REMARK    5  A    between atoms: C_8  and  C_5 
ROOT
ATOM      1  N   UNL d   1      -1.101  -0.628  -1.150  0.00  0.00    -0.256 N 
ATOM      2  HN  UNL d   1      -1.623  -0.046  -0.495  1.00  0.00     0.195 HD
ATOM      3  C   UNL d   1      -1.671  -1.523  -1.911  0.00  0.00     0.075 C 
ENDROOT
BRANCH   3   4
ATOM      4  C   UNL d   1      -0.947  -2.450  -2.847  0.00  0.00    -0.007 A 
ATOM      5  C   UNL d   1       0.236  -3.091  -2.451  0.00  0.00     0.017 A 
ATOM      6  C   UNL d   1       0.912  -3.935  -3.336  0.00  0.00     0.043 A 
ATOM      7  C   UNL d   1       0.377  -4.181  -4.594  0.00  0.00     0.116 A 
ATOM      8  C   UNL d   1      -0.811  -3.582  -4.994  0.00  0.00     0.043 A 
ATOM      9  F   UNL d   1       1.011  -5.012  -5.430  0.00  0.00    -0.206 F 
ATOM     10  C   UNL d   1      -1.463  -2.697  -4.131  0.00  0.00     0.017 A 
ENDBRANCH   3   4
BRANCH   3  11
ATOM     11  C   UNL d   1      -3.175  -1.596  -1.847  0.00  0.00    -0.007 A 
ATOM     12  C   UNL d   1      -3.897  -0.428  -1.561  0.00  0.00     0.017 A 
ATOM     13  C   UNL d   1      -5.296  -0.443  -1.554  0.00  0.00     0.043 A 
ATOM     14  C   UNL d   1      -5.966  -1.629  -1.827  0.00  0.00     0.116 A 
ATOM     15  C   UNL d   1      -5.267  -2.804  -2.083  0.00  0.00     0.043 A 
ATOM     16  F   UNL d   1      -7.305  -1.642  -1.847  0.00  0.00    -0.206 F 
ATOM     17  C   UNL d   1      -3.869  -2.793  -2.078  0.00  0.00     0.017 A 
ENDBRANCH   3  11
BRANCH   1  18
ATOM     18  O   UNL d   1       0.290  -0.535  -1.310  0.00  0.00    -0.195 OA
BRANCH  18  19
ATOM     19  C   UNL d   1       0.832   0.295  -0.355  0.00  0.00     0.336 C 
ATOM     20  O   UNL d   1       0.180   0.935   0.474  0.00  0.00    -0.258 OA
BRANCH  19  21
ATOM     21  C   UNL d   1       2.360   0.312  -0.429  0.00  0.00     0.278 C 
ATOM     22 CL   UNL d   1       3.034  -0.724  -1.722  0.00  0.00    -0.073 Cl
ATOM     23 CL   UNL d   1       2.898   1.993  -0.708  0.00  0.00    -0.073 Cl
ATOM     24 CL   UNL d   1       3.001  -0.269   1.139  0.00  0.00    -0.073 Cl
ENDBRANCH  19  21
ENDBRANCH  18  19
ENDBRANCH   1  18
TORSDOF 5
