REMARK  4 active torsions:
REMARK  status: ('A' for Active; 'I' for Inactive)
REMARK       I    between atoms: N_3  and  C_1 
REMARK       I    between atoms: N_5  and  C_1 
REMARK       I    between atoms: C_2  and  N_4 
REMARK    1  A    between atoms: O_6  and  C_2 
REMARK    2  A    between atoms: C_7  and  N_5 
REMARK    3  A    between atoms: C_14  and  O_6 
REMARK    4  A    between atoms: O_16  and  C_15 
ROOT
ATOM      1  C   UNL d   1       1.040   0.109   0.097  0.00  0.00     0.323 C 
ATOM      2  C   UNL d   1      -0.862   3.629  -3.751  0.00  0.00     0.363 C 
ATOM      3  N   UNL d   1       0.581   0.985  -0.881  0.00  0.00    -0.331 N 
ATOM      4  N   UNL d   1      -0.186   3.069  -2.686  0.00  0.00    -0.325 N 
ATOM      5  N   UNL d   1       2.259  -0.461  -0.197  0.00  0.00    -0.306 N 
ATOM      6  O   UNL d   1       0.445  -0.058   1.162  0.00  0.00    -0.247 OA
ATOM      7  O   UNL d   1      -0.542   3.418  -4.916  0.00  0.00    -0.238 OA
ATOM      8  C   UNL d   1       0.940   0.900  -2.307  0.00  0.00     0.147 C 
ATOM      9  C   UNL d   1      -0.636   1.770  -0.615  0.00  0.00     0.147 C 
ATOM     10  C   UNL d   1       1.024   2.291  -2.940  0.00  0.00     0.148 C 
ATOM     11  C   UNL d   1      -0.579   3.165  -1.274  0.00  0.00     0.148 C 
ATOM     12  H   UNL d   1       2.841   0.086  -0.813  0.00  0.00     0.171 HD
ENDROOT
BRANCH   5  13
ATOM     13  C   UNL d   1       2.991  -1.299   0.669  0.00  0.00     0.069 A 
ATOM     14  C   UNL d   1       4.378  -1.118   0.795  0.00  0.00     0.095 A 
ATOM     15  C   UNL d   1       5.144  -2.056   1.493  0.00  0.00     0.039 A 
ATOM     16  C   UNL d   1       4.531  -3.161   2.086  0.00  0.00     0.003 A 
ATOM     17  C   UNL d   1       3.147  -3.318   1.998  0.00  0.00     0.002 A 
ATOM     18  C   UNL d   1       2.374  -2.383   1.304  0.00  0.00     0.032 A 
BRANCH  14  19
ATOM     19  O   UNL d   1       5.081  -0.081   0.227  0.00  0.00    -0.354 OA
ATOM     20  C   UNL d   1       4.575   1.223   0.529  0.00  0.00     0.210 C 
ENDBRANCH  14  19
ENDBRANCH   5  13
BRANCH   2  21
ATOM     21  O   UNL d   1      -1.908   4.418  -3.384  0.00  0.00    -0.294 OA
BRANCH  21  22
ATOM     22  C   UNL d   1      -2.774   4.985  -4.411  0.00  0.00     0.061 C 
ATOM     23  C   UNL d   1      -3.474   3.867  -5.198  0.00  0.00     0.046 C 
ATOM     24  C   UNL d   1      -3.840   5.799  -3.658  0.00  0.00     0.046 C 
ATOM     25  C   UNL d   1      -2.021   5.945  -5.344  0.00  0.00     0.046 C 
ENDBRANCH  21  22
ENDBRANCH   2  21
TORSDOF 4
