REMARK  5 active torsions:
REMARK  status: ('A' for Active; 'I' for Inactive)
REMARK    1  A    between atoms: C_15  and  C_3 
REMARK    2  A    between atoms: C_7  and  C_4 
REMARK    3  A    between atoms: C_14  and  C_5 
REMARK    4  A    between atoms: C_9  and  C_7 
REMARK    5  A    between atoms: C_10  and  C_20 
ROOT
ATOM      1  C   UNL d   1      -0.493  -7.680   1.169  0.00  0.00     0.096 C 
ATOM      2  C   UNL d   1      -0.641  -7.154  -0.070  0.00  0.00     0.038 C 
ATOM      3  C   UNL d   1      -1.199  -8.829   1.615  0.00  0.00     0.103 C 
ATOM      4  N   UNL d   1      -1.735  -9.796   1.976  0.00  0.00    -0.191 NA
ENDROOT
BRANCH   1   5
ATOM      5  C   UNL d   1       0.418  -6.975   2.139  0.00  0.00     0.209 C 
ATOM      6  O   UNL d   1       0.672  -5.782   1.952  0.00  0.00    -0.285 OA
BRANCH   5   7
ATOM      7  C   UNL d   1       0.954  -7.726   3.277  0.00  0.00     0.056 A 
ATOM      8  S   UNL d   1       1.217  -6.904   4.762  0.00  0.00    -0.098 SA
ATOM      9  C   UNL d   1       1.704  -8.339   5.553  0.00  0.00     0.050 A 
ATOM     10  C   UNL d   1       1.718  -9.418   4.700  0.00  0.00     0.009 A 
ATOM     11  C   UNL d   1       1.316  -9.058   3.381  0.00  0.00     0.023 A 
ENDBRANCH   5   7
ENDBRANCH   1   5
BRANCH   2  12
ATOM     12  C   UNL d   1      -1.482  -7.660  -1.176  0.00  0.00    -0.035 A 
ATOM     13  C   UNL d   1      -2.086  -6.742  -2.048  0.00  0.00     0.012 A 
ATOM     14  C   UNL d   1      -2.890  -7.177  -3.115  0.00  0.00     0.015 A 
ATOM     15  C   UNL d   1      -3.109  -8.544  -3.335  0.00  0.00    -0.002 A 
ATOM     16  C   UNL d   1      -2.488  -9.456  -2.473  0.00  0.00     0.015 A 
ATOM     17  C   UNL d   1      -1.663  -9.023  -1.431  0.00  0.00     0.012 A 
BRANCH  15  18
ATOM     18  C   UNL d   1      -3.964  -9.071  -4.409  0.00  0.00     0.084 A 
ATOM     19  N   UNL d   1      -4.675 -10.177  -4.298  0.00  0.00    -0.352 N 
ATOM     20  C   UNL d   1      -5.337 -10.474  -5.481  0.00  0.00     0.024 A 
ATOM     21  HN  UNL d   1      -4.730 -10.742  -3.451  1.00  0.00     0.166 HD
ATOM     22  C   UNL d   1      -5.075  -9.577  -6.503  0.00  0.00     0.077 A 
ATOM     23  S   UNL d   1      -4.032  -8.332  -5.959  0.00  0.00    -0.081 SA
BRANCH  20  24
ATOM     24  C   UNL d   1      -6.241 -11.698  -5.543  0.00  0.00    -0.008 C 
ATOM     25  C   UNL d   1      -6.316 -12.412  -4.176  0.00  0.00     0.021 C 
ATOM     26  C   UNL d   1      -7.671 -11.279  -5.938  0.00  0.00     0.021 C 
ATOM     27  C   UNL d   1      -5.709 -12.707  -6.578  0.00  0.00     0.021 C 
ENDBRANCH  20  24
ENDBRANCH  15  18
ENDBRANCH   2  12
TORSDOF 5
