REMARK  3 active torsions:
REMARK  status: ('A' for Active; 'I' for Inactive)
REMARK    1  A    between atoms: C_6  and  C_1 
REMARK    2  A    between atoms: C_5  and  C_2 
REMARK       I    between atoms: N_9  and  C_5 
REMARK    3  A    between atoms: C_15  and  N_9 
ROOT
ATOM      1  C   UNL d   1      -0.234  -0.043   1.258  0.00  0.00     0.086 C 
ATOM      2  C   UNL d   1      -0.320  -1.077   0.271  0.00  0.00     0.093 C 
ATOM      3  N   UNL d   1      -1.361   0.688   1.264  0.00  0.00    -0.259 N 
ATOM      4  HN  UNL d   1      -1.613   1.418   1.930  1.00  0.00     0.195 HD
ATOM      5  O   UNL d   1      -2.109   0.255   0.193  0.00  0.00    -0.241 OA
ATOM      6  C   UNL d   1      -1.473  -0.765  -0.431  0.00  0.00     0.090 C 
ATOM      7  C   UNL d   1      -2.098  -1.220  -1.689  0.00  0.00     0.080 C 
ENDROOT
BRANCH   2   8
ATOM      8  C   UNL d   1       0.643  -2.126  -0.015  0.00  0.00     0.261 C 
ATOM      9  N   UNL d   1       0.075  -3.299  -0.489  0.00  0.00    -0.323 N 
ATOM     10  H   UNL d   1      -0.922  -3.311  -0.638  0.00  0.00     0.169 HD
ATOM     11  O   UNL d   1       1.841  -1.925   0.162  0.00  0.00    -0.267 OA
BRANCH   9  12
ATOM     12  C   UNL d   1       0.781  -4.435  -0.932  0.00  0.00     0.037 A 
ATOM     13  C   UNL d   1       2.097  -4.707  -0.559  0.00  0.00     0.069 A 
ATOM     14  C   UNL d   1       2.791  -5.758  -1.153  0.00  0.00     0.104 A 
ATOM     15  O   UNL d   1       4.101  -5.909  -0.781  0.00  0.00    -0.346 OA
ATOM     16  C   UNL d   1       2.164  -6.551  -2.117  0.00  0.00     0.102 A 
ATOM     17  C   UNL d   1       4.743  -7.015  -1.422  0.00  0.00     0.202 C 
ATOM     18  C   UNL d   1       4.231  -7.224  -2.838  0.00  0.00     0.202 C 
ATOM     19  O   UNL d   1       2.829  -7.523  -2.819  0.00  0.00    -0.346 OA
ATOM     20  C   UNL d   1       0.822  -6.349  -2.424  0.00  0.00     0.042 A 
ATOM     21  C   UNL d   1       0.127  -5.294  -1.826  0.00  0.00     0.032 A 
ENDBRANCH   9  12
ENDBRANCH   2   8
BRANCH   1  22
ATOM     22  C   UNL d   1       0.870   0.290   2.161  0.00  0.00     0.037 A 
ATOM     23  C   UNL d   1       1.492   1.557   2.090  0.00  0.00     0.048 A 
ATOM     24 CL   UNL d   1       1.016   2.782   0.956  0.00  0.00    -0.083 Cl
ATOM     25  C   UNL d   1       2.566   1.884   2.930  0.00  0.00     0.025 A 
ATOM     26  C   UNL d   1       3.057   0.953   3.836  0.00  0.00     0.003 A 
ATOM     27  C   UNL d   1       2.460  -0.303   3.920  0.00  0.00     0.025 A 
ATOM     28  C   UNL d   1       1.366  -0.628   3.104  0.00  0.00     0.048 A 
ATOM     29 CL   UNL d   1       0.650  -2.187   3.359  0.00  0.00    -0.083 Cl
ENDBRANCH   1  22
TORSDOF 3
