REMARK  3 active torsions:
REMARK  status: ('A' for Active; 'I' for Inactive)
REMARK    1  A    between atoms: N_6  and  C_1 
REMARK    2  A    between atoms: C_9  and  N_4 
REMARK    3  A    between atoms: C_7  and  N_6 
ROOT
ATOM      1  C   UNL d   1      -0.118  -1.220   0.087  0.00  0.00     0.123 A 
ATOM      2  C   UNL d   1       1.248  -0.641   0.078  0.00  0.00     0.291 A 
ATOM      3  N   UNL d   1      -0.292   1.054   0.244  0.00  0.00    -0.193 NA
ATOM      4  N   UNL d   1       1.096   0.747   0.111  0.00  0.00    -0.234 N 
ATOM      5  C   UNL d   1      -0.969  -0.178   0.152  0.00  0.00     0.037 A 
ATOM      6  O   UNL d   1       2.261  -1.332   0.057  0.00  0.00    -0.264 OA
ATOM      7  C   UNL d   1      -0.792   2.241  -0.457  0.00  0.00     0.143 C 
ATOM      8  C   UNL d   1      -2.457  -0.257   0.242  0.00  0.00     0.066 C 
ENDROOT
BRANCH   1   9
ATOM      9  N   UNL d   1      -0.309  -2.577   0.061  0.00  0.00    -0.328 N 
ATOM     10  H   UNL d   1       0.541  -3.095   0.270  0.00  0.00     0.168 HD
BRANCH   9  11
ATOM     11  C   UNL d   1      -1.144  -3.294  -0.756  0.00  0.00     0.172 C 
ATOM     12  S   UNL d   1      -1.788  -2.800  -2.216  0.00  0.00    -0.041 SA
ATOM     13  N   UNL d   1      -1.394  -4.573  -0.349  0.00  0.00    -0.371 N 
ATOM     14  C   UNL d   1      -1.229  -5.114   0.985  0.00  0.00     0.148 C 
ATOM     15  H   UNL d   1      -1.947  -5.118  -1.002  0.00  0.00     0.161 HD
ENDBRANCH   9  11
ENDBRANCH   1   9
BRANCH   4  16
ATOM     16  C   UNL d   1       2.137   1.698   0.099  0.00  0.00     0.055 A 
ATOM     17  C   UNL d   1       3.315   1.422  -0.611  0.00  0.00     0.031 A 
ATOM     18  C   UNL d   1       4.350   2.356  -0.682  0.00  0.00     0.002 A 
ATOM     19  C   UNL d   1       4.232   3.573  -0.016  0.00  0.00     0.000 A 
ATOM     20  C   UNL d   1       3.081   3.851   0.717  0.00  0.00     0.002 A 
ATOM     21  C   UNL d   1       2.037   2.921   0.770  0.00  0.00     0.031 A 
ENDBRANCH   4  16
TORSDOF 3
