REMARK  6 active torsions:
REMARK  status: ('A' for Active; 'I' for Inactive)
REMARK    1  A    between atoms: C_3  and  C_1 
REMARK    2  A    between atoms: C_6  and  C_2 
REMARK    3  A    between atoms: O_11  and  C_3 
REMARK    4  A    between atoms: S_7  and  C_8 
REMARK    5  A    between atoms: C_10  and  S_7 
REMARK    6  A    between atoms: C_20  and  O_11 
ROOT
ATOM      1  C   UNL d   1       0.829   0.555   0.472  0.00  0.00     0.120 C 
ATOM      2  C   UNL d   1       0.370   0.971  -0.728  0.00  0.00     0.041 C 
ATOM      3  C   UNL d   1       2.031   1.051   1.055  0.00  0.00     0.105 C 
ATOM      4  N   UNL d   1       3.011   1.482   1.511  0.00  0.00    -0.191 NA
ENDROOT
BRANCH   1   5
ATOM      5  C   UNL d   1      -0.013  -0.403   1.224  0.00  0.00     0.303 C 
ATOM      6  O   UNL d   1      -1.125  -0.767   0.868  0.00  0.00    -0.258 OA
BRANCH   5   7
ATOM      7  O   UNL d   1       0.605  -0.772   2.373  0.00  0.00    -0.317 OA
BRANCH   7   8
ATOM      8  C   UNL d   1      -0.160  -1.595   3.264  0.00  0.00     0.174 C 
ATOM      9  C   UNL d   1      -0.123  -3.046   2.825  0.00  0.00     0.034 C 
ENDBRANCH   7   8
ENDBRANCH   5   7
ENDBRANCH   1   5
BRANCH   2  10
ATOM     10  C   UNL d   1       1.044   2.033  -1.486  0.00  0.00    -0.017 A 
ATOM     11  C   UNL d   1       1.981   1.786  -2.506  0.00  0.00     0.015 A 
ATOM     12  C   UNL d   1       2.682   2.870  -3.052  0.00  0.00     0.019 A 
ATOM     13  C   UNL d   1       2.450   4.175  -2.604  0.00  0.00     0.001 A 
ATOM     14  C   UNL d   1       1.486   4.417  -1.633  0.00  0.00     0.001 A 
ATOM     15  C   UNL d   1       0.782   3.353  -1.078  0.00  0.00     0.013 A 
BRANCH  11  16
ATOM     16  S   UNL d   1       2.200   0.178  -3.251  0.00  0.00    -0.090 SA
BRANCH  16  17
ATOM     17  C   UNL d   1       3.491  -0.640  -2.334  0.00  0.00     0.005 A 
ATOM     18  C   UNL d   1       3.543  -2.041  -2.432  0.00  0.00     0.020 A 
ATOM     19  C   UNL d   1       4.542  -2.774  -1.785  0.00  0.00     0.025 A 
ATOM     20  C   UNL d   1       5.505  -2.108  -1.034  0.00  0.00     0.034 A 
ATOM     21  C   UNL d   1       5.475  -0.719  -0.932  0.00  0.00     0.025 A 
ATOM     22 CL   UNL d   1       6.737  -3.005  -0.238  0.00  0.00    -0.084 Cl
ATOM     23  C   UNL d   1       4.473   0.013  -1.584  0.00  0.00     0.020 A 
ENDBRANCH  16  17
ENDBRANCH  11  16
ENDBRANCH   2  10
TORSDOF 6
