REMARK  3 active torsions:
REMARK  status: ('A' for Active; 'I' for Inactive)
REMARK    1  A    between atoms: N_2  and  C_1 
REMARK    2  A    between atoms: C_4  and  C_3 
REMARK    3  A    between atoms: N_15  and  C_6 
ROOT
ATOM      1  C   UNL d   1       0.789   1.287   0.134  0.00  0.00     0.147 A 
ATOM      2  C   UNL d   1       0.818  -1.127   0.009  0.00  0.00     0.065 A 
ATOM      3  C   UNL d   1       1.512   0.081   0.075  0.00  0.00     0.057 A 
ATOM      4  C   UNL d   1      -0.600   1.288   0.110  0.00  0.00     0.134 A 
ATOM      5  N   UNL d   1      -1.263   0.107   0.038  0.00  0.00    -0.350 N 
ATOM      6  HN  UNL d   1      -2.283   0.092   0.019  1.00  0.00     0.166 HD
ATOM      7  C   UNL d   1      -0.562  -1.054  -0.008  0.00  0.00     0.106 A 
ENDROOT
BRANCH   2   8
ATOM      8  C   UNL d   1       1.492  -2.464  -0.030  0.00  0.00     0.418 C 
ATOM      9  F   UNL d   1       2.850  -2.384   0.016  0.00  0.00    -0.166 F 
ATOM     10  F   UNL d   1       1.128  -3.259   1.012  0.00  0.00    -0.166 F 
ATOM     11  F   UNL d   1       1.195  -3.163  -1.158  0.00  0.00    -0.166 F 
ENDBRANCH   2   8
BRANCH   1  12
ATOM     12  N   UNL d   1       1.554   2.503   0.243  0.00  0.00    -0.112 N 
ATOM     13  O   UNL d   1       2.380   2.724  -0.652  0.00  0.00    -0.532 OA
ATOM     14  O   UNL d   1       1.377   3.211   1.244  0.00  0.00    -0.532 OA
ENDBRANCH   1  12
BRANCH   4  15
ATOM     15  N   UNL d   1      -1.470   2.346   0.196  0.00  0.00    -0.379 N 
ATOM     16  C   UNL d   1      -1.264   3.628  -0.440  0.00  0.00     0.147 C 
ATOM     17  H   UNL d   1      -2.414   1.978   0.098  0.00  0.00     0.160 HD
ENDBRANCH   4  15
TORSDOF 3
