REMARK  5 active torsions:
REMARK  status: ('A' for Active; 'I' for Inactive)
REMARK    1  A    between atoms: C_8  and  C_1 
REMARK    2  A    between atoms: C_13  and  C_7 
REMARK       I    between atoms: C_9  and  N_10 
REMARK    3  A    between atoms: C_12  and  C_9 
REMARK    4  A    between atoms: N_10  and  C_11 
REMARK    5  A    between atoms: C_14  and  C_15 
ROOT
ATOM      1  C   UNL d   1      -0.182  -1.303   0.907  0.00  0.00     0.177 A 
ATOM      2  O   UNL d   1       1.117  -1.239   1.392  0.00  0.00    -0.273 OA
ATOM      3  N   UNL d   1      -0.953  -0.393   1.474  0.00  0.00    -0.277 N 
ATOM      4  HN  UNL d   1      -1.939  -0.223   1.276  1.00  0.00     0.189 HD
ATOM      5  N   UNL d   1      -0.163   0.290   2.395  0.00  0.00    -0.277 N 
ATOM      6  HN  UNL d   1      -0.461   1.054   3.003  1.00  0.00     0.189 HD
ATOM      7  C   UNL d   1       1.044  -0.238   2.333  0.00  0.00     0.174 A 
ENDROOT
BRANCH   1   8
ATOM      8  C   UNL d   1      -0.559  -2.593   0.309  0.00  0.00     0.043 A 
ATOM      9  C   UNL d   1      -1.371  -2.845  -0.819  0.00  0.00     0.049 A 
ATOM     10  C   UNL d   1      -1.788  -4.181  -1.059  0.00  0.00     0.030 A 
ATOM     11  C   UNL d   1      -1.397  -5.252  -0.256  0.00  0.00     0.002 A 
ATOM     12  C   UNL d   1      -0.582  -5.016   0.832  0.00  0.00     0.001 A 
ATOM     13  C   UNL d   1      -0.181  -3.711   1.109  0.00  0.00     0.018 A 
BRANCH   9  14
ATOM     14  N   UNL d   1      -1.843  -1.972  -1.837  0.00  0.00    -0.322 N 
ATOM     15  C   UNL d   1      -1.350  -0.756  -2.265  0.00  0.00     0.256 C 
ATOM     16  O   UNL d   1      -0.486  -0.098  -1.714  0.00  0.00    -0.267 OA
ATOM     17  H   UNL d   1      -2.556  -2.369  -2.434  0.00  0.00     0.169 HD
BRANCH  15  18
ATOM     18  C   UNL d   1      -1.928  -0.279  -3.577  0.00  0.00     0.032 A 
ATOM     19  C   UNL d   1      -2.224  -1.160  -4.638  0.00  0.00     0.023 A 
ATOM     20  C   UNL d   1      -2.705  -0.675  -5.868  0.00  0.00    -0.061 A 
ATOM     21  C   UNL d   1      -3.013  -1.597  -7.016  0.00  0.00     0.048 C 
ATOM     22  C   UNL d   1      -2.907   0.701  -6.027  0.00  0.00     0.007 A 
ATOM     23  C   UNL d   1      -2.607   1.580  -4.984  0.00  0.00     0.002 A 
ATOM     24  C   UNL d   1      -2.113   1.094  -3.767  0.00  0.00     0.017 A 
ENDBRANCH  15  18
ENDBRANCH   9  14
ENDBRANCH   1   8
BRANCH   7  25
ATOM     25  C   UNL d   1       2.236   0.004   3.159  0.00  0.00     0.017 A 
ATOM     26  C   UNL d   1       3.510  -0.425   2.770  0.00  0.00     0.016 A 
ATOM     27  C   UNL d   1       4.647  -0.151   3.555  0.00  0.00     0.009 A 
ATOM     28  C   UNL d   1       4.565   0.553   4.771  0.00  0.00    -0.051 A 
ATOM     29  C   UNL d   1       3.281   0.949   5.176  0.00  0.00     0.009 A 
ATOM     30  C   UNL d   1       2.141   0.683   4.384  0.00  0.00     0.016 A 
BRANCH  28  31
ATOM     31  C   UNL d   1       5.847   0.892   5.566  0.00  0.00    -0.024 C 
ATOM     32  C   UNL d   1       5.591   1.588   6.925  0.00  0.00     0.019 C 
ATOM     33  C   UNL d   1       6.660  -0.387   5.870  0.00  0.00     0.019 C 
ATOM     34  C   UNL d   1       6.727   1.848   4.730  0.00  0.00     0.019 C 
ENDBRANCH  28  31
ENDBRANCH   7  25
TORSDOF 5
