REMARK  4 active torsions:
REMARK  status: ('A' for Active; 'I' for Inactive)
REMARK    1  A    between atoms: C_4  and  C_1 
REMARK    2  A    between atoms: C_6  and  C_2 
REMARK    3  A    between atoms: O_11  and  C_6 
REMARK    4  A    between atoms: O_12  and  C_8 
ROOT
ATOM      1  C   UNL d   1       1.553  -0.592  -0.111  0.00  0.00     0.182 A 
ATOM      2  C   UNL d   1       0.246  -0.851  -0.847  0.00  0.00     0.127 A 
ATOM      3  O   UNL d   1       2.528  -0.312  -1.139  0.00  0.00    -0.310 OA
ATOM      4  C   UNL d   1       1.966  -0.256  -2.367  0.00  0.00     0.260 A 
ATOM      5  C   UNL d   1       0.509  -0.556  -2.310  0.00  0.00     0.129 A 
ATOM      6  O   UNL d   1       2.589  -0.014  -3.389  0.00  0.00    -0.265 OA
ENDROOT
BRANCH   1   7
ATOM      7  C   UNL d   1       2.111  -1.644   0.827  0.00  0.00     0.005 A 
ATOM      8  C   UNL d   1       1.861  -1.733   2.210  0.00  0.00     0.077 A 
ATOM      9  C   UNL d   1       2.518  -2.729   2.964  0.00  0.00     0.037 A 
ATOM     10  C   UNL d   1       3.400  -3.640   2.390  0.00  0.00     0.003 A 
ATOM     11  C   UNL d   1       3.637  -3.580   1.030  0.00  0.00     0.001 A 
ATOM     12  C   UNL d   1       3.005  -2.599   0.266  0.00  0.00     0.012 A 
BRANCH   8  13
ATOM     13  O   UNL d   1       1.070  -0.992   3.037  0.00  0.00    -0.355 OA
ATOM     14  C   UNL d   1       0.298   0.105   2.607  0.00  0.00     0.210 C 
ENDBRANCH   8  13
ENDBRANCH   1   7
BRANCH   2  15
ATOM     15  C   UNL d   1      -0.431  -2.182  -0.627  0.00  0.00     0.147 C 
ATOM     16  O   UNL d   1      -1.500  -2.272  -0.042  0.00  0.00    -0.650 OA
BRANCH  15  17
ATOM     17  O   UNL d   1       0.172  -3.261  -1.159  0.00  0.00    -0.776 OA
ATOM     18  H   UNL d   1       1.048  -3.136  -1.563  0.00  0.00     0.167 HD
ENDBRANCH  15  17
ENDBRANCH   2  15
TORSDOF 4
