REMARK  3 active torsions:
REMARK  status: ('A' for Active; 'I' for Inactive)
REMARK    1  A    between atoms: C5_8  and  C1_1 
REMARK    2  A    between atoms: C4_7  and  C2_4 
REMARK    3  A    between atoms: O2_14  and  C5_8 
ROOT
ATOM      1  C1  <1> d   1       1.319   0.798  -0.010  0.00  0.00     0.114 A 
ATOM      2  N1  <1> d   1       1.443  -0.600   0.004  0.00  0.00    -0.344 N 
ATOM      3  H1  <1> d   1       2.326  -1.109   0.024  1.00  0.00     0.167 HD
ATOM      4  C2  <1> d   1       0.243  -1.159  -0.014  0.00  0.00     0.091 A 
ATOM      5  S1  <1> d   1      -1.073  -0.042  -0.047  0.00  0.00    -0.080 SA
ATOM      6  C3  <1> d   1       0.022   1.267  -0.035  0.00  0.00     0.088 A 
ENDROOT
BRANCH   4   7
ATOM      7  C4  <1> d   1       0.066  -2.598   0.002  0.00  0.00     0.038 A 
ATOM      8  S2  <1> d   1      -1.476  -3.361  -0.082  0.00  0.00    -0.099 SA
ATOM      9  C7  <1> d   1      -0.802  -4.926  -0.002  0.00  0.00     0.050 A 
ATOM     10  C8  <1> d   1       0.570  -4.890   0.084  0.00  0.00     0.008 A 
ATOM     11  C6  <1> d   1       1.069  -3.552   0.083  0.00  0.00     0.022 A 
ENDBRANCH   4   7
BRANCH   1  12
ATOM     12  C5  <1> d   1       2.503   1.653   0.004  0.00  0.00     0.194 C 
ATOM     13  O1  <1> d   1       2.477   2.875  -0.004  0.00  0.00    -0.645 OA
BRANCH  12  14
ATOM     14  O2  <1> d   1       3.658   0.936   0.024  0.00  0.00    -0.772 OA
ATOM     15  H5  <1> d   1       3.415  -0.018   0.025  0.00  0.00     0.167 HD
ENDBRANCH  12  14
ENDBRANCH   1  12
TORSDOF 3
