REMARK  2 active torsions:
REMARK  status: ('A' for Active; 'I' for Inactive)
REMARK    1  A    between atoms: C_5  and  C_1 
REMARK    2  A    between atoms: O_11  and  N_6 
ROOT
ATOM      1  C   UNL d   1      -4.807   0.393  -0.255  0.00  0.00    -0.011 A 
ATOM      2  C   UNL d   1      -6.078   0.993  -0.275  0.00  0.00     0.023 A 
ATOM      3  C   UNL d   1      -7.196   0.175  -0.314  0.00  0.00    -0.022 A 
ATOM      4  C   UNL d   1      -7.065  -1.203  -0.344  0.00  0.00     0.075 A 
ATOM      5  O   UNL d   1      -8.263  -1.866  -0.394  0.00  0.00    -0.350 OA
ATOM      6  C   UNL d   1      -4.691  -1.012  -0.279  0.00  0.00     0.016 A 
ATOM      7  C   UNL d   1      -5.832  -1.820  -0.335  0.00  0.00     0.038 A 
ATOM      8  C   UNL d   1      -9.236  -0.837  -0.091  0.00  0.00     0.180 C 
ATOM      9  C   UNL d   1      -8.629   0.533  -0.399  0.00  0.00     0.068 C 
ENDROOT
BRANCH   1  10
ATOM     10  C   UNL d   1      -3.604   1.281  -0.176  0.00  0.00     0.038 C 
ATOM     11  N   UNL d   1      -3.727   2.441   0.405  0.00  0.00    -0.273 N 
ATOM     12  HN  UNL d   1      -4.596   2.791   0.808  1.00  0.00     0.193 HD
ATOM     13  C   UNL d   1      -2.294   0.810  -0.778  0.00  0.00     0.071 C 
BRANCH  11  14
ATOM     14  O   UNL d   1      -2.519   3.148   0.408  0.00  0.00    -0.290 OA
ATOM     15  H   UNL d   1      -2.753   3.958   0.898  0.00  0.00     0.244 HD
ENDBRANCH  11  14
ENDBRANCH   1  10
TORSDOF 2
