REMARK  4 active torsions:
REMARK  status: ('A' for Active; 'I' for Inactive)
REMARK    1  A    between atoms: N_9  and  C_1 
REMARK    2  A    between atoms: C_10  and  C_2 
REMARK    3  A    between atoms: C_3  and  C_5 
REMARK    4  A    between atoms: N_8  and  C_4 
REMARK       I    between atoms: C_5  and  N_9 
ROOT
ATOM      1  C   UNL d   1      -0.784  -4.900  -0.513  0.00  0.00     0.088 A 
ATOM      2  C   UNL d   1      -1.190  -3.747   0.246  0.00  0.00     0.093 A 
ATOM      3  N   UNL d   1       0.448  -5.280  -0.133  0.00  0.00    -0.259 N 
ATOM      4  HN  UNL d   1       1.005  -6.029  -0.545  1.00  0.00     0.195 HD
ATOM      5  O   UNL d   1       0.814  -4.471   0.911  0.00  0.00    -0.241 OA
ATOM      6  C   UNL d   1      -0.157  -3.555   1.145  0.00  0.00     0.090 A 
ATOM      7  C   UNL d   1       0.086  -2.661   2.295  0.00  0.00     0.080 C 
ENDROOT
BRANCH   2   8
ATOM      8  C   UNL d   1      -2.438  -3.009   0.190  0.00  0.00     0.262 C 
ATOM      9  N   UNL d   1      -2.284  -1.629   0.235  0.00  0.00    -0.299 N 
ATOM     10  H   UNL d   1      -1.357  -1.223   0.179  0.00  0.00     0.171 HD
ATOM     11  O   UNL d   1      -3.502  -3.598   0.087  0.00  0.00    -0.267 OA
BRANCH   9  12
ATOM     12  C   UNL d   1      -3.360  -0.765   0.333  0.00  0.00     0.208 A 
ATOM     13  C   UNL d   1      -3.453   0.612   0.374  0.00  0.00     0.179 A 
ATOM     14  C   UNL d   1      -4.824   0.882   0.616  0.00  0.00     0.066 A 
ATOM     15  C   UNL d   1      -5.527   2.164   0.864  0.00  0.00     0.073 C 
ATOM     16  N   UNL d   1      -5.530  -0.255   0.635  0.00  0.00    -0.261 N 
ATOM     17  O   UNL d   1      -4.617  -1.276   0.458  0.00  0.00    -0.217 OA
ATOM     18  HN  UNL d   1      -6.538  -0.349   0.755  1.00  0.00     0.194 HD
BRANCH  13  19
ATOM     19  N   UNL d   1      -2.375   1.528   0.239  0.00  0.00    -0.109 N 
ATOM     20  O   UNL d   1      -1.232   1.049   0.215  0.00  0.00    -0.532 OA
ATOM     21  O   UNL d   1      -2.655   2.727   0.149  0.00  0.00    -0.532 OA
ENDBRANCH  13  19
ENDBRANCH   9  12
ENDBRANCH   2   8
BRANCH   1  22
ATOM     22  C   UNL d   1      -1.476  -5.602  -1.603  0.00  0.00     0.054 A 
ATOM     23  C   UNL d   1      -1.454  -7.002  -1.765  0.00  0.00     0.049 A 
ATOM     24 CL   UNL d   1      -0.665  -8.085  -0.665  0.00  0.00    -0.083 Cl
ATOM     25  C   UNL d   1      -2.112  -7.612  -2.847  0.00  0.00     0.025 A 
ATOM     26  C   UNL d   1      -2.823  -6.847  -3.769  0.00  0.00     0.005 A 
ATOM     27  C   UNL d   1      -2.857  -5.466  -3.623  0.00  0.00     0.043 A 
ATOM     28  C   UNL d   1      -2.175  -4.859  -2.566  0.00  0.00     0.130 A 
ATOM     29  F   UNL d   1      -2.178  -3.517  -2.523  0.00  0.00    -0.205 F 
ENDBRANCH   1  22
TORSDOF 4
