REMARK  1 active torsions:
REMARK  status: ('A' for Active; 'I' for Inactive)
REMARK    1  A    between atoms: C_7  and  C_1 
ROOT
ATOM      1  C   UNL d   1      -2.020  -0.864  -0.038  0.00  0.00     0.085 A 
ATOM      2  N   UNL d   1      -0.946  -1.624   0.027  0.00  0.00    -0.349 N 
ATOM      3  HN  UNL d   1      -0.955  -2.643   0.074  1.00  0.00     0.166 HD
ATOM      4  S   UNL d   1      -1.712   0.830  -0.024  0.00  0.00    -0.070 SA
ATOM      5  C   UNL d   1       0.199  -0.844   0.023  0.00  0.00     0.050 A 
ATOM      6  C   UNL d   1      -0.019   0.534  -0.003  0.00  0.00     0.033 A 
ATOM      7  C   UNL d   1       1.525  -1.319   0.037  0.00  0.00     0.031 A 
ATOM      8  C   UNL d   1       1.041   1.455  -0.010  0.00  0.00     0.021 A 
ATOM      9  C   UNL d   1       2.590  -0.411   0.023  0.00  0.00     0.002 A 
ATOM     10  C   UNL d   1       2.347   0.959   0.001  0.00  0.00     0.002 A 
ENDROOT
BRANCH   1  11
ATOM     11  C   UNL d   1      -3.396  -1.389  -0.084  0.00  0.00    -0.001 A 
ATOM     12  C   UNL d   1      -4.439  -0.713  -0.737  0.00  0.00     0.038 A 
ATOM     13  C   UNL d   1      -5.722  -1.263  -0.778  0.00  0.00     0.035 A 
ATOM     14 CL   UNL d   1      -6.982  -0.421  -1.593  0.00  0.00    -0.084 Cl
ATOM     15  C   UNL d   1      -5.989  -2.488  -0.173  0.00  0.00     0.024 A 
ATOM     16  C   UNL d   1      -4.965  -3.174   0.474  0.00  0.00     0.003 A 
ATOM     17  C   UNL d   1      -3.678  -2.630   0.513  0.00  0.00     0.014 A 
ENDBRANCH   1  11
TORSDOF 1
