REMARK  5 active torsions:
REMARK  status: ('A' for Active; 'I' for Inactive)
REMARK    1  A    between atoms: C_2  and  N_1 
REMARK    2  A    between atoms: O_5  and  C_3 
REMARK    3  A    between atoms: C_8  and  O_5 
REMARK    4  A    between atoms: S_11  and  C_10 
REMARK    5  A    between atoms: C_14  and  S_11 
ROOT
ATOM      1  C   UNL d   1       0.208  -0.005   1.195  0.00  0.00     0.136 A 
ATOM      2  C   UNL d   1       0.737   0.978   2.038  0.00  0.00     0.113 A 
ATOM      3  C   UNL d   1       0.034   1.327   3.196  0.00  0.00     0.058 A 
ATOM      4  C   UNL d   1      -1.029  -0.604   1.466  0.00  0.00     0.040 A 
ATOM      5  C   UNL d   1      -1.206   0.738   3.479  0.00  0.00     0.008 A 
ATOM      6  C   UNL d   1      -1.736  -0.224   2.610  0.00  0.00     0.021 A 
ENDROOT
BRANCH   5   7
ATOM      7  S   UNL d   1      -2.024   1.131   5.008  0.00  0.00    -0.091 SA
BRANCH   7   8
ATOM      8  C   UNL d   1      -3.308   2.294   4.578  0.00  0.00     0.005 A 
ATOM      9  C   UNL d   1      -3.409   2.953   3.350  0.00  0.00     0.019 A 
ATOM     10  C   UNL d   1      -4.448   3.859   3.110  0.00  0.00     0.001 A 
ATOM     11  C   UNL d   1      -5.392   4.122   4.101  0.00  0.00     0.000 A 
ATOM     12  C   UNL d   1      -5.295   3.483   5.333  0.00  0.00     0.001 A 
ATOM     13  C   UNL d   1      -4.261   2.576   5.569  0.00  0.00     0.019 A 
ENDBRANCH   7   8
ENDBRANCH   5   7
BRANCH   2  14
ATOM     14  O   UNL d   1       2.024   1.498   1.789  0.00  0.00    -0.277 OA
BRANCH  14  15
ATOM     15  C   UNL d   1       2.286   2.849   2.029  0.00  0.00     0.260 C 
ATOM     16  O   UNL d   1       1.473   3.695   2.373  0.00  0.00    -0.265 OA
ATOM     17  C   UNL d   1       3.738   3.128   1.777  0.00  0.00     0.126 C 
ENDBRANCH  14  15
ENDBRANCH   2  14
BRANCH   1  18
ATOM     18  N   UNL d   1       0.953  -0.468   0.040  0.00  0.00    -0.113 N 
ATOM     19  O   UNL d   1       1.359   0.389  -0.760  0.00  0.00    -0.532 OA
ATOM     20  O   UNL d   1       1.108  -1.694  -0.079  0.00  0.00    -0.532 OA
ENDBRANCH   1  18
TORSDOF 5
