REMARK  3 active torsions:
REMARK  status: ('A' for Active; 'I' for Inactive)
REMARK    1  A    between atoms: C_6  and  C_1 
REMARK       I    between atoms: N_9  and  C_6 
REMARK       I    between atoms: C_8  and  N_10 
REMARK       I    between atoms: N_11  and  C_8 
REMARK    2  A    between atoms: N_10  and  N_9 
REMARK    3  A    between atoms: C_14  and  N_11 
ROOT
ATOM      1  C   UNL d   1      -5.100  -1.548   0.399  0.00  0.00     0.339 C 
ATOM      2  N   UNL d   1      -3.749  -1.625   0.691  0.00  0.00    -0.248 N 
ATOM      3  N   UNL d   1      -5.825  -0.873   1.359  0.00  0.00    -0.308 N 
ATOM      4  O   UNL d   1      -5.547  -2.107  -0.600  0.00  0.00    -0.245 OA
ATOM      5  H   UNL d   1      -3.263  -0.889   1.193  0.00  0.00     0.192 HD
ATOM      6  H   UNL d   1      -5.298  -0.404   2.078  0.00  0.00     0.170 HD
ENDROOT
BRANCH   2   7
ATOM      7  N   UNL d   1      -2.976  -2.329  -0.257  0.00  0.00    -0.261 N 
ATOM      8  C   UNL d   1      -1.596  -2.346  -0.203  0.00  0.00     0.279 C 
ATOM      9  O   UNL d   1      -0.998  -1.781   0.714  0.00  0.00    -0.265 OA
ATOM     10  H   UNL d   1      -3.499  -2.787  -1.004  0.00  0.00     0.190 HD
BRANCH   8  11
ATOM     11  C   UNL d   1      -0.942  -3.048  -1.300  0.00  0.00     0.098 A 
ATOM     12  C   UNL d   1       0.396  -3.385  -1.466  0.00  0.00     0.028 A 
ATOM     13  N   UNL d   1       0.694  -4.021  -2.666  0.00  0.00    -0.357 N 
ATOM     14  C   UNL d   1       1.532  -3.163  -0.532  0.00  0.00     0.070 C 
ATOM     15  C   UNL d   1      -0.385  -4.157  -3.399  0.00  0.00     0.048 A 
ATOM     16  HN  UNL d   1       1.624  -4.340  -2.938  1.00  0.00     0.166 HD
ATOM     17  S   UNL d   1      -1.826  -3.576  -2.685  0.00  0.00    -0.070 SA
ATOM     18  C   UNL d   1      -0.392  -4.760  -4.760  0.00  0.00     0.076 C 
ENDBRANCH   8  11
ENDBRANCH   2   7
BRANCH   3  19
ATOM     19  C   UNL d   1      -7.235  -0.853   1.481  0.00  0.00     0.036 A 
ATOM     20  C   UNL d   1      -8.092  -1.583   0.650  0.00  0.00     0.031 A 
ATOM     21  C   UNL d   1      -9.471  -1.615   0.887  0.00  0.00     0.026 A 
ATOM     22  C   UNL d   1     -10.006  -0.904   1.954  0.00  0.00     0.034 A 
ATOM     23  C   UNL d   1      -9.175  -0.138   2.768  0.00  0.00     0.026 A 
ATOM     24 CL   UNL d   1     -11.692  -0.989   2.278  0.00  0.00    -0.084 Cl
ATOM     25  C   UNL d   1      -7.793  -0.113   2.532  0.00  0.00     0.031 A 
ENDBRANCH   3  19
TORSDOF 3
