REMARK  8 active torsions:
REMARK  status: ('A' for Active; 'I' for Inactive)
REMARK    1  A    between atoms: N_7  and  C_1 
REMARK    2  A    between atoms: N_14  and  C_1 
REMARK    3  A    between atoms: O_21  and  C_2 
REMARK    4  A    between atoms: C_3  and  C_4 
REMARK       I    between atoms: C_4  and  N_13 
REMARK    5  A    between atoms: O_22  and  C_5 
REMARK    6  A    between atoms: O_23  and  C_6 
REMARK    7  A    between atoms: C_8  and  N_7 
REMARK    8  A    between atoms: N_13  and  N_14 
ROOT
ATOM      1  C   UNL d   1      -1.853  -0.773  -2.339  0.00  0.00     0.270 C 
ATOM      2  N   UNL d   1      -1.309  -0.752  -1.067  0.00  0.00    -0.264 N 
ATOM      3  O   UNL d   1      -2.939  -0.266  -2.594  0.00  0.00    -0.266 OA
ATOM      4  H   UNL d   1      -0.345  -1.000  -0.853  0.00  0.00     0.190 HD
ENDROOT
BRANCH   2   5
ATOM      5  N   UNL d   1      -2.035  -0.159  -0.024  0.00  0.00    -0.274 N 
ATOM      6  H   UNL d   1      -2.893   0.307  -0.317  0.00  0.00     0.189 HD
BRANCH   5   7
ATOM      7  C   UNL d   1      -1.419   0.170   1.155  0.00  0.00     0.186 C 
ATOM      8  S   UNL d   1       0.197  -0.116   1.497  0.00  0.00    -0.040 SA
BRANCH   7   9
ATOM      9  N   UNL d   1      -2.187   0.719   2.133  0.00  0.00    -0.361 N 
ATOM     10  H   UNL d   1      -1.689   0.834   3.010  0.00  0.00     0.162 HD
BRANCH   9  11
ATOM     11  C   UNL d   1      -3.637   0.858   2.195  0.00  0.00     0.092 C 
ATOM     12  C   UNL d   1      -4.409  -0.451   2.541  0.00  0.00     0.031 C 
ATOM     13  C   UNL d   1      -3.910  -1.010   3.857  0.00  0.00    -0.024 C 
ATOM     14  C   UNL d   1      -5.737   0.136   3.041  0.00  0.00     0.019 C 
ATOM     15  C   UNL d   1      -4.298  -0.162   4.822  0.00  0.00    -0.026 C 
ATOM     16  C   UNL d   1      -5.072   0.951   4.154  0.00  0.00     0.010 C 
ATOM     17  C   UNL d   1      -4.086   1.819   3.341  0.00  0.00     0.034 C 
ENDBRANCH   9  11
ENDBRANCH   7   9
ENDBRANCH   5   7
ENDBRANCH   2   5
BRANCH   1  18
ATOM     18  C   UNL d   1      -1.041  -1.436  -3.407  0.00  0.00     0.039 A 
ATOM     19  C   UNL d   1      -0.018  -2.334  -3.120  0.00  0.00     0.057 A 
ATOM     20  C   UNL d   1       0.714  -2.958  -4.147  0.00  0.00     0.105 A 
ATOM     21  C   UNL d   1       0.420  -2.691  -5.504  0.00  0.00     0.135 A 
ATOM     22  C   UNL d   1      -0.611  -1.758  -5.792  0.00  0.00     0.105 A 
ATOM     23  C   UNL d   1      -1.333  -1.162  -4.742  0.00  0.00     0.057 A 
BRANCH  20  24
ATOM     24  O   UNL d   1       1.786  -3.762  -3.829  0.00  0.00    -0.353 OA
ATOM     25  C   UNL d   1       1.645  -4.558  -2.651  0.00  0.00     0.210 C 
ENDBRANCH  20  24
BRANCH  21  26
ATOM     26  O   UNL d   1       1.041  -3.246  -6.587  0.00  0.00    -0.351 OA
ATOM     27  C   UNL d   1       1.952  -4.328  -6.453  0.00  0.00     0.210 C 
ENDBRANCH  21  26
BRANCH  22  28
ATOM     28  O   UNL d   1      -1.033  -1.279  -7.004  0.00  0.00    -0.353 OA
ATOM     29  C   UNL d   1      -0.569  -1.823  -8.230  0.00  0.00     0.210 C 
ENDBRANCH  22  28
ENDBRANCH   1  18
TORSDOF 8
