REMARK  6 active torsions:
REMARK  status: ('A' for Active; 'I' for Inactive)
REMARK    1  A    between atoms: N_2  and  S_1 
REMARK    2  A    between atoms: C_7  and  S_1 
REMARK       I    between atoms: C_6  and  N_2 
REMARK    3  A    between atoms: C_4  and  C_5 
REMARK    4  A    between atoms: C_19  and  C_6 
REMARK    5  A    between atoms: C_11  and  S_13 
REMARK    6  A    between atoms: S_13  and  C_19 
ROOT
ATOM      1  N   UNL d   1       0.531   0.794   1.265  0.00  0.00    -0.283 N 
ATOM      2  HN  UNL d   1       0.039   1.676   1.122  1.00  0.00     0.178 HD
ATOM      3  C   UNL d   1       0.892   0.375   2.565  0.00  0.00     0.238 C 
ATOM      4  O   UNL d   1       1.873  -0.344   2.755  0.00  0.00    -0.272 OA
ENDROOT
BRANCH   3   5
ATOM      5  C   UNL d   1       0.019   0.845   3.730  0.00  0.00     0.184 C 
BRANCH   5   6
ATOM      6  S   UNL d   1       0.924   0.812   5.323  0.00  0.00    -0.103 SA
BRANCH   6   7
ATOM      7  C   UNL d   1       2.219   1.978   4.955  0.00  0.00     0.070 A 
ATOM      8  N   UNL d   1       1.938   2.960   4.070  0.00  0.00    -0.360 N 
ATOM      9  C   UNL d   1       2.887   3.901   3.856  0.00  0.00     0.105 A 
ATOM     10  HN  UNL d   1       1.043   2.991   3.581  1.00  0.00     0.166 HD
ATOM     11  C   UNL d   1       4.123   3.916   4.483  0.00  0.00     0.063 A 
ATOM     12  C   UNL d   1       4.403   2.873   5.370  0.00  0.00     0.020 A 
ATOM     13  C   UNL d   1       3.439   1.894   5.614  0.00  0.00     0.038 A 
BRANCH  11  14
ATOM     14  C   UNL d   1       5.099   5.023   4.227  0.00  0.00     0.418 C 
ATOM     15  F   UNL d   1       4.636   5.967   3.361  0.00  0.00    -0.166 F 
ATOM     16  F   UNL d   1       5.432   5.694   5.364  0.00  0.00    -0.166 F 
ATOM     17  F   UNL d   1       6.271   4.576   3.700  0.00  0.00    -0.166 F 
ENDBRANCH  11  14
ENDBRANCH   6   7
ENDBRANCH   5   6
ENDBRANCH   3   5
BRANCH   1  18
ATOM     18  S   UNL d   1       0.892  -0.107   0.065  0.00  0.00     0.055 S 
ATOM     19  O   UNL d   1       0.458  -1.486  -0.061  0.00  0.00    -0.245 OA
ATOM     20  C   UNL d   1       2.663  -0.075  -0.150  0.00  0.00     0.142 C 
BRANCH  18  21
ATOM     21  C   UNL d   1       0.362   0.726  -1.426  0.00  0.00     0.038 A 
ATOM     22  C   UNL d   1       0.315   2.120  -1.486  0.00  0.00     0.022 A 
ATOM     23  C   UNL d   1       0.002   2.747  -2.696  0.00  0.00     0.008 A 
ATOM     24  C   UNL d   1      -0.266   1.988  -3.845  0.00  0.00    -0.062 A 
ATOM     25  C   UNL d   1      -0.239   0.590  -3.762  0.00  0.00     0.008 A 
ATOM     26  C   UNL d   1      -0.566   2.673  -5.146  0.00  0.00     0.048 C 
ATOM     27  C   UNL d   1       0.070  -0.043  -2.560  0.00  0.00     0.022 A 
ENDBRANCH  18  21
ENDBRANCH   1  18
TORSDOF 6
