REMARK  8 active torsions:
REMARK  status: ('A' for Active; 'I' for Inactive)
REMARK    1  A    between atoms: C_5  and  C_1 
REMARK    2  A    between atoms: N_21  and  C_4 
REMARK    3  A    between atoms: C_6  and  N_20 
REMARK    4  A    between atoms: N_9  and  C_6 
REMARK    5  A    between atoms: C_14  and  N_9 
REMARK    6  A    between atoms: N_20  and  C_28 
REMARK    7  A    between atoms: C_29  and  N_21 
REMARK    8  A    between atoms: C_28  and  C_29 
ROOT
ATOM      1  N   UNL d   1       0.944   7.993   3.045  0.00  0.00    -0.365 N 
ATOM      2  H   UNL d   1       0.336   7.936   3.851  0.00  0.00     0.161 HD
ENDROOT
BRANCH   1   3
ATOM      3  C   UNL d   1       1.078   9.265   2.534  0.00  0.00     0.172 C 
ATOM      4  S   UNL d   1       1.534   9.653   0.971  0.00  0.00    -0.041 SA
BRANCH   3   5
ATOM      5  N   UNL d   1       0.723  10.306   3.347  0.00  0.00    -0.333 N 
ATOM      6  H   UNL d   1       0.540  11.162   2.831  0.00  0.00     0.168 HD
BRANCH   5   7
ATOM      7  C   UNL d   1       0.540  10.359   4.736  0.00  0.00     0.037 A 
ATOM      8  C   UNL d   1       1.196   9.495   5.611  0.00  0.00     0.069 A 
ATOM      9  C   UNL d   1       0.878   9.510   6.965  0.00  0.00     0.104 A 
ATOM     10  O   UNL d   1       1.490   8.565   7.746  0.00  0.00    -0.346 OA
ATOM     11  C   UNL d   1      -0.045  10.433   7.465  0.00  0.00     0.102 A 
ATOM     12  C   UNL d   1       0.707   8.316   8.917  0.00  0.00     0.202 C 
ATOM     13  C   UNL d   1       0.368   9.627   9.609  0.00  0.00     0.202 C 
ATOM     14  O   UNL d   1      -0.439  10.469   8.776  0.00  0.00    -0.346 OA
ATOM     15  C   UNL d   1      -0.635  11.358   6.606  0.00  0.00     0.042 A 
ATOM     16  C   UNL d   1      -0.332  11.331   5.243  0.00  0.00     0.032 A 
ENDBRANCH   5   7
ENDBRANCH   3   5
ENDBRANCH   1   3
BRANCH   1  17
ATOM     17  C   UNL d   1       1.002   6.788   2.220  0.00  0.00     0.142 C 
BRANCH  17  18
ATOM     18  C   UNL d   1       1.182   5.455   2.970  0.00  0.00     0.157 C 
BRANCH  18  19
ATOM     19  N   UNL d   1       1.325   4.405   1.977  0.00  0.00    -0.224 N 
ATOM     20  H   UNL d   1       0.652   4.383   1.220  0.00  0.00     0.177 HD
BRANCH  19  21
ATOM     21  C   UNL d   1       1.587   3.114   2.355  0.00  0.00     0.678 A 
ATOM     22  N   UNL d   1       1.240   2.186   1.455  0.00  0.00    -0.187 N 
ATOM     23  C   UNL d   1       1.536   0.890   1.719  0.00  0.00     0.133 A 
ATOM     24  HN  UNL d   1       0.763   2.448   0.592  1.00  0.00     0.184 HD
ATOM     25  C   UNL d   1       2.161   0.518   2.895  0.00  0.00     0.052 A 
ATOM     26  C   UNL d   1       2.457   1.539   3.765  0.00  0.00     0.108 A 
ATOM     27  N   UNL d   1       2.174   2.831   3.523  0.00  0.00    -0.202 N 
ATOM     28  HN  UNL d   1       2.397   3.561   4.199  1.00  0.00     0.183 HD
BRANCH  23  29
ATOM     29  C   UNL d   1       1.182  -0.178   0.701  0.00  0.00     0.433 C 
ATOM     30  F   UNL d   1       0.578   0.293  -0.427  0.00  0.00    -0.165 F 
ATOM     31  F   UNL d   1       0.332  -1.118   1.210  0.00  0.00    -0.165 F 
ATOM     32  F   UNL d   1       2.276  -0.875   0.274  0.00  0.00    -0.165 F 
ENDBRANCH  23  29
ENDBRANCH  19  21
ENDBRANCH  18  19
ENDBRANCH  17  18
ENDBRANCH   1  17
TORSDOF 8
