REMARK  5 active torsions:
REMARK  status: ('A' for Active; 'I' for Inactive)
REMARK    1  A    between atoms: C_5  and  C_3 
REMARK    2  A    between atoms: C_12  and  N_4 
REMARK    3  A    between atoms: S_15  and  C_11 
REMARK    4  A    between atoms: C_22  and  S_15 
REMARK    5  A    between atoms: C_23  and  C_22 
ROOT
ATOM      1  C   UNL d   1       2.550   1.312  -0.397  0.00  0.00     0.067 A 
ATOM      2  N   UNL d   1       3.260   1.103  -1.525  0.00  0.00    -0.335 N 
ATOM      3  HN  UNL d   1       2.911   0.511  -2.279  1.00  0.00     0.168 HD
ATOM      4  C   UNL d   1       4.447   1.715  -1.602  0.00  0.00     0.144 A 
ATOM      5  N   UNL d   1       4.944   2.527  -0.652  0.00  0.00    -0.347 N 
ATOM      6  HN  UNL d   1       5.859   2.966  -0.753  1.00  0.00     0.167 HD
ATOM      7  C   UNL d   1       2.957   2.152   0.619  0.00  0.00     0.049 A 
ATOM      8  C   UNL d   1       4.183   2.735   0.437  0.00  0.00     0.092 A 
ENDROOT
BRANCH   1   9
ATOM      9  C   UNL d   1       1.265   0.576  -0.249  0.00  0.00     0.125 A 
ATOM     10  N   UNL d   1       0.279   1.120   0.415  0.00  0.00    -0.288 N 
ATOM     11  N   UNL d   1      -0.874   0.387   0.598  0.00  0.00    -0.267 N 
ATOM     12  HN  UNL d   1       0.361   2.065   0.790  1.00  0.00     0.188 HD
ATOM     13  C   UNL d   1      -0.996  -0.913   0.150  0.00  0.00     0.120 A 
ATOM     14  C   UNL d   1      -0.074  -1.573  -0.542  0.00  0.00     0.076 A 
ATOM     15  C   UNL d   1       1.155  -0.828  -0.834  0.00  0.00     0.203 A 
ATOM     16  O   UNL d   1       2.042  -1.353  -1.489  0.00  0.00    -0.286 OA
BRANCH  11  17
ATOM     17  C   UNL d   1      -1.938   1.080   1.261  0.00  0.00     0.056 A 
ATOM     18  C   UNL d   1      -2.074   2.476   1.126  0.00  0.00     0.034 A 
ATOM     19  C   UNL d   1      -3.125   3.166   1.737  0.00  0.00     0.044 A 
ATOM     20  C   UNL d   1      -4.045   2.469   2.506  0.00  0.00     0.116 A 
ATOM     21  C   UNL d   1      -3.936   1.096   2.673  0.00  0.00     0.044 A 
ATOM     22  F   UNL d   1      -5.050   3.128   3.098  0.00  0.00    -0.206 F 
ATOM     23  C   UNL d   1      -2.889   0.406   2.053  0.00  0.00     0.034 A 
ENDBRANCH  11  17
ENDBRANCH   1   9
BRANCH   4  24
ATOM     24  S   UNL d   1       5.503   1.410  -2.994  0.00  0.00    -0.089 SA
BRANCH  24  25
ATOM     25  C   UNL d   1       4.267   1.105  -4.296  0.00  0.00     0.121 C 
BRANCH  25  26
ATOM     26  C   UNL d   1       4.938   0.897  -5.638  0.00  0.00    -0.049 A 
ATOM     27  C   UNL d   1       5.308  -0.389  -6.059  0.00  0.00     0.008 A 
ATOM     28  C   UNL d   1       5.986  -0.578  -7.268  0.00  0.00     0.007 A 
ATOM     29  C   UNL d   1       6.313   0.513  -8.079  0.00  0.00    -0.062 A 
ATOM     30  C   UNL d   1       5.932   1.796  -7.673  0.00  0.00     0.007 A 
ATOM     31  C   UNL d   1       7.094   0.300  -9.344  0.00  0.00     0.048 C 
ATOM     32  C   UNL d   1       5.252   1.986  -6.465  0.00  0.00     0.008 A 
ENDBRANCH  25  26
ENDBRANCH  24  25
ENDBRANCH   4  24
TORSDOF 5
