REMARK  6 active torsions:
REMARK  status: ('A' for Active; 'I' for Inactive)
REMARK       I    between atoms: C_5  and  N_6 
REMARK    1  A    between atoms: C_18  and  C_5 
REMARK    2  A    between atoms: N_6  and  C_10 
REMARK    3  A    between atoms: C_8  and  C_19 
REMARK    4  A    between atoms: O_17  and  C_8 
REMARK    5  A    between atoms: O_16  and  C_18 
REMARK    6  A    between atoms: C_19  and  O_16 
ROOT
ATOM      1  C   UNL d   1      -2.649   3.758  -0.073  0.00  0.00     0.245 C 
ATOM      2  N   UNL d   1      -2.947   2.411   0.039  0.00  0.00    -0.325 N 
ATOM      3  O   UNL d   1      -1.542   4.247  -0.270  0.00  0.00    -0.271 OA
ATOM      4  H   UNL d   1      -3.926   2.186   0.162  0.00  0.00     0.169 HD
ENDROOT
BRANCH   2   5
ATOM      5  C   UNL d   1      -2.040   1.332   0.011  0.00  0.00     0.035 A 
ATOM      6  C   UNL d   1      -0.654   1.490  -0.040  0.00  0.00     0.048 A 
ATOM      7  C   UNL d   1       0.131   0.347  -0.042  0.00  0.00     0.050 A 
ATOM      8  C   UNL d   1       1.585   0.250  -0.069  0.00  0.00     0.294 A 
ATOM      9  C   UNL d   1      -0.399  -0.924  -0.003  0.00  0.00    -0.018 A 
ATOM     10  O   UNL d   1       1.884  -1.085  -0.053  0.00  0.00    -0.313 OA
ATOM     11  O   UNL d   1       2.377   1.167  -0.100  0.00  0.00    -0.259 OA
ATOM     12  C   UNL d   1       0.700  -1.908  -0.013  0.00  0.00     0.218 A 
ATOM     13  C   UNL d   1      -1.768  -1.108   0.040  0.00  0.00     0.012 A 
ATOM     14  C   UNL d   1      -2.587   0.030   0.052  0.00  0.00     0.030 A 
ENDBRANCH   2   5
BRANCH   1  15
ATOM     15  C   UNL d   1      -3.893   4.648  -0.009  0.00  0.00     0.271 C 
BRANCH  15  16
ATOM     16  O   UNL d   1      -4.782   4.277   1.052  0.00  0.00    -0.372 OA
BRANCH  16  17
ATOM     17  C   UNL d   1      -5.757   5.303   1.279  0.00  0.00     0.277 C 
BRANCH  17  18
ATOM     18  C   UNL d   1      -6.906   5.170   0.293  0.00  0.00     0.164 C 
ATOM     19  O   UNL d   1      -7.443   6.101  -0.286  0.00  0.00    -0.648 OA
BRANCH  18  20
ATOM     20  O   UNL d   1      -7.277   3.875   0.124  0.00  0.00    -0.775 OA
ATOM     21  H   UNL d   1      -6.713   3.291   0.673  0.00  0.00     0.167 HD
ENDBRANCH  18  20
ENDBRANCH  17  18
ENDBRANCH  16  17
ENDBRANCH  15  16
ENDBRANCH   1  15
TORSDOF 6
