REMARK  6 active torsions:
REMARK  status: ('A' for Active; 'I' for Inactive)
REMARK    1  A    between atoms: C_2  and  S_1 
REMARK    2  A    between atoms: C_23  and  S_1 
REMARK    3  A    between atoms: C_12  and  C_3 
REMARK    4  A    between atoms: C_4  and  C_10 
REMARK    5  A    between atoms: N_15  and  C_9 
REMARK    6  A    between atoms: C_13  and  C_14 
REMARK       I    between atoms: C_14  and  N_15 
ROOT
ATOM      1  C   UNL d   1       2.033  -1.121  -2.747  0.00  0.00     0.034 A 
ATOM      2  S   UNL d   1       1.551  -0.918  -1.106  0.00  0.00    -0.083 SA
ATOM      3  C   UNL d   1       0.615  -2.353  -1.093  0.00  0.00     0.073 A 
ATOM      4  C   UNL d   1       1.393  -2.225  -3.286  0.00  0.00     0.023 A 
ATOM      5  C   UNL d   1       0.585  -2.923  -2.348  0.00  0.00     0.026 A 
ENDROOT
BRANCH   3   6
ATOM      6  C   UNL d   1      -0.024  -2.931   0.102  0.00  0.00     0.263 C 
ATOM      7  N   UNL d   1       0.092  -2.206   1.263  0.00  0.00    -0.321 N 
ATOM      8  H   UNL d   1       0.473  -1.274   1.135  0.00  0.00     0.169 HD
ATOM      9  O   UNL d   1      -0.580  -4.017   0.025  0.00  0.00    -0.267 OA
BRANCH   7  10
ATOM     10  C   UNL d   1      -0.219  -2.545   2.589  0.00  0.00     0.063 A 
ATOM     11  C   UNL d   1      -0.695  -3.730   3.291  0.00  0.00     0.093 A 
ATOM     12  C   UNL d   1      -0.745  -3.517   4.664  0.00  0.00     0.075 A 
ATOM     13  S   UNL d   1      -0.298  -1.950   5.130  0.00  0.00    -0.110 SA
ATOM     14  C   UNL d   1      -0.020  -1.522   3.510  0.00  0.00     0.080 A 
BRANCH  11  15
ATOM     15  S   UNL d   1      -1.193  -5.306   2.713  0.00  0.00     0.181 S 
ATOM     16  O   UNL d   1      -2.251  -5.034   1.767  0.00  0.00    -0.222 OA
ATOM     17  O   UNL d   1      -1.498  -6.050   3.925  0.00  0.00    -0.222 OA
BRANCH  15  18
ATOM     18  C   UNL d   1       0.257  -6.079   1.973  0.00  0.00     0.105 C 
ATOM     19  C   UNL d   1       1.374  -6.262   2.995  0.00  0.00     0.026 C 
ATOM     20  C   UNL d   1      -0.138  -7.425   1.365  0.00  0.00     0.026 C 
ENDBRANCH  15  18
ENDBRANCH  11  15
ENDBRANCH   7  10
ENDBRANCH   3   6
BRANCH   1  21
ATOM     21  C   UNL d   1       2.955  -0.278  -3.483  0.00  0.00     0.069 A 
ATOM     22  C   UNL d   1       3.085  -0.207  -4.864  0.00  0.00     0.068 A 
ATOM     23  C   UNL d   1       4.186   0.643  -5.136  0.00  0.00     0.134 A 
ATOM     24  N   UNL d   1       4.690   1.123  -3.987  0.00  0.00    -0.294 N 
ATOM     25  N   UNL d   1       3.933   0.571  -3.011  0.00  0.00    -0.295 N 
ATOM     26  HN  UNL d   1       5.474   1.765  -3.875  1.00  0.00     0.187 HD
ATOM     27  C   UNL d   1       4.264   0.939  -1.655  0.00  0.00     0.178 C 
BRANCH  23  28
ATOM     28  C   UNL d   1       4.744   0.976  -6.496  0.00  0.00     0.434 C 
ATOM     29  F   UNL d   1       5.872   1.734  -6.459  0.00  0.00    -0.165 F 
ATOM     30  F   UNL d   1       5.058  -0.151  -7.194  0.00  0.00    -0.165 F 
ATOM     31  F   UNL d   1       3.841   1.654  -7.257  0.00  0.00    -0.165 F 
ENDBRANCH  23  28
ENDBRANCH   1  21
TORSDOF 6
