REMARK  3 active torsions:
REMARK  status: ('A' for Active; 'I' for Inactive)
REMARK    1  A    between atoms: C_5  and  C_3 
REMARK    2  A    between atoms: C_12  and  N_4 
REMARK    3  A    between atoms: N_18  and  C_11 
ROOT
ATOM      1  N   UNL d   1       1.242  -0.687  -0.032  0.00  0.00    -0.288 N 
ATOM      2  HN  UNL d   1       2.110  -1.223  -0.031  1.00  0.00     0.188 HD
ATOM      3  C   UNL d   1       1.262   0.617  -0.124  0.00  0.00     0.125 C 
ATOM      4  N   UNL d   1       0.024  -1.319   0.065  0.00  0.00    -0.267 N 
ATOM      5  C   UNL d   1      -0.014   1.442  -0.014  0.00  0.00     0.203 C 
ATOM      6  C   UNL d   1      -1.281   0.701  -0.031  0.00  0.00     0.076 C 
ATOM      7  C   UNL d   1      -1.170  -0.625   0.022  0.00  0.00     0.120 C 
ATOM      8  O   UNL d   1      -0.014   2.650   0.174  0.00  0.00    -0.286 OA
ENDROOT
BRANCH   3   9
ATOM      9  C   UNL d   1       2.551   1.321  -0.330  0.00  0.00     0.068 A 
ATOM     10  N   UNL d   1       2.503   2.497  -0.984  0.00  0.00    -0.331 N 
ATOM     11  C   UNL d   1       3.663   3.114  -1.188  0.00  0.00     0.155 A 
ATOM     12  HN  UNL d   1       1.621   2.894  -1.307  1.00  0.00     0.168 HD
ATOM     13  N   UNL d   1       4.851   2.650  -0.792  0.00  0.00    -0.343 N 
ATOM     14  C   UNL d   1       4.860   1.459  -0.167  0.00  0.00     0.093 A 
ATOM     15  HN  UNL d   1       5.710   3.174  -0.957  1.00  0.00     0.167 HD
ATOM     16  C   UNL d   1       3.725   0.737   0.095  0.00  0.00     0.049 A 
BRANCH  11  17
ATOM     17  N   UNL d   1       3.627   4.346  -1.806  0.00  0.00    -0.274 NA
ATOM     18  H   UNL d   1       2.722   4.770  -1.647  0.00  0.00     0.127 HD
ATOM     19  H   UNL d   1       4.438   4.883  -1.538  0.00  0.00     0.127 HD
ENDBRANCH  11  17
ENDBRANCH   3   9
BRANCH   4  20
ATOM     20  C   UNL d   1       0.094  -2.745   0.178  0.00  0.00     0.056 A 
ATOM     21  C   UNL d   1       1.199  -3.354   0.807  0.00  0.00     0.034 A 
ATOM     22  C   UNL d   1       1.276  -4.741   0.962  0.00  0.00     0.044 A 
ATOM     23  C   UNL d   1       0.253  -5.540   0.473  0.00  0.00     0.116 A 
ATOM     24  C   UNL d   1      -0.842  -4.979  -0.169  0.00  0.00     0.044 A 
ATOM     25  F   UNL d   1       0.324  -6.869   0.618  0.00  0.00    -0.206 F 
ATOM     26  C   UNL d   1      -0.920  -3.589  -0.315  0.00  0.00     0.034 A 
ENDBRANCH   4  20
TORSDOF 3
