REMARK  3 active torsions:
REMARK  status: ('A' for Active; 'I' for Inactive)
REMARK    1  A    between atoms: C_12  and  C_5 
REMARK    2  A    between atoms: C_7  and  S_10 
REMARK    3  A    between atoms: S_10  and  C_12 
ROOT
ATOM      1  C   UNL d   1      -2.721   1.556   0.051  0.00  0.00     0.135 C 
ENDROOT
BRANCH   1   2
ATOM      2  S   UNL d   1      -2.345   3.333   0.057  0.00  0.00    -0.106 SA
BRANCH   2   3
ATOM      3  C   UNL d   1      -4.004   3.995   0.082  0.00  0.00     0.069 A 
ATOM      4  N   UNL d   1      -5.038   3.124   0.083  0.00  0.00    -0.361 N 
ATOM      5  C   UNL d   1      -6.286   3.642   0.084  0.00  0.00     0.089 A 
ATOM      6  HN  UNL d   1      -4.882   2.116   0.082  1.00  0.00     0.165 HD
ATOM      7  C   UNL d   1      -6.557   4.999   0.095  0.00  0.00     0.017 A 
ATOM      8  C   UNL d   1      -5.483   5.880   0.103  0.00  0.00     0.004 A 
ATOM      9  C   UNL d   1      -4.185   5.373   0.096  0.00  0.00     0.037 A 
ENDBRANCH   2   3
ENDBRANCH   1   2
BRANCH   1  10
ATOM     10  C   UNL d   1      -1.458   0.756   0.000  0.00  0.00     0.022 A 
ATOM     11  N   UNL d   1      -1.164  -0.065  -0.968  0.00  0.00    -0.305 N 
ATOM     12  N   UNL d   1       0.027  -0.641  -0.624  0.00  0.00    -0.270 N 
ATOM     13  HN  UNL d   1      -1.710  -0.241  -1.811  1.00  0.00     0.186 HD
ATOM     14  C   UNL d   1       0.548  -0.223   0.589  0.00  0.00     0.241 A 
ATOM     15  H   UNL d   1       0.465  -1.333  -1.221  0.00  0.00     0.190 HD
ATOM     16  O   UNL d   1       1.580  -0.590   1.121  0.00  0.00    -0.271 OA
ATOM     17  C   UNL d   1      -0.439   0.778   1.107  0.00  0.00     0.159 A 
ENDBRANCH   1  10
TORSDOF 3
