REMARK  3 active torsions:
REMARK  status: ('A' for Active; 'I' for Inactive)
REMARK    1  A    between atoms: C_6  and  C_8 
REMARK    2  A    between atoms: C_10  and  C_6 
REMARK    3  A    between atoms: C_13  and  C_10 
ROOT
ATOM      1  C   UNL d   1       1.077   0.676  -0.367  0.00  0.00    -0.042 A 
ATOM      2  C   UNL d   1       0.649  -0.654  -0.155  0.00  0.00    -0.019 A 
ATOM      3  C   UNL d   1      -0.797  -0.678  -0.099  0.00  0.00    -0.019 A 
ATOM      4  C   UNL d   1      -1.279   0.640  -0.243  0.00  0.00    -0.043 A 
ATOM      5  C   UNL d   1      -0.123   1.603  -0.431  0.00  0.00     0.078 A 
ATOM      6  C   UNL d   1       2.425   1.006  -0.459  0.00  0.00     0.023 A 
ATOM      7  C   UNL d   1       3.365  -0.019  -0.297  0.00  0.00     0.011 A 
ATOM      8  C   UNL d   1       1.571  -1.671  -0.010  0.00  0.00     0.014 A 
ATOM      9  C   UNL d   1       2.931  -1.348  -0.070  0.00  0.00     0.016 A 
ATOM     10  C   UNL d   1      -1.679  -1.734   0.069  0.00  0.00     0.013 A 
ATOM     11  C   UNL d   1      -2.634   0.924  -0.200  0.00  0.00     0.008 A 
ATOM     12  C   UNL d   1      -3.049  -1.457   0.106  0.00  0.00     0.001 A 
ATOM     13  C   UNL d   1      -3.522  -0.140  -0.021  0.00  0.00     0.001 A 
ENDROOT
BRANCH   7  14
ATOM     14  C   UNL d   1       4.844   0.215  -0.340  0.00  0.00     0.163 C 
ATOM     15  O   UNL d   1       5.591  -0.638   0.143  0.00  0.00    -0.292 OA
BRANCH  14  16
ATOM     16  C   UNL d   1       5.409   1.466  -0.978  0.00  0.00     0.122 C 
BRANCH  16  17
ATOM     17  C   UNL d   1       5.400   1.526  -2.490  0.00  0.00    -0.051 A 
ATOM     18  C   UNL d   1       4.886   0.509  -3.307  0.00  0.00     0.009 A 
ATOM     19  C   UNL d   1       4.853   0.657  -4.697  0.00  0.00     0.019 A 
ATOM     20  C   UNL d   1       5.356   1.814  -5.285  0.00  0.00     0.011 A 
ATOM     21  C   UNL d   1       5.916   2.815  -4.497  0.00  0.00     0.019 A 
ATOM     22 BR   UNL d   1       5.266   2.033  -7.160  0.00  0.00    -0.051 Br
ATOM     23  C   UNL d   1       5.938   2.670  -3.108  0.00  0.00     0.009 A 
ENDBRANCH  16  17
ENDBRANCH  14  16
ENDBRANCH   7  14
TORSDOF 3
