REMARK  2 active torsions:
REMARK  status: ('A' for Active; 'I' for Inactive)
REMARK    1  A    between atoms: N_2  and  C_1 
REMARK    2  A    between atoms: S_4  and  C_1 
ROOT
ATOM      1  N   UNL d   1      -0.272  -0.650   0.723  0.00  0.00    -0.370 N 
ATOM      2  C   UNL d   1       0.293  -0.832   2.308  0.00  0.00     0.124 C 
ATOM      3  C   UNL d   1      -1.546  -1.749   0.919  0.00  0.00     0.124 C 
ATOM      4  C   UNL d   1      -2.547  -1.392   2.028  0.00  0.00     0.020 C 
ATOM      5  C   UNL d   1      -0.732  -0.570   3.430  0.00  0.00     0.020 C 
ATOM      6  C   UNL d   1      -1.912  -1.507   3.385  0.00  0.00     0.003 C 
ENDROOT
BRANCH   1   7
ATOM      7  C   UNL d   1       0.485   0.174  -0.848  0.00  0.00     0.114 C 
ATOM      8  S   UNL d   1      -0.006   1.417  -2.265  0.00  0.00    -0.026 SA
BRANCH   7   9
ATOM      9  S   UNL d   1       2.376   0.094  -1.778  0.00  0.00    -0.118 SA
ATOM     10  H   UNL d   1       2.993  -0.211  -0.627  0.00  0.00     0.109 HD
ENDBRANCH   7   9
ENDBRANCH   1   7
TORSDOF 2
