REMARK  6 active torsions:
REMARK  status: ('A' for Active; 'I' for Inactive)
REMARK    1  A    between atoms: O_11  and  C_1 
REMARK    2  A    between atoms: C_3  and  C_2 
REMARK       I    between atoms: N_8  and  C_3 
REMARK    3  A    between atoms: O_13  and  C_4 
REMARK    4  A    between atoms: O_12  and  C_5 
REMARK    5  A    between atoms: C_10  and  N_8 
REMARK    6  A    between atoms: C_14  and  C_10 
ROOT
ATOM      1  C   UNL d   1       1.448  -0.400  -0.053  0.00  0.00     0.135 A 
ATOM      2  C   UNL d   1      -1.296   0.274  -0.036  0.00  0.00     0.037 A 
ATOM      3  C   UNL d   1       0.468  -1.410   0.062  0.00  0.00     0.105 A 
ATOM      4  C   UNL d   1       1.051   0.949  -0.080  0.00  0.00     0.105 A 
ATOM      5  C   UNL d   1      -0.320   1.272  -0.068  0.00  0.00     0.057 A 
ATOM      6  C   UNL d   1      -0.887  -1.064   0.027  0.00  0.00     0.057 A 
ENDROOT
BRANCH   2   7
ATOM      7  C   UNL d   1      -2.767   0.532  -0.110  0.00  0.00     0.252 C 
ATOM      8  N   UNL d   1      -3.213   1.835  -0.128  0.00  0.00    -0.353 N 
ATOM      9  H   UNL d   1      -2.586   2.616  -0.017  0.00  0.00     0.163 HD
ATOM     10  O   UNL d   1      -3.536  -0.424  -0.178  0.00  0.00    -0.268 OA
BRANCH   8  11
ATOM     11  C   UNL d   1      -4.596   2.141  -0.432  0.00  0.00     0.161 C 
BRANCH  11  12
ATOM     12  C   UNL d   1      -5.277   2.924   0.660  0.00  0.00    -0.041 A 
ATOM     13  C   UNL d   1      -5.816   4.191   0.402  0.00  0.00     0.009 A 
ATOM     14  C   UNL d   1      -6.525   4.878   1.389  0.00  0.00     0.001 A 
ATOM     15  C   UNL d   1      -6.704   4.302   2.646  0.00  0.00     0.000 A 
ATOM     16  C   UNL d   1      -6.167   3.048   2.919  0.00  0.00     0.001 A 
ATOM     17  C   UNL d   1      -5.458   2.359   1.934  0.00  0.00     0.009 A 
ENDBRANCH  11  12
ENDBRANCH   8  11
ENDBRANCH   2   7
BRANCH   4  18
ATOM     18  O   UNL d   1       1.832   2.075  -0.134  0.00  0.00    -0.353 OA
ATOM     19  C   UNL d   1       3.244   1.943  -0.149  0.00  0.00     0.210 C 
ENDBRANCH   4  18
BRANCH   3  20
ATOM     20  O   UNL d   1       0.907  -2.705   0.201  0.00  0.00    -0.353 OA
ATOM     21  C   UNL d   1      -0.037  -3.656   0.682  0.00  0.00     0.210 C 
ENDBRANCH   3  20
BRANCH   1  22
ATOM     22  O   UNL d   1       2.785  -0.712  -0.023  0.00  0.00    -0.351 OA
ATOM     23  C   UNL d   1       3.211  -1.615  -1.045  0.00  0.00     0.210 C 
ENDBRANCH   1  22
TORSDOF 6
