REMARK  2 active torsions:
REMARK  status: ('A' for Active; 'I' for Inactive)
REMARK    1  A    between atoms: C_3  and  C_1 
REMARK       I    between atoms: N_2  and  C_3 
REMARK       I    between atoms: C_4  and  N_2 
REMARK       I    between atoms: N_9  and  C_4 
REMARK    2  A    between atoms: C_13  and  N_9 
ROOT
ATOM      1  N   UNL d   1      -0.585   3.366   0.347  0.00  0.00    -0.273 N 
ATOM      2  C   UNL d   1      -1.137   2.138   0.039  0.00  0.00     0.285 C 
ATOM      3  C   UNL d   1       0.721   3.777   0.223  0.00  0.00     0.327 C 
ATOM      4  N   UNL d   1       1.651   2.775   0.087  0.00  0.00    -0.309 N 
ATOM      5  O   UNL d   1       0.950   4.982   0.300  0.00  0.00    -0.247 OA
ATOM      6  O   UNL d   1      -0.515   1.288  -0.601  0.00  0.00    -0.265 OA
ATOM      7  H   UNL d   1      -1.208   4.111   0.630  0.00  0.00     0.173 HD
ATOM      8  H   UNL d   1       1.280   1.858  -0.155  0.00  0.00     0.170 HD
ENDROOT
BRANCH   4   9
ATOM      9  C   UNL d   1       3.052   2.874   0.246  0.00  0.00     0.036 A 
ATOM     10  C   UNL d   1       3.712   4.062   0.580  0.00  0.00     0.032 A 
ATOM     11  C   UNL d   1       5.095   4.076   0.791  0.00  0.00     0.044 A 
ATOM     12  C   UNL d   1       5.821   2.900   0.672  0.00  0.00     0.116 A 
ATOM     13  C   UNL d   1       5.190   1.711   0.332  0.00  0.00     0.044 A 
ATOM     14  F   UNL d   1       7.141   2.911   0.895  0.00  0.00    -0.206 F 
ATOM     15  C   UNL d   1       3.808   1.698   0.114  0.00  0.00     0.032 A 
ENDBRANCH   4   9
BRANCH   2  16
ATOM     16  C   UNL d   1      -2.487   1.941   0.489  0.00  0.00     0.168 A 
ATOM     17  O   UNL d   1      -2.857   2.445   1.704  0.00  0.00    -0.233 OA
ATOM     18  N   UNL d   1      -4.134   2.004   2.020  0.00  0.00    -0.272 N 
ATOM     19  C   UNL d   1      -4.522   1.266   0.978  0.00  0.00     0.117 A 
ATOM     20  HN  UNL d   1      -4.664   2.203   2.869  1.00  0.00     0.194 HD
ATOM     21  C   UNL d   1      -3.541   1.222  -0.029  0.00  0.00     0.064 A 
ENDBRANCH   2  16
TORSDOF 2
