REMARK  2 active torsions:
REMARK  status: ('A' for Active; 'I' for Inactive)
REMARK       I    between atoms: N_2  and  C_1 
REMARK       I    between atoms: N_6  and  C_1 
REMARK    1  A    between atoms: C_3  and  N_2 
REMARK    2  A    between atoms: C_9  and  C_5 
ROOT
ATOM      1  C   UNL d   1       0.978  -1.572   1.724  0.00  0.00     0.078 A 
ATOM      2  S   UNL d   1       0.495  -3.191   1.862  0.00  0.00    -0.070 SA
ATOM      3  C   UNL d   1       1.706  -3.518   3.036  0.00  0.00     0.033 A 
ATOM      4  C   UNL d   1       2.341  -2.345   3.418  0.00  0.00     0.024 A 
ATOM      5  C   UNL d   1       1.944  -1.221   2.628  0.00  0.00     0.039 A 
ENDROOT
BRANCH   1   6
ATOM      6  N   UNL d   1       0.326  -0.881   0.733  0.00  0.00    -0.303 N 
ATOM      7  C   UNL d   1       0.946   0.115   0.009  0.00  0.00     0.323 C 
ATOM      8  N   UNL d   1       0.122   0.616  -0.999  0.00  0.00    -0.330 N 
ATOM      9  O   UNL d   1       2.114   0.472   0.141  0.00  0.00    -0.247 OA
ATOM     10  C   UNL d   1       0.725   1.371  -2.098  0.00  0.00     0.153 C 
ATOM     11  C   UNL d   1      -1.274   0.977  -0.738  0.00  0.00     0.153 C 
ATOM     12  C   UNL d   1       0.518   2.875  -1.915  0.00  0.00     0.187 C 
ATOM     13  O   UNL d   1      -0.878   3.179  -1.740  0.00  0.00    -0.388 OA
ATOM     14  C   UNL d   1      -1.403   2.501  -0.586  0.00  0.00     0.187 C 
ATOM     15  H   UNL d   1      -0.374  -1.403   0.225  0.00  0.00     0.171 HD
ENDBRANCH   1   6
BRANCH   3  16
ATOM     16  C   UNL d   1       1.934  -4.884   3.522  0.00  0.00     0.049 A 
ATOM     17  N   UNL d   1       2.285  -4.967   4.828  0.00  0.00    -0.365 N 
ATOM     18  C   UNL d   1       2.521  -6.202   5.325  0.00  0.00     0.088 A 
ATOM     19  HN  UNL d   1       2.369  -4.135   5.411  1.00  0.00     0.165 HD
ATOM     20  C   UNL d   1       2.437  -7.367   4.580  0.00  0.00     0.017 A 
ATOM     21  C   UNL d   1       2.095  -7.262   3.238  0.00  0.00     0.004 A 
ATOM     22  C   UNL d   1       1.840  -6.004   2.698  0.00  0.00     0.031 A 
ENDBRANCH   3  16
TORSDOF 2
