REMARK  3 active torsions:
REMARK  status: ('A' for Active; 'I' for Inactive)
REMARK    1  A    between atoms: C_8  and  C_1 
REMARK    2  A    between atoms: C_7  and  C_2 
REMARK    3  A    between atoms: O_22  and  C_8 
ROOT
ATOM      1  C   UNL d   1       2.080  -1.347  -0.053  0.00  0.00     0.052 A 
ATOM      2  C   UNL d   1       0.574  -1.701  -0.170  0.00  0.00     0.098 A 
ATOM      3  C   UNL d   1      -0.345  -0.490  -0.063  0.00  0.00     0.023 A 
ATOM      4  C   UNL d   1       2.466  -0.047   0.036  0.00  0.00     0.018 A 
ATOM      5  C   UNL d   1       0.152   0.761  -0.010  0.00  0.00     0.020 A 
ATOM      6  N   UNL d   1       1.512   0.958  -0.003  0.00  0.00    -0.362 N 
ATOM      7  C   UNL d   1      -1.829  -0.667  -0.023  0.00  0.00     0.158 C 
ATOM      8  O   UNL d   1      -2.358  -1.746  -0.289  0.00  0.00    -0.293 OA
ATOM      9  C   UNL d   1      -0.696   2.014   0.033  0.00  0.00     0.058 C 
ATOM     10  C   UNL d   1       3.870   0.500   0.182  0.00  0.00     0.069 C 
ATOM     11  C   UNL d   1      -2.663   0.524   0.389  0.00  0.00     0.084 C 
ATOM     12  C   UNL d   1      -2.155   1.759  -0.328  0.00  0.00     0.014 C 
ATOM     13  H   UNL d   1       1.849   1.918   0.033  0.00  0.00     0.165 HD
ENDROOT
BRANCH   2  14
ATOM     14  C   UNL d   1       0.178  -2.805   0.814  0.00  0.00    -0.044 A 
ATOM     15  C   UNL d   1      -0.329  -4.019   0.308  0.00  0.00     0.018 A 
ATOM     16  C   UNL d   1      -0.642  -5.083   1.158  0.00  0.00    -0.024 A 
ATOM     17  C   UNL d   1      -1.141  -6.373   0.581  0.00  0.00     0.044 C 
ATOM     18  C   UNL d   1      -0.438  -4.929   2.529  0.00  0.00     0.076 A 
ATOM     19  C   UNL d   1      -1.777  -7.220   1.672  0.00  0.00     0.042 C 
ATOM     20  C   UNL d   1      -0.898  -7.238   2.933  0.00  0.00     0.061 C 
ATOM     21  O   UNL d   1      -0.670  -5.914   3.446  0.00  0.00    -0.340 OA
ATOM     22  C   UNL d   1      -1.643  -7.980   4.050  0.00  0.00     0.046 C 
ATOM     23  C   UNL d   1       0.456  -7.927   2.698  0.00  0.00     0.046 C 
ATOM     24  C   UNL d   1       0.023  -3.717   3.047  0.00  0.00     0.038 A 
ATOM     25  C   UNL d   1       0.333  -2.657   2.197  0.00  0.00     0.011 A 
ENDBRANCH   2  14
BRANCH   1  26
ATOM     26  C   UNL d   1       3.045  -2.493  -0.034  0.00  0.00     0.291 C 
ATOM     27  O   UNL d   1       4.173  -2.453   0.443  0.00  0.00    -0.260 OA
BRANCH  26  28
ATOM     28  O   UNL d   1       2.503  -3.583  -0.628  0.00  0.00    -0.323 OA
ATOM     29  C   UNL d   1       3.277  -4.787  -0.579  0.00  0.00     0.213 C 
ENDBRANCH  26  28
ENDBRANCH   1  26
TORSDOF 3
