REMARK  6 active torsions:
REMARK  status: ('A' for Active; 'I' for Inactive)
REMARK    1  A    between atoms: C_8  and  N_1 
REMARK    2  A    between atoms: S_7  and  C_2 
REMARK    3  A    between atoms: C_14  and  S_7 
REMARK       I    between atoms: N_9  and  C_10 
REMARK    4  A    between atoms: C_11  and  N_9 
REMARK    5  A    between atoms: C_10  and  C_14 
REMARK    6  A    between atoms: O_21  and  C_17 
ROOT
ATOM      1  N   UNL d   1      -0.101  -0.455  -1.638  0.00  0.00    -0.219 N 
ATOM      2  C   UNL d   1       0.628  -1.450  -1.001  0.00  0.00     0.177 C 
ATOM      3  N   UNL d   1      -0.110  -1.982  -0.052  0.00  0.00    -0.264 N 
ATOM      4  HN  UNL d   1       0.140  -2.765   0.552  1.00  0.00     0.186 HD
ATOM      5  N   UNL d   1      -1.280  -1.276  -0.039  0.00  0.00    -0.006 NA
ATOM      6  N   UNL d   1      -1.263  -0.311  -0.944  0.00  0.00     0.001 NA
ENDROOT
BRANCH   2   7
ATOM      7  S   UNL d   1       2.311  -1.806  -1.245  0.00  0.00    -0.082 SA
BRANCH   7   8
ATOM      8  C   UNL d   1       2.463  -3.313  -0.245  0.00  0.00     0.185 C 
BRANCH   8   9
ATOM      9  C   UNL d   1       3.822  -3.988  -0.339  0.00  0.00     0.231 C 
ATOM     10  N   UNL d   1       4.897  -3.180  -0.650  0.00  0.00    -0.325 N 
ATOM     11  H   UNL d   1       4.776  -2.177  -0.540  0.00  0.00     0.169 HD
ATOM     12  O   UNL d   1       3.919  -5.183  -0.056  0.00  0.00    -0.272 OA
BRANCH  10  13
ATOM     13  C   UNL d   1       6.226  -3.629  -0.842  0.00  0.00     0.056 A 
ATOM     14  C   UNL d   1       7.299  -2.760  -0.590  0.00  0.00     0.060 A 
ATOM     15 CL   UNL d   1       7.024  -1.154  -0.006  0.00  0.00    -0.082 Cl
ATOM     16  C   UNL d   1       8.619  -3.191  -0.755  0.00  0.00     0.026 A 
ATOM     17  C   UNL d   1       8.881  -4.478  -1.212  0.00  0.00     0.002 A 
ATOM     18  C   UNL d   1       7.825  -5.343  -1.500  0.00  0.00     0.002 A 
ATOM     19  C   UNL d   1       6.504  -4.921  -1.310  0.00  0.00     0.031 A 
ENDBRANCH  10  13
ENDBRANCH   8   9
ENDBRANCH   7   8
ENDBRANCH   2   7
BRANCH   1  20
ATOM     20  C   UNL d   1       0.125   0.309  -2.814  0.00  0.00     0.057 A 
ATOM     21  C   UNL d   1       1.001  -0.126  -3.818  0.00  0.00     0.034 A 
ATOM     22  C   UNL d   1       1.139   0.617  -4.993  0.00  0.00     0.039 A 
ATOM     23  C   UNL d   1       0.411   1.788  -5.167  0.00  0.00     0.065 A 
ATOM     24  C   UNL d   1      -0.451   2.241  -4.176  0.00  0.00     0.039 A 
ATOM     25  C   UNL d   1      -0.602   1.496  -3.004  0.00  0.00     0.034 A 
BRANCH  23  26
ATOM     26  O   UNL d   1       0.558   2.455  -6.346  0.00  0.00    -0.361 OA
ATOM     27  H   UNL d   1      -0.091   3.179  -6.377  0.00  0.00     0.217 HD
ENDBRANCH  23  26
ENDBRANCH   1  20
TORSDOF 6
