REMARK  2 active torsions:
REMARK  status: ('A' for Active; 'I' for Inactive)
REMARK    1  A    between atoms: C_6  and  C_4 
REMARK    2  A    between atoms: C_10  and  C_6 
ROOT
ATOM      1  C   UNL d   1       1.155   0.902  -0.052  0.00  0.00    -0.042 A 
ATOM      2  C   UNL d   1       0.719  -0.439  -0.012  0.00  0.00    -0.019 A 
ATOM      3  C   UNL d   1      -0.729  -0.453  -0.005  0.00  0.00    -0.019 A 
ATOM      4  C   UNL d   1       3.437   0.190  -0.017  0.00  0.00     0.015 A 
ATOM      5  C   UNL d   1      -1.195   0.881  -0.019  0.00  0.00    -0.043 A 
ATOM      6  C   UNL d   1      -0.030   1.846  -0.050  0.00  0.00     0.078 A 
ATOM      7  C   UNL d   1       2.500   1.230  -0.082  0.00  0.00     0.024 A 
ATOM      8  C   UNL d   1       1.639  -1.474   0.010  0.00  0.00     0.014 A 
ATOM      9  C   UNL d   1       3.003  -1.153   0.010  0.00  0.00     0.016 A 
ATOM     10  C   UNL d   1      -1.627  -1.506   0.006  0.00  0.00     0.013 A 
ATOM     11  C   UNL d   1      -2.547   1.181  -0.008  0.00  0.00     0.008 A 
ATOM     12  C   UNL d   1      -2.995  -1.213   0.010  0.00  0.00     0.001 A 
ATOM     13  C   UNL d   1      -3.450   0.117   0.007  0.00  0.00     0.001 A 
ENDROOT
BRANCH   4  14
ATOM     14  C   UNL d   1       4.903   0.461  -0.000  0.00  0.00     0.192 C 
ATOM     15  O   UNL d   1       5.677  -0.378  -0.451  0.00  0.00    -0.287 OA
BRANCH  14  16
ATOM     16  C   UNL d   1       5.455   1.733   0.541  0.00  0.00     0.015 A 
ATOM     17  C   UNL d   1       6.611   2.262  -0.048  0.00  0.00     0.017 A 
ATOM     18  C   UNL d   1       7.135   3.477   0.403  0.00  0.00     0.020 A 
ATOM     19  C   UNL d   1       6.508   4.157   1.446  0.00  0.00     0.011 A 
ATOM     20  C   UNL d   1       5.378   3.621   2.062  0.00  0.00     0.020 A 
ATOM     21 BR   UNL d   1       7.193   5.817   2.033  0.00  0.00    -0.051 Br
ATOM     22  C   UNL d   1       4.863   2.398   1.623  0.00  0.00     0.017 A 
ENDBRANCH  14  16
ENDBRANCH   4  14
TORSDOF 2
