REMARK  4 active torsions:
REMARK  status: ('A' for Active; 'I' for Inactive)
REMARK    1  A    between atoms: C_5  and  C_1 
REMARK    2  A    between atoms: C_2  and  C_3 
REMARK    3  A    between atoms: C_3  and  C_6 
REMARK    4  A    between atoms: N_15  and  C_4 
ROOT
ATOM      1  C   UNL d   1       0.651  -1.327   0.006  0.00  0.00     0.048 A 
ATOM      2  C   UNL d   1      -0.452  -3.934  -0.180  0.00  0.00     0.014 A 
ATOM      3  C   UNL d   1       1.481  -2.455   0.027  0.00  0.00     0.017 A 
ATOM      4  C   UNL d   1      -0.735  -1.517  -0.098  0.00  0.00     0.017 A 
ATOM      5  C   UNL d   1       0.935  -3.742  -0.064  0.00  0.00     0.016 A 
ATOM      6  C   UNL d   1      -1.280  -2.804  -0.186  0.00  0.00     0.016 A 
ENDROOT
BRANCH   2   7
ATOM      7  C   UNL d   1      -0.952  -5.343  -0.292  0.00  0.00     0.183 C 
ATOM      8  O   UNL d   1      -0.163  -6.279  -0.186  0.00  0.00    -0.288 OA
BRANCH   7   9
ATOM      9  C   UNL d   1      -2.401  -5.582  -0.550  0.00  0.00     0.072 C 
ATOM     10  C   UNL d   1      -2.888  -6.825  -0.668  0.00  0.00     0.088 C 
BRANCH  10  11
ATOM     11  N   UNL d   1      -4.190  -7.238  -0.925  0.00  0.00    -0.398 N 
ATOM     12  C   UNL d   1      -5.327  -6.344  -1.136  0.00  0.00     0.148 C 
ATOM     13  C   UNL d   1      -4.541  -8.660  -0.987  0.00  0.00     0.148 C 
ENDBRANCH  10  11
ENDBRANCH   7   9
ENDBRANCH   2   7
BRANCH   1  14
ATOM     14  C   UNL d   1       1.214   0.071   0.084  0.00  0.00     0.417 C 
ATOM     15  F   UNL d   1       2.569   0.111   0.217  0.00  0.00    -0.166 F 
ATOM     16  F   UNL d   1       0.714   0.775   1.138  0.00  0.00    -0.166 F 
ATOM     17  F   UNL d   1       0.925   0.807  -1.025  0.00  0.00    -0.166 F 
ENDBRANCH   1  14
TORSDOF 4
