REMARK  8 active torsions:
REMARK  status: ('A' for Active; 'I' for Inactive)
REMARK    1  A    between atoms: C_5  and  C_1 
REMARK    2  A    between atoms: S_14  and  C_8 
REMARK    3  A    between atoms: C_9  and  C_15 
REMARK    4  A    between atoms: C_10  and  C_16 
REMARK    5  A    between atoms: O_13  and  C_11 
REMARK    6  A    between atoms: C_15  and  O_13 
REMARK    7  A    between atoms: C_16  and  O_25 
REMARK    8  A    between atoms: O_25  and  C_24 
ROOT
ATOM      1  C   UNL d   1       3.094  -1.428  -0.114  0.00  0.00     0.053 A 
ATOM      2  C   UNL d   1       4.017  -1.213   0.924  0.00  0.00     0.083 A 
ATOM      3  C   UNL d   1       3.287  -2.527  -0.976  0.00  0.00     0.055 A 
ATOM      4  C   UNL d   1       5.070  -2.121   1.107  0.00  0.00     0.040 A 
ATOM      5  C   UNL d   1       4.344  -3.417  -0.794  0.00  0.00     0.070 A 
ATOM      6  C   UNL d   1       5.239  -3.212   0.247  0.00  0.00     0.039 A 
ENDROOT
BRANCH   1   7
ATOM      7  C   UNL d   1       1.920  -0.587  -0.309  0.00  0.00     0.178 A 
ATOM      8  O   UNL d   1       1.460  -0.470  -1.595  0.00  0.00    -0.267 OA
ATOM      9  C   UNL d   1       0.342   0.304  -1.431  0.00  0.00     0.201 A 
ATOM     10  N   UNL d   1       0.133   0.625  -0.173  0.00  0.00    -0.272 N 
ATOM     11  N   UNL d   1       1.159   0.055   0.557  0.00  0.00    -0.277 N 
ATOM     12  HN  UNL d   1      -0.636   1.186   0.193  1.00  0.00     0.189 HD
ATOM     13  HN  UNL d   1       1.300   0.118   1.565  1.00  0.00     0.189 HD
BRANCH   9  14
ATOM     14  S   UNL d   1      -0.665   0.782  -2.755  0.00  0.00    -0.098 SA
ATOM     15  H   UNL d   1       0.115   0.291  -3.727  0.00  0.00     0.110 HD
ENDBRANCH   9  14
ENDBRANCH   1   7
BRANCH   2  16
ATOM     16  O   UNL d   1       3.845  -0.082   1.679  0.00  0.00    -0.341 OA
BRANCH  16  17
ATOM     17  C   UNL d   1       4.840   0.234   2.661  0.00  0.00     0.293 C 
BRANCH  17  18
ATOM     18  C   UNL d   1       4.650   1.638   3.226  0.00  0.00     0.408 C 
ATOM     19  F   UNL d   1       3.357   2.009   3.299  0.00  0.00    -0.169 F 
ATOM     20  F   UNL d   1       5.161   1.706   4.480  0.00  0.00    -0.169 F 
ATOM     21  F   UNL d   1       5.309   2.555   2.480  0.00  0.00    -0.169 F 
ENDBRANCH  17  18
ENDBRANCH  16  17
ENDBRANCH   2  16
BRANCH   5  22
ATOM     22  O   UNL d   1       4.391  -4.431  -1.704  0.00  0.00    -0.342 OA
BRANCH  22  23
ATOM     23  C   UNL d   1       5.112  -5.609  -1.329  0.00  0.00     0.293 C 
BRANCH  23  24
ATOM     24  C   UNL d   1       4.653  -6.809  -2.155  0.00  0.00     0.408 C 
ATOM     25  F   UNL d   1       3.786  -6.474  -3.134  0.00  0.00    -0.169 F 
ATOM     26  F   UNL d   1       5.708  -7.420  -2.741  0.00  0.00    -0.169 F 
ATOM     27  F   UNL d   1       4.042  -7.727  -1.369  0.00  0.00    -0.169 F 
ENDBRANCH  23  24
ENDBRANCH  22  23
ENDBRANCH   5  22
TORSDOF 8
