REMARK  7 active torsions:
REMARK  status: ('A' for Active; 'I' for Inactive)
REMARK    1  A    between atoms: C_24  and  N_1 
REMARK    2  A    between atoms: C_8  and  C_4 
REMARK    3  A    between atoms: C_13  and  S_23 
REMARK    4  A    between atoms: C_16  and  C_18 
REMARK    5  A    between atoms: S_23  and  C_32 
REMARK    6  A    between atoms: C_30  and  C_24 
REMARK    7  A    between atoms: C_32  and  C_30 
ROOT
ATOM      1  C   UNL d   1       9.907   3.357  -0.418  0.00  0.00     0.177 A 
ATOM      2  O   UNL d   1       8.716   3.922  -0.032  0.00  0.00    -0.267 OA
ATOM      3  N   UNL d   1       9.728   2.192  -1.009  0.00  0.00    -0.277 N 
ATOM      4  HN  UNL d   1      10.456   1.586  -1.388  1.00  0.00     0.189 HD
ATOM      5  N   UNL d   1       8.372   1.948  -1.018  0.00  0.00    -0.272 N 
ATOM      6  HN  UNL d   1       7.903   1.127  -1.401  1.00  0.00     0.189 HD
ATOM      7  C   UNL d   1       7.800   2.981  -0.437  0.00  0.00     0.203 A 
ENDROOT
BRANCH   7   8
ATOM      8  S   UNL d   1       6.089   3.174  -0.214  0.00  0.00    -0.085 SA
BRANCH   8   9
ATOM      9  C   UNL d   1       5.507   1.445  -0.272  0.00  0.00     0.084 C 
BRANCH   9  10
ATOM     10  C   UNL d   1       3.979   1.434  -0.167  0.00  0.00     0.031 C 
BRANCH  10  11
ATOM     11  C   UNL d   1       3.403   0.015  -0.123  0.00  0.00     0.136 C 
BRANCH  11  12
ATOM     12  N   UNL d   1       1.949   0.034  -0.053  0.00  0.00    -0.280 N 
ATOM     13  C   UNL d   1       1.232   0.090   1.112  0.00  0.00     0.261 A 
ATOM     14  C   UNL d   1      -0.181   0.146   0.732  0.00  0.00     0.048 A 
ATOM     15  O   UNL d   1       1.635   0.105   2.260  0.00  0.00    -0.267 OA
ATOM     16  C   UNL d   1      -1.320   0.208   1.512  0.00  0.00     0.018 A 
ATOM     17  C   UNL d   1      -0.241   0.140  -0.649  0.00  0.00     0.048 A 
ATOM     18  C   UNL d   1      -2.551   0.261   0.848  0.00  0.00     0.001 A 
ATOM     19  C   UNL d   1      -2.612   0.253  -0.561  0.00  0.00     0.001 A 
ATOM     20  C   UNL d   1      -1.444   0.194  -1.329  0.00  0.00     0.018 A 
ATOM     21  C   UNL d   1       1.133   0.084  -1.151  0.00  0.00     0.261 A 
ATOM     22  O   UNL d   1       1.432   0.099  -2.329  0.00  0.00    -0.267 OA
ENDBRANCH  11  12
ENDBRANCH  10  11
ENDBRANCH   9  10
ENDBRANCH   8   9
ENDBRANCH   7   8
BRANCH   1  23
ATOM     23  C   UNL d   1      11.140   4.078  -0.107  0.00  0.00     0.039 A 
ATOM     24  C   UNL d   1      12.401   3.613  -0.508  0.00  0.00     0.020 A 
ATOM     25  N   UNL d   1      13.566   4.249  -0.194  0.00  0.00    -0.355 N 
ATOM     26  C   UNL d   1      12.584   2.363  -1.323  0.00  0.00     0.069 C 
ATOM     27  C   UNL d   1      13.525   5.394   0.538  0.00  0.00     0.117 A 
ATOM     28  HN  UNL d   1      14.460   3.870  -0.506  1.00  0.00     0.166 HD
ATOM     29  C   UNL d   1      12.314   5.934   0.958  0.00  0.00     0.035 A 
ATOM     30  C   UNL d   1      11.123   5.274   0.632  0.00  0.00     0.020 A 
BRANCH  27  31
ATOM     31  C   UNL d   1      14.830   6.089   0.915  0.00  0.00     0.432 C 
ATOM     32  F   UNL d   1      15.953   5.470   0.453  0.00  0.00    -0.165 F 
ATOM     33  F   UNL d   1      14.893   7.370   0.448  0.00  0.00    -0.165 F 
ATOM     34  F   UNL d   1      14.993   6.188   2.268  0.00  0.00    -0.165 F 
ENDBRANCH  27  31
ENDBRANCH   1  23
TORSDOF 7
