REMARK  1 active torsions:
REMARK  status: ('A' for Active; 'I' for Inactive)
REMARK    1  A    between atoms: N_4  and  C_3 
ROOT
ATOM      1  C   UNL d   1       0.419  -0.836   0.010  0.00  0.00     0.076 A 
ATOM      2  N   UNL d   1      -0.829  -1.419   0.005  0.00  0.00    -0.357 N 
ATOM      3  C   UNL d   1       1.703  -1.415   0.022  0.00  0.00     0.130 A 
ATOM      4  C   UNL d   1      -1.810  -0.462  -0.004  0.00  0.00     0.012 A 
ATOM      5  C   UNL d   1      -1.192   0.778   0.004  0.00  0.00    -0.027 A 
ATOM      6  C   UNL d   1       0.221   0.545  -0.002  0.00  0.00     0.001 A 
ATOM      7  C   UNL d   1       2.812  -0.550   0.006  0.00  0.00     0.038 A 
ATOM      8  C   UNL d   1       1.353   1.387  -0.015  0.00  0.00     0.014 A 
ATOM      9  C   UNL d   1      -1.876   2.101   0.010  0.00  0.00     0.051 C 
ATOM     10  C   UNL d   1      -3.249  -0.831  -0.021  0.00  0.00     0.068 C 
ATOM     11  C   UNL d   1       2.638   0.832  -0.016  0.00  0.00     0.003 A 
ATOM     12  H   UNL d   1      -0.981  -2.421   0.003  0.00  0.00     0.166 HD
ENDROOT
BRANCH   3  13
ATOM     13  N   UNL d   1       1.929  -2.865   0.051  0.00  0.00    -0.113 N 
ATOM     14  O   UNL d   1       0.931  -3.602   0.067  0.00  0.00    -0.532 OA
ATOM     15  O   UNL d   1       3.102  -3.269   0.059  0.00  0.00    -0.532 OA
ENDBRANCH   3  13
TORSDOF 1
