REMARK  3 active torsions:
REMARK  status: ('A' for Active; 'I' for Inactive)
REMARK    1  A    between atoms: C_2  and  C_8 
REMARK       I    between atoms: C_3  and  N_6 
REMARK    2  A    between atoms: C_11  and  C_3 
REMARK    3  A    between atoms: N_6  and  C_7 
ROOT
ATOM      1  C   UNL d   1       1.868   1.026   5.611  0.00  0.00     0.252 C 
ATOM      2  N   UNL d   1       1.633   1.147   4.256  0.00  0.00    -0.352 N 
ATOM      3  O   UNL d   1       0.965   1.029   6.437  0.00  0.00    -0.268 OA
ATOM      4  H   UNL d   1       2.388   0.958   3.614  0.00  0.00     0.163 HD
ENDROOT
BRANCH   1   5
ATOM      5  C   UNL d   1       3.288   0.771   6.044  0.00  0.00     0.032 A 
ATOM      6  C   UNL d   1       4.376   0.708   5.162  0.00  0.00     0.033 A 
ATOM      7  C   UNL d   1       5.665   0.359   5.617  0.00  0.00     0.048 A 
ATOM      8  C   UNL d   1       5.860   0.108   6.982  0.00  0.00     0.016 A 
ATOM      9  C   UNL d   1       4.790   0.189   7.872  0.00  0.00     0.002 A 
ATOM     10  C   UNL d   1       3.513   0.512   7.403  0.00  0.00     0.017 A 
BRANCH   7  11
ATOM     11  C   UNL d   1       6.825   0.229   4.658  0.00  0.00     0.417 C 
ATOM     12  F   UNL d   1       6.484   0.461   3.359  0.00  0.00    -0.166 F 
ATOM     13  F   UNL d   1       7.839   1.092   4.940  0.00  0.00    -0.166 F 
ATOM     14  F   UNL d   1       7.376  -1.017   4.678  0.00  0.00    -0.166 F 
ENDBRANCH   7  11
ENDBRANCH   1   5
BRANCH   2  15
ATOM     15  C   UNL d   1       0.350   0.741   3.657  0.00  0.00     0.088 C 
ATOM     16  C   UNL d   1       0.317   1.134   2.142  0.00  0.00     0.061 C 
ATOM     17  C   UNL d   1       0.710  -0.026   1.086  0.00  0.00     0.225 C 
ATOM     18  N   UNL d   1       1.821  -0.414   1.982  0.00  0.00     0.093 N 
ATOM     19  C   UNL d   1       0.476  -1.541   0.680  0.00  0.00     0.038 C 
ATOM     20  C   UNL d   1       1.304  -1.458   2.878  0.00  0.00     0.225 C 
ATOM     21  C   UNL d   1       3.108  -0.643   1.347  0.00  0.00     0.310 C 
ATOM     22  C   UNL d   1       0.213  -0.789   3.759  0.00  0.00     0.061 C 
ATOM     23  C   UNL d   1       0.685  -2.428   1.902  0.00  0.00     0.038 C 
ENDBRANCH   2  15
TORSDOF 3
