REMARK  7 active torsions:
REMARK  status: ('A' for Active; 'I' for Inactive)
REMARK    1  A    between atoms: C_5  and  N_1 
REMARK    2  A    between atoms: C_10  and  C_5 
REMARK    3  A    between atoms: C_11  and  C_5 
REMARK    4  A    between atoms: C_12  and  C_5 
REMARK    5  A    between atoms: C_9  and  C_6 
REMARK    6  A    between atoms: C_13  and  C_9 
REMARK    7  A    between atoms: O_19  and  C_14 
ROOT
ATOM      1  C   UNL d   1       0.650  -2.529  -0.154  0.00  0.00     0.126 C 
ENDROOT
BRANCH   1   2
ATOM      2  N   UNL d   1       0.371  -1.038  -0.095  0.00  0.00    -0.255 N 
ATOM      3  C   UNL d   1       0.113  -0.300  -1.213  0.00  0.00     0.291 C 
ATOM      4  S   UNL d   1       0.214   1.404  -0.843  0.00  0.00    -0.054 SA
ATOM      5  O   UNL d   1      -0.228  -0.660  -2.326  0.00  0.00    -0.260 OA
ATOM      6  C   UNL d   1      -0.263   1.103   0.870  0.00  0.00     0.153 C 
ATOM      7  C   UNL d   1      -0.040  -0.392   1.056  0.00  0.00     0.243 C 
ATOM      8  O   UNL d   1      -0.280  -0.920   2.138  0.00  0.00    -0.272 OA
BRANCH   6   9
ATOM      9  C   UNL d   1      -1.730   1.448   1.169  0.00  0.00     0.063 C 
BRANCH   9  10
ATOM     10  C   UNL d   1      -2.076   2.918   1.065  0.00  0.00    -0.056 A 
ATOM     11  C   UNL d   1      -2.505   3.459  -0.156  0.00  0.00     0.010 A 
ATOM     12  C   UNL d   1      -2.807   4.817  -0.265  0.00  0.00     0.037 A 
ATOM     13  C   UNL d   1      -2.703   5.636   0.850  0.00  0.00     0.065 A 
ATOM     14  C   UNL d   1      -2.298   5.119   2.076  0.00  0.00     0.037 A 
ATOM     15  C   UNL d   1      -1.976   3.761   2.181  0.00  0.00     0.010 A 
BRANCH  13  16
ATOM     16  O   UNL d   1      -3.012   6.955   0.698  0.00  0.00    -0.361 OA
ATOM     17  H   UNL d   1      -2.875   7.407   1.546  0.00  0.00     0.217 HD
ENDBRANCH  13  16
ENDBRANCH   9  10
ENDBRANCH   6   9
ENDBRANCH   1   2
BRANCH   1  18
ATOM     18  C   UNL d   1       1.526  -2.840  -1.468  0.00  0.00    -0.020 A 
ATOM     19  C   UNL d   1       2.933  -2.770  -1.483  0.00  0.00     0.010 A 
ATOM     20  C   UNL d   1       3.676  -3.123  -2.619  0.00  0.00     0.001 A 
ATOM     21  C   UNL d   1       3.037  -3.550  -3.778  0.00  0.00     0.000 A 
ATOM     22  C   UNL d   1       1.652  -3.580  -3.818  0.00  0.00     0.001 A 
ATOM     23  C   UNL d   1       0.913  -3.199  -2.694  0.00  0.00     0.010 A 
ENDBRANCH   1  18
BRANCH   1  24
ATOM     24  C   UNL d   1       1.536  -2.946   1.110  0.00  0.00    -0.020 A 
ATOM     25  C   UNL d   1       1.473  -4.236   1.676  0.00  0.00     0.010 A 
ATOM     26  C   UNL d   1       2.328  -4.628   2.710  0.00  0.00     0.001 A 
ATOM     27  C   UNL d   1       3.270  -3.741   3.217  0.00  0.00     0.000 A 
ATOM     28  C   UNL d   1       3.348  -2.454   2.701  0.00  0.00     0.001 A 
ATOM     29  C   UNL d   1       2.497  -2.062   1.662  0.00  0.00     0.010 A 
ENDBRANCH   1  24
BRANCH   1  30
ATOM     30  C   UNL d   1      -0.691  -3.389  -0.165  0.00  0.00    -0.020 A 
ATOM     31  C   UNL d   1      -0.696  -4.704  -0.704  0.00  0.00     0.010 A 
ATOM     32  C   UNL d   1      -1.838  -5.508  -0.722  0.00  0.00     0.001 A 
ATOM     33  C   UNL d   1      -3.009  -5.048  -0.144  0.00  0.00     0.000 A 
ATOM     34  C   UNL d   1      -3.033  -3.786   0.439  0.00  0.00     0.001 A 
ATOM     35  C   UNL d   1      -1.895  -2.964   0.421  0.00  0.00     0.010 A 
ENDBRANCH   1  30
TORSDOF 7
