REMARK  4 active torsions:
REMARK  status: ('A' for Active; 'I' for Inactive)
REMARK    1  A    between atoms: N_2  and  S_1 
REMARK    2  A    between atoms: C_7  and  S_1 
REMARK    3  A    between atoms: S_4  and  N_2 
REMARK       I    between atoms: C_5  and  N_6 
REMARK    4  A    between atoms: C_10  and  C_5 
ROOT
ATOM      1  S   UNL d   1       1.312   1.483  -2.000  0.00  0.00    -0.114 SA
ATOM      2  C   UNL d   1      -0.237   5.430  -0.182  0.00  0.00     0.253 C 
ATOM      3  N   UNL d   1       0.013   4.139  -0.665  0.00  0.00    -0.346 N 
ATOM      4  C   UNL d   1       2.022   2.684  -0.832  0.00  0.00     0.105 C 
ATOM      5  C   UNL d   1       0.043   2.590  -2.662  0.00  0.00     0.105 C 
ATOM      6  C   UNL d   1      -0.775   3.392  -1.652  0.00  0.00     0.137 C 
ATOM      7  C   UNL d   1       1.000   3.352   0.076  0.00  0.00     0.137 C 
ATOM      8  O   UNL d   1       0.464   5.955   0.683  0.00  0.00    -0.267 OA
ENDROOT
BRANCH   1   9
ATOM      9  N   UNL d   1       0.443   0.558  -1.005  0.00  0.00    -0.264 N 
ATOM     10  HN  UNL d   1      -0.572   0.485  -1.072  1.00  0.00     0.186 HD
BRANCH   9  11
ATOM     11  S   UNL d   1       1.365  -0.310   0.194  0.00  0.00     0.267 S 
ATOM     12  O   UNL d   1       1.285   0.422   1.442  0.00  0.00    -0.200 OA
ATOM     13  O   UNL d   1       2.655  -0.699  -0.346  0.00  0.00    -0.200 OA
BRANCH  11  14
ATOM     14  C   UNL d   1       0.435  -1.814   0.413  0.00  0.00     0.080 A 
ATOM     15  C   UNL d   1       0.780  -2.940  -0.344  0.00  0.00     0.027 A 
ATOM     16  C   UNL d   1       0.235  -4.186  -0.020  0.00  0.00     0.025 A 
ATOM     17  C   UNL d   1      -0.644  -4.299   1.057  0.00  0.00     0.034 A 
ATOM     18  C   UNL d   1      -1.005  -3.174   1.800  0.00  0.00     0.025 A 
ATOM     19 CL   UNL d   1      -1.254  -5.846   1.499  0.00  0.00    -0.084 Cl
ATOM     20  C   UNL d   1      -0.463  -1.925   1.482  0.00  0.00     0.027 A 
ENDBRANCH  11  14
ENDBRANCH   9  11
ENDBRANCH   1   9
BRANCH   2  21
ATOM     21  C   UNL d   1      -1.341   6.272  -0.712  0.00  0.00     0.032 A 
ATOM     22  C   UNL d   1      -2.640   5.799  -0.915  0.00  0.00     0.018 A 
ATOM     23  C   UNL d   1      -3.628   6.655  -1.414  0.00  0.00     0.025 A 
ATOM     24  C   UNL d   1      -3.333   7.998  -1.649  0.00  0.00     0.034 A 
ATOM     25  C   UNL d   1      -2.062   8.498  -1.380  0.00  0.00     0.025 A 
ATOM     26 CL   UNL d   1      -4.551   9.046  -2.261  0.00  0.00    -0.084 Cl
ATOM     27  C   UNL d   1      -1.068   7.636  -0.912  0.00  0.00     0.018 A 
ENDBRANCH   2  21
TORSDOF 4
