REMARK  4 active torsions:
REMARK  status: ('A' for Active; 'I' for Inactive)
REMARK       I    between atoms: C_7  and  N_1 
REMARK    1  A    between atoms: C_6  and  C_2 
REMARK    2  A    between atoms: C_16  and  C_3 
REMARK    3  A    between atoms: C_15  and  C_7 
REMARK    4  A    between atoms: O_23  and  C_16 
ROOT
ATOM      1  N   UNL d   1      -0.084  -1.107   0.118  0.00  0.00    -0.217 N 
ATOM      2  C   UNL d   1       1.236  -0.647   0.047  0.00  0.00     0.099 C 
ATOM      3  C   UNL d   1       1.141   0.748   0.001  0.00  0.00     0.093 C 
ATOM      4  N   UNL d   1      -0.984  -0.098  -0.053  0.00  0.00    -0.294 N 
ATOM      5  HN  UNL d   1      -1.992  -0.179  -0.185  1.00  0.00     0.187 HD
ATOM      6  C   UNL d   1      -0.556  -2.412   0.414  0.00  0.00     0.284 C 
ATOM      7  C   UNL d   1      -0.255   1.019  -0.009  0.00  0.00     0.041 C 
ATOM      8  O   UNL d   1       0.141  -3.039   1.212  0.00  0.00    -0.265 OA
ATOM      9  C   UNL d   1      -0.930   2.346  -0.038  0.00  0.00     0.071 C 
ENDROOT
BRANCH   2  10
ATOM     10  C   UNL d   1       2.407  -1.507   0.024  0.00  0.00     0.076 A 
ATOM     11  C   UNL d   1       2.659  -2.748  -0.572  0.00  0.00     0.043 A 
ATOM     12  N   UNL d   1       3.960  -3.226  -0.410  0.00  0.00    -0.298 N 
ATOM     13  C   UNL d   1       1.761  -3.644  -1.346  0.00  0.00     0.071 C 
ATOM     14  N   UNL d   1       4.703  -2.417   0.316  0.00  0.00    -0.269 N 
ATOM     15  HN  UNL d   1       4.297  -4.102  -0.809  1.00  0.00     0.187 HD
ATOM     16  S   UNL d   1       3.865  -1.091   0.861  0.00  0.00     0.006 SA
ATOM     17  HN  UNL d   1       5.687  -2.587   0.521  1.00  0.00     0.195 HD
ENDBRANCH   2  10
BRANCH   3  18
ATOM     18  C   UNL d   1       2.215   1.732  -0.074  0.00  0.00     0.297 C 
ATOM     19  O   UNL d   1       3.281   1.532  -0.645  0.00  0.00    -0.259 OA
BRANCH  18  20
ATOM     20  O   UNL d   1       1.891   2.894   0.564  0.00  0.00    -0.322 OA
ATOM     21  C   UNL d   1       2.912   3.895   0.553  0.00  0.00     0.213 C 
ENDBRANCH  18  20
ENDBRANCH   3  18
BRANCH   6  22
ATOM     22  C   UNL d   1      -1.715  -3.006  -0.261  0.00  0.00     0.074 A 
ATOM     23  S   UNL d   1      -2.039  -4.678   0.016  0.00  0.00    -0.097 SA
ATOM     24  C   UNL d   1      -3.280  -4.713  -1.153  0.00  0.00     0.050 A 
ATOM     25  C   UNL d   1      -3.488  -3.477  -1.718  0.00  0.00     0.009 A 
ATOM     26  C   UNL d   1      -2.590  -2.492  -1.202  0.00  0.00     0.025 A 
ENDBRANCH   6  22
TORSDOF 4
