REMARK  4 active torsions:
REMARK  status: ('A' for Active; 'I' for Inactive)
REMARK    1  A    between atoms: C_2  and  N_1 
REMARK    2  A    between atoms: O_12  and  C_3 
REMARK    3  A    between atoms: S_9  and  C_8 
REMARK    4  A    between atoms: C_11  and  S_9 
ROOT
ATOM      1  C   UNL d   1       0.189  -0.751  -0.982  0.00  0.00     0.136 A 
ATOM      2  C   UNL d   1       0.710  -2.013  -1.296  0.00  0.00     0.102 A 
ATOM      3  C   UNL d   1       0.083  -2.747  -2.309  0.00  0.00     0.058 A 
ATOM      4  C   UNL d   1      -0.925  -0.221  -1.646  0.00  0.00     0.040 A 
ATOM      5  C   UNL d   1      -1.037  -2.236  -2.985  0.00  0.00     0.008 A 
ATOM      6  C   UNL d   1      -1.535  -0.970  -2.653  0.00  0.00     0.021 A 
ENDROOT
BRANCH   5   7
ATOM      7  S   UNL d   1      -1.755  -3.155  -4.334  0.00  0.00    -0.091 SA
BRANCH   7   8
ATOM      8  C   UNL d   1      -3.025  -4.109  -3.524  0.00  0.00     0.005 A 
ATOM      9  C   UNL d   1      -4.364  -3.892  -3.870  0.00  0.00     0.020 A 
ATOM     10  C   UNL d   1      -5.378  -4.687  -3.327  0.00  0.00     0.025 A 
ATOM     11  C   UNL d   1      -5.052  -5.709  -2.438  0.00  0.00     0.034 A 
ATOM     12  C   UNL d   1      -3.724  -5.935  -2.083  0.00  0.00     0.025 A 
ATOM     13 CL   UNL d   1      -6.294  -6.710  -1.795  0.00  0.00    -0.084 Cl
ATOM     14  C   UNL d   1      -2.712  -5.138  -2.628  0.00  0.00     0.020 A 
ENDBRANCH   7   8
ENDBRANCH   5   7
BRANCH   2  15
ATOM     15  O   UNL d   1       1.762  -2.480  -0.556  0.00  0.00    -0.353 OA
ATOM     16  C   UNL d   1       2.587  -3.468  -1.165  0.00  0.00     0.210 C 
ENDBRANCH   2  15
BRANCH   1  17
ATOM     17  N   UNL d   1       0.824   0.068   0.035  0.00  0.00    -0.113 N 
ATOM     18  O   UNL d   1       2.001   0.402  -0.153  0.00  0.00    -0.532 OA
ATOM     19  O   UNL d   1       0.111   0.432   0.982  0.00  0.00    -0.532 OA
ENDBRANCH   1  17
TORSDOF 4
