REMARK  2 active torsions:
REMARK  status: ('A' for Active; 'I' for Inactive)
REMARK    1  A    between atoms: N_2  and  S_1 
REMARK    2  A    between atoms: C_3  and  S_1 
ROOT
ATOM      1  C   UNL d   1       0.409  -0.324   1.715  0.00  0.00     0.087 C 
ATOM      2  C   UNL d   1       0.543  -1.614   2.304  0.00  0.00    -0.032 C 
ATOM      3  C   UNL d   1      -0.006   0.768   2.540  0.00  0.00    -0.032 C 
ATOM      4  C   UNL d   1      -0.445   0.524   3.882  0.00  0.00    -0.048 C 
ATOM      5  C   UNL d   1       0.032  -1.860   3.610  0.00  0.00    -0.048 C 
ATOM      6  C   UNL d   1      -0.418  -0.789   4.416  0.00  0.00    -0.049 C 
ATOM      7  C   UNL d   1       0.041   2.212   2.088  0.00  0.00     0.050 C 
ATOM      8  C   UNL d   1       1.282  -2.746   1.641  0.00  0.00     0.050 C 
ATOM      9  C   UNL d   1       0.003  -3.263   4.188  0.00  0.00     0.049 C 
ATOM     10  C   UNL d   1      -0.918   1.650   4.784  0.00  0.00     0.049 C 
ATOM     11  C   UNL d   1      -0.797  -1.069   5.856  0.00  0.00     0.049 C 
ENDROOT
BRANCH   1  12
ATOM     12  S   UNL d   1       0.808  -0.080  -0.069  0.00  0.00     0.244 S 
ATOM     13  O   UNL d   1       0.327   1.222  -0.482  0.00  0.00    -0.206 OA
ATOM     14  O   UNL d   1       2.195  -0.436  -0.259  0.00  0.00    -0.206 OA
BRANCH  12  15
ATOM     15  N   UNL d   1      -0.176  -1.201  -0.928  0.00  0.00    -0.202 NA
ATOM     16  C   UNL d   1       0.483  -2.405  -1.534  0.00  0.00     0.139 C 
ATOM     17  C   UNL d   1       1.118  -2.104  -2.904  0.00  0.00     0.132 C 
ATOM     18  C   UNL d   1       1.624  -3.391  -3.547  0.00  0.00     0.041 C 
ATOM     19  O   UNL d   1       0.161  -1.527  -3.804  0.00  0.00    -0.379 OA
ATOM     20  C   UNL d   1      -0.375  -0.305  -3.264  0.00  0.00     0.132 C 
ATOM     21  C   UNL d   1      -1.119  -0.597  -1.942  0.00  0.00     0.139 C 
ATOM     22  C   UNL d   1      -1.301   0.273  -4.325  0.00  0.00     0.041 C 
ENDBRANCH  12  15
ENDBRANCH   1  12
TORSDOF 2
