REMARK  5 active torsions:
REMARK  status: ('A' for Active; 'I' for Inactive)
REMARK    1  A    between atoms: C_7  and  C_1 
REMARK    2  A    between atoms: C_2  and  N_3 
REMARK       I    between atoms: N_3  and  C_4 
REMARK    3  A    between atoms: C_4  and  C_17 
REMARK    4  A    between atoms: O_16  and  C_18 
REMARK    5  A    between atoms: C_17  and  O_16 
ROOT
ATOM      1  C   UNL d   1      -0.484  -6.367   3.665  0.00  0.00     0.278 C 
ENDROOT
BRANCH   1   2
ATOM      2  C   UNL d   1      -0.185  -7.359   4.783  0.00  0.00     0.246 C 
ATOM      3  N   UNL d   1      -0.310  -6.861   6.063  0.00  0.00    -0.325 N 
ATOM      4  H   UNL d   1      -0.731  -5.938   6.143  0.00  0.00     0.169 HD
ATOM      5  O   UNL d   1       0.109  -8.519   4.490  0.00  0.00    -0.271 OA
BRANCH   3   6
ATOM      6  C   UNL d   1      -0.039  -7.578   7.250  0.00  0.00     0.038 A 
ATOM      7  C   UNL d   1       0.701  -8.768   7.268  0.00  0.00     0.053 A 
ATOM      8  C   UNL d   1       0.904  -9.459   8.462  0.00  0.00     0.037 A 
ATOM      9 CL   UNL d   1       1.815 -10.920   8.457  0.00  0.00    -0.084 Cl
ATOM     10  C   UNL d   1       0.379  -8.979   9.655  0.00  0.00     0.048 A 
ATOM     11  C   UNL d   1      -0.334  -7.784   9.645  0.00  0.00     0.037 A 
ATOM     12  C   UNL d   1      -0.533  -7.075   8.456  0.00  0.00     0.053 A 
ATOM     13 CL   UNL d   1      -0.994  -7.181  11.115  0.00  0.00    -0.084 Cl
ENDBRANCH   3   6
ENDBRANCH   1   2
BRANCH   1  14
ATOM     14  O   UNL d   1      -0.642  -5.008   4.053  0.00  0.00    -0.342 OA
BRANCH  14  15
ATOM     15  C   UNL d   1      -0.521  -4.122   3.007  0.00  0.00     0.069 A 
ATOM     16  C   UNL d   1      -0.623  -4.462   1.655  0.00  0.00     0.037 A 
ATOM     17  C   UNL d   1      -0.412  -3.502   0.663  0.00  0.00     0.012 A 
ATOM     18  C   UNL d   1      -0.123  -2.172   0.997  0.00  0.00    -0.035 A 
ATOM     19  C   UNL d   1      -0.067  -1.831   2.360  0.00  0.00     0.012 A 
ATOM     20  C   UNL d   1      -0.268  -2.797   3.354  0.00  0.00     0.037 A 
BRANCH  18  21
ATOM     21  C   UNL d   1       0.061  -1.160  -0.115  0.00  0.00     0.141 C 
ATOM     22  S   UNL d   1       1.636  -0.252  -0.011  0.00  0.00    -0.148 SA
ATOM     23  C   UNL d   1       0.957   1.377  -0.418  0.00  0.00     0.085 C 
ATOM     24  C   UNL d   1      -0.392   1.483   0.262  0.00  0.00     0.085 C 
ATOM     25  S   UNL d   1      -1.337   0.009  -0.189  0.00  0.00    -0.148 SA
ENDBRANCH  18  21
ENDBRANCH  14  15
ENDBRANCH   1  14
TORSDOF 5
