REMARK  7 active torsions:
REMARK  status: ('A' for Active; 'I' for Inactive)
REMARK    1  A    between atoms: C_6  and  N_1 
REMARK    2  A    between atoms: C_12  and  C_6 
REMARK    3  A    between atoms: N_11  and  C_21 
REMARK    4  A    between atoms: C_22  and  N_11 
REMARK    5  A    between atoms: O_19  and  C_12 
REMARK    6  A    between atoms: C_21  and  C_12 
REMARK    7  A    between atoms: C_20  and  C_22 
ROOT
ATOM      1  N   UNL d   1       0.110  -1.565  -0.043  0.00  0.00    -0.343 N 
ATOM      2  C   UNL d   1       0.147   0.452  -1.004  0.00  0.00     0.005 A 
ATOM      3  C   UNL d   1       0.070   0.621   0.412  0.00  0.00     0.005 A 
ATOM      4  C   UNL d   1       0.171  -0.919  -1.266  0.00  0.00     0.046 A 
ATOM      5  C   UNL d   1       0.052  -0.649   0.993  0.00  0.00     0.046 A 
ATOM      6  C   UNL d   1       0.238  -1.423  -2.577  0.00  0.00     0.032 A 
ATOM      7  C   UNL d   1      -0.018  -0.823   2.387  0.00  0.00     0.032 A 
ATOM      8  C   UNL d   1       0.190   1.358  -2.086  0.00  0.00     0.038 A 
ATOM      9  C   UNL d   1       0.005   1.758   1.246  0.00  0.00     0.038 A 
ATOM     10  C   UNL d   1      -0.067   1.588   2.629  0.00  0.00     0.035 A 
ATOM     11  C   UNL d   1       0.256   0.861  -3.389  0.00  0.00     0.035 A 
ATOM     12  C   UNL d   1      -0.075   0.318   3.194  0.00  0.00     0.026 A 
ATOM     13  C   UNL d   1       0.280  -0.507  -3.634  0.00  0.00     0.026 A 
ATOM     14 CL   UNL d   1       0.304   1.964  -4.711  0.00  0.00    -0.084 Cl
ATOM     15 CL   UNL d   1      -0.152   2.973   3.649  0.00  0.00    -0.084 Cl
ENDROOT
BRANCH   1  16
ATOM     16  C   UNL d   1       0.021  -3.013   0.115  0.00  0.00     0.163 C 
BRANCH  16  17
ATOM     17  C   UNL d   1       1.395  -3.709   0.120  0.00  0.00     0.164 C 
BRANCH  17  18
ATOM     18  O   UNL d   1       2.137  -3.407   1.308  0.00  0.00    -0.392 OA
ATOM     19  H   UNL d   1       1.542  -3.462   2.074  0.00  0.00     0.210 HD
ENDBRANCH  17  18
BRANCH  17  20
ATOM     20  C   UNL d   1       1.248  -5.245   0.018  0.00  0.00     0.303 C 
BRANCH  20  21
ATOM     21  N   UNL d   1       0.607  -5.623  -1.238  0.00  0.00     0.090 N 
ATOM     22  H   UNL d   1       1.185  -5.329  -2.026  0.00  0.00     0.316 HD
BRANCH  21  23
ATOM     23  C   UNL d   1       0.391  -7.066  -1.355  0.00  0.00     0.308 C 
BRANCH  23  24
ATOM     24  C   UNL d   1      -0.338  -7.355  -2.649  0.00  0.00    -0.030 A 
ATOM     25  C   UNL d   1       0.249  -8.134  -3.655  0.00  0.00     0.009 A 
ATOM     26  C   UNL d   1      -0.422  -8.347  -4.862  0.00  0.00     0.001 A 
ATOM     27  C   UNL d   1      -1.681  -7.785  -5.075  0.00  0.00     0.000 A 
ATOM     28  C   UNL d   1      -2.279  -7.019  -4.079  0.00  0.00     0.001 A 
ATOM     29  C   UNL d   1      -1.613  -6.810  -2.872  0.00  0.00     0.009 A 
ENDBRANCH  23  24
ENDBRANCH  21  23
ENDBRANCH  20  21
ENDBRANCH  17  20
ENDBRANCH  16  17
ENDBRANCH   1  16
TORSDOF 7
