REMARK  8 active torsions:
REMARK  status: ('A' for Active; 'I' for Inactive)
REMARK    1  A    between atoms: C_4  and  N_1 
REMARK    2  A    between atoms: N_2  and  C_3 
REMARK    3  A    between atoms: N_5  and  C_11 
REMARK    4  A    between atoms: C_12  and  N_6 
REMARK    5  A    between atoms: C_17  and  O_30 
REMARK    6  A    between atoms: O_29  and  C_18 
REMARK    7  A    between atoms: O_30  and  C_27 
REMARK    8  A    between atoms: C_28  and  O_29 
ROOT
ATOM      1  N   UNL d   1      -1.299  -5.998  -4.720  0.00  0.00    -0.378 N 
ATOM      2  N   UNL d   1      -0.605  -7.306  -2.241  0.00  0.00    -0.378 N 
ATOM      3  C   UNL d   1      -2.359  -6.482  -3.813  0.00  0.00     0.143 C 
ATOM      4  C   UNL d   1       0.451  -6.821  -3.154  0.00  0.00     0.143 C 
ATOM      5  C   UNL d   1      -1.878  -6.565  -2.346  0.00  0.00     0.143 C 
ATOM      6  C   UNL d   1      -0.031  -6.750  -4.620  0.00  0.00     0.143 C 
ENDROOT
BRANCH   1   7
ATOM      7  C   UNL d   1      -1.323  -4.740  -5.293  0.00  0.00     0.032 A 
ATOM      8  C   UNL d   1      -0.706  -4.523  -6.535  0.00  0.00     0.066 A 
ATOM      9  C   UNL d   1      -0.866  -3.324  -7.242  0.00  0.00     0.080 A 
ATOM     10  C   UNL d   1      -1.529  -2.256  -6.645  0.00  0.00     0.037 A 
ATOM     11  C   UNL d   1      -2.088  -2.417  -5.381  0.00  0.00     0.005 A 
ATOM     12  C   UNL d   1      -2.005  -3.654  -4.729  0.00  0.00     0.029 A 
BRANCH   9  13
ATOM     13  O   UNL d   1      -0.383  -3.109  -8.513  0.00  0.00    -0.294 OA
BRANCH  13  14
ATOM     14  C   UNL d   1      -0.360  -4.149  -9.418  0.00  0.00     0.148 A 
ATOM     15  C   UNL d   1      -1.328  -5.153  -9.463  0.00  0.00     0.059 A 
ATOM     16  C   UNL d   1      -1.182  -6.194 -10.381  0.00  0.00     0.041 A 
ATOM     17  C   UNL d   1      -0.105  -6.159 -11.266  0.00  0.00     0.118 A 
ATOM     18  C   UNL d   1       0.774  -5.090 -11.209  0.00  0.00     0.126 A 
ATOM     19  N   UNL d   1       0.666  -4.090 -10.298  0.00  0.00    -0.344 N 
ATOM     20  HN  UNL d   1       1.336  -3.320 -10.278  1.00  0.00     0.167 HD
BRANCH  17  21
ATOM     21  N   UNL d   1       0.108  -7.226 -12.232  0.00  0.00    -0.114 N 
ATOM     22  O   UNL d   1       1.021  -7.084 -13.056  0.00  0.00    -0.532 OA
ATOM     23  O   UNL d   1      -0.633  -8.217 -12.164  0.00  0.00    -0.532 OA
ENDBRANCH  17  21
ENDBRANCH  13  14
ENDBRANCH   9  13
ENDBRANCH   1   7
BRANCH   2  24
ATOM     24  C   UNL d   1      -0.611  -8.613  -1.776  0.00  0.00     0.032 A 
ATOM     25  C   UNL d   1       0.024  -9.662  -2.453  0.00  0.00     0.066 A 
ATOM     26  C   UNL d   1       0.141 -10.942  -1.891  0.00  0.00     0.080 A 
ATOM     27  C   UNL d   1      -0.460 -11.220  -0.666  0.00  0.00     0.037 A 
ATOM     28  C   UNL d   1      -1.136 -10.208   0.008  0.00  0.00     0.005 A 
ATOM     29  C   UNL d   1      -1.203  -8.922  -0.541  0.00  0.00     0.029 A 
BRANCH  26  30
ATOM     30  O   UNL d   1       0.772 -11.992  -2.524  0.00  0.00    -0.294 OA
BRANCH  30  31
ATOM     31  C   UNL d   1       1.950 -11.735  -3.214  0.00  0.00     0.148 A 
ATOM     32  N   UNL d   1       2.712 -10.660  -2.894  0.00  0.00    -0.344 N 
ATOM     33  C   UNL d   1       3.831 -10.448  -3.624  0.00  0.00     0.126 A 
ATOM     34  HN  UNL d   1       2.451 -10.035  -2.131  1.00  0.00     0.167 HD
ATOM     35  C   UNL d   1       4.228 -11.284  -4.655  0.00  0.00     0.118 A 
ATOM     36  C   UNL d   1       3.451 -12.408  -4.953  0.00  0.00     0.041 A 
ATOM     37  C   UNL d   1       2.291 -12.638  -4.213  0.00  0.00     0.059 A 
BRANCH  35  38
ATOM     38  N   UNL d   1       5.429 -10.973  -5.415  0.00  0.00    -0.114 N 
ATOM     39  O   UNL d   1       6.031  -9.929  -5.139  0.00  0.00    -0.532 OA
ATOM     40  O   UNL d   1       5.771 -11.772  -6.300  0.00  0.00    -0.532 OA
ENDBRANCH  35  38
ENDBRANCH  30  31
ENDBRANCH  26  30
ENDBRANCH   2  24
TORSDOF 8
