REMARK  3 active torsions:
REMARK  status: ('A' for Active; 'I' for Inactive)
REMARK    1  A    between atoms: C_2  and  S_1 
REMARK    2  A    between atoms: O_7  and  S_1 
REMARK    3  A    between atoms: C_13  and  O_7 
ROOT
ATOM      1  S   UNL d   1       0.815   0.019  -0.117  0.00  0.00     0.306 S 
ATOM      2  O   UNL d   1       2.058  -0.023   0.620  0.00  0.00    -0.193 OA
ATOM      3  O   UNL d   1       0.649   0.726  -1.370  0.00  0.00    -0.193 OA
ENDROOT
BRANCH   1   4
ATOM      4  C   UNL d   1      -0.272   0.842   0.947  0.00  0.00     0.135 A 
ATOM      5  C   UNL d   1      -0.100   2.216   1.326  0.00  0.00     0.065 A 
ATOM      6  C   UNL d   1      -1.104   2.654   2.152  0.00  0.00     0.095 A 
ATOM      7 BR   UNL d   1       1.341   3.311   0.755  0.00  0.00    -0.047 Br
ATOM      8 CL   UNL d   1      -1.322   4.213   2.846  0.00  0.00    -0.075 Cl
ATOM      9  S   UNL d   1      -2.246   1.454   2.491  0.00  0.00    -0.063 SA
ATOM     10  C   UNL d   1      -1.406   0.324   1.532  0.00  0.00     0.101 A 
ATOM     11 CL   UNL d   1      -2.105  -1.247   1.452  0.00  0.00    -0.074 Cl
ENDBRANCH   1   4
BRANCH   1  12
ATOM     12  O   UNL d   1       0.199  -1.475  -0.233  0.00  0.00    -0.229 OA
BRANCH  12  13
ATOM     13  C   UNL d   1       0.735  -2.443  -1.039  0.00  0.00     0.089 A 
ATOM     14  C   UNL d   1       0.472  -3.757  -0.636  0.00  0.00     0.040 A 
ATOM     15  C   UNL d   1       0.887  -4.835  -1.418  0.00  0.00     0.026 A 
ATOM     16  C   UNL d   1       1.561  -4.599  -2.612  0.00  0.00     0.034 A 
ATOM     17  C   UNL d   1       1.838  -3.293  -3.016  0.00  0.00     0.026 A 
ATOM     18 CL   UNL d   1       2.032  -5.922  -3.605  0.00  0.00    -0.084 Cl
ATOM     19  C   UNL d   1       1.425  -2.212  -2.229  0.00  0.00     0.040 A 
ENDBRANCH  12  13
ENDBRANCH   1  12
TORSDOF 3
