REMARK  2 active torsions:
REMARK  status: ('A' for Active; 'I' for Inactive)
REMARK    1  A    between atoms: C_2  and  C_1 
REMARK       I    between atoms: N_3  and  C_1 
REMARK    2  A    between atoms: C_6  and  N_3 
ROOT
ATOM      1  C   UNL d   1       0.913  -0.088  -0.118  0.00  0.00     0.257 C 
ATOM      2  N   UNL d   1       0.136   0.449  -1.126  0.00  0.00    -0.323 N 
ATOM      3  O   UNL d   1       2.136  -0.209  -0.161  0.00  0.00    -0.267 OA
ATOM      4  H   UNL d   1      -0.839   0.624  -0.911  0.00  0.00     0.169 HD
ENDROOT
BRANCH   1   5
ATOM      5  C   UNL d   1       0.206  -0.576   1.108  0.00  0.00     0.054 A 
ATOM      6  C   UNL d   1      -1.059  -0.167   1.556  0.00  0.00     0.049 A 
ATOM      7 CL   UNL d   1      -2.007   1.064   0.793  0.00  0.00    -0.083 Cl
ATOM      8  C   UNL d   1      -1.617  -0.740   2.710  0.00  0.00     0.025 A 
ATOM      9  C   UNL d   1      -0.922  -1.710   3.432  0.00  0.00     0.002 A 
ATOM     10  C   UNL d   1       0.344  -2.104   3.014  0.00  0.00     0.001 A 
ATOM     11  C   UNL d   1       0.901  -1.542   1.866  0.00  0.00     0.019 A 
ENDBRANCH   1   5
BRANCH   2  12
ATOM     12  C   UNL d   1       0.578   0.901  -2.387  0.00  0.00     0.037 A 
ATOM     13  C   UNL d   1       1.833   0.605  -2.919  0.00  0.00     0.071 A 
ATOM     14  C   UNL d   1       2.191   1.108  -4.167  0.00  0.00     0.118 A 
ATOM     15  F   UNL d   1       3.395   0.814  -4.675  0.00  0.00    -0.206 F 
ATOM     16  C   UNL d   1       1.322   1.908  -4.898  0.00  0.00     0.042 A 
ATOM     17  C   UNL d   1       0.061   2.194  -4.384  0.00  0.00     0.005 A 
ATOM     18  C   UNL d   1      -0.313   1.681  -3.138  0.00  0.00     0.029 A 
ENDBRANCH   2  12
TORSDOF 2
