REMARK  3 active torsions:
REMARK  status: ('A' for Active; 'I' for Inactive)
REMARK    1  A    between atoms: C_2  and  C_1 
REMARK       I    between atoms: N_3  and  C_1 
REMARK    2  A    between atoms: C_6  and  N_3 
REMARK    3  A    between atoms: O_14  and  C_8 
ROOT
ATOM      1  C   UNL d   1       1.040  -0.028  -0.052  0.00  0.00     0.259 C 
ATOM      2  N   UNL d   1       0.275   1.119   0.071  0.00  0.00    -0.323 N 
ATOM      3  O   UNL d   1       0.601  -1.175  -0.106  0.00  0.00    -0.267 OA
ATOM      4  H   UNL d   1       0.765   2.008   0.045  0.00  0.00     0.169 HD
ENDROOT
BRANCH   2   5
ATOM      5  C   UNL d   1      -1.128   1.199   0.203  0.00  0.00     0.035 A 
ATOM      6  C   UNL d   1      -1.963   0.087   0.320  0.00  0.00     0.032 A 
ATOM      7  C   UNL d   1      -3.351   0.238   0.434  0.00  0.00     0.039 A 
ATOM      8  C   UNL d   1      -3.925   1.506   0.428  0.00  0.00     0.068 A 
ATOM      9  C   UNL d   1      -3.093   2.623   0.335  0.00  0.00     0.039 A 
ATOM     10  C   UNL d   1      -1.705   2.473   0.225  0.00  0.00     0.032 A 
BRANCH   8  11
ATOM     11  O   UNL d   1      -5.262   1.781   0.510  0.00  0.00    -0.356 OA
ATOM     12  C   UNL d   1      -6.141   0.662   0.487  0.00  0.00     0.210 C 
ENDBRANCH   8  11
ENDBRANCH   2   5
BRANCH   1  13
ATOM     13  C   UNL d   1       2.521   0.146  -0.124  0.00  0.00     0.070 A 
ATOM     14  C   UNL d   1       3.152   1.390  -0.092  0.00  0.00     0.132 A 
ATOM     15  F   UNL d   1       2.440   2.526  -0.022  0.00  0.00    -0.205 F 
ATOM     16  C   UNL d   1       4.543   1.494  -0.130  0.00  0.00     0.043 A 
ATOM     17  C   UNL d   1       5.325   0.342  -0.204  0.00  0.00     0.003 A 
ATOM     18  C   UNL d   1       4.714  -0.908  -0.249  0.00  0.00     0.001 A 
ATOM     19  C   UNL d   1       3.320  -1.007  -0.211  0.00  0.00     0.020 A 
ENDBRANCH   1  13
TORSDOF 3
