REMARK  4 active torsions:
REMARK  status: ('A' for Active; 'I' for Inactive)
REMARK    1  A    between atoms: N_6  and  C_1 
REMARK    2  A    between atoms: O_5  and  C_4 
REMARK    3  A    between atoms: C_7  and  O_5 
REMARK    4  A    between atoms: C_9  and  C_7 
ROOT
ATOM      1  C   UNL d   1       0.869  -0.056  -0.385  0.00  0.00     0.111 A 
ATOM      2  N   UNL d   1       0.277   1.153  -0.294  0.00  0.00    -0.355 N 
ATOM      3  HN  UNL d   1       0.733   1.992  -0.653  1.00  0.00     0.166 HD
ATOM      4  C   UNL d   1       0.291  -1.226   0.122  0.00  0.00     0.107 A 
ATOM      5  C   UNL d   1      -0.940   1.214   0.289  0.00  0.00     0.089 A 
ATOM      6  C   UNL d   1      -0.970  -1.123   0.714  0.00  0.00     0.041 A 
ATOM      7  C   UNL d   1      -1.599   0.114   0.804  0.00  0.00     0.020 A 
ENDROOT
BRANCH   4   8
ATOM      8  O   UNL d   1       0.776  -2.504   0.050  0.00  0.00    -0.343 OA
BRANCH   8   9
ATOM      9  C   UNL d   1       2.192  -2.661   0.175  0.00  0.00     0.214 C 
BRANCH   9  10
ATOM     10  C   UNL d   1       2.548  -4.131   0.303  0.00  0.00    -0.034 A 
ATOM     11  C   UNL d   1       1.771  -5.131  -0.304  0.00  0.00     0.016 A 
ATOM     12  C   UNL d   1       2.161  -6.478  -0.261  0.00  0.00    -0.061 A 
ATOM     13  C   UNL d   1       1.331  -7.543  -0.913  0.00  0.00     0.048 C 
ATOM     14  C   UNL d   1       3.351  -6.821   0.389  0.00  0.00     0.007 A 
ATOM     15  C   UNL d   1       4.137  -5.838   0.988  0.00  0.00     0.001 A 
ATOM     16  C   UNL d   1       3.740  -4.501   0.943  0.00  0.00     0.009 A 
ENDBRANCH   9  10
ENDBRANCH   8   9
ENDBRANCH   4   8
BRANCH   1  17
ATOM     17  N   UNL d   1       2.082  -0.029  -1.073  0.00  0.00    -0.286 NA
ATOM     18  H   UNL d   1       2.217   0.942  -1.347  0.00  0.00     0.125 HD
ATOM     19  H   UNL d   1       2.019  -0.623  -1.895  0.00  0.00     0.125 HD
ENDBRANCH   1  17
TORSDOF 4
