REMARK  4 active torsions:
REMARK  status: ('A' for Active; 'I' for Inactive)
REMARK    1  A    between atoms: C_2  and  C_1 
REMARK       I    between atoms: N_3  and  C_1 
REMARK       I    between atoms: C_4  and  N_3 
REMARK       I    between atoms: N_7  and  C_4 
REMARK    2  A    between atoms: C_5  and  N_7 
REMARK    3  A    between atoms: O_19  and  C_6 
REMARK    4  A    between atoms: O_21  and  C_10 
ROOT
ATOM      1  C   UNL d   1       0.712   0.962  -0.071  0.00  0.00     0.265 C 
ATOM      2  N   UNL d   1      -0.325   1.754  -0.552  0.00  0.00    -0.275 N 
ATOM      3  C   UNL d   1      -1.634   1.467  -0.850  0.00  0.00     0.327 C 
ATOM      4  N   UNL d   1      -2.046   0.192  -0.578  0.00  0.00    -0.308 N 
ATOM      5  O   UNL d   1       0.584  -0.177   0.364  0.00  0.00    -0.267 OA
ATOM      6  O   UNL d   1      -2.316   2.374  -1.322  0.00  0.00    -0.247 OA
ATOM      7  H   UNL d   1      -0.109   2.714  -0.787  0.00  0.00     0.173 HD
ATOM      8  H   UNL d   1      -1.485  -0.267   0.134  0.00  0.00     0.170 HD
ENDROOT
BRANCH   1   9
ATOM      9  C   UNL d   1       2.006   1.688  -0.026  0.00  0.00     0.100 A 
ATOM     10  C   UNL d   1       2.668   2.051  -1.218  0.00  0.00     0.104 A 
ATOM     11  C   UNL d   1       3.830   2.840  -1.136  0.00  0.00     0.045 A 
ATOM     12 BR   UNL d   1       4.922   3.247  -2.638  0.00  0.00    -0.048 Br
ATOM     13  C   UNL d   1       4.269   3.325   0.101  0.00  0.00     0.025 A 
ATOM     14  C   UNL d   1       3.611   2.957   1.271  0.00  0.00     0.039 A 
ATOM     15  C   UNL d   1       2.509   2.100   1.214  0.00  0.00     0.086 A 
BRANCH  10  16
ATOM     16  O   UNL d   1       2.258   1.486  -2.398  0.00  0.00    -0.353 OA
ATOM     17  C   UNL d   1       1.632   2.398  -3.300  0.00  0.00     0.210 C 
ENDBRANCH  10  16
BRANCH  15  18
ATOM     18  O   UNL d   1       1.870   1.752   2.377  0.00  0.00    -0.355 OA
ATOM     19  C   UNL d   1       2.709   0.947   3.214  0.00  0.00     0.210 C 
ENDBRANCH  15  18
ENDBRANCH   1   9
BRANCH   4  20
ATOM     20  C   UNL d   1      -3.342  -0.329  -0.827  0.00  0.00     0.048 A 
ATOM     21  C   UNL d   1      -4.012  -0.164  -2.060  0.00  0.00    -0.034 A 
ATOM     22  C   UNL d   1      -5.269  -0.777  -2.252  0.00  0.00     0.015 A 
ATOM     23  C   UNL d   1      -3.467   0.611  -3.230  0.00  0.00     0.050 C 
ATOM     24  C   UNL d   1      -5.845  -1.590  -1.276  0.00  0.00    -0.061 A 
ATOM     25  C   UNL d   1      -5.185  -1.740  -0.057  0.00  0.00     0.015 A 
ATOM     26  C   UNL d   1      -7.168  -2.250  -1.528  0.00  0.00     0.048 C 
ATOM     27  C   UNL d   1      -3.948  -1.109   0.185  0.00  0.00    -0.034 A 
ATOM     28  C   UNL d   1      -3.337  -1.292   1.552  0.00  0.00     0.050 C 
ENDBRANCH   4  20
TORSDOF 4
