REMARK  13 active torsions:
REMARK  status: ('A' for Active; 'I' for Inactive)
REMARK    1  A    between atoms: C_1  and  N_9 
REMARK    2  A    between atoms: C_2  and  O_10 
REMARK    3  A    between atoms: C_3  and  O_8 
REMARK    4  A    between atoms: C_4  and  O_12 
REMARK    5  A    between atoms: C_6  and  C_17 
REMARK    6  A    between atoms: C_7  and  O_11 
REMARK    7  A    between atoms: C_18  and  C_7 
REMARK    8  A    between atoms: C_19  and  C_7 
REMARK    9  A    between atoms: C_20  and  C_7 
REMARK   10  A    between atoms: C_13  and  O_8 
REMARK       I    between atoms: C_14  and  N_9 
REMARK   11  A    between atoms: C_15  and  O_10 
REMARK   12  A    between atoms: O_11  and  C_17 
REMARK   13  A    between atoms: C_16  and  O_12 
ROOT
ATOM      1  C   UNL d   1       0.876  -1.374  -0.218  0.00  0.00     0.172 C 
ATOM      2  C   UNL d   1       1.699  -0.089   0.061  0.00  0.00     0.191 C 
ATOM      3  C   UNL d   1      -0.525  -1.230   0.452  0.00  0.00     0.295 C 
ATOM      4  C   UNL d   1       0.907   1.222  -0.197  0.00  0.00     0.194 C 
ATOM      5  O   UNL d   1      -1.190  -0.035   0.005  0.00  0.00    -0.348 OA
ATOM      6  C   UNL d   1      -0.504   1.162   0.408  0.00  0.00     0.180 C 
ENDROOT
BRANCH   6   7
ATOM      7  C   UNL d   1      -1.353   2.418   0.099  0.00  0.00     0.205 C 
BRANCH   7   8
ATOM      8  O   UNL d   1      -1.751   2.547  -1.277  0.00  0.00    -0.363 OA
BRANCH   8   9
ATOM      9  C   UNL d   1      -2.737   3.607  -1.552  0.00  0.00     0.142 C 
BRANCH   9  10
ATOM     10  C   UNL d   1      -2.043   4.962  -1.194  0.00  0.00    -0.015 A 
ATOM     11  C   UNL d   1      -1.205   5.615  -2.121  0.00  0.00     0.011 A 
ATOM     12  C   UNL d   1      -0.589   6.834  -1.816  0.00  0.00     0.001 A 
ATOM     13  C   UNL d   1      -0.770   7.417  -0.566  0.00  0.00     0.000 A 
ATOM     14  C   UNL d   1      -1.546   6.770   0.388  0.00  0.00     0.001 A 
ATOM     15  C   UNL d   1      -2.159   5.551   0.083  0.00  0.00     0.011 A 
ENDBRANCH   9  10
BRANCH   9  16
ATOM     16  C   UNL d   1      -3.115   3.565  -3.075  0.00  0.00    -0.015 A 
ATOM     17  C   UNL d   1      -2.688   2.532  -3.927  0.00  0.00     0.011 A 
ATOM     18  C   UNL d   1      -3.117   2.476  -5.262  0.00  0.00     0.001 A 
ATOM     19  C   UNL d   1      -3.977   3.447  -5.772  0.00  0.00     0.000 A 
ATOM     20  C   UNL d   1      -4.399   4.490  -4.956  0.00  0.00     0.001 A 
ATOM     21  C   UNL d   1      -3.969   4.549  -3.627  0.00  0.00     0.011 A 
ENDBRANCH   9  16
BRANCH   9  22
ATOM     22  C   UNL d   1      -4.077   3.300  -0.800  0.00  0.00    -0.015 A 
ATOM     23  C   UNL d   1      -4.972   4.313  -0.398  0.00  0.00     0.011 A 
ATOM     24  C   UNL d   1      -6.162   4.012   0.268  0.00  0.00     0.001 A 
ATOM     25  C   UNL d   1      -6.509   2.688   0.510  0.00  0.00     0.000 A 
ATOM     26  C   UNL d   1      -5.675   1.664   0.071  0.00  0.00     0.001 A 
ATOM     27  C   UNL d   1      -4.481   1.965  -0.589  0.00  0.00     0.011 A 
ENDBRANCH   9  22
ENDBRANCH   8   9
ENDBRANCH   7   8
ENDBRANCH   6   7
BRANCH   4  28
ATOM     28  O   UNL d   1       1.670   2.392   0.225  0.00  0.00    -0.311 OA
BRANCH  28  29
ATOM     29  C   UNL d   1       1.963   2.568   1.538  0.00  0.00     0.255 C 
ATOM     30  O   UNL d   1       1.609   1.831   2.449  0.00  0.00    -0.266 OA
ATOM     31  C   UNL d   1       2.771   3.813   1.753  0.00  0.00     0.126 C 
ENDBRANCH  28  29
ENDBRANCH   4  28
BRANCH   3  32
ATOM     32  O   UNL d   1      -0.453  -1.215   1.897  0.00  0.00    -0.288 OA
BRANCH  32  33
ATOM     33  C   UNL d   1      -0.393  -2.410   2.531  0.00  0.00     0.257 C 
ATOM     34  O   UNL d   1      -0.324  -3.501   1.964  0.00  0.00    -0.266 OA
ATOM     35  C   UNL d   1      -0.265  -2.228   4.009  0.00  0.00     0.126 C 
ENDBRANCH  32  33
ENDBRANCH   3  32
BRANCH   2  36
ATOM     36  O   UNL d   1       2.984  -0.065  -0.620  0.00  0.00    -0.311 OA
BRANCH  36  37
ATOM     37  C   UNL d   1       3.000  -0.053  -1.979  0.00  0.00     0.255 C 
ATOM     38  O   UNL d   1       2.012   0.002  -2.702  0.00  0.00    -0.266 OA
ATOM     39  C   UNL d   1       4.408  -0.009  -2.481  0.00  0.00     0.126 C 
ENDBRANCH  36  37
ENDBRANCH   2  36
BRANCH   1  40
ATOM     40  N   UNL d   1       1.589  -2.595   0.229  0.00  0.00    -0.349 N 
ATOM     41  C   UNL d   1       2.542  -3.261  -0.499  0.00  0.00     0.214 C 
ATOM     42  O   UNL d   1       2.945  -2.907  -1.603  0.00  0.00    -0.274 OA
ATOM     43  C   UNL d   1       3.111  -4.463   0.211  0.00  0.00     0.117 C 
ATOM     44  H   UNL d   1       1.172  -3.127   0.989  0.00  0.00     0.163 HD
ENDBRANCH   1  40
TORSDOF 13
