REMARK  8 active torsions:
REMARK  status: ('A' for Active; 'I' for Inactive)
REMARK    1  A    between atoms: C_7  and  C_3 
REMARK    2  A    between atoms: N_11  and  C_4 
REMARK    3  A    between atoms: C_12  and  C_5 
REMARK       I    between atoms: C_6  and  N_10 
REMARK       I    between atoms: N_14  and  C_6 
REMARK    4  A    between atoms: O_26  and  C_12 
REMARK    5  A    between atoms: C_22  and  N_14 
REMARK    6  A    between atoms: O_23  and  C_25 
REMARK    7  A    between atoms: C_29  and  O_23 
REMARK    8  A    between atoms: C_34  and  C_29 
ROOT
ATOM      1  C   UNL d   1      -1.117   6.601   0.289  0.00  0.00     0.322 C 
ATOM      2  N   UNL d   1      -0.095   5.646   0.346  0.00  0.00    -0.333 N 
ATOM      3  N   UNL d   1       0.131   2.661   0.040  0.00  0.00    -0.253 NA
ATOM      4  N   UNL d   1      -1.540   7.130   1.498  0.00  0.00    -0.309 N 
ATOM      5  O   UNL d   1      -1.617   6.891  -0.797  0.00  0.00    -0.247 OA
ATOM      6  C   UNL d   1       0.291   4.985  -0.921  0.00  0.00     0.142 C 
ATOM      7  C   UNL d   1      -0.239   3.545  -1.090  0.00  0.00     0.118 C 
ATOM      8  C   UNL d   1       0.186   3.889   2.153  0.00  0.00     0.035 C 
ATOM      9  C   UNL d   1       0.667   5.188   1.513  0.00  0.00     0.129 C 
ATOM     10  C   UNL d   1      -0.602   2.938   1.271  0.00  0.00     0.100 C 
ATOM     11  H   UNL d   1      -0.969   6.956   2.308  0.00  0.00     0.170 HD
ENDROOT
BRANCH   4  12
ATOM     12  C   UNL d   1      -2.536   8.140   1.677  0.00  0.00     0.036 C 
ATOM     13  C   UNL d   1      -3.301   8.676   0.639  0.00  0.00     0.032 C 
ATOM     14  C   UNL d   1      -4.009   9.878   0.810  0.00  0.00     0.039 C 
ATOM     15  C   UNL d   1      -4.054  10.498   2.055  0.00  0.00     0.069 C 
ATOM     16  C   UNL d   1      -3.468   9.858   3.143  0.00  0.00     0.039 C 
ATOM     17  C   UNL d   1      -2.694   8.700   2.952  0.00  0.00     0.032 C 
BRANCH  15  18
ATOM     18  O   UNL d   1      -4.627  11.716   2.313  0.00  0.00    -0.347 OA
BRANCH  18  19
ATOM     19  C   UNL d   1      -4.607  12.650   1.228  0.00  0.00     0.214 C 
BRANCH  19  20
ATOM     20  C   UNL d   1      -5.226  13.950   1.684  0.00  0.00    -0.034 A 
ATOM     21  C   UNL d   1      -4.486  15.140   1.663  0.00  0.00     0.009 A 
ATOM     22  C   UNL d   1      -5.085  16.354   2.005  0.00  0.00     0.001 A 
ATOM     23  C   UNL d   1      -6.431  16.390   2.366  0.00  0.00     0.000 A 
ATOM     24  C   UNL d   1      -7.172  15.210   2.413  0.00  0.00     0.001 A 
ATOM     25  C   UNL d   1      -6.571  13.994   2.082  0.00  0.00     0.009 A 
ENDBRANCH  19  20
ENDBRANCH  18  19
ENDBRANCH  15  18
ENDBRANCH   4  12
BRANCH   3  26
ATOM     26  C   UNL d   1       0.103   1.299  -0.265  0.00  0.00     0.160 A 
ATOM     27  N   UNL d   1      -0.372   0.914  -1.447  0.00  0.00    -0.328 N 
ATOM     28  C   UNL d   1      -0.247  -0.378  -1.880  0.00  0.00     0.136 A 
ATOM     29  HN  UNL d   1      -0.839   1.597  -2.043  1.00  0.00     0.168 HD
ATOM     30  C   UNL d   1       0.359  -1.337  -1.073  0.00  0.00     0.086 A 
ATOM     31  C   UNL d   1       0.776  -0.862   0.153  0.00  0.00     0.110 A 
ATOM     32  N   UNL d   1       0.646   0.418   0.581  0.00  0.00    -0.342 N 
ATOM     33  HN  UNL d   1       0.952   0.698   1.513  1.00  0.00     0.167 HD
BRANCH  28  34
ATOM     34  C   UNL d   1      -0.748  -0.556  -3.296  0.00  0.00     0.433 C 
ATOM     35  F   UNL d   1      -1.268   0.610  -3.810  0.00  0.00    -0.165 F 
ATOM     36  F   UNL d   1       0.230  -0.902  -4.181  0.00  0.00    -0.165 F 
ATOM     37  F   UNL d   1      -1.754  -1.462  -3.438  0.00  0.00    -0.165 F 
ENDBRANCH  28  34
BRANCH  30  38
ATOM     38  C   UNL d   1       0.649  -2.776  -1.372  0.00  0.00     0.296 C 
ATOM     39  O   UNL d   1       1.205  -3.501  -0.582  0.00  0.00    -0.259 OA
BRANCH  38  40
ATOM     40  O   UNL d   1       0.216  -3.095  -2.579  0.00  0.00    -0.322 OA
ATOM     41  C   UNL d   1       0.427  -4.462  -2.987  0.00  0.00     0.213 C 
ENDBRANCH  38  40
ENDBRANCH  30  38
ENDBRANCH   3  26
TORSDOF 8
