REMARK  3 active torsions:
REMARK  status: ('A' for Active; 'I' for Inactive)
REMARK    1  A    between atoms: C_2  and  N_1 
REMARK    2  A    between atoms: C_5  and  O_7 
REMARK    3  A    between atoms: O_7  and  C_6 
ROOT
ATOM      1  C   UNL d   1      -4.068  -6.217   1.672  0.00  0.00     0.118 A 
ATOM      2  N   UNL d   1      -3.517  -4.872   3.589  0.00  0.00    -0.344 N 
ATOM      3  HN  UNL d   1      -3.668  -4.618   4.566  1.00  0.00     0.167 HD
ATOM      4  C   UNL d   1      -2.598  -4.229   2.827  0.00  0.00     0.148 A 
ATOM      5  C   UNL d   1      -4.228  -5.863   3.002  0.00  0.00     0.126 A 
ATOM      6  C   UNL d   1      -3.145  -5.518   0.888  0.00  0.00     0.041 A 
ATOM      7  C   UNL d   1      -2.398  -4.498   1.480  0.00  0.00     0.059 A 
ENDROOT
BRANCH   4   8
ATOM      8  O   UNL d   1      -1.795  -3.250   3.401  0.00  0.00    -0.293 OA
BRANCH   8   9
ATOM      9  C   UNL d   1      -1.476  -3.394   4.737  0.00  0.00     0.083 A 
ATOM     10  C   UNL d   1      -1.444  -2.248   5.548  0.00  0.00    -0.026 A 
ATOM     11  C   UNL d   1      -1.101  -2.388   6.905  0.00  0.00     0.033 A 
ATOM     12  C   UNL d   1      -1.734  -0.870   5.023  0.00  0.00     0.051 C 
ATOM     13  C   UNL d   1      -0.799  -3.642   7.437  0.00  0.00     0.034 A 
ATOM     14  C   UNL d   1      -0.802  -4.770   6.624  0.00  0.00     0.026 A 
ATOM     15 CL   UNL d   1      -0.411  -3.795   9.105  0.00  0.00    -0.084 Cl
ATOM     16  C   UNL d   1      -1.118  -4.642   5.273  0.00  0.00     0.039 A 
ENDBRANCH   8   9
ENDBRANCH   4   8
BRANCH   1  17
ATOM     17  N   UNL d   1      -4.851  -7.314   1.121  0.00  0.00    -0.114 N 
ATOM     18  O   UNL d   1      -5.611  -7.923   1.885  0.00  0.00    -0.532 OA
ATOM     19  O   UNL d   1      -4.700  -7.577  -0.081  0.00  0.00    -0.532 OA
ENDBRANCH   1  17
TORSDOF 3
