REMARK  3 active torsions:
REMARK  status: ('A' for Active; 'I' for Inactive)
REMARK    1  A    between atoms: C_12  and  C_2 
REMARK    2  A    between atoms: C_13  and  C_10 
REMARK    3  A    between atoms: C_16  and  C_11 
ROOT
ATOM      1  N   UNL d   1       0.297   0.629   0.042  0.00  0.00    -0.235 N 
ATOM      2  C   UNL d   1      -0.810   1.465   0.024  0.00  0.00     0.144 A 
ATOM      3  C   UNL d   1       0.130  -0.759   0.065  0.00  0.00     0.130 A 
ATOM      4  N   UNL d   1       1.604   0.957   0.038  0.00  0.00    -0.291 N 
ATOM      5  HN  UNL d   1       1.996   1.899   0.043  1.00  0.00     0.187 HD
ATOM      6  N   UNL d   1      -1.101  -1.355   0.087  0.00  0.00    -0.340 N 
ATOM      7  HN  UNL d   1      -1.199  -2.369   0.136  1.00  0.00     0.167 HD
ATOM      8  C   UNL d   1      -2.045   0.926   0.016  0.00  0.00     0.067 A 
ATOM      9  C   UNL d   1       1.396  -1.294   0.044  0.00  0.00     0.082 A 
ATOM     10  C   UNL d   1      -2.145  -0.572   0.041  0.00  0.00     0.053 A 
ATOM     11  C   UNL d   1       2.288  -0.195   0.026  0.00  0.00     0.062 A 
ENDROOT
BRANCH  11  12
ATOM     12  C   UNL d   1       3.758  -0.201   0.001  0.00  0.00    -0.008 A 
ATOM     13  C   UNL d   1       4.472   1.009   0.016  0.00  0.00     0.014 A 
ATOM     14  C   UNL d   1       5.870   1.021  -0.003  0.00  0.00     0.001 A 
ATOM     15  C   UNL d   1       6.574  -0.179  -0.038  0.00  0.00     0.000 A 
ATOM     16  C   UNL d   1       5.883  -1.388  -0.057  0.00  0.00     0.001 A 
ATOM     17  C   UNL d   1       4.484  -1.400  -0.038  0.00  0.00     0.014 A 
ENDBRANCH  11  12
BRANCH   2  18
ATOM     18  C   UNL d   1      -0.616   2.934   0.018  0.00  0.00     0.434 C 
ATOM     19  F   UNL d   1       0.658   3.386   0.009  0.00  0.00    -0.165 F 
ATOM     20  F   UNL d   1      -1.226   3.490  -1.066  0.00  0.00    -0.165 F 
ATOM     21  F   UNL d   1      -1.215   3.498   1.104  0.00  0.00    -0.165 F 
ENDBRANCH   2  18
BRANCH  10  22
ATOM     22  C   UNL d   1      -3.467  -1.187   0.044  0.00  0.00     0.031 A 
ATOM     23  S   UNL d   1      -4.807  -0.446  -0.731  0.00  0.00    -0.100 SA
ATOM     24  C   UNL d   1      -5.862  -1.714  -0.294  0.00  0.00     0.050 A 
ATOM     25  C   UNL d   1      -5.215  -2.700   0.415  0.00  0.00     0.008 A 
ATOM     26  C   UNL d   1      -3.830  -2.406   0.593  0.00  0.00     0.021 A 
ENDBRANCH  10  22
TORSDOF 3
