REMARK  6 active torsions:
REMARK  status: ('A' for Active; 'I' for Inactive)
REMARK    1  A    between atoms: C_2  and  C_1 
REMARK    2  A    between atoms: C_3  and  C_2 
REMARK    3  A    between atoms: C_4  and  O_9 
REMARK    4  A    between atoms: N_11  and  N_5 
REMARK    5  A    between atoms: O_9  and  C_7 
REMARK    6  A    between atoms: C_16  and  N_11 
ROOT
ATOM      1  C   UNL d   1       0.894  -0.551  -0.335  0.00  0.00     0.176 C 
ATOM      2  N   UNL d   1       0.185  -0.172  -1.361  0.00  0.00    -0.304 N 
ATOM      3  HN  UNL d   1       0.652   0.055  -2.240  1.00  0.00     0.182 HD
ATOM      4  C   UNL d   1       0.212  -1.001   0.859  0.00  0.00     0.123 C 
ATOM      5  N   UNL d   1      -0.349  -1.340   1.817  0.00  0.00    -0.190 NA
ENDROOT
BRANCH   1   6
ATOM      6  C   UNL d   1       2.406  -0.497  -0.430  0.00  0.00     0.223 C 
ATOM      7  O   UNL d   1       3.065  -1.409   0.050  0.00  0.00    -0.284 OA
BRANCH   6   8
ATOM      8  C   UNL d   1       3.062   0.708  -1.018  0.00  0.00     0.051 A 
ATOM      9  C   UNL d   1       4.224   1.292  -0.487  0.00  0.00     0.092 A 
ATOM     10  C   UNL d   1       4.779   2.410  -1.138  0.00  0.00     0.038 A 
ATOM     11  C   UNL d   1       4.192   2.956  -2.284  0.00  0.00     0.003 A 
ATOM     12  C   UNL d   1       3.064   2.365  -2.822  0.00  0.00     0.001 A 
ATOM     13  C   UNL d   1       2.522   1.241  -2.206  0.00  0.00     0.018 A 
BRANCH   9  14
ATOM     14  O   UNL d   1       5.012   0.807   0.516  0.00  0.00    -0.254 OA
BRANCH  14  15
ATOM     15  C   UNL d   1       4.450   0.556   1.798  0.00  0.00     0.530 C 
ATOM     16  F   UNL d   1       3.103   0.638   1.820  0.00  0.00    -0.144 F 
ATOM     17  F   UNL d   1       4.839  -0.665   2.219  0.00  0.00    -0.144 F 
ATOM     18  F   UNL d   1       4.934   1.469   2.672  0.00  0.00    -0.144 F 
ENDBRANCH  14  15
ENDBRANCH   9  14
ENDBRANCH   6   8
ENDBRANCH   1   6
BRANCH   2  19
ATOM     19  N   UNL d   1      -1.170  -0.076  -1.276  0.00  0.00    -0.205 NA
ATOM     20  H   UNL d   1      -1.512   0.758  -0.787  0.00  0.00     0.153 HD
BRANCH  19  21
ATOM     21  C   UNL d   1      -1.861  -0.204  -2.514  0.00  0.00     0.027 A 
ATOM     22  C   UNL d   1      -1.411  -1.078  -3.515  0.00  0.00     0.025 A 
ATOM     23  C   UNL d   1      -2.170  -1.303  -4.667  0.00  0.00     0.002 A 
ATOM     24  C   UNL d   1      -3.393  -0.658  -4.831  0.00  0.00     0.000 A 
ATOM     25  C   UNL d   1      -3.851   0.220  -3.851  0.00  0.00     0.002 A 
ATOM     26  C   UNL d   1      -3.095   0.436  -2.695  0.00  0.00     0.025 A 
ENDBRANCH  19  21
ENDBRANCH   2  19
TORSDOF 6
