REMARK  6 active torsions:
REMARK  status: ('A' for Active; 'I' for Inactive)
REMARK    1  A    between atoms: C_4  and  C_1 
REMARK    2  A    between atoms: S_19  and  C_8 
REMARK       I    between atoms: C_15  and  N_20 
REMARK    3  A    between atoms: C_17  and  C_15 
REMARK    4  A    between atoms: C_30  and  S_19 
REMARK    5  A    between atoms: N_20  and  C_29 
REMARK    6  A    between atoms: C_29  and  C_30 
ROOT
ATOM      1  C   UNL d   1       2.031  -2.394   0.001  0.00  0.00     0.015 A 
ATOM      2  C   UNL d   1       2.830  -4.428  -1.092  0.00  0.00     0.079 A 
ATOM      3  N   UNL d   1       3.867  -3.675   0.932  0.00  0.00    -0.352 N 
ATOM      4  HN  UNL d   1       4.564  -3.802   1.665  1.00  0.00     0.166 HD
ATOM      5  C   UNL d   1       3.789  -4.556  -0.093  0.00  0.00     0.091 A 
ATOM      6  C   UNL d   1       1.958  -3.329  -1.042  0.00  0.00     0.041 A 
ATOM      7  C   UNL d   1       3.008  -2.615   0.978  0.00  0.00     0.018 A 
ATOM      8  C   UNL d   1       2.688  -5.362  -2.166  0.00  0.00     0.102 C 
ATOM      9  N   UNL d   1       2.504  -6.085  -3.059  0.00  0.00    -0.191 NA
ATOM     10  C   UNL d   1       3.184  -1.724   2.175  0.00  0.00     0.069 C 
ENDROOT
BRANCH   5  11
ATOM     11  S   UNL d   1       4.958  -5.912  -0.034  0.00  0.00    -0.109 SA
BRANCH  11  12
ATOM     12  C   UNL d   1       6.353  -5.106   0.844  0.00  0.00     0.100 C 
BRANCH  12  13
ATOM     13  C   UNL d   1       7.520  -6.083   1.035  0.00  0.00     0.133 C 
BRANCH  13  14
ATOM     14  N   UNL d   1       8.629  -5.517   1.797  0.00  0.00    -0.356 N 
ATOM     15  C   UNL d   1       9.398  -4.483   1.303  0.00  0.00     0.251 C 
ATOM     16  O   UNL d   1       9.213  -3.967   0.207  0.00  0.00    -0.268 OA
ATOM     17  H   UNL d   1       9.008  -6.074   2.551  0.00  0.00     0.162 HD
BRANCH  15  18
ATOM     18  C   UNL d   1      10.503  -3.995   2.177  0.00  0.00     0.032 A 
ATOM     19  C   UNL d   1      11.619  -3.392   1.576  0.00  0.00     0.020 A 
ATOM     20  C   UNL d   1      12.635  -2.847   2.365  0.00  0.00     0.043 A 
ATOM     21  C   UNL d   1      12.526  -2.894   3.750  0.00  0.00     0.116 A 
ATOM     22  C   UNL d   1      11.429  -3.493   4.362  0.00  0.00     0.043 A 
ATOM     23  F   UNL d   1      13.482  -2.342   4.508  0.00  0.00    -0.206 F 
ATOM     24  C   UNL d   1      10.414  -4.048   3.576  0.00  0.00     0.020 A 
ENDBRANCH  15  18
ENDBRANCH  13  14
ENDBRANCH  12  13
ENDBRANCH  11  12
ENDBRANCH   5  11
BRANCH   1  25
ATOM     25  C   UNL d   1       1.123  -1.250   0.031  0.00  0.00     0.051 A 
ATOM     26  N   UNL d   1       1.523  -0.021   0.528  0.00  0.00    -0.353 N 
ATOM     27  C   UNL d   1       0.542   0.852   0.449  0.00  0.00     0.047 A 
ATOM     28  HN  UNL d   1       2.450   0.180   0.904  1.00  0.00     0.166 HD
ATOM     29  C   UNL d   1       0.632   2.264   0.909  0.00  0.00     0.076 C 
ATOM     30  S   UNL d   1      -0.916   0.259  -0.235  0.00  0.00    -0.087 SA
ATOM     31  C   UNL d   1      -0.182  -1.281  -0.426  0.00  0.00     0.081 A 
ENDBRANCH   1  25
TORSDOF 6
