REMARK  4 active torsions:
REMARK  status: ('A' for Active; 'I' for Inactive)
REMARK    1  A    between atoms: C_13  and  C_5 
REMARK    2  A    between atoms: O_17  and  N_14 
REMARK    3  A    between atoms: C_16  and  O_17 
REMARK    4  A    between atoms: C_19  and  C_16 
ROOT
ATOM      1  C   UNL d   1       5.310  -0.532   0.014  0.00  0.00     0.094 A 
ATOM      2  C   UNL d   1       5.799  -1.882   0.031  0.00  0.00     0.076 A 
ATOM      3  N   UNL d   1       4.022  -0.250  -0.025  0.00  0.00    -0.347 N 
ATOM      4  HN  UNL d   1       3.277  -0.947  -0.050  1.00  0.00     0.167 HD
ATOM      5  C   UNL d   1       3.818   1.131  -0.028  0.00  0.00     0.064 A 
ATOM      6  N   UNL d   1       7.087  -3.959   0.416  0.00  0.00    -0.061 NA
ATOM      7  C   UNL d   1       5.259  -3.038  -0.525  0.00  0.00     0.040 A 
ATOM      8  S   UNL d   1       6.350   0.838   0.015  0.00  0.00    -0.080 SA
ATOM      9  N   UNL d   1       6.002  -4.195  -0.299  0.00  0.00    -0.296 N 
ATOM     10  HN  UNL d   1       5.739  -5.118  -0.646  1.00  0.00     0.183 HD
ATOM     11  S   UNL d   1       7.247  -2.355   0.835  0.00  0.00     0.004 SA
ATOM     12  C   UNL d   1       4.988   1.869  -0.020  0.00  0.00     0.083 A 
ATOM     13  C   UNL d   1       4.027  -3.191  -1.340  0.00  0.00     0.071 C 
ENDROOT
BRANCH   5  14
ATOM     14  C   UNL d   1       2.472   1.717  -0.040  0.00  0.00     0.056 C 
ATOM     15  N   UNL d   1       2.407   3.015  -0.065  0.00  0.00    -0.260 N 
ATOM     16  HN  UNL d   1       3.227   3.622  -0.083  1.00  0.00     0.194 HD
ATOM     17  C   UNL d   1       1.260   0.820  -0.015  0.00  0.00     0.072 C 
BRANCH  15  18
ATOM     18  O   UNL d   1       1.081   3.494  -0.066  0.00  0.00    -0.195 OA
BRANCH  18  19
ATOM     19  C   UNL d   1       1.092   4.862  -0.002  0.00  0.00     0.315 C 
ATOM     20  O   UNL d   1       2.066   5.599   0.056  0.00  0.00    -0.257 OA
BRANCH  19  21
ATOM     21  C   UNL d   1      -0.300   5.377   0.066  0.00  0.00     0.041 A 
ATOM     22  C   UNL d   1      -1.383   4.694  -0.502  0.00  0.00     0.017 A 
ATOM     23  C   UNL d   1      -2.670   5.231  -0.412  0.00  0.00     0.001 A 
ATOM     24  C   UNL d   1      -2.880   6.446   0.243  0.00  0.00     0.000 A 
ATOM     25  C   UNL d   1      -1.804   7.135   0.799  0.00  0.00     0.001 A 
ATOM     26  C   UNL d   1      -0.515   6.606   0.706  0.00  0.00     0.017 A 
ENDBRANCH  19  21
ENDBRANCH  18  19
ENDBRANCH  15  18
ENDBRANCH   5  14
TORSDOF 4
