REMARK  3 active torsions:
REMARK  status: ('A' for Active; 'I' for Inactive)
REMARK    1  A    between atoms: N_2  and  S_1 
REMARK    2  A    between atoms: C_10  and  S_1 
REMARK    3  A    between atoms: C_5  and  N_2 
ROOT
ATOM      1  C   UNL d   1       1.022   1.714   3.380  0.00  0.00     0.140 C 
ATOM      2  C   UNL d   1       1.089   0.768   2.430  0.00  0.00     0.131 C 
ATOM      3  C   UNL d   1       0.857   3.093   3.077  0.00  0.00     0.112 C 
ATOM      4  C   UNL d   1       1.144   1.319   4.738  0.00  0.00     0.112 C 
ATOM      5  N   UNL d   1       0.730   4.231   2.881  0.00  0.00    -0.191 NA
ATOM      6  N   UNL d   1       1.265   0.961   5.835  0.00  0.00    -0.191 NA
ENDROOT
BRANCH   2   7
ATOM      7  N   UNL d   1       1.012   1.089   1.030  0.00  0.00    -0.321 N 
ATOM      8  HN  UNL d   1       0.896   2.058   0.733  1.00  0.00     0.175 HD
BRANCH   7   9
ATOM      9  S   UNL d   1       1.107  -0.043  -0.024  0.00  0.00     0.052 S 
ATOM     10  O   UNL d   1       0.554  -1.368   0.184  0.00  0.00    -0.245 OA
ATOM     11  C   UNL d   1       2.820  -0.257  -0.441  0.00  0.00     0.142 C 
BRANCH   9  12
ATOM     12  C   UNL d   1       0.411   0.590  -1.539  0.00  0.00     0.038 A 
ATOM     13  C   UNL d   1       0.557   1.944  -1.861  0.00  0.00     0.023 A 
ATOM     14  C   UNL d   1       0.009   2.431  -3.050  0.00  0.00     0.025 A 
ATOM     15  C   UNL d   1      -0.681   1.569  -3.903  0.00  0.00     0.034 A 
ATOM     16  C   UNL d   1      -0.830   0.220  -3.579  0.00  0.00     0.025 A 
ATOM     17 CL   UNL d   1      -1.359   2.173  -5.364  0.00  0.00    -0.084 Cl
ATOM     18  C   UNL d   1      -0.285  -0.274  -2.391  0.00  0.00     0.023 A 
ENDBRANCH   9  12
ENDBRANCH   7   9
ENDBRANCH   2   7
TORSDOF 3
