REMARK  3 active torsions:
REMARK  status: ('A' for Active; 'I' for Inactive)
REMARK    1  A    between atoms: C_2  and  S_1 
REMARK    2  A    between atoms: N_8  and  C_3 
REMARK    3  A    between atoms: C_12  and  N_8 
ROOT
ATOM      1  C   UNL d   1       0.531   1.344   0.889  0.00  0.00     0.153 C 
ATOM      2  C   UNL d   1      -0.248   2.255   0.279  0.00  0.00     0.123 C 
ATOM      3  C   UNL d   1       1.020   0.192   0.224  0.00  0.00     0.113 C 
ATOM      4  N   UNL d   1       1.403  -0.703  -0.403  0.00  0.00    -0.191 NA
ENDROOT
BRANCH   1   5
ATOM      5  S   UNL d   1       0.986   1.590   2.543  0.00  0.00     0.183 S 
ATOM      6  O   UNL d   1       1.271   0.312   3.168  0.00  0.00    -0.222 OA
ATOM      7  O   UNL d   1       0.064   2.513   3.181  0.00  0.00    -0.222 OA
ATOM      8  C   UNL d   1       2.532   2.447   2.385  0.00  0.00     0.168 C 
ENDBRANCH   1   5
BRANCH   2   9
ATOM      9  N   UNL d   1      -0.743   2.212  -1.005  0.00  0.00    -0.363 N 
ATOM     10  H   UNL d   1      -0.610   1.344  -1.524  0.00  0.00     0.165 HD
BRANCH   9  11
ATOM     11  C   UNL d   1      -1.527   3.166  -1.675  0.00  0.00     0.047 A 
ATOM     12  C   UNL d   1      -2.407   2.756  -2.683  0.00  0.00     0.117 A 
ATOM     13  N   UNL d   1      -3.244   3.570  -3.369  0.00  0.00    -0.373 N 
ATOM     14  C   UNL d   1      -3.215   4.875  -3.036  0.00  0.00     0.088 A 
ATOM     15  HN  UNL d   1      -3.862   3.214  -4.098  1.00  0.00     0.164 HD
ATOM     16  C   UNL d   1      -2.389   5.394  -2.054  0.00  0.00     0.019 A 
ATOM     17  C   UNL d   1      -1.546   4.524  -1.359  0.00  0.00     0.032 A 
ENDBRANCH   9  11
ENDBRANCH   2   9
TORSDOF 3
