REMARK  6 active torsions:
REMARK  status: ('A' for Active; 'I' for Inactive)
REMARK    1  A    between atoms: C_6  and  N_1 
REMARK    2  A    between atoms: C_9  and  C_2 
REMARK    3  A    between atoms: C_8  and  C_3 
REMARK    4  A    between atoms: O_13  and  C_8 
REMARK    5  A    between atoms: O_16  and  C_9 
REMARK    6  A    between atoms: O_17  and  C_9 
ROOT
ATOM      1  N   UNL d   1       0.942  -0.566   0.158  0.00  0.00    -0.252 N 
ATOM      2  C   UNL d   1       0.896   0.812  -0.065  0.00  0.00     0.107 C 
ATOM      3  C   UNL d   1      -0.450   1.117  -0.298  0.00  0.00     0.086 C 
ATOM      4  N   UNL d   1      -0.314  -1.057   0.350  0.00  0.00    -0.303 N 
ATOM      5  HN  UNL d   1      -0.571  -1.987   0.681  1.00  0.00     0.186 HD
ATOM      6  C   UNL d   1      -1.131  -0.065   0.016  0.00  0.00     0.127 C 
ENDROOT
BRANCH   1   7
ATOM      7  C   UNL d   1       2.030  -1.486   0.141  0.00  0.00     0.100 C 
ATOM      8  C   UNL d   1       3.209  -1.281   0.874  0.00  0.00     0.064 C 
ATOM      9 CL   UNL d   1       3.309  -0.227   2.248  0.00  0.00    -0.082 Cl
ATOM     10  C   UNL d   1       4.322  -2.120   0.698  0.00  0.00     0.026 C 
ATOM     11  C   UNL d   1       4.235  -3.250  -0.106  0.00  0.00     0.003 C 
ATOM     12  C   UNL d   1       3.028  -3.549  -0.724  0.00  0.00     0.026 C 
ATOM     13  C   UNL d   1       1.935  -2.674  -0.623  0.00  0.00     0.064 C 
ATOM     14 CL   UNL d   1       0.551  -3.147  -1.557  0.00  0.00    -0.082 Cl
ENDBRANCH   1   7
BRANCH   2  15
ATOM     15  C   UNL d   1       2.058   1.744  -0.101  0.00  0.00     0.312 C 
BRANCH  15  16
ATOM     16  O   UNL d   1       2.419   1.869  -1.470  0.00  0.00    -0.360 OA
ATOM     17  C   UNL d   1       3.612   2.631  -1.620  0.00  0.00     0.205 C 
ENDBRANCH  15  16
BRANCH  15  18
ATOM     18  O   UNL d   1       1.659   3.003   0.452  0.00  0.00    -0.360 OA
ATOM     19  C   UNL d   1       1.367   2.980   1.843  0.00  0.00     0.205 C 
ENDBRANCH  15  18
ENDBRANCH   2  15
BRANCH   3  20
ATOM     20  C   UNL d   1      -1.005   2.399  -0.685  0.00  0.00     0.296 C 
ATOM     21  O   UNL d   1      -0.463   3.200  -1.428  0.00  0.00    -0.259 OA
BRANCH  20  22
ATOM     22  O   UNL d   1      -2.207   2.620  -0.073  0.00  0.00    -0.322 OA
ATOM     23  C   UNL d   1      -2.705   3.949  -0.218  0.00  0.00     0.213 C 
ENDBRANCH  20  22
ENDBRANCH   3  20
TORSDOF 6
