REMARK  3 active torsions:
REMARK  status: ('A' for Active; 'I' for Inactive)
REMARK    1  A    between atoms: C_11  and  C_1 
REMARK    2  A    between atoms: C_4  and  N_12 
REMARK    3  A    between atoms: C_15  and  N_7 
REMARK       I    between atoms: N_12  and  C_11 
ROOT
ATOM      1  C   UNL d   1       2.135  -1.669  -1.032  0.00  0.00     0.275 C 
ATOM      2  N   UNL d   1       3.256  -1.043  -0.537  0.00  0.00    -0.306 N 
ATOM      3  O   UNL d   1       2.097  -2.755  -1.606  0.00  0.00    -0.266 OA
ATOM      4  H   UNL d   1       3.112  -0.085  -0.235  0.00  0.00     0.170 HD
ENDROOT
BRANCH   1   5
ATOM      5  C   UNL d   1       0.908  -0.881  -0.766  0.00  0.00     0.124 A 
ATOM      6  N   UNL d   1       0.969   0.383  -0.279  0.00  0.00    -0.288 N 
ATOM      7  N   UNL d   1      -0.328   0.745  -0.075  0.00  0.00    -0.267 N 
ATOM      8  HN  UNL d   1       1.805   0.941  -0.103  1.00  0.00     0.188 HD
ATOM      9  C   UNL d   1      -1.190  -0.254  -0.451  0.00  0.00     0.126 A 
ATOM     10  C   UNL d   1      -0.438  -1.323  -0.881  0.00  0.00    -0.011 A 
ATOM     11  C   UNL d   1      -0.956  -2.642  -1.322  0.00  0.00     0.052 C 
BRANCH   7  12
ATOM     12  C   UNL d   1      -0.673   2.015   0.485  0.00  0.00     0.056 A 
ATOM     13  C   UNL d   1       0.331   2.938   0.804  0.00  0.00     0.031 A 
ATOM     14  C   UNL d   1      -0.004   4.181   1.353  0.00  0.00     0.002 A 
ATOM     15  C   UNL d   1      -1.339   4.509   1.588  0.00  0.00     0.000 A 
ATOM     16  C   UNL d   1      -2.342   3.595   1.277  0.00  0.00     0.002 A 
ATOM     17  C   UNL d   1      -2.014   2.352   0.728  0.00  0.00     0.031 A 
ENDBRANCH   7  12
ENDBRANCH   1   5
BRANCH   2  18
ATOM     18  C   UNL d   1       4.254  -1.731   0.123  0.00  0.00     0.135 C 
ATOM     19  N   UNL d   1       4.328  -3.059   0.225  0.00  0.00    -0.282 N 
ATOM     20  N   UNL d   1       5.281  -3.271   1.148  0.00  0.00    -0.294 N 
ATOM     21  HN  UNL d   1       3.784  -3.756  -0.283  1.00  0.00     0.189 HD
ATOM     22  C   UNL d   1       5.659  -4.624   1.479  0.00  0.00     0.178 C 
ATOM     23  C   UNL d   1       5.803  -2.122   1.683  0.00  0.00     0.064 A 
ATOM     24  C   UNL d   1       5.244  -1.095   0.927  0.00  0.00     0.038 A 
ATOM     25  C   UNL d   1       6.689  -1.883   2.741  0.00  0.00     0.032 A 
ATOM     26  C   UNL d   1       5.662   0.230   1.154  0.00  0.00     0.017 A 
ATOM     27  C   UNL d   1       6.576   0.483   2.182  0.00  0.00     0.001 A 
ATOM     28  C   UNL d   1       7.052  -0.554   2.984  0.00  0.00     0.002 A 
ENDBRANCH   2  18
TORSDOF 3
