REMARK  7 active torsions:
REMARK  status: ('A' for Active; 'I' for Inactive)
REMARK    1  A    between atoms: N_6  and  S_1 
REMARK    2  A    between atoms: C_12  and  S_1 
REMARK    3  A    between atoms: C_2  and  C_8 
REMARK    4  A    between atoms: C_10  and  N_6 
REMARK    5  A    between atoms: C_21  and  N_6 
REMARK    6  A    between atoms: C_16  and  C_11 
REMARK    7  A    between atoms: C_19  and  C_21 
ROOT
ATOM      1  C   UNL d   1      -1.917  -0.497  -1.324  0.00  0.00     0.043 A 
ATOM      2  C   UNL d   1      -2.790  -1.597  -1.339  0.00  0.00     0.060 A 
ATOM      3  C   UNL d   1      -1.135  -0.210  -2.459  0.00  0.00     0.018 A 
ATOM      4  C   UNL d   1      -2.877  -2.376  -2.502  0.00  0.00     0.031 A 
ATOM      5  C   UNL d   1      -1.224  -1.000  -3.602  0.00  0.00     0.001 A 
ATOM      6  C   UNL d   1      -2.102  -2.078  -3.627  0.00  0.00     0.002 A 
ENDROOT
BRANCH   1   7
ATOM      7  C   UNL d   1      -1.808   0.464  -0.222  0.00  0.00     0.165 A 
ATOM      8  N   UNL d   1      -1.597   1.735  -0.368  0.00  0.00    -0.331 N 
ATOM      9  C   UNL d   1      -1.586   2.203   0.914  0.00  0.00     0.111 A 
ATOM     10  HN  UNL d   1      -1.469   2.259  -1.234  1.00  0.00     0.168 HD
ATOM     11  C   UNL d   1      -1.481   3.473   1.332  0.00  0.00     0.047 C 
ATOM     12  C   UNL d   1      -1.725   1.061   1.862  0.00  0.00     0.316 A 
ATOM     13  O   UNL d   1      -1.881  -0.017   1.039  0.00  0.00    -0.255 OA
ATOM     14  O   UNL d   1      -1.682   1.064   3.080  0.00  0.00    -0.257 OA
BRANCH  11  15
ATOM     15  C   UNL d   1      -1.234   4.680   0.517  0.00  0.00    -0.033 A 
ATOM     16  C   UNL d   1      -1.402   4.742  -0.875  0.00  0.00     0.018 A 
ATOM     17  C   UNL d   1      -1.027   5.881  -1.607  0.00  0.00    -0.061 A 
ATOM     18  C   UNL d   1      -1.144   5.904  -3.103  0.00  0.00     0.048 C 
ATOM     19  C   UNL d   1      -0.544   7.002  -0.927  0.00  0.00     0.007 A 
ATOM     20  C   UNL d   1      -0.423   6.978   0.460  0.00  0.00     0.001 A 
ATOM     21  C   UNL d   1      -0.764   5.827   1.174  0.00  0.00     0.011 A 
ENDBRANCH  11  15
ENDBRANCH   1   7
BRANCH   2  22
ATOM     22  N   UNL d   1      -3.630  -1.951  -0.229  0.00  0.00    -0.267 N 
BRANCH  22  23
ATOM     23  S   UNL d   1      -5.241  -1.416  -0.231  0.00  0.00     0.265 S 
ATOM     24  O   UNL d   1      -6.119  -2.561  -0.108  0.00  0.00    -0.200 OA
ATOM     25  O   UNL d   1      -5.423  -0.447  -1.292  0.00  0.00    -0.200 OA
BRANCH  23  26
ATOM     26  C   UNL d   1      -5.326  -0.519   1.305  0.00  0.00     0.080 A 
ATOM     27  C   UNL d   1      -5.041   0.848   1.319  0.00  0.00     0.026 A 
ATOM     28  C   UNL d   1      -4.933   1.509   2.542  0.00  0.00     0.008 A 
ATOM     29  C   UNL d   1      -5.114   0.812   3.745  0.00  0.00    -0.062 A 
ATOM     30  C   UNL d   1      -5.516  -0.529   3.708  0.00  0.00     0.008 A 
ATOM     31  C   UNL d   1      -4.806   1.488   5.049  0.00  0.00     0.048 C 
ATOM     32  C   UNL d   1      -5.638  -1.194   2.489  0.00  0.00     0.026 A 
ENDBRANCH  23  26
ENDBRANCH  22  23
BRANCH  22  33
ATOM     33  C   UNL d   1      -3.204  -3.023   0.688  0.00  0.00     0.168 C 
BRANCH  33  34
ATOM     34  C   UNL d   1      -3.514  -4.382   0.130  0.00  0.00    -0.016 C 
ATOM     35  C   UNL d   1      -2.622  -5.372  -0.022  0.00  0.00     0.008 C 
ENDBRANCH  33  34
ENDBRANCH  22  33
ENDBRANCH   2  22
TORSDOF 7
