REMARK  5 active torsions:
REMARK  status: ('A' for Active; 'I' for Inactive)
REMARK    1  A    between atoms: N_7  and  C_1 
REMARK    2  A    between atoms: C_17  and  N_2 
REMARK    3  A    between atoms: C_13  and  N_9 
REMARK    4  A    between atoms: O_11  and  C_15 
REMARK    5  A    between atoms: C_12  and  O_11 
ROOT
ATOM      1  N   UNL d   1      -0.498  -2.630   0.217  0.00  0.00    -0.296 N 
ATOM      2  HN  UNL d   1      -1.349  -2.856  -0.298  1.00  0.00     0.187 HD
ATOM      3  N   UNL d   1       0.264  -3.500   0.692  0.00  0.00    -0.297 N 
ATOM      4  HN  UNL d   1       1.039  -3.304   1.326  1.00  0.00     0.187 HD
ENDROOT
BRANCH   3   5
ATOM      5  C   UNL d   1      -0.089  -4.782   0.238  0.00  0.00     0.082 A 
ATOM      6  C   UNL d   1      -0.930  -5.629   0.978  0.00  0.00     0.104 A 
ATOM      7  C   UNL d   1      -1.250  -6.903   0.484  0.00  0.00     0.040 A 
ATOM      8  C   UNL d   1      -0.652  -7.377  -0.684  0.00  0.00     0.003 A 
ATOM      9  C   UNL d   1       0.233  -6.567  -1.389  0.00  0.00     0.002 A 
ATOM     10  C   UNL d   1       0.501  -5.273  -0.937  0.00  0.00     0.034 A 
BRANCH   6  11
ATOM     11  O   UNL d   1      -1.429  -5.145   2.173  0.00  0.00    -0.307 OA
BRANCH  11  12
ATOM     12  C   UNL d   1      -1.644  -6.045   3.195  0.00  0.00     0.098 A 
ATOM     13  C   UNL d   1      -2.857  -5.998   3.891  0.00  0.00     0.069 A 
ATOM     14  C   UNL d   1      -3.126  -6.930   4.895  0.00  0.00     0.050 A 
ATOM     15 CL   UNL d   1      -4.062  -4.820   3.518  0.00  0.00    -0.081 Cl
ATOM     16  C   UNL d   1      -2.173  -7.898   5.208  0.00  0.00     0.035 A 
ATOM     17  C   UNL d   1      -0.942  -7.922   4.556  0.00  0.00     0.026 A 
ATOM     18 CL   UNL d   1      -2.521  -9.081   6.409  0.00  0.00    -0.084 Cl
ATOM     19  C   UNL d   1      -0.666  -6.980   3.563  0.00  0.00     0.041 A 
ENDBRANCH  11  12
ENDBRANCH   6  11
ENDBRANCH   3   5
BRANCH   1  20
ATOM     20  C   UNL d   1      -0.075  -1.311   0.458  0.00  0.00     0.096 C 
ATOM     21  C   UNL d   1       1.169  -0.836   0.824  0.00  0.00     0.060 C 
ATOM     22  N   UNL d   1       1.069   0.548   0.740  0.00  0.00    -0.259 N 
ATOM     23  C   UNL d   1       2.381  -1.569   1.276  0.00  0.00     0.073 C 
ATOM     24  N   UNL d   1      -0.227   0.945   0.613  0.00  0.00    -0.296 N 
ATOM     25  C   UNL d   1      -0.904  -0.180   0.348  0.00  0.00     0.052 C 
ATOM     26  HN  UNL d   1      -0.600   1.890   0.699  1.00  0.00     0.187 HD
ATOM     27  C   UNL d   1      -2.345  -0.120   0.010  0.00  0.00     0.072 C 
BRANCH  22  28
ATOM     28  C   UNL d   1       2.104   1.528   0.748  0.00  0.00     0.056 A 
ATOM     29  C   UNL d   1       3.398   1.222   0.304  0.00  0.00     0.031 A 
ATOM     30  C   UNL d   1       4.402   2.192   0.344  0.00  0.00     0.002 A 
ATOM     31  C   UNL d   1       4.120   3.471   0.818  0.00  0.00     0.000 A 
ATOM     32  C   UNL d   1       2.825   3.794   1.222  0.00  0.00     0.002 A 
ATOM     33  C   UNL d   1       1.813   2.832   1.173  0.00  0.00     0.031 A 
ENDBRANCH  22  28
ENDBRANCH   1  20
TORSDOF 5
