REMARK  6 active torsions:
REMARK  status: ('A' for Active; 'I' for Inactive)
REMARK    1  A    between atoms: S_16  and  C_3 
REMARK    2  A    between atoms: C_4  and  C_8 
REMARK    3  A    between atoms: C_5  and  C_9 
REMARK    4  A    between atoms: C_12  and  N_15 
REMARK    5  A    between atoms: C_14  and  C_28 
REMARK       I    between atoms: N_15  and  C_14 
REMARK    6  A    between atoms: C_28  and  S_16 
ROOT
ATOM      1  C   UNL d   1       6.133   1.719   0.225  0.00  0.00     0.231 C 
ATOM      2  N   UNL d   1       6.798   0.543  -0.094  0.00  0.00    -0.326 N 
ATOM      3  O   UNL d   1       6.658   2.789   0.520  0.00  0.00    -0.272 OA
ATOM      4  H   UNL d   1       6.222  -0.213  -0.461  0.00  0.00     0.169 HD
ENDROOT
BRANCH   2   5
ATOM      5  C   UNL d   1       8.197   0.379  -0.182  0.00  0.00     0.036 A 
ATOM      6  C   UNL d   1       9.113   1.321   0.292  0.00  0.00     0.045 A 
ATOM      7  C   UNL d   1      10.494   1.159   0.102  0.00  0.00     0.050 A 
ATOM      8  C   UNL d   1      10.959   0.011  -0.555  0.00  0.00     0.032 A 
ATOM      9  C   UNL d   1      10.060  -0.965  -1.013  0.00  0.00     0.050 A 
ATOM     10  C   UNL d   1       8.681  -0.776  -0.807  0.00  0.00     0.045 A 
BRANCH   7  11
ATOM     11  C   UNL d   1      11.439   2.231   0.592  0.00  0.00     0.417 C 
ATOM     12  F   UNL d   1      12.738   1.998   0.254  0.00  0.00    -0.166 F 
ATOM     13  F   UNL d   1      11.141   3.461   0.091  0.00  0.00    -0.166 F 
ATOM     14  F   UNL d   1      11.423   2.359   1.947  0.00  0.00    -0.166 F 
ENDBRANCH   7  11
BRANCH   9  15
ATOM     15  C   UNL d   1      10.551  -2.195  -1.738  0.00  0.00     0.417 C 
ATOM     16  F   UNL d   1      11.892  -2.194  -1.969  0.00  0.00    -0.166 F 
ATOM     17  F   UNL d   1      10.288  -3.341  -1.050  0.00  0.00    -0.166 F 
ATOM     18  F   UNL d   1       9.962  -2.347  -2.956  0.00  0.00    -0.166 F 
ENDBRANCH   9  15
ENDBRANCH   2   5
BRANCH   1  19
ATOM     19  C   UNL d   1       4.621   1.611   0.135  0.00  0.00     0.186 C 
BRANCH  19  20
ATOM     20  S   UNL d   1       4.084   2.032  -1.543  0.00  0.00    -0.077 SA
BRANCH  20  21
ATOM     21  C   UNL d   1       4.346   0.526  -2.369  0.00  0.00     0.188 A 
ATOM     22  N   UNL d   1       4.607  -0.615  -1.751  0.00  0.00    -0.329 N 
ATOM     23  C   UNL d   1       4.567  -1.546  -2.761  0.00  0.00     0.070 A 
ATOM     24  HN  UNL d   1       4.794  -0.766  -0.760  1.00  0.00     0.168 HD
ATOM     25  C   UNL d   1       4.370  -0.911  -3.975  0.00  0.00     0.105 A 
ATOM     26  C   UNL d   1       4.669  -2.942  -2.730  0.00  0.00     0.056 A 
ATOM     27  C   UNL d   1       4.290  -1.552  -5.205  0.00  0.00     0.041 A 
ATOM     28  O   UNL d   1       4.240   0.421  -3.731  0.00  0.00    -0.285 OA
ATOM     29  C   UNL d   1       4.381  -2.949  -5.162  0.00  0.00     0.026 A 
ATOM     30  C   UNL d   1       4.558  -3.627  -3.949  0.00  0.00     0.036 A 
ATOM     31 CL   UNL d   1       4.622  -5.348  -3.949  0.00  0.00    -0.084 Cl
ENDBRANCH  20  21
ENDBRANCH  19  20
ENDBRANCH   1  19
TORSDOF 6
