REMARK  3 active torsions:
REMARK  status: ('A' for Active; 'I' for Inactive)
REMARK    1  A    between atoms: C_10  and  C_5 
REMARK    2  A    between atoms: C_11  and  C_7 
REMARK    3  A    between atoms: C_12  and  C_8 
ROOT
ATOM      1  N   UNL d   1      -0.267   1.501  -0.007  0.00  0.00    -0.300 N 
ATOM      2  HN  UNL d   1      -0.432   2.507  -0.055  1.00  0.00     0.187 HD
ATOM      3  N   UNL d   1       1.052   1.134   0.001  0.00  0.00    -0.303 N 
ATOM      4  HN  UNL d   1       1.718   1.904   0.057  1.00  0.00     0.186 HD
ATOM      5  C   UNL d   1      -0.545  -1.599  -0.022  0.00  0.00    -0.040 C 
ATOM      6  C   UNL d   1      -1.515  -0.692   0.041  0.00  0.00     0.040 C 
ATOM      7  C   UNL d   1      -1.331   0.779   0.037  0.00  0.00     0.059 C 
ATOM      8  C   UNL d   1       1.578  -0.046  -0.052  0.00  0.00     0.040 C 
ATOM      9  C   UNL d   1       0.914  -1.395  -0.150  0.00  0.00     0.099 C 
ENDROOT
BRANCH   5  10
ATOM     10  C   UNL d   1      -0.925  -3.026  -0.011  0.00  0.00    -0.029 A 
ATOM     11  C   UNL d   1      -1.168  -3.696  -1.215  0.00  0.00     0.012 A 
ATOM     12  C   UNL d   1      -1.431  -5.067  -1.213  0.00  0.00     0.001 A 
ATOM     13  C   UNL d   1      -1.457  -5.770  -0.008  0.00  0.00     0.000 A 
ATOM     14  C   UNL d   1      -1.231  -5.104   1.196  0.00  0.00     0.001 A 
ATOM     15  C   UNL d   1      -0.968  -3.733   1.196  0.00  0.00     0.012 A 
ENDBRANCH   5  10
BRANCH   7  16
ATOM     16  C   UNL d   1      -2.633   1.556   0.085  0.00  0.00    -0.008 A 
ATOM     17  C   UNL d   1      -3.761   1.092   0.780  0.00  0.00     0.014 A 
ATOM     18  C   UNL d   1      -4.945   1.837   0.798  0.00  0.00     0.001 A 
ATOM     19  C   UNL d   1      -5.005   3.067   0.148  0.00  0.00     0.000 A 
ATOM     20  C   UNL d   1      -3.883   3.556  -0.518  0.00  0.00     0.001 A 
ATOM     21  C   UNL d   1      -2.703   2.806  -0.551  0.00  0.00     0.014 A 
ENDBRANCH   7  16
BRANCH   8  22
ATOM     22  C   UNL d   1       3.093  -0.106   0.002  0.00  0.00    -0.012 A 
ATOM     23  C   UNL d   1       3.802   0.921   0.638  0.00  0.00     0.013 A 
ATOM     24  C   UNL d   1       5.192   0.844   0.769  0.00  0.00     0.001 A 
ATOM     25  C   UNL d   1       5.885  -0.254   0.258  0.00  0.00     0.000 A 
ATOM     26  C   UNL d   1       5.194  -1.267  -0.400  0.00  0.00     0.001 A 
ATOM     27  C   UNL d   1       3.806  -1.192  -0.531  0.00  0.00     0.013 A 
ENDBRANCH   8  22
TORSDOF 3
