REMARK  4 active torsions:
REMARK  status: ('A' for Active; 'I' for Inactive)
REMARK    1  A    between atoms: N_7  and  C_1 
REMARK    2  A    between atoms: C_10  and  C_3 
REMARK       I    between atoms: C_8  and  N_7 
REMARK    3  A    between atoms: C_9  and  C_8 
REMARK    4  A    between atoms: C_13  and  C_14 
ROOT
ATOM      1  C   UNL d   1      -2.204  -0.927  -0.011  0.00  0.00     0.142 A 
ATOM      2  C   UNL d   1      -1.670   0.193   0.674  0.00  0.00     0.085 A 
ATOM      3  C   UNL d   1      -1.365   1.146  -0.282  0.00  0.00     0.079 A 
ATOM      4  N   UNL d   1      -2.111  -0.741  -1.327  0.00  0.00    -0.284 N 
ATOM      5  HN  UNL d   1      -2.384  -1.387  -2.068  1.00  0.00     0.188 HD
ATOM      6  N   UNL d   1      -1.581   0.478  -1.462  0.00  0.00    -0.297 N 
ATOM      7 BR   UNL d   1      -1.464   0.266   2.542  0.00  0.00    -0.044 Br
ATOM      8  H   UNL d   1      -1.429   0.817  -2.405  0.00  0.00     0.187 HD
ENDROOT
BRANCH   1   9
ATOM      9  N   UNL d   1      -2.791  -2.029   0.590  0.00  0.00    -0.307 N 
ATOM     10  C   UNL d   1      -3.227  -3.145  -0.086  0.00  0.00     0.259 C 
ATOM     11  O   UNL d   1      -3.018  -3.377  -1.280  0.00  0.00    -0.267 OA
ATOM     12  H   UNL d   1      -2.919  -1.963   1.591  0.00  0.00     0.170 HD
BRANCH  10  13
ATOM     13  C   UNL d   1      -4.007  -4.179   0.669  0.00  0.00     0.054 A 
ATOM     14  C   UNL d   1      -4.092  -4.321   2.061  0.00  0.00     0.049 A 
ATOM     15 CL   UNL d   1      -3.378  -3.233   3.200  0.00  0.00    -0.083 Cl
ATOM     16  C   UNL d   1      -4.782  -5.413   2.615  0.00  0.00     0.025 A 
ATOM     17  C   UNL d   1      -5.407  -6.356   1.799  0.00  0.00     0.002 A 
ATOM     18  C   UNL d   1      -5.372  -6.202   0.420  0.00  0.00     0.001 A 
ATOM     19  C   UNL d   1      -4.681  -5.125  -0.136  0.00  0.00     0.019 A 
ENDBRANCH  10  13
ENDBRANCH   1   9
BRANCH   3  20
ATOM     20  C   UNL d   1      -0.948   2.550  -0.232  0.00  0.00    -0.007 A 
ATOM     21  C   UNL d   1      -0.223   3.143  -1.272  0.00  0.00     0.014 A 
ATOM     22  C   UNL d   1       0.148   4.496  -1.213  0.00  0.00     0.009 A 
ATOM     23  C   UNL d   1      -0.181   5.305  -0.111  0.00  0.00    -0.051 A 
ATOM     24  C   UNL d   1      -0.936   4.708   0.907  0.00  0.00     0.009 A 
ATOM     25  C   UNL d   1      -1.318   3.363   0.841  0.00  0.00     0.014 A 
BRANCH  23  26
ATOM     26  C   UNL d   1       0.296   6.766  -0.037  0.00  0.00    -0.024 C 
ATOM     27  C   UNL d   1      -0.151   7.492   1.253  0.00  0.00     0.019 C 
ATOM     28  C   UNL d   1       1.839   6.804  -0.072  0.00  0.00     0.019 C 
ATOM     29  C   UNL d   1      -0.254   7.574  -1.230  0.00  0.00     0.019 C 
ENDBRANCH  23  26
ENDBRANCH   3  20
TORSDOF 4
