REMARK  6 active torsions:
REMARK  status: ('A' for Active; 'I' for Inactive)
REMARK    1  A    between atoms: C_8  and  C_1 
REMARK    2  A    between atoms: O_12  and  C_4 
REMARK    3  A    between atoms: C_9  and  C_6 
REMARK    4  A    between atoms: C_7  and  C_10 
REMARK    5  A    between atoms: O_20  and  C_8 
REMARK    6  A    between atoms: C_21  and  O_20 
ROOT
ATOM      1  C   UNL d   1      -0.152   1.123  -0.044  0.00  0.00     0.133 A 
ATOM      2  N   UNL d   1      -0.606  -1.171  -0.125  0.00  0.00    -0.329 N 
ATOM      3  HN  UNL d   1      -1.180  -2.011  -0.196  1.00  0.00     0.168 HD
ATOM      4  C   UNL d   1      -1.086   0.112  -0.107  0.00  0.00     0.164 A 
ATOM      5  S   UNL d   1       1.413   0.413  -0.039  0.00  0.00    -0.061 SA
ATOM      6  C   UNL d   1       0.710  -1.157  -0.038  0.00  0.00     0.087 A 
ENDROOT
BRANCH   6   7
ATOM      7  C   UNL d   1       1.537  -2.373   0.035  0.00  0.00    -0.002 A 
ATOM      8  C   UNL d   1       2.781  -2.409   0.683  0.00  0.00     0.015 A 
ATOM      9  C   UNL d   1       3.514  -3.598   0.766  0.00  0.00     0.017 A 
ATOM     10  C   UNL d   1       3.020  -4.783   0.204  0.00  0.00     0.048 A 
ATOM     11  C   UNL d   1       1.777  -4.753  -0.445  0.00  0.00     0.017 A 
ATOM     12  C   UNL d   1       1.046  -3.564  -0.523  0.00  0.00     0.015 A 
BRANCH  10  13
ATOM     13  C   UNL d   1       3.792  -6.076   0.297  0.00  0.00     0.417 C 
ATOM     14  F   UNL d   1       4.976  -5.957   0.960  0.00  0.00    -0.166 F 
ATOM     15  F   UNL d   1       3.097  -7.050   0.947  0.00  0.00    -0.166 F 
ATOM     16  F   UNL d   1       4.099  -6.588  -0.927  0.00  0.00    -0.166 F 
ENDBRANCH  10  13
ENDBRANCH   6   7
BRANCH   1  17
ATOM     17  C   UNL d   1      -0.281   2.555   0.075  0.00  0.00     0.304 C 
ATOM     18  O   UNL d   1       0.643   3.348   0.203  0.00  0.00    -0.259 OA
BRANCH  17  19
ATOM     19  O   UNL d   1      -1.595   2.906   0.127  0.00  0.00    -0.317 OA
BRANCH  19  20
ATOM     20  C   UNL d   1      -1.880   4.180   0.716  0.00  0.00     0.174 C 
ATOM     21  C   UNL d   1      -1.998   3.986   2.217  0.00  0.00     0.034 C 
ENDBRANCH  19  20
ENDBRANCH  17  19
ENDBRANCH   1  17
BRANCH   4  22
ATOM     22  O   UNL d   1      -2.409   0.321  -0.112  0.00  0.00    -0.345 OA
ATOM     23  H   UNL d   1      -2.824  -0.559  -0.117  0.00  0.00     0.219 HD
ENDBRANCH   4  22
TORSDOF 6
