REMARK  4 active torsions:
REMARK  status: ('A' for Active; 'I' for Inactive)
REMARK    1  A    between atoms: C_6  and  C_1 
REMARK    2  A    between atoms: C_14  and  N_2 
REMARK    3  A    between atoms: C_11  and  C_3 
REMARK    4  A    between atoms: O_16  and  C_11 
ROOT
ATOM      1  C   UNL d   1      -0.290  -1.216   0.032  0.00  0.00     0.104 C 
ATOM      2  N   UNL d   1       0.976  -0.662   0.189  0.00  0.00    -0.253 N 
ATOM      3  C   UNL d   1      -1.176  -0.150  -0.085  0.00  0.00     0.092 C 
ATOM      4  N   UNL d   1       0.900   0.680   0.379  0.00  0.00    -0.297 N 
ATOM      5  HN  UNL d   1       1.646   1.307   0.681  1.00  0.00     0.187 HD
ATOM      6  C   UNL d   1      -0.363   1.002   0.086  0.00  0.00     0.042 C 
ATOM      7  C   UNL d   1      -0.749   2.438   0.053  0.00  0.00     0.071 C 
ENDROOT
BRANCH   1   8
ATOM      8  C   UNL d   1      -0.601  -2.676   0.042  0.00  0.00     0.087 A 
ATOM      9  N   UNL d   1       0.106  -3.518   0.803  0.00  0.00    -0.259 N 
ATOM     10  O   UNL d   1      -0.433  -4.769   0.597  0.00  0.00    -0.242 OA
ATOM     11  HN  UNL d   1       0.888  -3.281   1.414  1.00  0.00     0.195 HD
ATOM     12  C   UNL d   1      -1.466  -4.674  -0.278  0.00  0.00     0.074 A 
ATOM     13  C   UNL d   1      -1.629  -3.360  -0.647  0.00  0.00     0.068 A 
ATOM     14  C   UNL d   1      -2.141  -5.939  -0.619  0.00  0.00     0.079 C 
ENDBRANCH   1   8
BRANCH   2  15
ATOM     15  C   UNL d   1       2.263  -1.261   0.062  0.00  0.00     0.057 A 
ATOM     16  C   UNL d   1       2.470  -2.378  -0.757  0.00  0.00     0.031 A 
ATOM     17  C   UNL d   1       3.743  -2.943  -0.867  0.00  0.00     0.002 A 
ATOM     18  C   UNL d   1       4.814  -2.394  -0.166  0.00  0.00     0.000 A 
ATOM     19  C   UNL d   1       4.620  -1.264   0.628  0.00  0.00     0.002 A 
ATOM     20  C   UNL d   1       3.353  -0.685   0.729  0.00  0.00     0.031 A 
ENDBRANCH   2  15
BRANCH   3  21
ATOM     21  C   UNL d   1      -2.615  -0.156  -0.267  0.00  0.00     0.180 C 
ATOM     22  O   UNL d   1      -3.203   0.644  -0.976  0.00  0.00    -0.646 OA
BRANCH  21  23
ATOM     23  O   UNL d   1      -3.285  -1.090   0.455  0.00  0.00    -0.773 OA
ATOM     24  H   UNL d   1      -2.720  -1.562   1.097  0.00  0.00     0.167 HD
ENDBRANCH  21  23
ENDBRANCH   3  21
TORSDOF 4
