REMARK  3 active torsions:
REMARK  status: ('A' for Active; 'I' for Inactive)
REMARK    1  A    between atoms: C_2  and  C_1 
REMARK    2  A    between atoms: C_6  and  C_2 
REMARK    3  A    between atoms: C_4  and  C_3 
ROOT
ATOM      1  C   UNL d   1       1.366  -0.399   0.204  0.00  0.00     0.029 A 
ATOM      2  C   UNL d   1       0.357  -1.365   0.308  0.00  0.00     0.024 A 
ATOM      3  C   UNL d   1       1.000   0.957   0.071  0.00  0.00     0.016 A 
ATOM      4  C   UNL d   1      -0.991  -0.958   0.274  0.00  0.00     0.016 A 
ATOM      5  C   UNL d   1      -0.338   1.348   0.034  0.00  0.00     0.001 A 
ATOM      6  C   UNL d   1      -1.336   0.388   0.127  0.00  0.00     0.001 A 
ENDROOT
BRANCH   1   7
ATOM      7  C   UNL d   1       2.816  -0.652   0.082  0.00  0.00     0.193 C 
ATOM      8  O   UNL d   1       3.381  -0.102  -0.868  0.00  0.00    -0.287 OA
BRANCH   7   9
ATOM      9  C   UNL d   1       3.636  -1.474   1.008  0.00  0.00     0.015 A 
ATOM     10  C   UNL d   1       3.195  -1.914   2.259  0.00  0.00     0.015 A 
ATOM     11  C   UNL d   1       4.033  -2.705   3.051  0.00  0.00     0.001 A 
ATOM     12  C   UNL d   1       5.319  -3.039   2.613  0.00  0.00     0.000 A 
ATOM     13  C   UNL d   1       5.773  -2.584   1.380  0.00  0.00     0.001 A 
ATOM     14  C   UNL d   1       4.935  -1.806   0.583  0.00  0.00     0.015 A 
ENDBRANCH   7   9
ENDBRANCH   1   7
BRANCH   2  15
ATOM     15  C   UNL d   1       0.562  -2.830   0.467  0.00  0.00     0.156 C 
ATOM     16  O   UNL d   1      -0.122  -3.426   1.295  0.00  0.00    -0.293 OA
ATOM     17  C   UNL d   1       1.545  -3.559  -0.406  0.00  0.00     0.097 C 
ENDBRANCH   2  15
TORSDOF 3
