REMARK  6 active torsions:
REMARK  status: ('A' for Active; 'I' for Inactive)
REMARK    1  A    between atoms: C_2  and  C_1 
REMARK       I    between atoms: N_5  and  C_2 
REMARK       I    between atoms: C_10  and  N_5 
REMARK    2  A    between atoms: S_12  and  C_10 
REMARK    3  A    between atoms: C_11  and  C_16 
REMARK    4  A    between atoms: O_17  and  C_11 
REMARK    5  A    between atoms: C_16  and  S_12 
REMARK    6  A    between atoms: C_19  and  O_17 
ROOT
ATOM      1  C   UNL d   1       0.179  -4.349  -0.480  0.00  0.00     0.269 C 
ATOM      2  N   UNL d   1       0.825  -3.151  -0.235  0.00  0.00    -0.283 N 
ATOM      3  C   UNL d   1       2.094  -2.974   0.240  0.00  0.00     0.287 C 
ATOM      4  O   UNL d   1       0.708  -5.441  -0.304  0.00  0.00    -0.266 OA
ATOM      5  O   UNL d   1       2.982  -3.791   0.401  0.00  0.00    -0.260 OA
ATOM      6  H   UNL d   1       0.340  -2.289  -0.444  0.00  0.00     0.172 HD
ENDROOT
BRANCH   1   7
ATOM      7  C   UNL d   1      -1.193  -4.223  -0.945  0.00  0.00     0.114 A 
ATOM      8  C   UNL d   1      -2.112  -5.188  -1.350  0.00  0.00     0.046 A 
ATOM      9  N   UNL d   1      -3.369  -4.688  -1.686  0.00  0.00    -0.298 N 
ATOM     10  C   UNL d   1      -1.935  -6.659  -1.463  0.00  0.00     0.071 C 
ATOM     11  N   UNL d   1      -3.433  -3.376  -1.564  0.00  0.00    -0.269 N 
ATOM     12  HN  UNL d   1      -4.150  -5.269  -1.990  1.00  0.00     0.187 HD
ATOM     13  S   UNL d   1      -2.001  -2.707  -1.050  0.00  0.00     0.009 SA
ATOM     14  HN  UNL d   1      -4.272  -2.830  -1.764  1.00  0.00     0.195 HD
ENDBRANCH   1   7
BRANCH   3  15
ATOM     15  S   UNL d   1       2.336  -1.275   0.614  0.00  0.00    -0.059 SA
BRANCH  15  16
ATOM     16  C   UNL d   1       3.402  -0.831  -0.794  0.00  0.00     0.195 C 
BRANCH  16  17
ATOM     17  C   UNL d   1       2.631  -0.847  -2.099  0.00  0.00     0.268 C 
ATOM     18  O   UNL d   1       1.489  -1.264  -2.249  0.00  0.00    -0.264 OA
BRANCH  17  19
ATOM     19  O   UNL d   1       3.404  -0.317  -3.092  0.00  0.00    -0.321 OA
BRANCH  19  20
ATOM     20  C   UNL d   1       2.814  -0.277  -4.401  0.00  0.00     0.174 C 
ATOM     21  C   UNL d   1       1.942   0.956  -4.560  0.00  0.00     0.034 C 
ENDBRANCH  19  20
ENDBRANCH  17  19
ENDBRANCH  16  17
ENDBRANCH  15  16
ENDBRANCH   3  15
TORSDOF 6
