REMARK  3 active torsions:
REMARK  status: ('A' for Active; 'I' for Inactive)
REMARK    1  A    between atoms: O_6  and  C_1 
REMARK    2  A    between atoms: C_9  and  O_6 
REMARK    3  A    between atoms: O_13  and  C_11 
ROOT
ATOM      1  C   UNL d   1      -1.363  -1.415   0.019  0.00  0.00     0.114 A 
ATOM      2  C   UNL d   1      -0.024  -0.928  -0.006  0.00  0.00     0.034 A 
ATOM      3  C   UNL d   1      -0.141   0.461  -0.006  0.00  0.00     0.090 A 
ATOM      4  O   UNL d   1      -1.452   0.832  -0.005  0.00  0.00    -0.319 OA
ATOM      5  C   UNL d   1      -2.184  -0.311  -0.006  0.00  0.00     0.180 A 
ATOM      6  C   UNL d   1       0.940   1.341  -0.022  0.00  0.00     0.074 A 
ATOM      7  C   UNL d   1       1.275  -1.468  -0.048  0.00  0.00     0.020 A 
ATOM      8  C   UNL d   1       2.221   0.781  -0.040  0.00  0.00     0.070 A 
ATOM      9  C   UNL d   1       2.383  -0.605  -0.051  0.00  0.00     0.038 A 
ENDROOT
BRANCH   1  10
ATOM     10  O   UNL d   1      -1.881  -2.661  -0.017  0.00  0.00    -0.276 OA
BRANCH  10  11
ATOM     11  C   UNL d   1      -1.255  -3.689   0.622  0.00  0.00     0.260 C 
ATOM     12  O   UNL d   1      -0.237  -3.646   1.300  0.00  0.00    -0.265 OA
ATOM     13  C   UNL d   1      -2.021  -4.962   0.400  0.00  0.00     0.126 C 
ENDBRANCH  10  11
ENDBRANCH   1  10
BRANCH   8  14
ATOM     14  O   UNL d   1       3.242   1.699  -0.051  0.00  0.00    -0.356 OA
ATOM     15  C   UNL d   1       4.567   1.180  -0.054  0.00  0.00     0.210 C 
ENDBRANCH   8  14
TORSDOF 3
