REMARK  3 active torsions:
REMARK  status: ('A' for Active; 'I' for Inactive)
REMARK    1  A    between atoms: C_5  and  C_3 
REMARK    2  A    between atoms: C_8  and  C_4 
REMARK    3  A    between atoms: O_16  and  N_13 
ROOT
ATOM      1  N   UNL d   1       4.071  -0.319  -0.052  0.00  0.00    -0.346 N 
ATOM      2  HN  UNL d   1       3.325  -1.013  -0.097  1.00  0.00     0.167 HD
ATOM      3  C   UNL d   1       5.358  -0.600  -0.008  0.00  0.00     0.111 A 
ATOM      4  C   UNL d   1       3.874   1.062  -0.029  0.00  0.00     0.064 A 
ATOM      5  S   UNL d   1       6.407   0.755   0.053  0.00  0.00    -0.079 SA
ATOM      6  C   UNL d   1       5.049   1.795   0.017  0.00  0.00     0.083 A 
ENDROOT
BRANCH   3   7
ATOM      7  C   UNL d   1       5.852  -1.946  -0.009  0.00  0.00     0.134 A 
ATOM      8  O   UNL d   1       7.181  -2.270   0.093  0.00  0.00    -0.236 OA
ATOM      9  N   UNL d   1       7.340  -3.646   0.063  0.00  0.00    -0.272 N 
ATOM     10  C   UNL d   1       6.109  -4.140  -0.057  0.00  0.00     0.117 A 
ATOM     11  HN  UNL d   1       8.214  -4.168   0.120  1.00  0.00     0.194 HD
ATOM     12  C   UNL d   1       5.140  -3.126  -0.106  0.00  0.00     0.061 A 
ENDBRANCH   3   7
BRANCH   4  13
ATOM     13  C   UNL d   1       2.531   1.648  -0.044  0.00  0.00     0.055 C 
ATOM     14  N   UNL d   1       2.455   2.949  -0.009  0.00  0.00    -0.272 N 
ATOM     15  HN  UNL d   1       3.265   3.569   0.019  1.00  0.00     0.194 HD
ATOM     16  C   UNL d   1       1.319   0.747  -0.087  0.00  0.00     0.072 C 
BRANCH  14  17
ATOM     17  O   UNL d   1       1.126   3.391  -0.015  0.00  0.00    -0.290 OA
ATOM     18  H   UNL d   1       1.225   4.361   0.033  0.00  0.00     0.244 HD
ENDBRANCH  14  17
ENDBRANCH   4  13
TORSDOF 3
