REMARK  3 active torsions:
REMARK  status: ('A' for Active; 'I' for Inactive)
REMARK    1  A    between atoms: C_4  and  C_1 
REMARK    2  A    between atoms: C_10  and  C_4 
REMARK    3  A    between atoms: O_17  and  N_11 
ROOT
ATOM      1  C   UNL d   1       0.935  -0.182   2.353  0.00  0.00     0.065 C 
ATOM      2  C   UNL d   1       1.442   0.952   3.070  0.00  0.00     0.101 C 
ATOM      3  N   UNL d   1       1.846   1.877   3.641  0.00  0.00    -0.191 NA
ENDROOT
BRANCH   1   4
ATOM      4  C   UNL d   1       0.435  -0.074   1.093  0.00  0.00    -0.013 C 
ATOM      5  C   UNL d   1       0.431   1.207   0.375  0.00  0.00     0.034 C 
ATOM      6  C   UNL d   1      -0.258   1.385  -0.764  0.00  0.00     0.040 C 
ATOM      7 BR   UNL d   1      -0.257   3.038  -1.644  0.00  0.00    -0.049 Br
ATOM      8  C   UNL d   1      -1.056   0.252  -1.357  0.00  0.00     0.071 C 
ATOM      9  C   UNL d   1      -0.787  -1.097  -0.763  0.00  0.00     0.034 C 
ATOM     10  N   UNL d   1      -1.904   0.473  -2.321  0.00  0.00    -0.268 N 
ATOM     11  C   UNL d   1      -0.088  -1.235   0.372  0.00  0.00     0.015 C 
ATOM     12  HN  UNL d   1      -2.061   1.391  -2.738  1.00  0.00     0.194 HD
BRANCH  10  13
ATOM     13  O   UNL d   1      -2.575  -0.688  -2.724  0.00  0.00    -0.289 OA
ATOM     14  H   UNL d   1      -3.202  -0.344  -3.388  0.00  0.00     0.244 HD
ENDBRANCH  10  13
ENDBRANCH   1   4
BRANCH   1  15
ATOM     15  C   UNL d   1       0.946  -1.456   3.107  0.00  0.00    -0.015 A 
ATOM     16  C   UNL d   1       2.039  -2.329   3.011  0.00  0.00     0.014 A 
ATOM     17  C   UNL d   1       2.064  -3.508   3.761  0.00  0.00     0.024 A 
ATOM     18  C   UNL d   1       1.001  -3.816   4.608  0.00  0.00     0.034 A 
ATOM     19  C   UNL d   1      -0.097  -2.962   4.702  0.00  0.00     0.024 A 
ATOM     20 CL   UNL d   1       1.049  -5.253   5.552  0.00  0.00    -0.084 Cl
ATOM     21  C   UNL d   1      -0.126  -1.784   3.951  0.00  0.00     0.014 A 
ENDBRANCH   1  15
TORSDOF 3
