REMARK  10 active torsions:
REMARK  status: ('A' for Active; 'I' for Inactive)
REMARK    1  A    between atoms: N_2  and  S_1 
REMARK    2  A    between atoms: C_3  and  S_1 
REMARK    3  A    between atoms: C_6  and  N_2 
REMARK    4  A    between atoms: C_4  and  C_9 
REMARK    5  A    between atoms: C_5  and  C_8 
REMARK    6  A    between atoms: C_7  and  C_6 
REMARK    7  A    between atoms: C_23  and  C_6 
REMARK       I    between atoms: N_16  and  C_7 
REMARK    8  A    between atoms: N_24  and  N_16 
REMARK    9  A    between atoms: C_26  and  C_23 
REMARK   10  A    between atoms: S_25  and  C_26 
ROOT
ATOM      1  S   UNL d   1       1.046   0.096   0.013  0.00  0.00     0.259 S 
ATOM      2  O   UNL d   1       2.348   0.022  -0.613  0.00  0.00    -0.201 OA
ATOM      3  O   UNL d   1       0.772   0.985   1.116  0.00  0.00    -0.201 OA
ENDROOT
BRANCH   1   4
ATOM      4  N   UNL d   1       0.555  -1.436   0.488  0.00  0.00    -0.301 N 
ATOM      5  H   UNL d   1      -0.438  -1.457   0.709  0.00  0.00     0.173 HD
BRANCH   4   6
ATOM      6  C   UNL d   1       1.084  -2.641  -0.197  0.00  0.00     0.187 C 
BRANCH   6   7
ATOM      7  C   UNL d   1       2.620  -2.736  -0.160  0.00  0.00     0.255 C 
ATOM      8  O   UNL d   1       3.265  -2.887   0.877  0.00  0.00    -0.270 OA
ATOM      9  N   UNL d   1       3.221  -2.690  -1.418  0.00  0.00    -0.292 N 
ATOM     10  H   UNL d   1       2.702  -2.336  -2.217  0.00  0.00     0.183 HD
BRANCH   9  11
ATOM     11  N   UNL d   1       4.631  -2.729  -1.510  0.00  0.00    -0.247 NA
ATOM     12  H   UNL d   1       4.975  -3.129  -0.625  0.00  0.00     0.143 HD
ATOM     13  H   UNL d   1       4.968  -1.761  -1.474  0.00  0.00     0.143 HD
ENDBRANCH   9  11
ENDBRANCH   6   7
BRANCH   6  14
ATOM     14  C   UNL d   1       0.562  -3.905   0.525  0.00  0.00     0.045 C 
BRANCH  14  15
ATOM     15  C   UNL d   1      -0.952  -4.107   0.534  0.00  0.00     0.076 C 
BRANCH  15  16
ATOM     16  S   UNL d   1      -1.651  -4.114  -1.145  0.00  0.00    -0.173 SA
ATOM     17  C   UNL d   1      -3.399  -4.289  -0.716  0.00  0.00     0.089 C 
ENDBRANCH  15  16
ENDBRANCH  14  15
ENDBRANCH   6  14
ENDBRANCH   4   6
ENDBRANCH   1   4
BRANCH   1  18
ATOM     18  C   UNL d   1      -0.114   0.539  -1.280  0.00  0.00     0.081 A 
ATOM     19  C   UNL d   1      -1.271   1.256  -0.943  0.00  0.00     0.041 A 
ATOM     20  C   UNL d   1      -2.051   1.854  -1.946  0.00  0.00     0.050 A 
ATOM     21  C   UNL d   1      -1.653   1.718  -3.288  0.00  0.00     0.032 A 
ATOM     22  C   UNL d   1      -0.487   1.010  -3.636  0.00  0.00     0.050 A 
ATOM     23  C   UNL d   1       0.269   0.404  -2.619  0.00  0.00     0.041 A 
BRANCH  20  24
ATOM     24  C   UNL d   1      -3.256   2.706  -1.605  0.00  0.00     0.417 C 
ATOM     25  F   UNL d   1      -3.496   2.797  -0.269  0.00  0.00    -0.166 F 
ATOM     26  F   UNL d   1      -3.126   3.985  -2.053  0.00  0.00    -0.166 F 
ATOM     27  F   UNL d   1      -4.402   2.227  -2.161  0.00  0.00    -0.166 F 
ENDBRANCH  20  24
BRANCH  22  28
ATOM     28  C   UNL d   1      -0.013   0.995  -5.073  0.00  0.00     0.417 C 
ATOM     29  F   UNL d   1       1.157   0.320  -5.245  0.00  0.00    -0.166 F 
ATOM     30  F   UNL d   1      -0.910   0.417  -5.914  0.00  0.00    -0.166 F 
ATOM     31  F   UNL d   1       0.204   2.250  -5.552  0.00  0.00    -0.166 F 
ENDBRANCH  22  28
ENDBRANCH   1  18
TORSDOF 10
