REMARK  4 active torsions:
REMARK  status: ('A' for Active; 'I' for Inactive)
REMARK    1  A    between atoms: N_10  and  C_7 
REMARK    2  A    between atoms: C_8  and  C_9 
REMARK    3  A    between atoms: C_16  and  C_8 
REMARK    4  A    between atoms: C_17  and  N_10 
ROOT
ATOM      1  C   UNL d   1       6.821   0.206  -0.582  0.00  0.00     0.017 A 
ATOM      2  C   UNL d   1       5.419   0.270  -0.610  0.00  0.00     0.044 A 
ATOM      3  C   UNL d   1       4.728   1.230   0.142  0.00  0.00     0.032 A 
ATOM      4  C   UNL d   1       7.541   1.080   0.238  0.00  0.00     0.015 A 
ATOM      5  C   UNL d   1       6.869   2.056   0.967  0.00  0.00     0.003 A 
ATOM      6  C   UNL d   1       5.477   2.139   0.903  0.00  0.00     0.029 A 
ENDROOT
BRANCH   3   7
ATOM      7  N   UNL d   1       3.330   1.312   0.035  0.00  0.00    -0.365 N 
ATOM      8  H   UNL d   1       2.839   0.425  -0.104  0.00  0.00     0.165 HD
BRANCH   7   9
ATOM      9  C   UNL d   1       2.537   2.420   0.233  0.00  0.00     0.111 C 
ATOM     10  C   UNL d   1       1.198   2.504   0.302  0.00  0.00     0.115 A 
ATOM     11  C   UNL d   1       0.583   3.841   0.450  0.00  0.00     0.266 A 
ATOM     12  C   UNL d   1       0.340   1.303   0.220  0.00  0.00     0.266 A 
ATOM     13  N   UNL d   1      -0.784   3.850   0.457  0.00  0.00    -0.275 N 
ATOM     14  O   UNL d   1       1.226   4.881   0.553  0.00  0.00    -0.267 OA
ATOM     15  C   UNL d   1      -1.605   2.767   0.383  0.00  0.00     0.329 A 
ATOM     16  H   UNL d   1      -1.232   4.754   0.534  0.00  0.00     0.173 HD
ATOM     17  N   UNL d   1      -1.004   1.548   0.291  0.00  0.00    -0.275 N 
ATOM     18  O   UNL d   1      -2.825   2.883   0.397  0.00  0.00    -0.246 OA
ATOM     19  H   UNL d   1      -1.616   0.747   0.231  0.00  0.00     0.173 HD
ATOM     20  O   UNL d   1       0.778   0.164   0.093  0.00  0.00    -0.267 OA
ENDBRANCH   7   9
ENDBRANCH   3   7
BRANCH   1  21
ATOM     21  C   UNL d   1       7.512  -0.815  -1.413  0.00  0.00     0.192 C 
ATOM     22  O   UNL d   1       6.967  -1.902  -1.599  0.00  0.00    -0.287 OA
BRANCH  21  23
ATOM     23  C   UNL d   1       8.844  -0.551  -2.029  0.00  0.00     0.015 A 
ATOM     24  C   UNL d   1       9.236   0.738  -2.417  0.00  0.00     0.015 A 
ATOM     25  C   UNL d   1      10.487   0.945  -3.001  0.00  0.00     0.001 A 
ATOM     26  C   UNL d   1      11.341  -0.133  -3.222  0.00  0.00     0.000 A 
ATOM     27  C   UNL d   1      10.950  -1.421  -2.857  0.00  0.00     0.001 A 
ATOM     28  C   UNL d   1       9.703  -1.631  -2.263  0.00  0.00     0.015 A 
ENDBRANCH  21  23
ENDBRANCH   1  21
TORSDOF 4
