REMARK  4 active torsions:
REMARK  status: ('A' for Active; 'I' for Inactive)
REMARK    1  A    between atoms: C_10  and  N_1 
REMARK    2  A    between atoms: C_7  and  C_2 
REMARK    3  A    between atoms: O_9  and  C_7 
REMARK    4  A    between atoms: C_11  and  O_9 
ROOT
ATOM      1  N   UNL d   1       0.710  -0.188  -1.307  0.00  0.00    -0.309 N 
ATOM      2  C   UNL d   1       0.988   0.461  -0.144  0.00  0.00     0.130 A 
ATOM      3  N   UNL d   1       0.297   0.036   0.880  0.00  0.00    -0.284 N 
ATOM      4  HN  UNL d   1       0.344   0.366   1.844  1.00  0.00     0.188 HD
ATOM      5  C   UNL d   1      -0.253  -1.114  -0.977  0.00  0.00     0.194 A 
ATOM      6  N   UNL d   1      -0.499  -0.944   0.374  0.00  0.00    -0.275 N 
ATOM      7  S   UNL d   1      -1.017  -2.247  -1.913  0.00  0.00    -0.039 SA
ATOM      8  H   UNL d   1      -1.156  -1.459   0.947  0.00  0.00     0.189 HD
ENDROOT
BRANCH   2   9
ATOM      9  C   UNL d   1       2.052   1.552  -0.042  0.00  0.00     0.194 C 
ATOM     10  C   UNL d   1       3.436   0.904  -0.004  0.00  0.00     0.048 C 
BRANCH   9  11
ATOM     11  O   UNL d   1       1.841   2.300   1.161  0.00  0.00    -0.339 OA
BRANCH  11  12
ATOM     12  C   UNL d   1       2.432   3.530   1.233  0.00  0.00     0.070 A 
ATOM     13  C   UNL d   1       2.380   4.479   0.213  0.00  0.00     0.038 A 
ATOM     14  C   UNL d   1       2.983   5.728   0.392  0.00  0.00     0.026 A 
ATOM     15  C   UNL d   1       3.618   6.029   1.596  0.00  0.00     0.034 A 
ATOM     16  C   UNL d   1       3.648   5.095   2.628  0.00  0.00     0.026 A 
ATOM     17 CL   UNL d   1       4.354   7.568   1.810  0.00  0.00    -0.084 Cl
ATOM     18  C   UNL d   1       3.045   3.847   2.447  0.00  0.00     0.038 A 
ENDBRANCH  11  12
ENDBRANCH   9  11
ENDBRANCH   2   9
BRANCH   1  19
ATOM     19  C   UNL d   1       1.262   0.052  -2.639  0.00  0.00     0.128 C 
ATOM     20  C   UNL d   1       0.334   0.891  -3.504  0.00  0.00     0.027 C 
ENDBRANCH   1  19
TORSDOF 4
