REMARK  7 active torsions:
REMARK  status: ('A' for Active; 'I' for Inactive)
REMARK    1  A    between atoms: S_8  and  C_3 
REMARK    2  A    between atoms: O_14  and  C_4 
REMARK    3  A    between atoms: C_11  and  S_8 
REMARK    4  A    between atoms: C_16  and  C_9 
REMARK    5  A    between atoms: C_10  and  C_11 
REMARK    6  A    between atoms: C_13  and  C_10 
REMARK    7  A    between atoms: O_15  and  C_16 
ROOT
ATOM      1  N   UNL d   1      -0.166  -1.133   0.618  0.00  0.00    -0.318 N 
ATOM      2  HN  UNL d   1      -0.625  -1.944   1.033  1.00  0.00     0.170 HD
ATOM      3  C   UNL d   1       1.042  -1.210   0.038  0.00  0.00     0.146 A 
ATOM      4  C   UNL d   1      -0.723   0.077   0.612  0.00  0.00     0.143 A 
ATOM      5  N   UNL d   1       1.685  -0.178  -0.543  0.00  0.00    -0.338 N 
ATOM      6  HN  UNL d   1       2.600  -0.296  -0.978  1.00  0.00     0.168 HD
ATOM      7  C   UNL d   1      -0.180   1.200   0.055  0.00  0.00     0.083 A 
ATOM      8  C   UNL d   1       1.058   1.024  -0.524  0.00  0.00     0.039 A 
ENDROOT
BRANCH   3   9
ATOM      9  S   UNL d   1       1.783  -2.821  -0.019  0.00  0.00    -0.086 SA
BRANCH   9  10
ATOM     10  C   UNL d   1       3.541  -2.361   0.004  0.00  0.00     0.166 C 
BRANCH  10  11
ATOM     11  C   UNL d   1       3.928  -1.601   1.263  0.00  0.00     0.169 C 
ATOM     12  O   UNL d   1       3.349  -1.750   2.338  0.00  0.00    -0.291 OA
BRANCH  11  13
ATOM     13  C   UNL d   1       5.097  -0.666   1.212  0.00  0.00     0.010 A 
ATOM     14  C   UNL d   1       5.924  -0.537   0.090  0.00  0.00     0.015 A 
ATOM     15  C   UNL d   1       6.983   0.377   0.097  0.00  0.00     0.001 A 
ATOM     16  C   UNL d   1       7.231   1.157   1.225  0.00  0.00     0.000 A 
ATOM     17  C   UNL d   1       6.428   1.020   2.354  0.00  0.00     0.001 A 
ATOM     18  C   UNL d   1       5.367   0.113   2.348  0.00  0.00     0.015 A 
ENDBRANCH  11  13
ENDBRANCH  10  11
ENDBRANCH   9  10
ENDBRANCH   3   9
BRANCH   4  19
ATOM     19  O   UNL d   1      -1.924   0.137   1.238  0.00  0.00    -0.346 OA
ATOM     20  H   UNL d   1      -2.004  -0.782   1.553  0.00  0.00     0.219 HD
ENDBRANCH   4  19
BRANCH   8  21
ATOM     21  C   UNL d   1       1.782   2.212  -1.115  0.00  0.00     0.224 C 
BRANCH  21  22
ATOM     22  O   UNL d   1       1.970   3.263  -0.163  0.00  0.00    -0.390 OA
ATOM     23  C   UNL d   1       2.892   2.911   0.865  0.00  0.00     0.201 C 
ENDBRANCH  21  22
ENDBRANCH   8  21
TORSDOF 7
