REMARK  6 active torsions:
REMARK  status: ('A' for Active; 'I' for Inactive)
REMARK    1  A    between atoms: C_2  and  C_1 
REMARK       I    between atoms: N_7  and  C_2 
REMARK    2  A    between atoms: O_15  and  C_3 
REMARK       I    between atoms: C_5  and  N_8 
REMARK    3  A    between atoms: C_11  and  C_5 
REMARK    4  A    between atoms: N_8  and  N_7 
REMARK    5  A    between atoms: C_9  and  C_14 
REMARK    6  A    between atoms: C_20  and  O_15 
ROOT
ATOM      1  C   UNL d   1      -0.097   1.174  -0.089  0.00  0.00     0.147 A 
ATOM      2  C   UNL d   1      -0.144  -1.032  -0.069  0.00  0.00     0.191 A 
ATOM      3  O   UNL d   1      -0.937   0.085  -0.039  0.00  0.00    -0.282 OA
ATOM      4  C   UNL d   1       1.213   0.736  -0.181  0.00  0.00     0.048 A 
ATOM      5  C   UNL d   1       1.181  -0.674  -0.195  0.00  0.00     0.067 A 
ENDROOT
BRANCH   1   6
ATOM      6  C   UNL d   1      -0.598   2.536  -0.035  0.00  0.00     0.293 C 
ATOM      7  N   UNL d   1      -1.968   2.697   0.061  0.00  0.00    -0.262 N 
ATOM      8  H   UNL d   1      -2.625   1.920   0.068  0.00  0.00     0.190 HD
ATOM      9  O   UNL d   1       0.145   3.521  -0.072  0.00  0.00    -0.264 OA
BRANCH   7  10
ATOM     10  N   UNL d   1      -2.492   4.013   0.093  0.00  0.00    -0.267 N 
ATOM     11  C   UNL d   1      -3.857   4.179   0.044  0.00  0.00     0.243 C 
ATOM     12  O   UNL d   1      -4.622   3.210   0.047  0.00  0.00    -0.271 OA
ATOM     13  H   UNL d   1      -1.818   4.769   0.017  0.00  0.00     0.190 HD
BRANCH  11  14
ATOM     14  C   UNL d   1      -4.363   5.645  -0.018  0.00  0.00     0.032 C 
ATOM     15  C   UNL d   1      -3.834   6.339  -1.280  0.00  0.00     0.025 C 
ATOM     16  C   UNL d   1      -5.903   5.640  -0.070  0.00  0.00     0.025 C 
ATOM     17  C   UNL d   1      -3.920   6.429   1.224  0.00  0.00     0.025 C 
ENDBRANCH  11  14
ENDBRANCH   7  10
ENDBRANCH   1   6
BRANCH   2  18
ATOM     18  O   UNL d   1      -0.794  -2.196   0.041  0.00  0.00    -0.288 OA
BRANCH  18  19
ATOM     19  C   UNL d   1      -0.181  -3.281   0.639  0.00  0.00     0.078 A 
ATOM     20  C   UNL d   1       0.624  -3.148   1.773  0.00  0.00     0.038 A 
ATOM     21  C   UNL d   1       1.157  -4.278   2.399  0.00  0.00     0.012 A 
ATOM     22  C   UNL d   1       0.872  -5.571   1.931  0.00  0.00    -0.035 A 
ATOM     23  C   UNL d   1       0.063  -5.694   0.785  0.00  0.00     0.012 A 
ATOM     24  C   UNL d   1      -0.462  -4.556   0.148  0.00  0.00     0.038 A 
BRANCH  22  25
ATOM     25  C   UNL d   1       1.360  -6.761   2.733  0.00  0.00     0.141 C 
ATOM     26  S   UNL d   1       2.295  -7.993   1.786  0.00  0.00    -0.148 SA
ATOM     27  C   UNL d   1       1.845  -9.390   2.847  0.00  0.00     0.085 C 
ATOM     28  C   UNL d   1       0.352  -9.277   3.087  0.00  0.00     0.085 C 
ATOM     29  S   UNL d   1      -0.011  -7.582   3.622  0.00  0.00    -0.148 SA
ENDBRANCH  22  25
ENDBRANCH  18  19
ENDBRANCH   2  18
TORSDOF 6
