REMARK  6 active torsions:
REMARK  status: ('A' for Active; 'I' for Inactive)
REMARK    1  A    between atoms: C_5  and  C_1 
REMARK    2  A    between atoms: C_4  and  C_2 
REMARK    3  A    between atoms: N_10  and  C_3 
REMARK    4  A    between atoms: C_8  and  C_4 
REMARK    5  A    between atoms: O_20  and  C_5 
REMARK    6  A    between atoms: C_6  and  N_10 
ROOT
ATOM      1  C   UNL d   1       3.657   4.148  -0.252  0.00  0.00     0.112 C 
ATOM      2  C   UNL d   1       2.610   3.300  -0.246  0.00  0.00     0.115 C 
ATOM      3  C   UNL d   1       3.481   5.557  -0.191  0.00  0.00     0.105 C 
ATOM      4  N   UNL d   1       3.284   6.698  -0.177  0.00  0.00    -0.191 NA
ENDROOT
BRANCH   1   5
ATOM      5  C   UNL d   1       5.027   3.553  -0.392  0.00  0.00     0.227 C 
ATOM      6  O   UNL d   1       5.151   2.428  -0.883  0.00  0.00    -0.284 OA
BRANCH   5   7
ATOM      7  C   UNL d   1       6.180   4.314   0.045  0.00  0.00     0.126 A 
ATOM      8  O   UNL d   1       6.043   5.286   0.998  0.00  0.00    -0.319 OA
ATOM      9  C   UNL d   1       7.276   5.808   1.223  0.00  0.00     0.142 A 
ATOM     10  C   UNL d   1       8.213   5.184   0.436  0.00  0.00     0.027 A 
ATOM     11  C   UNL d   1       7.513   4.205  -0.308  0.00  0.00     0.043 A 
ENDBRANCH   5   7
ENDBRANCH   1   5
BRANCH   2  12
ATOM     12  N   UNL d   1       1.262   3.552  -0.092  0.00  0.00    -0.363 N 
ATOM     13  H   UNL d   1       1.062   4.551   0.004  0.00  0.00     0.165 HD
BRANCH  12  14
ATOM     14  C   UNL d   1       0.180   2.716  -0.022  0.00  0.00     0.055 A 
ATOM     15  C   UNL d   1       0.069   1.329  -0.089  0.00  0.00     0.106 A 
ATOM     16  S   UNL d   1      -1.595   0.839  -0.039  0.00  0.00    -0.094 SA
ATOM     17  C   UNL d   1      -2.151   2.433   0.123  0.00  0.00     0.053 A 
ATOM     18  C   UNL d   1      -1.113   3.332   0.117  0.00  0.00     0.038 A 
BRANCH  15  19
ATOM     19  C   UNL d   1       1.009   0.228  -0.209  0.00  0.00     0.302 C 
ATOM     20  O   UNL d   1       0.827  -0.792  -0.869  0.00  0.00    -0.259 OA
BRANCH  19  21
ATOM     21  O   UNL d   1       2.108   0.429   0.571  0.00  0.00    -0.322 OA
ATOM     22  C   UNL d   1       3.135  -0.560   0.433  0.00  0.00     0.213 C 
ENDBRANCH  19  21
ENDBRANCH  15  19
ENDBRANCH  12  14
ENDBRANCH   2  12
TORSDOF 6
