REMARK  4 active torsions:
REMARK  status: ('A' for Active; 'I' for Inactive)
REMARK    1  A    between atoms: N_12  and  N_1 
REMARK    2  A    between atoms: C_7  and  C_2 
REMARK    3  A    between atoms: C_3  and  N_5 
REMARK    4  A    between atoms: N_16  and  C_4 
ROOT
ATOM      1  C   UNL d   1       4.527  -1.588  -0.331  0.00  0.00     0.145 C 
ATOM      2  C   UNL d   1       5.652  -1.109   0.258  0.00  0.00     0.125 C 
ATOM      3  C   UNL d   1       4.583  -2.766  -1.155  0.00  0.00     0.120 C 
ATOM      4  C   UNL d   1       6.921  -1.770   0.135  0.00  0.00     0.114 C 
ATOM      5  N   UNL d   1       4.593  -3.725  -1.807  0.00  0.00    -0.190 NA
ATOM      6  N   UNL d   1       7.953  -2.291   0.068  0.00  0.00    -0.190 NA
ENDROOT
BRANCH   1   7
ATOM      7  N   UNL d   1       3.361  -0.848  -0.200  0.00  0.00    -0.353 N 
ATOM      8  C   UNL d   1       2.220  -1.459  -0.140  0.00  0.00     0.120 C 
ATOM      9  HN  UNL d   1       3.401   0.171  -0.151  1.00  0.00     0.166 HD
BRANCH   8  10
ATOM     10  C   UNL d   1       1.026  -0.654  -0.050  0.00  0.00     0.066 A 
ATOM     11  N   UNL d   1      -0.259  -1.125   0.124  0.00  0.00    -0.286 N 
ATOM     12  C   UNL d   1      -1.134  -0.066   0.134  0.00  0.00     0.111 A 
ATOM     13  C   UNL d   1      -0.416   1.098  -0.013  0.00  0.00     0.021 A 
ATOM     14  C   UNL d   1       0.941   0.731  -0.113  0.00  0.00     0.034 A 
BRANCH  11  15
ATOM     15  N   UNL d   1      -0.596  -2.508   0.338  0.00  0.00    -0.233 NA
ATOM     16  C   UNL d   1      -1.814  -2.914  -0.366  0.00  0.00     0.136 C 
ATOM     17  C   UNL d   1      -0.711  -2.796   1.768  0.00  0.00     0.136 C 
ENDBRANCH  11  15
ENDBRANCH   8  10
ENDBRANCH   1   7
BRANCH   2  18
ATOM     18  N   UNL d   1       5.691   0.059   1.025  0.00  0.00    -0.291 NA
ATOM     19  H   UNL d   1       4.748   0.367   1.271  0.00  0.00     0.125 HD
ATOM     20  H   UNL d   1       6.322   0.013   1.822  0.00  0.00     0.125 HD
ENDBRANCH   2  18
TORSDOF 4
