REMARK  4 active torsions:
REMARK  status: ('A' for Active; 'I' for Inactive)
REMARK       I    between atoms: N_2  and  C_1 
REMARK    1  A    between atoms: O_3  and  C_1 
REMARK    2  A    between atoms: C_7  and  N_2 
REMARK    3  A    between atoms: C_5  and  O_3 
REMARK    4  A    between atoms: S_8  and  C_6 
ROOT
ATOM      1  C   UNL d   1       0.985   0.085  -0.075  0.00  0.00     0.370 C 
ATOM      2  N   UNL d   1       2.196  -0.293   0.448  0.00  0.00    -0.302 N 
ATOM      3  O   UNL d   1       0.654   1.219  -0.395  0.00  0.00    -0.238 OA
ATOM      4  H   UNL d   1       2.344  -1.291   0.503  0.00  0.00     0.171 HD
ENDROOT
BRANCH   1   5
ATOM      5  O   UNL d   1       0.170  -1.042  -0.207  0.00  0.00    -0.261 OA
BRANCH   5   6
ATOM      6  C   UNL d   1      -1.212  -0.963  -0.502  0.00  0.00     0.081 A 
ATOM      7  C   UNL d   1      -1.989   0.173  -0.283  0.00  0.00     0.039 A 
ATOM      8  C   UNL d   1      -3.366   0.135  -0.524  0.00  0.00     0.021 A 
ATOM      9  C   UNL d   1      -3.984  -1.043  -0.948  0.00  0.00    -0.000 A 
ATOM     10  C   UNL d   1      -3.191  -2.175  -1.178  0.00  0.00     0.021 A 
ATOM     11  C   UNL d   1      -1.809  -2.139  -0.953  0.00  0.00     0.039 A 
BRANCH   9  12
ATOM     12  S   UNL d   1      -5.744  -1.169  -1.235  0.00  0.00    -0.134 SA
ATOM     13  C   UNL d   1      -6.409  -0.034   0.017  0.00  0.00     0.095 C 
ENDBRANCH   9  12
ENDBRANCH   5   6
ENDBRANCH   1   5
BRANCH   2  14
ATOM     14  C   UNL d   1       3.236   0.558   0.871  0.00  0.00     0.036 A 
ATOM     15  C   UNL d   1       3.078   1.938   1.033  0.00  0.00     0.029 A 
ATOM     16  C   UNL d   1       4.146   2.734   1.454  0.00  0.00     0.002 A 
ATOM     17  C   UNL d   1       5.386   2.157   1.714  0.00  0.00     0.000 A 
ATOM     18  C   UNL d   1       5.550   0.781   1.572  0.00  0.00     0.002 A 
ATOM     19  C   UNL d   1       4.476  -0.018   1.163  0.00  0.00     0.029 A 
ENDBRANCH   2  14
TORSDOF 4
