REMARK  5 active torsions:
REMARK  status: ('A' for Active; 'I' for Inactive)
REMARK    1  A    between atoms: N_2  and  C_1 
REMARK    2  A    between atoms: N_5  and  N_2 
REMARK       I    between atoms: C_6  and  N_5 
REMARK    3  A    between atoms: C_12  and  C_6 
REMARK    4  A    between atoms: C_15  and  C_12 
REMARK    5  A    between atoms: C_16  and  C_15 
ROOT
ATOM      1  N   UNL d   1      -1.187  -3.124   0.393  0.00  0.00    -0.270 N 
ATOM      2  C   UNL d   1      -1.157  -4.381  -0.172  0.00  0.00     0.236 C 
ATOM      3  O   UNL d   1      -0.131  -4.798  -0.703  0.00  0.00    -0.272 OA
ATOM      4  H   UNL d   1      -0.349  -2.549   0.355  0.00  0.00     0.190 HD
ENDROOT
BRANCH   1   5
ATOM      5  N   UNL d   1      -2.291  -2.686   1.099  0.00  0.00    -0.295 N 
ATOM      6  H   UNL d   1      -2.409  -3.138   2.011  0.00  0.00     0.187 HD
BRANCH   5   7
ATOM      7  C   UNL d   1      -2.606  -1.301   1.153  0.00  0.00     0.094 A 
ATOM      8  C   UNL d   1      -2.173  -0.306   0.258  0.00  0.00     0.079 A 
ATOM      9 CL   UNL d   1      -1.042  -0.561  -1.023  0.00  0.00    -0.080 Cl
ATOM     10  C   UNL d   1      -2.670   0.990   0.402  0.00  0.00     0.114 A 
ATOM     11  N   UNL d   1      -3.573   1.373   1.336  0.00  0.00    -0.372 N 
ATOM     12  C   UNL d   1      -4.012   0.407   2.165  0.00  0.00     0.114 A 
ATOM     13  HN  UNL d   1      -3.901   2.336   1.407  1.00  0.00     0.164 HD
ATOM     14  C   UNL d   1      -3.573  -0.910   2.111  0.00  0.00     0.079 A 
ATOM     15 CL   UNL d   1      -4.231  -2.046   3.240  0.00  0.00    -0.080 Cl
ENDBRANCH   5   7
ENDBRANCH   1   5
BRANCH   2  16
ATOM     16  C   UNL d   1      -2.454  -5.171  -0.142  0.00  0.00     0.109 C 
BRANCH  16  17
ATOM     17  C   UNL d   1      -2.207  -6.672  -0.235  0.00  0.00     0.048 C 
BRANCH  17  18
ATOM     18  C   UNL d   1      -3.511  -7.432  -0.222  0.00  0.00    -0.058 A 
ATOM     19  C   UNL d   1      -4.170  -7.720  -1.424  0.00  0.00     0.007 A 
ATOM     20  C   UNL d   1      -5.383  -8.408  -1.419  0.00  0.00     0.001 A 
ATOM     21  C   UNL d   1      -5.954  -8.808  -0.213  0.00  0.00     0.000 A 
ATOM     22  C   UNL d   1      -5.317  -8.511   0.991  0.00  0.00     0.001 A 
ATOM     23  C   UNL d   1      -4.102  -7.823   0.988  0.00  0.00     0.007 A 
ENDBRANCH  17  18
ENDBRANCH  16  17
ENDBRANCH   2  16
TORSDOF 5
