REMARK  12 active torsions:
REMARK  status: ('A' for Active; 'I' for Inactive)
REMARK    1  A    between atoms: N_7  and  C_1 
REMARK    2  A    between atoms: C_17  and  C_6 
REMARK    3  A    between atoms: C_18  and  N_7 
REMARK    4  A    between atoms: O_10  and  C_12 
REMARK    5  A    between atoms: C_14  and  O_10 
REMARK    6  A    between atoms: C_11  and  C_16 
REMARK    7  A    between atoms: C_12  and  C_11 
REMARK    8  A    between atoms: O_15  and  C_11 
REMARK    9  A    between atoms: N_13  and  C_19 
REMARK   10  A    between atoms: C_16  and  N_13 
REMARK   11  A    between atoms: C_22  and  C_17 
REMARK   12  A    between atoms: C_19  and  C_18 
ROOT
ATOM      1  C   UNL d   1      -0.649   4.972   0.061  0.00  0.00     0.284 C 
ENDROOT
BRANCH   1   2
ATOM      2  N   UNL d   1      -1.819   5.850  -0.094  0.00  0.00     0.087 N 
ATOM      3  H   UNL d   1      -2.264   5.693  -0.999  0.00  0.00     0.316 HD
BRANCH   2   4
ATOM      4  C   UNL d   1      -2.808   5.696   0.981  0.00  0.00     0.303 C 
BRANCH   4   5
ATOM      5  C   UNL d   1      -4.034   6.614   0.780  0.00  0.00     0.170 C 
BRANCH   5   6
ATOM      6  C   UNL d   1      -5.045   6.407   1.921  0.00  0.00     0.209 C 
BRANCH   6   7
ATOM      7  O   UNL d   1      -6.208   7.186   1.636  0.00  0.00    -0.349 OA
BRANCH   7   8
ATOM      8  C   UNL d   1      -7.173   7.251   2.597  0.00  0.00     0.068 A 
ATOM      9  C   UNL d   1      -7.240   6.475   3.755  0.00  0.00     0.037 A 
ATOM     10  C   UNL d   1      -8.306   6.637   4.646  0.00  0.00     0.003 A 
ATOM     11  C   UNL d   1      -9.307   7.573   4.384  0.00  0.00     0.000 A 
ATOM     12  C   UNL d   1      -9.242   8.348   3.229  0.00  0.00     0.003 A 
ATOM     13  C   UNL d   1      -8.181   8.184   2.340  0.00  0.00     0.037 A 
ENDBRANCH   7   8
ENDBRANCH   6   7
ENDBRANCH   5   6
BRANCH   5  14
ATOM     14  O   UNL d   1      -3.633   7.990   0.727  0.00  0.00    -0.392 OA
ATOM     15  H   UNL d   1      -2.960   8.132   1.412  0.00  0.00     0.210 HD
ENDBRANCH   5  14
ENDBRANCH   4   5
ENDBRANCH   2   4
ENDBRANCH   1   2
BRANCH   1  16
ATOM     16  C   UNL d   1      -0.963   3.465   0.044  0.00  0.00     0.125 C 
BRANCH  16  17
ATOM     17  N   UNL d   1       0.243   2.670   0.197  0.00  0.00    -0.262 NA
ATOM     18  H   UNL d   1       0.964   2.799  -0.505  0.00  0.00     0.130 HD
BRANCH  17  19
ATOM     19  C   UNL d   1      -0.023   1.301   0.215  0.00  0.00     0.156 A 
ATOM     20  N   UNL d   1       0.922   0.507  -0.297  0.00  0.00    -0.342 N 
ATOM     21  C   UNL d   1       0.653  -0.813  -0.335  0.00  0.00     0.099 A 
ATOM     22  HN  UNL d   1       1.805   0.882  -0.643  1.00  0.00     0.167 HD
ATOM     23  C   UNL d   1      -0.531  -1.372   0.098  0.00  0.00    -0.027 A 
ATOM     24  C   UNL d   1      -1.426  -0.470   0.621  0.00  0.00     0.099 A 
ATOM     25  N   UNL d   1      -1.197   0.852   0.689  0.00  0.00    -0.342 N 
ATOM     26  HN  UNL d   1      -1.887   1.489   1.085  1.00  0.00     0.167 HD
BRANCH  23  27
ATOM     27  C   UNL d   1      -0.825  -2.837  -0.010  0.00  0.00     0.041 C 
BRANCH  27  28
ATOM     28  C   UNL d   1      -2.038  -3.159  -0.891  0.00  0.00     0.000 C 
ATOM     29  C   UNL d   1      -1.865  -2.718  -2.338  0.00  0.00     0.005 C 
ENDBRANCH  27  28
ENDBRANCH  23  27
ENDBRANCH  17  19
ENDBRANCH  16  17
ENDBRANCH   1  16
TORSDOF 12
