REMARK  5 active torsions:
REMARK  status: ('A' for Active; 'I' for Inactive)
REMARK    1  A    between atoms: C_2  and  S_1 
REMARK    2  A    between atoms: N_3  and  S_1 
REMARK    3  A    between atoms: C_8  and  C_11 
REMARK    4  A    between atoms: C_14  and  C_8 
REMARK    5  A    between atoms: C_15  and  C_8 
ROOT
ATOM      1  N   UNL d   1       0.466  -0.055   1.540  0.00  0.00    -0.206 NA
ATOM      2  C   UNL d   1      -0.353   1.139   1.879  0.00  0.00     0.108 C 
ATOM      3  C   UNL d   1      -0.197  -1.348   1.847  0.00  0.00     0.108 C 
ATOM      4  C   UNL d   1      -1.554  -0.190   3.687  0.00  0.00     0.001 C 
ATOM      5  C   UNL d   1      -0.757   1.086   3.346  0.00  0.00     0.021 C 
ATOM      6  C   UNL d   1      -0.646  -1.383   3.310  0.00  0.00     0.021 C 
ENDROOT
BRANCH   4   7
ATOM      7  C   UNL d   1      -2.967  -0.280   3.003  0.00  0.00     0.056 C 
BRANCH   7   8
ATOM      8  C   UNL d   1      -3.733  -1.535   3.432  0.00  0.00    -0.049 A 
ATOM      9  C   UNL d   1      -4.053  -1.772   4.779  0.00  0.00     0.008 A 
ATOM     10  C   UNL d   1      -4.799  -2.892   5.150  0.00  0.00     0.001 A 
ATOM     11  C   UNL d   1      -5.236  -3.792   4.181  0.00  0.00     0.000 A 
ATOM     12  C   UNL d   1      -4.917  -3.579   2.842  0.00  0.00     0.001 A 
ATOM     13  C   UNL d   1      -4.171  -2.459   2.468  0.00  0.00     0.008 A 
ENDBRANCH   7   8
BRANCH   7  14
ATOM     14  C   UNL d   1      -3.866   0.951   3.143  0.00  0.00    -0.049 A 
ATOM     15  C   UNL d   1      -4.743   1.278   2.092  0.00  0.00     0.008 A 
ATOM     16  C   UNL d   1      -5.593   2.382   2.180  0.00  0.00     0.001 A 
ATOM     17  C   UNL d   1      -5.585   3.176   3.324  0.00  0.00     0.000 A 
ATOM     18  C   UNL d   1      -4.742   2.853   4.384  0.00  0.00     0.001 A 
ATOM     19  C   UNL d   1      -3.899   1.743   4.301  0.00  0.00     0.008 A 
ENDBRANCH   7  14
ENDBRANCH   4   7
BRANCH   1  20
ATOM     20  S   UNL d   1       1.199   0.008  -0.005  0.00  0.00     0.245 S 
ATOM     21  O   UNL d   1       1.801  -1.271  -0.311  0.00  0.00    -0.206 OA
ATOM     22  O   UNL d   1       0.234   0.600  -0.908  0.00  0.00    -0.206 OA
BRANCH  20  23
ATOM     23  C   UNL d   1       2.518   1.165   0.237  0.00  0.00     0.098 A 
ATOM     24  C   UNL d   1       2.514   2.348  -0.519  0.00  0.00     0.050 A 
ATOM     25  C   UNL d   1       3.541   3.275  -0.353  0.00  0.00     0.035 A 
ATOM     26 CL   UNL d   1       3.533   4.733  -1.264  0.00  0.00    -0.084 Cl
ATOM     27  C   UNL d   1       4.573   3.031   0.548  0.00  0.00     0.025 A 
ATOM     28  C   UNL d   1       4.579   1.849   1.292  0.00  0.00     0.027 A 
ATOM     29  C   UNL d   1       3.551   0.909   1.144  0.00  0.00     0.057 A 
ATOM     30 CL   UNL d   1       3.654  -0.502   2.132  0.00  0.00    -0.083 Cl
ENDBRANCH  20  23
ENDBRANCH   1  20
TORSDOF 5
