REMARK  2 active torsions:
REMARK  status: ('A' for Active; 'I' for Inactive)
REMARK    1  A    between atoms: C_4  and  C_3 
REMARK    2  A    between atoms: C_10  and  C_5 
ROOT
ATOM      1  N   UNL d   1       0.228   0.933   0.813  0.00  0.00    -0.347 N 
ATOM      2  HN  UNL d   1       0.184   1.638   1.548  1.00  0.00     0.167 HD
ATOM      3  C   UNL d   1       1.296   0.746  -0.047  0.00  0.00     0.074 A 
ATOM      4  C   UNL d   1      -0.728   0.062   0.541  0.00  0.00     0.091 A 
ATOM      5  S   UNL d   1      -0.351  -1.056  -0.717  0.00  0.00    -0.081 SA
ATOM      6  C   UNL d   1       1.159  -0.288  -0.947  0.00  0.00     0.084 A 
ENDROOT
BRANCH   3   7
ATOM      7  C   UNL d   1       2.508   1.610  -0.015  0.00  0.00     0.104 A 
ATOM      8  O   UNL d   1       3.539   1.527  -0.909  0.00  0.00    -0.308 OA
ATOM      9  C   UNL d   1       4.446   2.483  -0.571  0.00  0.00     0.086 A 
ATOM     10  C   UNL d   1       5.635   2.742  -1.248  0.00  0.00     0.038 A 
ATOM     11  C   UNL d   1       4.022   3.175   0.556  0.00  0.00     0.001 A 
ATOM     12  C   UNL d   1       6.438   3.764  -0.729  0.00  0.00     0.003 A 
ATOM     13  C   UNL d   1       6.054   4.474   0.411  0.00  0.00     0.001 A 
ATOM     14  C   UNL d   1       4.846   4.193   1.067  0.00  0.00     0.014 A 
ATOM     15  C   UNL d   1       2.764   2.612   0.901  0.00  0.00     0.054 A 
ENDBRANCH   3   7
BRANCH   4  16
ATOM     16  C   UNL d   1      -1.995   0.092   1.240  0.00  0.00     0.038 A 
ATOM     17  S   UNL d   1      -3.271  -1.024   0.956  0.00  0.00    -0.099 SA
ATOM     18  C   UNL d   1      -4.300  -0.260   2.084  0.00  0.00     0.050 A 
ATOM     19  C   UNL d   1      -3.693   0.816   2.687  0.00  0.00     0.008 A 
ATOM     20  C   UNL d   1      -2.365   1.014   2.206  0.00  0.00     0.022 A 
ENDBRANCH   4  16
TORSDOF 2
