REMARK  5 active torsions:
REMARK  status: ('A' for Active; 'I' for Inactive)
REMARK    1  A    between atoms: N_2  and  S_1 
REMARK    2  A    between atoms: C_9  and  S_1 
REMARK       I    between atoms: C_4  and  N_2 
REMARK       I    between atoms: N_6  and  C_4 
REMARK    3  A    between atoms: C_5  and  S_8 
REMARK    4  A    between atoms: C_14  and  N_6 
REMARK    5  A    between atoms: S_8  and  C_15 
ROOT
ATOM      1  N   UNL d   1       1.247   0.111  -1.356  0.00  0.00    -0.265 N 
ATOM      2  HN  UNL d   1       2.050   0.495  -0.858  1.00  0.00     0.180 HD
ATOM      3  C   UNL d   1       1.024   0.488  -2.672  0.00  0.00     0.332 C 
ATOM      4  N   UNL d   1       1.935   1.433  -3.050  0.00  0.00    -0.308 N 
ATOM      5  O   UNL d   1       0.155   0.016  -3.389  0.00  0.00    -0.246 OA
ATOM      6  H   UNL d   1       2.642   1.553  -2.339  0.00  0.00     0.170 HD
ENDROOT
BRANCH   1   7
ATOM      7  S   UNL d   1       0.315  -0.871  -0.629  0.00  0.00     0.056 S 
ATOM      8  O   UNL d   1       0.148  -2.278  -0.954  0.00  0.00    -0.245 OA
ATOM      9  C   UNL d   1       0.784  -0.830   1.085  0.00  0.00     0.142 C 
BRANCH   7  10
ATOM     10  C   UNL d   1      -1.309  -0.135  -0.665  0.00  0.00     0.038 A 
ATOM     11  C   UNL d   1      -2.283  -0.696  -1.497  0.00  0.00     0.022 A 
ATOM     12  C   UNL d   1      -3.538  -0.096  -1.586  0.00  0.00     0.001 A 
ATOM     13  C   UNL d   1      -3.818   1.049  -0.839  0.00  0.00     0.000 A 
ATOM     14  C   UNL d   1      -2.842   1.602  -0.007  0.00  0.00     0.001 A 
ATOM     15  C   UNL d   1      -1.579   1.014   0.080  0.00  0.00     0.022 A 
ENDBRANCH   7  10
ENDBRANCH   1   7
BRANCH   4  16
ATOM     16  C   UNL d   1       2.115   2.001  -4.313  0.00  0.00     0.036 A 
ATOM     17  C   UNL d   1       1.156   1.938  -5.324  0.00  0.00     0.031 A 
ATOM     18  C   UNL d   1       1.465   2.376  -6.612  0.00  0.00     0.021 A 
ATOM     19  C   UNL d   1       2.743   2.858  -6.903  0.00  0.00     0.009 A 
ATOM     20  C   UNL d   1       3.662   3.033  -5.867  0.00  0.00     0.021 A 
ATOM     21  C   UNL d   1       3.344   2.616  -4.572  0.00  0.00     0.031 A 
BRANCH  19  22
ATOM     22  S   UNL d   1       3.222   3.184  -8.582  0.00  0.00    -0.016 SA
BRANCH  22  23
ATOM     23  C   UNL d   1       3.216   1.500  -9.237  0.00  0.00     0.448 C 
ATOM     24  F   UNL d   1       2.790   0.566  -8.354  0.00  0.00    -0.160 F 
ATOM     25  F   UNL d   1       2.409   1.415 -10.323  0.00  0.00    -0.160 F 
ATOM     26  F   UNL d   1       4.459   1.132  -9.631  0.00  0.00    -0.160 F 
ENDBRANCH  22  23
ENDBRANCH  19  22
ENDBRANCH   4  16
TORSDOF 5
