REMARK  6 active torsions:
REMARK  status: ('A' for Active; 'I' for Inactive)
REMARK    1  A    between atoms: N_3  and  S_1 
REMARK    2  A    between atoms: C_10  and  S_1 
REMARK    3  A    between atoms: S_2  and  N_8 
REMARK    4  A    between atoms: C_11  and  S_2 
REMARK    5  A    between atoms: C_4  and  N_3 
REMARK    6  A    between atoms: N_8  and  C_21 
ROOT
ATOM      1  C   UNL d   1       0.372  -0.823  -1.394  0.00  0.00     0.075 A 
ATOM      2  C   UNL d   1       0.635  -2.196  -1.469  0.00  0.00     0.027 A 
ATOM      3  C   UNL d   1      -0.356  -0.185  -2.401  0.00  0.00     0.027 A 
ATOM      4  C   UNL d   1      -0.480  -2.277  -3.612  0.00  0.00     0.042 A 
ATOM      5  C   UNL d   1       0.212  -2.924  -2.587  0.00  0.00     0.031 A 
ATOM      6  C   UNL d   1      -0.769  -0.915  -3.517  0.00  0.00     0.031 A 
ENDROOT
BRANCH   1   7
ATOM      7  S   UNL d   1       0.901   0.094   0.032  0.00  0.00     0.247 S 
ATOM      8  O   UNL d   1       0.074   1.280   0.120  0.00  0.00    -0.205 OA
ATOM      9  O   UNL d   1       1.000  -0.811   1.158  0.00  0.00    -0.205 OA
BRANCH   7  10
ATOM     10  N   UNL d   1       2.434   0.649  -0.400  0.00  0.00    -0.165 NA
ATOM     11  H   UNL d   1       2.510   1.614  -0.086  0.00  0.00     0.147 HD
BRANCH  10  12
ATOM     12  C   UNL d   1       3.521  -0.166  -0.132  0.00  0.00     0.110 A 
ATOM     13  N   UNL d   1       3.971  -1.036  -1.033  0.00  0.00    -0.288 N 
ATOM     14  N   UNL d   1       5.059  -1.570  -0.450  0.00  0.00    -0.306 N 
ATOM     15  HN  UNL d   1       3.581  -1.249  -1.952  1.00  0.00     0.188 HD
ATOM     16  C   UNL d   1       5.868  -2.531  -1.160  0.00  0.00     0.177 C 
ATOM     17  C   UNL d   1       5.294  -1.086   0.804  0.00  0.00     0.113 A 
ATOM     18  C   UNL d   1       4.322  -0.138   1.027  0.00  0.00     0.063 A 
ENDBRANCH  10  12
ENDBRANCH   7  10
ENDBRANCH   1   7
BRANCH   4  19
ATOM     19  N   UNL d   1      -0.761  -2.931  -4.832  0.00  0.00    -0.281 N 
ATOM     20  H   UNL d   1      -0.057  -2.947  -5.567  0.00  0.00     0.179 HD
BRANCH  19  21
ATOM     21  S   UNL d   1      -2.045  -3.978  -5.020  0.00  0.00     0.263 S 
ATOM     22  O   UNL d   1      -1.973  -4.460  -6.385  0.00  0.00    -0.200 OA
ATOM     23  O   UNL d   1      -2.078  -4.902  -3.905  0.00  0.00    -0.200 OA
BRANCH  21  24
ATOM     24  C   UNL d   1      -3.466  -2.913  -4.909  0.00  0.00     0.080 A 
ATOM     25  C   UNL d   1      -3.925  -2.238  -6.048  0.00  0.00     0.027 A 
ATOM     26  C   UNL d   1      -5.094  -1.476  -5.972  0.00  0.00     0.025 A 
ATOM     27  C   UNL d   1      -5.799  -1.401  -4.769  0.00  0.00     0.034 A 
ATOM     28  C   UNL d   1      -5.341  -2.072  -3.636  0.00  0.00     0.025 A 
ATOM     29 CL   UNL d   1      -7.257  -0.491  -4.689  0.00  0.00    -0.084 Cl
ATOM     30  C   UNL d   1      -4.173  -2.835  -3.704  0.00  0.00     0.027 A 
ENDBRANCH  21  24
ENDBRANCH  19  21
ENDBRANCH   4  19
TORSDOF 6
