REMARK  3 active torsions:
REMARK  status: ('A' for Active; 'I' for Inactive)
REMARK       I    between atoms: N_2  and  C_1 
REMARK       I    between atoms: N_3  and  C_1 
REMARK    1  A    between atoms: C_5  and  N_3 
REMARK    2  A    between atoms: C_6  and  C_10 
REMARK    3  A    between atoms: C_10  and  N_8 
ROOT
ATOM      1  C   UNL d   1       0.984  -0.523  -0.121  0.00  0.00     0.323 C 
ATOM      2  N   UNL d   1       0.310   0.147  -1.142  0.00  0.00    -0.332 N 
ATOM      3  N   UNL d   1       1.692  -1.629  -0.545  0.00  0.00    -0.307 N 
ATOM      4  N   UNL d   1      -2.011   1.295  -2.907  0.00  0.00     0.094 N 
ATOM      5  O   UNL d   1       0.880  -0.192   1.060  0.00  0.00    -0.247 OA
ATOM      6  C   UNL d   1      -0.628   1.194  -0.729  0.00  0.00     0.157 C 
ATOM      7  C   UNL d   1      -1.986   1.153  -1.445  0.00  0.00     0.292 C 
ATOM      8  C   UNL d   1      -0.001  -0.193  -3.623  0.00  0.00     0.050 C 
ATOM      9  C   UNL d   1       0.881   0.286  -2.477  0.00  0.00     0.129 C 
ATOM     10  C   UNL d   1      -1.505   0.098  -3.577  0.00  0.00     0.274 C 
ATOM     11  H   UNL d   1       1.249  -2.107  -1.320  0.00  0.00     0.170 HD
ENDROOT
BRANCH   3  12
ATOM     12  C   UNL d   1       2.369  -2.470   0.377  0.00  0.00     0.059 A 
ATOM     13  C   UNL d   1       2.247  -3.867   0.272  0.00  0.00     0.082 A 
ATOM     14  C   UNL d   1       2.812  -4.685   1.260  0.00  0.00     0.058 A 
ATOM     15 CL   UNL d   1       1.335  -4.540  -1.046  0.00  0.00    -0.080 Cl
ATOM     16 CL   UNL d   1       2.619  -6.403   1.263  0.00  0.00    -0.082 Cl
ATOM     17  C   UNL d   1       3.540  -4.118   2.312  0.00  0.00     0.026 A 
ATOM     18  C   UNL d   1       3.716  -2.738   2.378  0.00  0.00     0.004 A 
ATOM     19  C   UNL d   1       3.132  -1.918   1.415  0.00  0.00     0.031 A 
ENDBRANCH   3  12
BRANCH   4  20
ATOM     20  C   UNL d   1      -1.481   2.558  -3.430  0.00  0.00     0.312 C 
BRANCH  20  21
ATOM     21  C   UNL d   1      -2.280   3.779  -3.003  0.00  0.00    -0.008 A 
ATOM     22  C   UNL d   1      -1.734   4.846  -2.265  0.00  0.00     0.043 A 
ATOM     23  C   UNL d   1      -2.515   5.955  -1.925  0.00  0.00     0.048 A 
ATOM     24 CL   UNL d   1      -0.084   4.876  -1.754  0.00  0.00    -0.084 Cl
ATOM     25  C   UNL d   1      -3.844   6.020  -2.332  0.00  0.00     0.035 A 
ATOM     26  C   UNL d   1      -4.407   4.981  -3.065  0.00  0.00     0.024 A 
ATOM     27 CL   UNL d   1      -4.791   7.401  -1.939  0.00  0.00    -0.084 Cl
ATOM     28  C   UNL d   1      -3.631   3.867  -3.394  0.00  0.00     0.012 A 
ENDBRANCH  20  21
ENDBRANCH   4  20
TORSDOF 3
