REMARK  1 active torsions:
REMARK  status: ('A' for Active; 'I' for Inactive)
REMARK    1  A    between atoms: C_11  and  C_7 
ROOT
ATOM      1  C   UNL d   1       1.174   0.122  -0.045  0.00  0.00     0.101 A 
ATOM      2  N   UNL d   1      -0.819  -1.240  -0.008  0.00  0.00    -0.275 N 
ATOM      3  N   UNL d   1      -1.043   1.063  -0.000  0.00  0.00    -0.275 N 
ATOM      4  C   UNL d   1       0.546  -1.226  -0.032  0.00  0.00     0.265 A 
ATOM      5  C   UNL d   1       0.298   1.322  -0.083  0.00  0.00     0.265 A 
ATOM      6  C   UNL d   1      -1.642  -0.158   0.007  0.00  0.00     0.329 A 
ATOM      7  C   UNL d   1       2.521   0.158  -0.010  0.00  0.00     0.034 C 
ATOM      8  O   UNL d   1       0.693   2.475  -0.199  0.00  0.00    -0.267 OA
ATOM      9  O   UNL d   1       1.185  -2.273  -0.036  0.00  0.00    -0.267 OA
ATOM     10  O   UNL d   1      -2.862  -0.278   0.017  0.00  0.00    -0.246 OA
ATOM     11  H   UNL d   1      -1.263  -2.147  -0.001  0.00  0.00     0.173 HD
ATOM     12  H   UNL d   1      -1.655   1.865  -0.027  0.00  0.00     0.173 HD
ENDROOT
BRANCH   7  13
ATOM     13  C   UNL d   1       3.372   1.349   0.032  0.00  0.00    -0.035 A 
ATOM     14  C   UNL d   1       3.746   1.901   1.262  0.00  0.00     0.011 A 
ATOM     15  C   UNL d   1       4.561   3.034   1.305  0.00  0.00     0.001 A 
ATOM     16  C   UNL d   1       5.011   3.615   0.121  0.00  0.00     0.000 A 
ATOM     17  C   UNL d   1       4.651   3.062  -1.108  0.00  0.00     0.001 A 
ATOM     18  C   UNL d   1       3.833   1.931  -1.154  0.00  0.00     0.011 A 
ENDBRANCH   7  13
TORSDOF 1
