REMARK  7 active torsions:
REMARK  status: ('A' for Active; 'I' for Inactive)
REMARK    1  A    between atoms: C_3  and  C_1 
REMARK    2  A    between atoms: C_6  and  C_1 
REMARK    3  A    between atoms: C_2  and  C_9 
REMARK    4  A    between atoms: O_10  and  C_2 
REMARK    5  A    between atoms: C_9  and  C_6 
REMARK    6  A    between atoms: C_14  and  C_13 
REMARK    7  A    between atoms: C_15  and  C_14 
ROOT
ATOM      1  C   UNL d   1       0.158  -1.193  -0.493  0.00  0.00     0.010 A 
ATOM      2  C   UNL d   1       0.518  -2.413   0.092  0.00  0.00     0.015 A 
ATOM      3  C   UNL d   1      -0.907  -1.163  -1.398  0.00  0.00     0.015 A 
ATOM      4  C   UNL d   1      -1.578  -2.339  -1.743  0.00  0.00     0.008 A 
ATOM      5  C   UNL d   1      -0.153  -3.594  -0.263  0.00  0.00     0.008 A 
ATOM      6  C   UNL d   1      -1.184  -3.571  -1.212  0.00  0.00    -0.058 A 
ENDROOT
BRANCH   1   7
ATOM      7  C   UNL d   1       0.959   0.037  -0.193  0.00  0.00     0.160 C 
ATOM      8  O   UNL d   1       2.150  -0.053   0.110  0.00  0.00    -0.292 OA
BRANCH   7   9
ATOM      9  C   UNL d   1       0.273   1.393  -0.242  0.00  0.00     0.094 C 
BRANCH   9  10
ATOM     10  C   UNL d   1       1.244   2.515  -0.581  0.00  0.00     0.117 C 
BRANCH  10  11
ATOM     11  C   UNL d   1       1.824   2.339  -1.959  0.00  0.00     0.139 C 
ATOM     12  O   UNL d   1       1.265   2.720  -2.981  0.00  0.00    -0.650 OA
BRANCH  11  13
ATOM     13  O   UNL d   1       3.001   1.682  -1.974  0.00  0.00    -0.776 OA
ATOM     14  H   UNL d   1       3.243   1.299  -1.100  0.00  0.00     0.167 HD
ENDBRANCH  11  13
ENDBRANCH  10  11
ENDBRANCH   9  10
ENDBRANCH   7   9
ENDBRANCH   1   7
BRANCH   6  15
ATOM     15  C   UNL d   1      -1.841  -4.848  -1.685  0.00  0.00     0.038 C 
BRANCH  15  16
ATOM     16  C   UNL d   1      -1.725  -5.085  -3.199  0.00  0.00     0.000 C 
ATOM     17  C   UNL d   1      -0.288  -5.235  -3.680  0.00  0.00     0.005 C 
ENDBRANCH  15  16
ENDBRANCH   6  15
TORSDOF 7
