REMARK  3 active torsions:
REMARK  status: ('A' for Active; 'I' for Inactive)
REMARK    1  A    between atoms: C_3  and  C_1 
REMARK    2  A    between atoms: C_2  and  C_3 
REMARK    3  A    between atoms: N_10  and  C_4 
ROOT
ATOM      1  C   UNL d   1       2.520   1.353  -0.044  0.00  0.00     0.183 C 
ATOM      2  O   UNL d   1       1.627   0.560   0.243  0.00  0.00    -0.288 OA
ENDROOT
BRANCH   1   3
ATOM      3  C   UNL d   1       3.954   0.953  -0.050  0.00  0.00     0.072 C 
ATOM      4  C   UNL d   1       4.264  -0.352  -0.012  0.00  0.00     0.088 C 
BRANCH   4   5
ATOM      5  N   UNL d   1       5.500  -0.984  -0.009  0.00  0.00    -0.398 N 
ATOM      6  C   UNL d   1       6.791  -0.302   0.031  0.00  0.00     0.148 C 
ATOM      7  C   UNL d   1       5.603  -2.447  -0.010  0.00  0.00     0.148 C 
ENDBRANCH   4   5
ENDBRANCH   1   3
BRANCH   1   8
ATOM      8  C   UNL d   1       2.240   2.750  -0.399  0.00  0.00     0.021 A 
ATOM      9  C   UNL d   1       0.941   3.238  -0.357  0.00  0.00     0.065 A 
ATOM     10  S   UNL d   1       0.808   4.873  -0.827  0.00  0.00    -0.113 SA
ATOM     11  C   UNL d   1       2.487   4.979  -1.104  0.00  0.00     0.050 A 
ATOM     12  C   UNL d   1       3.133   3.790  -0.840  0.00  0.00     0.023 A 
ENDBRANCH   1   8
TORSDOF 3
