REMARK  4 active torsions:
REMARK  status: ('A' for Active; 'I' for Inactive)
REMARK    1  A    between atoms: C_7  and  C_1 
REMARK    2  A    between atoms: C_8  and  C_6 
REMARK    3  A    between atoms: O_10  and  C_7 
REMARK    4  A    between atoms: C_14  and  O_10 
ROOT
ATOM      1  C   UNL d   1       1.153  -0.624  -0.045  0.00  0.00     0.125 A 
ATOM      2  C   UNL d   1       1.115   0.755  -0.066  0.00  0.00     0.064 A 
ATOM      3  N   UNL d   1      -1.027   0.004  -0.061  0.00  0.00    -0.303 N 
ATOM      4  HN  UNL d   1      -2.046  -0.045  -0.079  1.00  0.00     0.186 HD
ATOM      5  N   UNL d   1      -0.154  -1.015  -0.062  0.00  0.00    -0.295 N 
ATOM      6  C   UNL d   1      -0.258   1.102  -0.032  0.00  0.00     0.035 A 
ATOM      7  H   UNL d   1      -0.511  -1.966  -0.048  0.00  0.00     0.187 HD
ENDROOT
BRANCH   1   8
ATOM      8  C   UNL d   1       2.240  -1.548   0.048  0.00  0.00     0.311 C 
ATOM      9  O   UNL d   1       2.114  -2.762   0.141  0.00  0.00    -0.258 OA
BRANCH   8  10
ATOM     10  O   UNL d   1       3.410  -0.861   0.125  0.00  0.00    -0.317 OA
BRANCH  10  11
ATOM     11  C   UNL d   1       4.518  -1.585   0.670  0.00  0.00     0.175 C 
ATOM     12  C   UNL d   1       4.478  -1.433   2.180  0.00  0.00     0.034 C 
ENDBRANCH  10  11
ENDBRANCH   8  10
ENDBRANCH   1   8
BRANCH   6  13
ATOM     13  C   UNL d   1      -0.871   2.492   0.001  0.00  0.00    -0.007 C 
ATOM     14  C   UNL d   1      -1.095   2.982  -1.441  0.00  0.00     0.021 C 
ATOM     15  C   UNL d   1      -2.223   2.494   0.747  0.00  0.00     0.021 C 
ATOM     16  C   UNL d   1       0.055   3.493   0.725  0.00  0.00     0.021 C 
ENDBRANCH   6  13
TORSDOF 4
