REMARK  6 active torsions:
REMARK  status: ('A' for Active; 'I' for Inactive)
REMARK    1  A    between atoms: N_4  and  C_1 
REMARK    2  A    between atoms: N_5  and  C_2 
REMARK    3  A    between atoms: N_6  and  C_3 
REMARK    4  A    between atoms: C_7  and  C_8 
REMARK    5  A    between atoms: N_11  and  C_20 
REMARK    6  A    between atoms: C_20  and  C_17 
ROOT
ATOM      1  C   UNL d   1       1.075  -0.453  -1.022  0.00  0.00     0.132 A 
ATOM      2  C   UNL d   1      -0.231  -0.659   0.937  0.00  0.00     0.132 A 
ATOM      3  C   UNL d   1       0.601  -1.315  -0.011  0.00  0.00     0.097 A 
ATOM      4  C   UNL d   1       0.102   1.554  -0.010  0.00  0.00     0.052 A 
ATOM      5  C   UNL d   1      -0.475   0.730   0.956  0.00  0.00     0.054 A 
ATOM      6  C   UNL d   1       0.843   0.946  -1.027  0.00  0.00     0.054 A 
ENDROOT
BRANCH   3   7
ATOM      7  N   UNL d   1       0.917  -2.672   0.161  0.00  0.00    -0.376 N 
ATOM      8  C   UNL d   1       1.145  -3.581  -0.982  0.00  0.00     0.129 C 
ATOM      9  C   UNL d   1       0.938  -5.046  -0.544  0.00  0.00     0.022 C 
ATOM     10  C   UNL d   1       1.854  -5.355   0.654  0.00  0.00     0.009 C 
ATOM     11  C   UNL d   1       1.659  -4.359   1.793  0.00  0.00     0.020 C 
ATOM     12  C   UNL d   1       1.841  -2.925   1.295  0.00  0.00     0.123 C 
BRANCH   9  13
ATOM     13  C   UNL d   1      -0.560  -5.287  -0.281  0.00  0.00     0.134 C 
BRANCH  13  14
ATOM     14  N   UNL d   1      -0.920  -6.641   0.098  0.00  0.00    -0.366 N 
ATOM     15  C   UNL d   1      -1.461  -6.995   1.308  0.00  0.00     0.090 A 
ATOM     16  C   UNL d   1      -1.810  -8.326   1.247  0.00  0.00     0.019 A 
ATOM     17  C   UNL d   1      -1.464  -8.792  -0.044  0.00  0.00     0.019 A 
ATOM     18  C   UNL d   1      -0.916  -7.731  -0.733  0.00  0.00     0.090 A 
ENDBRANCH  13  14
ENDBRANCH   9  13
ENDBRANCH   3   7
BRANCH   2  19
ATOM     19  N   UNL d   1      -0.914  -1.426   1.970  0.00  0.00    -0.113 N 
ATOM     20  O   UNL d   1      -1.782  -2.229   1.607  0.00  0.00    -0.532 OA
ATOM     21  O   UNL d   1      -0.616  -1.161   3.143  0.00  0.00    -0.532 OA
ENDBRANCH   2  19
BRANCH   1  22
ATOM     22  N   UNL d   1       1.894  -0.917  -2.121  0.00  0.00    -0.113 N 
ATOM     23  O   UNL d   1       3.063  -1.237  -1.862  0.00  0.00    -0.532 OA
ATOM     24  O   UNL d   1       1.381  -0.896  -3.245  0.00  0.00    -0.532 OA
ENDBRANCH   1  22
BRANCH   4  25
ATOM     25  C   UNL d   1      -0.026   3.059   0.052  0.00  0.00     0.417 C 
ATOM     26  F   UNL d   1      -0.754   3.494   1.115  0.00  0.00    -0.166 F 
ATOM     27  F   UNL d   1       1.189   3.662   0.155  0.00  0.00    -0.166 F 
ATOM     28  F   UNL d   1      -0.616   3.578  -1.056  0.00  0.00    -0.166 F 
ENDBRANCH   4  25
TORSDOF 6
