REMARK  3 active torsions:
REMARK  status: ('A' for Active; 'I' for Inactive)
REMARK    1  A    between atoms: C_4  and  C_1 
REMARK    2  A    between atoms: O_12  and  C_4 
REMARK    3  A    between atoms: C_11  and  O_12 
ROOT
ATOM      1  O   UNL d   1      -3.825  -0.920   0.057  0.00  0.00    -0.274 OA
ENDROOT
BRANCH   1   2
ATOM      2  C   UNL d   1      -3.958   0.484  -0.038  0.00  0.00     0.080 A 
ATOM      3  C   UNL d   1      -3.287   1.251  -0.986  0.00  0.00     0.045 A 
ATOM      4  C   UNL d   1      -3.394   2.650  -0.974  0.00  0.00    -0.037 A 
ATOM      5  C   UNL d   1      -2.554   3.442  -1.940  0.00  0.00     0.050 C 
ATOM      6  C   UNL d   1      -4.257   3.267  -0.045  0.00  0.00     0.046 A 
ATOM      7  C   UNL d   1      -4.995   2.490   0.872  0.00  0.00    -0.037 A 
ATOM      8 CL   UNL d   1      -4.391   4.997  -0.046  0.00  0.00    -0.083 Cl
ATOM      9  C   UNL d   1      -4.829   1.091   0.867  0.00  0.00     0.045 A 
ATOM     10  C   UNL d   1      -5.958   3.072   1.872  0.00  0.00     0.050 C 
ENDBRANCH   1   2
BRANCH   1  11
ATOM     11  C   UNL d   1      -2.589  -1.531  -0.202  0.00  0.00     0.317 C 
ATOM     12  O   UNL d   1      -1.576  -0.940  -0.571  0.00  0.00    -0.257 OA
BRANCH  11  13
ATOM     13  C   UNL d   1      -2.578  -2.972   0.019  0.00  0.00     0.132 A 
ATOM     14  N   UNL d   1      -3.611  -3.659   0.532  0.00  0.00    -0.255 N 
ATOM     15  O   UNL d   1      -3.181  -4.974   0.632  0.00  0.00    -0.242 OA
ATOM     16  HN  UNL d   1      -4.525  -3.290   0.795  1.00  0.00     0.195 HD
ATOM     17  C   UNL d   1      -1.905  -5.074   0.173  0.00  0.00     0.075 A 
ATOM     18  C   UNL d   1      -1.481  -3.839  -0.240  0.00  0.00     0.072 A 
ATOM     19  C   UNL d   1      -1.274  -6.405   0.229  0.00  0.00     0.079 C 
ENDBRANCH  11  13
ENDBRANCH   1  11
TORSDOF 3
