REMARK  7 active torsions:
REMARK  status: ('A' for Active; 'I' for Inactive)
REMARK    1  A    between atoms: C_8  and  C_1 
REMARK    2  A    between atoms: S_13  and  C_3 
REMARK    3  A    between atoms: C_7  and  C_10 
REMARK    4  A    between atoms: O_20  and  C_8 
REMARK    5  A    between atoms: C_10  and  C_15 
REMARK    6  A    between atoms: C_15  and  S_13 
REMARK    7  A    between atoms: C_22  and  O_20 
ROOT
ATOM      1  C   UNL d   1       0.739  -0.887   0.352  0.00  0.00     0.125 A 
ATOM      2  N   UNL d   1       0.809   0.462   0.606  0.00  0.00    -0.331 N 
ATOM      3  C   UNL d   1      -0.394   1.007   0.264  0.00  0.00     0.145 A 
ATOM      4  N   UNL d   1      -1.245   0.107  -0.153  0.00  0.00    -0.344 N 
ATOM      5  HN  UNL d   1      -2.211   0.251  -0.447  1.00  0.00     0.167 HD
ATOM      6  C   UNL d   1      -0.550  -1.078  -0.107  0.00  0.00     0.126 A 
ATOM      7  H   UNL d   1       1.614   0.970   0.947  0.00  0.00     0.168 HD
ENDROOT
BRANCH   3   8
ATOM      8  S   UNL d   1      -0.644   2.707   0.412  0.00  0.00    -0.086 SA
BRANCH   8   9
ATOM      9  C   UNL d   1      -2.444   2.776   0.164  0.00  0.00     0.166 C 
BRANCH   9  10
ATOM     10  C   UNL d   1      -3.014   4.155   0.457  0.00  0.00     0.170 C 
ATOM     11  O   UNL d   1      -2.390   5.044   1.038  0.00  0.00    -0.291 OA
BRANCH  10  12
ATOM     12  C   UNL d   1      -4.393   4.495  -0.019  0.00  0.00     0.032 A 
ATOM     13  C   UNL d   1      -5.487   3.616  -0.064  0.00  0.00     0.049 A 
ATOM     14  C   UNL d   1      -6.726   4.056  -0.552  0.00  0.00     0.048 A 
ATOM     15 CL   UNL d   1      -5.463   1.998   0.533  0.00  0.00    -0.083 Cl
ATOM     16  C   UNL d   1      -6.890   5.373  -0.973  0.00  0.00     0.035 A 
ATOM     17  C   UNL d   1      -5.830   6.267  -0.899  0.00  0.00     0.025 A 
ATOM     18 CL   UNL d   1      -8.416   5.894  -1.569  0.00  0.00    -0.084 Cl
ATOM     19  C   UNL d   1      -4.589   5.830  -0.426  0.00  0.00     0.018 A 
ENDBRANCH  10  12
ENDBRANCH   9  10
ENDBRANCH   8   9
ENDBRANCH   3   8
BRANCH   1  20
ATOM     20  C   UNL d   1       1.845  -1.779   0.518  0.00  0.00     0.311 C 
ATOM     21  O   UNL d   1       2.961  -1.432   0.877  0.00  0.00    -0.258 OA
BRANCH  20  22
ATOM     22  O   UNL d   1       1.487  -3.035   0.140  0.00  0.00    -0.317 OA
BRANCH  22  23
ATOM     23  C   UNL d   1       2.572  -3.945  -0.079  0.00  0.00     0.175 C 
ATOM     24  C   UNL d   1       3.014  -3.815  -1.526  0.00  0.00     0.034 C 
ENDBRANCH  22  23
ENDBRANCH  20  22
ENDBRANCH   1  20
TORSDOF 7
