REMARK  5 active torsions:
REMARK  status: ('A' for Active; 'I' for Inactive)
REMARK    1  A    between atoms: C_2  and  S_1 
REMARK    2  A    between atoms: N_3  and  S_1 
REMARK    3  A    between atoms: C_10  and  N_3 
REMARK    4  A    between atoms: O_16  and  C_9 
REMARK    5  A    between atoms: O_17  and  C_12 
ROOT
ATOM      1  C   UNL d   1      -4.170   1.788  -2.296  0.00  0.00    -0.078 C 
ATOM      2  C   UNL d   1      -4.813   2.788  -2.444  0.00  0.00     0.018 C 
ATOM      3  C   UNL d   1      -1.133  -0.249  -1.669  0.00  0.00     0.044 A 
ATOM      4  C   UNL d   1      -3.340   0.647  -2.055  0.00  0.00     0.019 A 
ATOM      5  C   UNL d   1      -1.961   0.818  -2.008  0.00  0.00     0.050 A 
ATOM      6  C   UNL d   1      -3.060  -1.692  -1.518  0.00  0.00     0.004 A 
ATOM      7  C   UNL d   1      -1.679  -1.511  -1.446  0.00  0.00     0.030 A 
ATOM      8  C   UNL d   1      -3.899  -0.609  -1.813  0.00  0.00     0.021 A 
ENDROOT
BRANCH   3   9
ATOM      9  N   UNL d   1       0.263  -0.014  -1.586  0.00  0.00    -0.281 N 
ATOM     10  H   UNL d   1       0.861  -0.448  -2.289  0.00  0.00     0.179 HD
BRANCH   9  11
ATOM     11  S   UNL d   1       1.014   0.009  -0.071  0.00  0.00     0.266 S 
ATOM     12  O   UNL d   1       0.510  -1.110   0.698  0.00  0.00    -0.200 OA
ATOM     13  O   UNL d   1       2.434   0.121  -0.330  0.00  0.00    -0.200 OA
BRANCH  11  14
ATOM     14  C   UNL d   1       0.461   1.516   0.694  0.00  0.00     0.115 A 
ATOM     15  C   UNL d   1      -0.365   1.390   1.832  0.00  0.00     0.065 A 
ATOM     16  C   UNL d   1      -0.698   2.508   2.598  0.00  0.00     0.069 A 
ATOM     17  C   UNL d   1      -0.253   3.765   2.192  0.00  0.00     0.039 A 
ATOM     18  C   UNL d   1       0.557   3.898   1.061  0.00  0.00     0.041 A 
ATOM     19  C   UNL d   1       0.932   2.776   0.312  0.00  0.00     0.091 A 
BRANCH  16  20
ATOM     20  O   UNL d   1      -1.415   2.506   3.762  0.00  0.00    -0.356 OA
ATOM     21  C   UNL d   1      -1.696   1.242   4.352  0.00  0.00     0.210 C 
ENDBRANCH  16  20
BRANCH  19  22
ATOM     22  O   UNL d   1       1.876   3.022  -0.645  0.00  0.00    -0.354 OA
ATOM     23  C   UNL d   1       1.432   2.832  -1.982  0.00  0.00     0.210 C 
ENDBRANCH  19  22
ENDBRANCH  11  14
ENDBRANCH   9  11
ENDBRANCH   3   9
TORSDOF 5
