REMARK  4 active torsions:
REMARK  status: ('A' for Active; 'I' for Inactive)
REMARK    1  A    between atoms: C_3  and  S_1 
REMARK    2  A    between atoms: O_4  and  S_1 
REMARK    3  A    between atoms: S_2  and  C_3 
REMARK    4  A    between atoms: C_9  and  O_4 
ROOT
ATOM      1  S   UNL d   1       0.949  -0.163   0.145  0.00  0.00     0.283 S 
ATOM      2  O   UNL d   1       0.245  -1.325   0.638  0.00  0.00    -0.197 OA
ATOM      3  O   UNL d   1       2.396  -0.111   0.069  0.00  0.00    -0.197 OA
ENDROOT
BRANCH   1   4
ATOM      4  C   UNL d   1       0.387   1.273   0.972  0.00  0.00     0.310 C 
BRANCH   4   5
ATOM      5  S   UNL d   1       0.892   1.312   2.657  0.00  0.00     0.156 S 
ATOM      6  O   UNL d   1       0.435   2.589   3.180  0.00  0.00    -0.227 OA
ATOM      7  O   UNL d   1       0.487   0.088   3.316  0.00  0.00    -0.227 OA
ATOM      8  C   UNL d   1       2.671   1.381   2.657  0.00  0.00     0.162 C 
ENDBRANCH   4   5
ENDBRANCH   1   4
BRANCH   1   9
ATOM      9  O   UNL d   1       0.356   0.210  -1.332  0.00  0.00    -0.232 OA
BRANCH   9  10
ATOM     10  C   UNL d   1       0.478  -0.652  -2.397  0.00  0.00     0.089 A 
ATOM     11  C   UNL d   1       1.140  -1.883  -2.359  0.00  0.00     0.039 A 
ATOM     12  C   UNL d   1       1.188  -2.695  -3.497  0.00  0.00     0.022 A 
ATOM     13  C   UNL d   1       0.580  -2.273  -4.675  0.00  0.00     0.011 A 
ATOM     14  C   UNL d   1      -0.072  -1.044  -4.729  0.00  0.00     0.022 A 
ATOM     15 BR   UNL d   1       0.636  -3.381  -6.205  0.00  0.00    -0.051 Br
ATOM     16  C   UNL d   1      -0.122  -0.234  -3.589  0.00  0.00     0.039 A 
ENDBRANCH   9  10
ENDBRANCH   1   9
TORSDOF 4
