REMARK  4 active torsions:
REMARK  status: ('A' for Active; 'I' for Inactive)
REMARK    1  A    between atoms: C_3  and  C_6 
REMARK       I    between atoms: N_9  and  C_3 
REMARK    2  A    between atoms: N_4  and  N_9 
REMARK    3  A    between atoms: N_8  and  C_7 
REMARK    4  A    between atoms: C_14  and  C_13 
ROOT
ATOM      1  N   UNL d   1       6.218  -2.203  -3.691  0.00  0.00    -0.197 NA
ATOM      2  C   UNL d   1       5.718  -3.248  -3.767  0.00  0.00     0.068 C 
ATOM      3  C   UNL d   1       5.027  -4.528  -3.847  0.00  0.00     0.228 C 
ENDROOT
BRANCH   3   4
ATOM      4  C   UNL d   1       3.532  -4.446  -3.612  0.00  0.00     0.249 C 
ATOM      5  N   UNL d   1       2.985  -3.200  -3.336  0.00  0.00    -0.270 N 
ATOM      6  H   UNL d   1       3.544  -2.349  -3.272  0.00  0.00     0.190 HD
ATOM      7  O   UNL d   1       2.868  -5.485  -3.678  0.00  0.00    -0.271 OA
BRANCH   5   8
ATOM      8  N   UNL d   1       1.633  -3.104  -3.170  0.00  0.00    -0.308 N 
ATOM      9  C   UNL d   1       1.151  -1.935  -2.904  0.00  0.00     0.118 C 
ATOM     10  HN  UNL d   1       1.029  -3.921  -3.253  1.00  0.00     0.186 HD
BRANCH   9  11
ATOM     11  C   UNL d   1      -0.306  -1.742  -2.723  0.00  0.00    -0.019 A 
ATOM     12  C   UNL d   1      -1.185  -2.810  -2.888  0.00  0.00     0.015 A 
ATOM     13  C   UNL d   1      -2.563  -2.623  -2.711  0.00  0.00     0.030 A 
ATOM     14  C   UNL d   1      -3.113  -1.380  -2.356  0.00  0.00     0.029 A 
ATOM     15  C   UNL d   1      -2.195  -0.323  -2.204  0.00  0.00     0.030 A 
ATOM     16  C   UNL d   1      -0.811  -0.490  -2.385  0.00  0.00     0.015 A 
BRANCH  14  17
ATOM     17  N   UNL d   1      -4.468  -1.206  -2.112  0.00  0.00    -0.390 N 
ATOM     18  C   UNL d   1      -5.146   0.047  -2.432  0.00  0.00     0.149 C 
ATOM     19  C   UNL d   1      -5.361  -2.336  -1.866  0.00  0.00     0.149 C 
ENDBRANCH  14  17
ENDBRANCH   9  11
ENDBRANCH   5   8
ENDBRANCH   3   4
TORSDOF 4
