REMARK  2 active torsions:
REMARK  status: ('A' for Active; 'I' for Inactive)
REMARK    1  A    between atoms: C_11  and  C_7 
REMARK    2  A    between atoms: O_17  and  C_12 
ROOT
ATOM      1  C   UNL d   1       1.560  -0.093   0.098  0.00  0.00     0.101 A 
ATOM      2  N   UNL d   1      -0.494   1.168  -0.072  0.00  0.00    -0.299 N 
ATOM      3  N   UNL d   1      -0.606  -1.148   0.032  0.00  0.00    -0.299 N 
ATOM      4  C   UNL d   1       0.873   1.222  -0.010  0.00  0.00     0.263 A 
ATOM      5  C   UNL d   1       0.752  -1.340   0.072  0.00  0.00     0.263 A 
ATOM      6  C   UNL d   1      -1.256   0.043  -0.040  0.00  0.00     0.181 A 
ATOM      7  C   UNL d   1       2.901  -0.058   0.227  0.00  0.00     0.034 C 
ATOM      8  S   UNL d   1      -2.915   0.122  -0.092  0.00  0.00    -0.040 SA
ATOM      9  O   UNL d   1       1.460   2.299  -0.035  0.00  0.00    -0.267 OA
ATOM     10  O   UNL d   1       1.211  -2.474   0.079  0.00  0.00    -0.267 OA
ATOM     11  H   UNL d   1      -0.966   2.061  -0.137  0.00  0.00     0.171 HD
ATOM     12  H   UNL d   1      -1.162  -1.994   0.027  0.00  0.00     0.171 HD
ENDROOT
BRANCH   7  13
ATOM     13  C   UNL d   1       3.811  -1.197   0.364  0.00  0.00    -0.035 A 
ATOM     14  C   UNL d   1       4.385  -1.778  -0.772  0.00  0.00     0.014 A 
ATOM     15  C   UNL d   1       5.301  -2.821  -0.636  0.00  0.00     0.037 A 
ATOM     16  C   UNL d   1       5.643  -3.279   0.631  0.00  0.00     0.065 A 
ATOM     17  C   UNL d   1       5.067  -2.724   1.770  0.00  0.00     0.037 A 
ATOM     18  C   UNL d   1       4.147  -1.680   1.635  0.00  0.00     0.014 A 
BRANCH  16  19
ATOM     19  O   UNL d   1       6.567  -4.278   0.717  0.00  0.00    -0.361 OA
ATOM     20  H   UNL d   1       6.751  -4.447   1.655  0.00  0.00     0.217 HD
ENDBRANCH  16  19
ENDBRANCH   7  13
TORSDOF 2
