REMARK  8 active torsions:
REMARK  status: ('A' for Active; 'I' for Inactive)
REMARK    1  A    between atoms: S_2  and  C_1 
REMARK    2  A    between atoms: N_10  and  S_2 
REMARK    3  A    between atoms: C_7  and  C_4 
REMARK    4  A    between atoms: O_15  and  C_7 
REMARK    5  A    between atoms: C_16  and  N_10 
REMARK    6  A    between atoms: O_17  and  C_12 
REMARK    7  A    between atoms: C_13  and  C_18 
REMARK    8  A    between atoms: C_18  and  C_16 
ROOT
ATOM      1  S   UNL d   1       0.220   2.635  -0.151  0.00  0.00     0.274 S 
ATOM      2  O   UNL d   1      -0.245   2.765   1.211  0.00  0.00    -0.199 OA
ATOM      3  O   UNL d   1       0.057   1.417  -0.904  0.00  0.00    -0.199 OA
ENDROOT
BRANCH   1   4
ATOM      4  C   UNL d   1      -0.672   3.883  -1.069  0.00  0.00     0.151 A 
ATOM      5  N   UNL d   1      -0.570   4.094  -2.437  0.00  0.00    -0.336 N 
ATOM      6  C   UNL d   1      -1.396   5.145  -2.826  0.00  0.00     0.111 A 
ATOM      7  C   UNL d   1       0.273   3.363  -3.363  0.00  0.00     0.157 C 
ATOM      8  C   UNL d   1      -2.017   5.606  -1.675  0.00  0.00     0.039 A 
ATOM      9  C   UNL d   1      -1.566   4.832  -0.593  0.00  0.00     0.046 A 
BRANCH   6  10
ATOM     10  C   UNL d   1      -1.560   5.642  -4.184  0.00  0.00     0.309 C 
ATOM     11  O   UNL d   1      -0.963   5.239  -5.170  0.00  0.00    -0.258 OA
BRANCH  10  12
ATOM     12  O   UNL d   1      -2.489   6.640  -4.190  0.00  0.00    -0.321 OA
ATOM     13  C   UNL d   1      -2.753   7.210  -5.471  0.00  0.00     0.213 C 
ENDBRANCH  10  12
ENDBRANCH   6  10
ENDBRANCH   1   4
BRANCH   1  14
ATOM     14  N   UNL d   1       1.849   3.045  -0.221  0.00  0.00    -0.314 N 
ATOM     15  H   UNL d   1       2.320   2.576  -0.993  0.00  0.00     0.172 HD
BRANCH  14  16
ATOM     16  C   UNL d   1       2.291   4.427   0.057  0.00  0.00     0.137 C 
BRANCH  16  17
ATOM     17  C   UNL d   1       1.869   4.938   1.437  0.00  0.00     0.062 C 
BRANCH  17  18
ATOM     18  C   UNL d   1       2.205   6.365   1.810  0.00  0.00    -0.023 A 
ATOM     19  C   UNL d   1       1.841   6.915   3.057  0.00  0.00     0.074 A 
ATOM     20  C   UNL d   1       2.198   8.238   3.364  0.00  0.00     0.037 A 
ATOM     21  C   UNL d   1       2.892   9.032   2.455  0.00  0.00     0.003 A 
ATOM     22  C   UNL d   1       3.249   8.506   1.224  0.00  0.00     0.001 A 
ATOM     23  C   UNL d   1       2.909   7.190   0.906  0.00  0.00     0.010 A 
BRANCH  19  24
ATOM     24  O   UNL d   1       1.245   6.282   4.116  0.00  0.00    -0.355 OA
ATOM     25  C   UNL d   1       0.191   5.361   3.873  0.00  0.00     0.210 C 
ENDBRANCH  19  24
ENDBRANCH  17  18
ENDBRANCH  16  17
ENDBRANCH  14  16
ENDBRANCH   1  14
TORSDOF 8
