REMARK  7 active torsions:
REMARK  status: ('A' for Active; 'I' for Inactive)
REMARK    1  A    between atoms: C_2  and  S_1 
REMARK    2  A    between atoms: C_8  and  S_1 
REMARK    3  A    between atoms: C_3  and  C_2 
REMARK    4  A    between atoms: N_9  and  C_3 
REMARK    5  A    between atoms: O_10  and  N_6 
REMARK    6  A    between atoms: C_18  and  O_10 
REMARK    7  A    between atoms: C_12  and  C_18 
ROOT
ATOM      1  C   UNL d   1       0.919   0.028  -2.764  0.00  0.00     0.089 C 
ATOM      2  N   UNL d   1       1.944   0.786  -2.502  0.00  0.00    -0.259 N 
ATOM      3  HN  UNL d   1       2.584   1.164  -3.202  1.00  0.00     0.195 HD
ENDROOT
BRANCH   1   4
ATOM      4  C   UNL d   1       0.618  -0.273  -4.213  0.00  0.00     0.212 C 
BRANCH   4   5
ATOM      5  S   UNL d   1       0.731  -2.017  -4.535  0.00  0.00     0.154 S 
ATOM      6  O   UNL d   1      -0.189  -2.680  -3.619  0.00  0.00    -0.227 OA
ATOM      7  O   UNL d   1       2.128  -2.397  -4.566  0.00  0.00    -0.227 OA
BRANCH   5   8
ATOM      8  C   UNL d   1       0.057  -2.200  -6.199  0.00  0.00     0.100 C 
ATOM      9  C   UNL d   1       0.883  -1.446  -7.235  0.00  0.00     0.026 C 
ATOM     10  C   UNL d   1      -0.038  -3.677  -6.576  0.00  0.00     0.026 C 
ENDBRANCH   5   8
ENDBRANCH   4   5
ENDBRANCH   1   4
BRANCH   1  11
ATOM     11  N   UNL d   1       0.081  -0.464  -1.788  0.00  0.00    -0.290 NA
ATOM     12  H   UNL d   1      -0.261  -1.414  -1.945  0.00  0.00     0.125 HD
ATOM     13  H   UNL d   1       0.499  -0.359  -0.866  0.00  0.00     0.125 HD
ENDBRANCH   1  11
BRANCH   2  14
ATOM     14  O   UNL d   1       2.045   1.011  -1.112  0.00  0.00    -0.275 OA
BRANCH  14  15
ATOM     15  C   UNL d   1       3.366   1.460  -0.809  0.00  0.00     0.239 C 
BRANCH  15  16
ATOM     16  C   UNL d   1       3.436   1.849   0.648  0.00  0.00    -0.032 A 
ATOM     17  C   UNL d   1       4.194   1.093   1.555  0.00  0.00     0.011 A 
ATOM     18  C   UNL d   1       4.276   1.469   2.899  0.00  0.00     0.024 A 
ATOM     19  C   UNL d   1       3.597   2.601   3.345  0.00  0.00     0.034 A 
ATOM     20  C   UNL d   1       2.830   3.356   2.460  0.00  0.00     0.024 A 
ATOM     21 CL   UNL d   1       3.709   3.070   4.997  0.00  0.00    -0.084 Cl
ATOM     22  C   UNL d   1       2.748   2.980   1.116  0.00  0.00     0.011 A 
ENDBRANCH  15  16
ENDBRANCH  14  15
ENDBRANCH   2  14
TORSDOF 7
