REMARK  1 active torsions:
REMARK  status: ('A' for Active; 'I' for Inactive)
REMARK    1  A    between atoms: C_10  and  C_4 
ROOT
ATOM      1  C   UNL d   1      -0.970   0.255  -0.005  0.00  0.00     0.072 C 
ATOM      2  C   UNL d   1      -0.389  -0.963  -0.031  0.00  0.00     0.029 C 
ATOM      3  C   UNL d   1       1.839   0.023  -0.083  0.00  0.00     0.321 C 
ATOM      4  C   UNL d   1      -0.131   1.502   0.143  0.00  0.00     0.165 C 
ATOM      5  N   UNL d   1       0.987  -1.039  -0.003  0.00  0.00    -0.312 N 
ATOM      6  N   UNL d   1       1.258   1.246  -0.180  0.00  0.00    -0.329 N 
ATOM      7  C   UNL d   1      -2.384   0.422  -0.083  0.00  0.00     0.099 C 
ATOM      8  N   UNL d   1      -3.532   0.565  -0.171  0.00  0.00    -0.192 NA
ATOM      9  O   UNL d   1       3.055  -0.119  -0.096  0.00  0.00    -0.247 OA
ATOM     10  C   UNL d   1      -1.104  -2.284  -0.063  0.00  0.00     0.070 C 
ATOM     11  H   UNL d   1       1.447  -1.944   0.012  0.00  0.00     0.170 HD
ATOM     12  H   UNL d   1       1.910   2.017  -0.154  0.00  0.00     0.165 HD
ENDROOT
BRANCH   4  13
ATOM     13  C   UNL d   1      -0.232   2.116   1.532  0.00  0.00    -0.030 A 
ATOM     14  C   UNL d   1       0.144   1.390   2.677  0.00  0.00     0.009 A 
ATOM     15  C   UNL d   1       0.057   1.963   3.947  0.00  0.00     0.001 A 
ATOM     16  C   UNL d   1      -0.399   3.268   4.090  0.00  0.00     0.000 A 
ATOM     17  C   UNL d   1      -0.778   4.001   2.967  0.00  0.00     0.001 A 
ATOM     18  C   UNL d   1      -0.697   3.430   1.694  0.00  0.00     0.009 A 
ENDBRANCH   4  13
TORSDOF 1
