REMARK  6 active torsions:
REMARK  status: ('A' for Active; 'I' for Inactive)
REMARK    1  A    between atoms: C_2  and  S_1 
REMARK    2  A    between atoms: N_3  and  S_1 
REMARK    3  A    between atoms: C_8  and  N_3 
REMARK    4  A    between atoms: C_7  and  C_4 
REMARK       I    between atoms: N_14  and  C_7 
REMARK    5  A    between atoms: C_19  and  N_14 
REMARK    6  A    between atoms: C_15  and  C_19 
ROOT
ATOM      1  C   UNL d   1       1.971  -1.957  -2.346  0.00  0.00     0.054 A 
ATOM      2  C   UNL d   1       0.639  -1.976  -1.882  0.00  0.00     0.038 A 
ATOM      3  C   UNL d   1       2.260  -2.478  -3.619  0.00  0.00     0.019 A 
ATOM      4  C   UNL d   1      -0.370  -2.498  -2.701  0.00  0.00     0.025 A 
ATOM      5  C   UNL d   1       1.245  -3.011  -4.416  0.00  0.00     0.001 A 
ATOM      6  C   UNL d   1      -0.068  -3.023  -3.956  0.00  0.00     0.002 A 
ENDROOT
BRANCH   2   7
ATOM      7  N   UNL d   1       0.231  -1.538  -0.582  0.00  0.00    -0.180 NA
ATOM      8  H   UNL d   1       0.818  -1.893   0.184  0.00  0.00     0.146 HD
BRANCH   7   9
ATOM      9  S   UNL d   1      -0.064   0.104  -0.328  0.00  0.00     0.247 S 
ATOM     10  O   UNL d   1      -0.320   0.290   1.087  0.00  0.00    -0.205 OA
ATOM     11  O   UNL d   1       0.988   0.854  -0.987  0.00  0.00    -0.205 OA
BRANCH   9  12
ATOM     12  C   UNL d   1      -1.585   0.471  -1.166  0.00  0.00     0.097 A 
ATOM     13  C   UNL d   1      -2.755  -0.259  -0.966  0.00  0.00     0.058 A 
ATOM     14  C   UNL d   1      -3.911   0.090  -1.679  0.00  0.00     0.050 A 
ATOM     15 CL   UNL d   1      -2.893  -1.586   0.128  0.00  0.00    -0.083 Cl
ATOM     16  C   UNL d   1      -3.916   1.183  -2.554  0.00  0.00     0.041 A 
ATOM     17  C   UNL d   1      -2.760   1.952  -2.735  0.00  0.00    -0.039 A 
ATOM     18 CL   UNL d   1      -5.393   1.532  -3.374  0.00  0.00    -0.084 Cl
ATOM     19  C   UNL d   1      -1.597   1.576  -2.038  0.00  0.00     0.035 A 
ATOM     20  C   UNL d   1      -2.692   3.176  -3.605  0.00  0.00     0.050 C 
ENDBRANCH   9  12
ENDBRANCH   7   9
ENDBRANCH   2   7
BRANCH   1  21
ATOM     21  C   UNL d   1       3.109  -1.597  -1.450  0.00  0.00     0.253 C 
ATOM     22  N   UNL d   1       4.231  -1.045  -2.044  0.00  0.00    -0.356 N 
ATOM     23  H   UNL d   1       4.162  -0.624  -2.956  0.00  0.00     0.162 HD
ATOM     24  O   UNL d   1       3.024  -1.857  -0.257  0.00  0.00    -0.268 OA
BRANCH  22  25
ATOM     25  C   UNL d   1       5.414  -0.819  -1.251  0.00  0.00     0.127 C 
BRANCH  25  26
ATOM     26  C   UNL d   1       6.544  -0.266  -2.067  0.00  0.00     0.003 A 
ATOM     27  C   UNL d   1       7.189  -1.012  -3.212  0.00  0.00     0.007 A 
ATOM     28  C   UNL d   1       7.920  -0.875  -1.909  0.00  0.00     0.007 A 
ENDBRANCH  25  26
ENDBRANCH  22  25
ENDBRANCH   1  21
TORSDOF 6
