REMARK  5 active torsions:
REMARK  status: ('A' for Active; 'I' for Inactive)
REMARK    1  A    between atoms: C_2  and  S_1 
REMARK    2  A    between atoms: O_4  and  S_1 
REMARK    3  A    between atoms: C_3  and  O_4 
REMARK    4  A    between atoms: C_14  and  C_7 
REMARK    5  A    between atoms: O_21  and  C_13 
ROOT
ATOM      1  O   UNL d   1       0.637   1.528  -0.392  0.00  0.00    -0.226 OA
ENDROOT
BRANCH   1   2
ATOM      2  C   UNL d   1       1.111   2.628   0.296  0.00  0.00     0.128 C 
ATOM      3  C   UNL d   1       0.230   3.712   0.416  0.00  0.00     0.070 C 
ATOM      4  C   UNL d   1       0.550   4.836   1.196  0.00  0.00     0.034 C 
ATOM      5 CL   UNL d   1      -1.295   3.723  -0.404  0.00  0.00    -0.081 Cl
ATOM      6  C   UNL d   1       1.755   4.913   1.911  0.00  0.00    -0.048 C 
ATOM      7  C   UNL d   1       2.690   3.896   1.659  0.00  0.00     0.030 C 
ATOM      8  C   UNL d   1       2.389   2.784   0.843  0.00  0.00     0.048 C 
ATOM      9 BR   UNL d   1       3.866   1.647   0.463  0.00  0.00    -0.048 Br
BRANCH   6  10
ATOM     10  C   UNL d   1       2.042   6.058   2.903  0.00  0.00    -0.024 C 
ATOM     11  C   UNL d   1       2.719   7.231   2.172  0.00  0.00     0.019 C 
ATOM     12  C   UNL d   1       0.743   6.576   3.568  0.00  0.00     0.019 C 
ATOM     13  C   UNL d   1       2.965   5.611   4.063  0.00  0.00     0.019 C 
ENDBRANCH   6  10
ENDBRANCH   1   2
BRANCH   1  14
ATOM     14  S   UNL d   1       0.920  -0.001   0.122  0.00  0.00     0.305 S 
ATOM     15  O   UNL d   1       1.886  -0.562  -0.802  0.00  0.00    -0.193 OA
ATOM     16  O   UNL d   1       1.130   0.014   1.554  0.00  0.00    -0.193 OA
BRANCH  14  17
ATOM     17  C   UNL d   1      -0.571  -0.950  -0.125  0.00  0.00     0.121 A 
ATOM     18  C   UNL d   1      -1.713  -0.263  -0.580  0.00  0.00     0.048 A 
ATOM     19  C   UNL d   1      -2.924  -0.938  -0.750  0.00  0.00     0.012 A 
ATOM     20 BR   UNL d   1      -4.469   0.013  -1.280  0.00  0.00    -0.051 Br
ATOM     21  C   UNL d   1      -3.012  -2.300  -0.503  0.00  0.00     0.022 A 
ATOM     22  C   UNL d   1      -1.887  -2.978  -0.040  0.00  0.00     0.040 A 
ATOM     23  C   UNL d   1      -0.659  -2.321   0.175  0.00  0.00     0.092 A 
BRANCH  23  24
ATOM     24  O   UNL d   1       0.220  -3.173   0.780  0.00  0.00    -0.354 OA
ATOM     25  C   UNL d   1       1.615  -3.093   0.554  0.00  0.00     0.210 C 
ENDBRANCH  23  24
ENDBRANCH  14  17
ENDBRANCH   1  14
TORSDOF 5
