REMARK  2 active torsions:
REMARK  status: ('A' for Active; 'I' for Inactive)
REMARK    1  A    between atoms: C_9  and  C_4 
REMARK    2  A    between atoms: S_10  and  C_5 
ROOT
ATOM      1  C   UNL d   1      -0.400  -0.052   0.031  0.00  0.00     0.108 A 
ATOM      2  N   UNL d   1       1.816  -0.569   0.040  0.00  0.00    -0.297 N 
ATOM      3  HN  UNL d   1       2.705  -1.070   0.062  1.00  0.00     0.187 HD
ATOM      4  C   UNL d   1       0.576  -1.092  -0.004  0.00  0.00     0.082 A 
ATOM      5  C   UNL d   1       0.307   1.127   0.036  0.00  0.00     0.107 A 
ATOM      6  N   UNL d   1       1.621   0.759   0.048  0.00  0.00    -0.292 N 
ATOM      7  C   UNL d   1      -1.813  -0.208   0.054  0.00  0.00     0.104 C 
ATOM      8  N   UNL d   1      -2.970  -0.328   0.052  0.00  0.00    -0.191 NA
ATOM      9  H   UNL d   1       2.429   1.371   0.062  0.00  0.00     0.187 HD
ENDROOT
BRANCH   4  10
ATOM     10  C   UNL d   1       0.371  -2.545  -0.072  0.00  0.00    -0.006 A 
ATOM     11  C   UNL d   1       1.276  -3.418   0.549  0.00  0.00     0.014 A 
ATOM     12  C   UNL d   1       1.085  -4.802   0.493  0.00  0.00     0.001 A 
ATOM     13  C   UNL d   1      -0.013  -5.329  -0.184  0.00  0.00     0.000 A 
ATOM     14  C   UNL d   1      -0.915  -4.476  -0.812  0.00  0.00     0.001 A 
ATOM     15  C   UNL d   1      -0.718  -3.094  -0.766  0.00  0.00     0.014 A 
ENDBRANCH   4  10
BRANCH   5  16
ATOM     16  S   UNL d   1      -0.042   2.823   0.034  0.00  0.00    -0.114 SA
ATOM     17  C   UNL d   1      -1.844   2.912  -0.040  0.00  0.00     0.097 C 
ENDBRANCH   5  16
TORSDOF 2
