REMARK  4 active torsions:
REMARK  status: ('A' for Active; 'I' for Inactive)
REMARK    1  A    between atoms: C_10  and  C_1 
REMARK    2  A    between atoms: N_8  and  C_2 
REMARK    3  A    between atoms: N_14  and  C_11 
REMARK    4  A    between atoms: O_16  and  N_14 
ROOT
ATOM      1  C   UNL d   1       3.960   3.319   0.035  0.00  0.00     0.114 A 
ATOM      2  C   UNL d   1       2.976   2.301   0.090  0.00  0.00     0.158 A 
ATOM      3  N   UNL d   1       3.499   1.117  -0.214  0.00  0.00    -0.223 N 
ATOM      4  HN  UNL d   1       3.026   0.214  -0.249  1.00  0.00     0.198 HD
ATOM      5  N   UNL d   1       5.113   2.743  -0.344  0.00  0.00    -0.237 N 
ATOM      6  HN  UNL d   1       6.007   3.206  -0.504  1.00  0.00     0.197 HD
ATOM      7  O   UNL d   1       4.838   1.389  -0.474  0.00  0.00    -0.155 OA
ENDROOT
BRANCH   1   8
ATOM      8  C   UNL d   1       3.878   4.750   0.316  0.00  0.00     0.012 A 
ATOM      9  C   UNL d   1       2.839   5.308   1.056  0.00  0.00     0.101 A 
ATOM     10  N   UNL d   1       2.745   6.623   1.384  0.00  0.00    -0.374 N 
ATOM     11  C   UNL d   1       3.736   7.430   0.955  0.00  0.00     0.087 A 
ATOM     12  HN  UNL d   1       1.961   6.983   1.928  1.00  0.00     0.164 HD
ATOM     13  C   UNL d   1       4.807   6.988   0.200  0.00  0.00     0.018 A 
ATOM     14  C   UNL d   1       4.874   5.633  -0.124  0.00  0.00     0.016 A 
ENDBRANCH   1   8
BRANCH   2  15
ATOM     15  N   UNL d   1       1.643   2.493   0.474  0.00  0.00    -0.338 N 
ATOM     16  C   UNL d   1       0.759   1.706  -0.036  0.00  0.00     0.177 C 
ATOM     17  HN  UNL d   1       1.382   3.228   1.132  1.00  0.00     0.168 HD
BRANCH  16  18
ATOM     18  N   UNL d   1       0.823   0.645  -0.912  0.00  0.00    -0.169 NA
ATOM     19  H   UNL d   1       1.720   0.539  -1.393  0.00  0.00     0.160 HD
BRANCH  18  20
ATOM     20  O   UNL d   1      -0.293   0.551  -1.744  0.00  0.00    -0.310 OA
ATOM     21  H   UNL d   1      -0.950   0.085  -1.191  0.00  0.00     0.237 HD
ENDBRANCH  18  20
ENDBRANCH  16  18
ENDBRANCH   2  15
TORSDOF 4
