REMARK  3 active torsions:
REMARK  status: ('A' for Active; 'I' for Inactive)
REMARK    1  A    between atoms: C_4  and  C_1 
REMARK    2  A    between atoms: C_2  and  N_3 
REMARK    3  A    between atoms: N_3  and  N_6 
REMARK       I    between atoms: N_6  and  C_4 
ROOT
ATOM      1  C   UNL d   1       2.288  -2.030   0.277  0.00  0.00     0.269 C 
ATOM      2  N   UNL d   1       2.499  -3.395   0.343  0.00  0.00    -0.282 N 
ATOM      3  O   UNL d   1       1.273  -1.540  -0.216  0.00  0.00    -0.266 OA
ATOM      4  H   UNL d   1       3.416  -3.786   0.564  0.00  0.00     0.184 HD
ENDROOT
BRANCH   2   5
ATOM      5  N   UNL d   1       1.650  -4.215  -0.416  0.00  0.00    -0.200 NA
ATOM      6  H   UNL d   1       0.867  -3.657  -0.794  0.00  0.00     0.153 HD
BRANCH   5   7
ATOM      7  C   UNL d   1       1.153  -5.374   0.260  0.00  0.00     0.073 A 
ATOM      8  C   UNL d   1      -0.127  -5.855  -0.095  0.00  0.00     0.073 A 
ATOM      9 CL   UNL d   1      -1.140  -4.996  -1.203  0.00  0.00    -0.081 Cl
ATOM     10  C   UNL d   1      -0.601  -7.042   0.454  0.00  0.00     0.113 A 
ATOM     11  N   UNL d   1       0.100  -7.801   1.323  0.00  0.00    -0.372 N 
ATOM     12  C   UNL d   1       1.337  -7.352   1.636  0.00  0.00     0.113 A 
ATOM     13  HN  UNL d   1      -0.281  -8.660   1.719  1.00  0.00     0.164 HD
ATOM     14  C   UNL d   1       1.907  -6.181   1.135  0.00  0.00     0.073 A 
ATOM     15 CL   UNL d   1       3.537  -5.848   1.608  0.00  0.00    -0.081 Cl
ENDBRANCH   5   7
ENDBRANCH   2   5
BRANCH   1  16
ATOM     16  C   UNL d   1       3.341  -1.154   0.857  0.00  0.00     0.072 A 
ATOM     17  C   UNL d   1       4.644  -1.603   1.097  0.00  0.00     0.135 A 
ATOM     18  C   UNL d   1       5.604  -0.763   1.654  0.00  0.00     0.085 A 
ATOM     19  F   UNL d   1       5.007  -2.856   0.785  0.00  0.00    -0.205 F 
ATOM     20  C   UNL d   1       5.253   0.541   1.974  0.00  0.00     0.119 A 
ATOM     21  C   UNL d   1       3.969   1.019   1.737  0.00  0.00     0.043 A 
ATOM     22  F   UNL d   1       6.168   1.353   2.520  0.00  0.00    -0.206 F 
ATOM     23  C   UNL d   1       3.010   0.172   1.171  0.00  0.00     0.023 A 
ENDBRANCH   1  16
TORSDOF 3
