REMARK  5 active torsions:
REMARK  status: ('A' for Active; 'I' for Inactive)
REMARK    1  A    between atoms: C_9  and  C_1 
REMARK    2  A    between atoms: S_6  and  C_2 
REMARK    3  A    between atoms: C_11  and  S_6 
REMARK    4  A    between atoms: C_8  and  C_11 
REMARK    5  A    between atoms: C_10  and  C_8 
ROOT
ATOM      1  C   UNL d   1       0.517  -0.622  -0.925  0.00  0.00     0.027 A 
ATOM      2  C   UNL d   1       1.127  -1.576  -0.188  0.00  0.00     0.061 A 
ATOM      3  C   UNL d   1      -0.163   0.472  -0.145  0.00  0.00     0.091 A 
ATOM      4  S   UNL d   1       1.035  -1.470   1.552  0.00  0.00    -0.044 SA
ATOM      5  S   UNL d   1       0.081   0.316   1.588  0.00  0.00    -0.039 SA
ATOM      6  S   UNL d   1      -1.056   1.762  -0.751  0.00  0.00    -0.071 SA
ENDROOT
BRANCH   2   7
ATOM      7  S   UNL d   1       2.093  -2.850  -0.894  0.00  0.00    -0.113 SA
BRANCH   7   8
ATOM      8  C   UNL d   1       1.354  -4.356  -0.184  0.00  0.00     0.164 C 
BRANCH   8   9
ATOM      9  C   UNL d   1       2.156  -5.607  -0.515  0.00  0.00     0.169 C 
ATOM     10  O   UNL d   1       3.222  -5.593  -1.134  0.00  0.00    -0.291 OA
BRANCH   9  11
ATOM     11  C   UNL d   1       1.651  -6.930  -0.029  0.00  0.00     0.011 A 
ATOM     12  C   UNL d   1       0.440  -7.063   0.669  0.00  0.00     0.017 A 
ATOM     13  C   UNL d   1       0.014  -8.323   1.108  0.00  0.00     0.025 A 
ATOM     14  C   UNL d   1       0.790  -9.451   0.853  0.00  0.00     0.034 A 
ATOM     15  C   UNL d   1       1.989  -9.337   0.155  0.00  0.00     0.025 A 
ATOM     16 CL   UNL d   1       0.262 -10.995   1.405  0.00  0.00    -0.084 Cl
ATOM     17  C   UNL d   1       2.415  -8.080  -0.284  0.00  0.00     0.017 A 
ENDBRANCH   9  11
ENDBRANCH   8   9
ENDBRANCH   7   8
ENDBRANCH   2   7
BRANCH   1  18
ATOM     18  C   UNL d   1       0.482  -0.583  -2.401  0.00  0.00    -0.022 A 
ATOM     19  C   UNL d   1      -0.535  -1.255  -3.095  0.00  0.00     0.012 A 
ATOM     20  C   UNL d   1      -0.693  -1.062  -4.468  0.00  0.00     0.001 A 
ATOM     21  C   UNL d   1       0.166  -0.207  -5.157  0.00  0.00     0.000 A 
ATOM     22  C   UNL d   1       1.205   0.431  -4.481  0.00  0.00     0.001 A 
ATOM     23  C   UNL d   1       1.370   0.239  -3.108  0.00  0.00     0.012 A 
ENDBRANCH   1  18
TORSDOF 5
