REMARK  2 active torsions:
REMARK  status: ('A' for Active; 'I' for Inactive)
REMARK    1  A    between atoms: C_9  and  C_5 
REMARK    2  A    between atoms: C_10  and  C_6 
ROOT
ATOM      1  N   UNL d   1       1.207  -1.399  -0.041  0.00  0.00    -0.352 N 
ATOM      2  HN  UNL d   1       1.222  -2.418  -0.058  1.00  0.00     0.166 HD
ATOM      3  N   UNL d   1       1.152   1.404  -0.007  0.00  0.00    -0.352 N 
ATOM      4  HN  UNL d   1       1.128   2.424  -0.012  1.00  0.00     0.166 HD
ATOM      5  C   UNL d   1       2.368  -0.677  -0.013  0.00  0.00     0.071 A 
ATOM      6  C   UNL d   1       2.337   0.730   0.027  0.00  0.00     0.071 A 
ATOM      7  C   UNL d   1       0.044  -0.724  -0.044  0.00  0.00     0.059 A 
ATOM      8  C   UNL d   1       0.016   0.686  -0.033  0.00  0.00     0.059 A 
ATOM      9  C   UNL d   1      -1.163  -1.417  -0.047  0.00  0.00     0.032 A 
ATOM     10  C   UNL d   1      -1.206   1.344  -0.036  0.00  0.00     0.032 A 
ATOM     11  C   UNL d   1      -2.411   0.640  -0.037  0.00  0.00     0.002 A 
ATOM     12  C   UNL d   1      -2.387  -0.748  -0.040  0.00  0.00     0.002 A 
ENDROOT
BRANCH   5  13
ATOM     13  C   UNL d   1       3.587  -1.520   0.029  0.00  0.00    -0.007 A 
ATOM     14  C   UNL d   1       4.744  -1.224  -0.717  0.00  0.00     0.015 A 
ATOM     15  C   UNL d   1       5.936  -1.931  -0.518  0.00  0.00     0.024 A 
ATOM     16  C   UNL d   1       5.972  -2.988   0.386  0.00  0.00     0.034 A 
ATOM     17  C   UNL d   1       4.819  -3.367   1.064  0.00  0.00     0.024 A 
ATOM     18 CL   UNL d   1       7.450  -3.816   0.679  0.00  0.00    -0.084 Cl
ATOM     19  C   UNL d   1       3.638  -2.639   0.883  0.00  0.00     0.015 A 
ENDBRANCH   5  13
BRANCH   6  20
ATOM     20  C   UNL d   1       3.511   1.632   0.124  0.00  0.00    -0.007 A 
ATOM     21  C   UNL d   1       3.567   2.800  -0.659  0.00  0.00     0.014 A 
ATOM     22  C   UNL d   1       4.678   3.648  -0.630  0.00  0.00     0.001 A 
ATOM     23  C   UNL d   1       5.765   3.341   0.182  0.00  0.00     0.000 A 
ATOM     24  C   UNL d   1       5.723   2.212   0.993  0.00  0.00     0.001 A 
ATOM     25  C   UNL d   1       4.596   1.384   0.985  0.00  0.00     0.014 A 
ENDBRANCH   6  20
TORSDOF 2
