REMARK  3 active torsions:
REMARK  status: ('A' for Active; 'I' for Inactive)
REMARK    1  A    between atoms: C_15  and  C_5 
REMARK    2  A    between atoms: C_6  and  S_13 
REMARK    3  A    between atoms: S_13  and  C_15 
ROOT
ATOM      1  S   UNL d   1      -2.416   3.170   0.440  0.00  0.00    -0.124 SA
ENDROOT
BRANCH   1   2
ATOM      2  C   UNL d   1      -3.919   4.094   0.089  0.00  0.00     0.007 A 
ATOM      3  C   UNL d   1      -5.151   3.427  -0.041  0.00  0.00     0.027 A 
ATOM      4  C   UNL d   1      -6.363   4.122  -0.216  0.00  0.00    -0.039 A 
ATOM      5  C   UNL d   1      -7.646   3.356  -0.373  0.00  0.00     0.050 C 
ATOM      6  C   UNL d   1      -6.335   5.519  -0.231  0.00  0.00     0.040 A 
ATOM      7  C   UNL d   1      -5.123   6.198  -0.106  0.00  0.00     0.032 A 
ATOM      8 CL   UNL d   1      -7.777   6.456  -0.390  0.00  0.00    -0.084 Cl
ATOM      9  C   UNL d   1      -3.905   5.504   0.038  0.00  0.00    -0.044 A 
ATOM     10  C   UNL d   1      -2.665   6.352   0.154  0.00  0.00     0.049 C 
ENDBRANCH   1   2
BRANCH   1  11
ATOM     11  C   UNL d   1      -2.603   1.670  -0.574  0.00  0.00     0.134 C 
BRANCH  11  12
ATOM     12  C   UNL d   1      -1.353   0.844  -0.467  0.00  0.00     0.022 A 
ATOM     13  N   UNL d   1      -1.309  -0.328   0.099  0.00  0.00    -0.305 N 
ATOM     14  N   UNL d   1      -0.017  -0.759  -0.029  0.00  0.00    -0.270 N 
ATOM     15  HN  UNL d   1      -2.081  -0.823   0.547  1.00  0.00     0.186 HD
ATOM     16  C   UNL d   1       0.828   0.116  -0.695  0.00  0.00     0.241 A 
ATOM     17  H   UNL d   1       0.275  -1.656   0.340  0.00  0.00     0.190 HD
ATOM     18  O   UNL d   1       2.009  -0.038  -0.946  0.00  0.00    -0.271 OA
ATOM     19  C   UNL d   1      -0.036   1.290  -1.042  0.00  0.00     0.159 A 
ENDBRANCH  11  12
ENDBRANCH   1  11
TORSDOF 3
