REMARK  5 active torsions:
REMARK  status: ('A' for Active; 'I' for Inactive)
REMARK    1  A    between atoms: C_5  and  C_1 
REMARK    2  A    between atoms: N_7  and  C_2 
REMARK    3  A    between atoms: O_17  and  C_5 
REMARK       I    between atoms: C_8  and  N_7 
REMARK    4  A    between atoms: C_10  and  C_8 
REMARK    5  A    between atoms: C_11  and  C_10 
ROOT
ATOM      1  N   UNL d   1       1.351   2.525  -0.276  0.00  0.00    -0.325 N 
ATOM      2  C   UNL d   1       2.512   2.979  -0.874  0.00  0.00     0.224 C 
ATOM      3  O   UNL d   1       2.648   4.035  -1.483  0.00  0.00    -0.273 OA
ATOM      4  H   UNL d   1       1.474   1.813   0.447  0.00  0.00     0.169 HD
ENDROOT
BRANCH   1   5
ATOM      5  C   UNL d   1       0.150   3.240  -0.201  0.00  0.00     0.064 C 
ATOM      6  C   UNL d   1      -0.690   3.060   0.894  0.00  0.00     0.107 C 
ATOM      7  S   UNL d   1      -1.997   4.159   0.884  0.00  0.00    -0.093 SA
ATOM      8  C   UNL d   1      -1.540   4.782  -0.631  0.00  0.00     0.059 C 
ATOM      9  C   UNL d   1      -0.412   4.171  -1.151  0.00  0.00    -0.027 C 
ATOM     10  C   UNL d   1       0.079   4.461  -2.533  0.00  0.00     0.051 C 
BRANCH   6  11
ATOM     11  C   UNL d   1      -0.514   2.089   1.959  0.00  0.00     0.302 C 
ATOM     12  O   UNL d   1       0.155   1.065   1.847  0.00  0.00    -0.259 OA
BRANCH  11  13
ATOM     13  O   UNL d   1      -1.139   2.470   3.111  0.00  0.00    -0.322 OA
ATOM     14  C   UNL d   1      -0.885   1.601   4.214  0.00  0.00     0.213 C 
ENDBRANCH  11  13
ENDBRANCH   6  11
ENDBRANCH   1   5
BRANCH   2  15
ATOM     15  C   UNL d   1       3.679   2.018  -0.703  0.00  0.00     0.148 C 
BRANCH  15  16
ATOM     16  C   UNL d   1       4.769   2.526   0.245  0.00  0.00     0.320 C 
ATOM     17  C   UNL d   1       4.224   2.763   1.673  0.00  0.00     0.251 C 
ATOM     18  N   UNL d   1       5.038   3.466   2.533  0.00  0.00    -0.358 N 
ATOM     19  O   UNL d   1       3.192   2.245   2.091  0.00  0.00    -0.271 OA
ATOM     20  C   UNL d   1       5.962   4.467   2.025  0.00  0.00     0.152 C 
ATOM     21  H   UNL d   1       4.627   3.619   3.443  0.00  0.00     0.162 HD
ATOM     22  C   UNL d   1       6.550   4.108   0.656  0.00  0.00     0.290 C 
ATOM     23  N   UNL d   1       5.491   3.708  -0.273  0.00  0.00     0.099 N 
ATOM     24  H   UNL d   1       5.876   3.507  -1.193  0.00  0.00     0.317 HD
ENDBRANCH  15  16
ENDBRANCH   2  15
TORSDOF 5
