REMARK  8 active torsions:
REMARK  status: ('A' for Active; 'I' for Inactive)
REMARK    1  A    between atoms: C_2  and  C_1 
REMARK    2  A    between atoms: N_3  and  C_1 
REMARK    3  A    between atoms: C_4  and  C_1 
REMARK    4  A    between atoms: N_5  and  C_1 
REMARK       I    between atoms: C_6  and  N_3 
REMARK    5  A    between atoms: O_13  and  C_4 
REMARK    6  A    between atoms: C_12  and  N_5 
REMARK    7  A    between atoms: C_14  and  C_6 
REMARK    8  A    between atoms: C_15  and  O_13 
ROOT
ATOM      1  C   UNL d   1       0.975   0.073   0.027  0.00  0.00     0.296 C 
ENDROOT
BRANCH   1   2
ATOM      2  C   UNL d   1       0.342   0.885   1.211  0.00  0.00     0.442 C 
ATOM      3  F   UNL d   1      -0.128   2.096   0.810  0.00  0.00    -0.166 F 
ATOM      4  F   UNL d   1      -0.682   0.249   1.829  0.00  0.00    -0.166 F 
ATOM      5  F   UNL d   1       1.262   1.144   2.180  0.00  0.00    -0.166 F 
ENDBRANCH   1   2
BRANCH   1   6
ATOM      6  N   UNL d   1       0.554   0.422  -1.323  0.00  0.00    -0.319 N 
ATOM      7  C   UNL d   1      -0.768   0.498  -1.661  0.00  0.00     0.219 C 
ATOM      8  O   UNL d   1      -1.664   0.367  -0.837  0.00  0.00    -0.274 OA
ATOM      9  H   UNL d   1       1.288   0.469  -2.014  0.00  0.00     0.165 HD
BRANCH   7  10
ATOM     10  C   UNL d   1      -1.027   0.767  -3.124  0.00  0.00     0.098 C 
ATOM     11  C   UNL d   1      -0.707   2.206  -3.476  0.00  0.00     0.014 C 
ENDBRANCH   7  10
ENDBRANCH   1   6
BRANCH   1  12
ATOM     12  C   UNL d   1       0.597  -1.412   0.309  0.00  0.00     0.318 C 
ATOM     13  O   UNL d   1       0.007  -2.168  -0.464  0.00  0.00    -0.260 OA
BRANCH  12  14
ATOM     14  O   UNL d   1       1.133  -1.827   1.503  0.00  0.00    -0.318 OA
BRANCH  14  15
ATOM     15  C   UNL d   1       0.802  -3.169   1.894  0.00  0.00     0.174 C 
ATOM     16  C   UNL d   1       1.753  -4.162   1.254  0.00  0.00     0.034 C 
ENDBRANCH  14  15
ENDBRANCH  12  14
ENDBRANCH   1  12
BRANCH   1  17
ATOM     17  N   UNL d   1       2.468   0.105  -0.095  0.00  0.00    -0.348 N 
ATOM     18  H   UNL d   1       2.894  -0.594   0.516  0.00  0.00     0.163 HD
BRANCH  17  19
ATOM     19  C   UNL d   1       3.280   1.226  -0.196  0.00  0.00     0.030 A 
ATOM     20  C   UNL d   1       2.827   2.538  -0.343  0.00  0.00     0.029 A 
ATOM     21  C   UNL d   1       3.727   3.600  -0.511  0.00  0.00     0.002 A 
ATOM     22  C   UNL d   1       5.096   3.361  -0.582  0.00  0.00     0.000 A 
ATOM     23  C   UNL d   1       5.568   2.058  -0.479  0.00  0.00     0.002 A 
ATOM     24  C   UNL d   1       4.667   1.008  -0.290  0.00  0.00     0.029 A 
ENDBRANCH  17  19
ENDBRANCH   1  17
TORSDOF 8
