REMARK  9 active torsions:
REMARK  status: ('A' for Active; 'I' for Inactive)
REMARK    1  A    between atoms: S_4  and  C_1 
REMARK    2  A    between atoms: N_9  and  C_2 
REMARK    3  A    between atoms: C_12  and  C_3 
REMARK    4  A    between atoms: C_22  and  S_4 
REMARK    5  A    between atoms: S_5  and  C_8 
REMARK    6  A    between atoms: C_13  and  S_5 
REMARK    7  A    between atoms: S_23  and  C_6 
REMARK    8  A    between atoms: N_10  and  N_9 
REMARK    9  A    between atoms: O_25  and  C_12 
ROOT
ATOM      1  C   UNL d   1       2.770   5.296  -0.147  0.00  0.00     0.230 C 
ATOM      2  N   UNL d   1       1.666   4.759   0.310  0.00  0.00    -0.281 N 
ATOM      3  HN  UNL d   1       0.984   5.342   0.796  1.00  0.00     0.188 HD
ATOM      4  C   UNL d   1       3.770   4.446  -0.723  0.00  0.00     0.132 C 
ATOM      5  N   UNL d   1       4.538   3.678  -1.142  0.00  0.00    -0.189 NA
ENDROOT
BRANCH   1   6
ATOM      6  S   UNL d   1       3.090   7.019  -0.146  0.00  0.00     0.249 S 
ATOM      7  O   UNL d   1       4.495   7.210  -0.474  0.00  0.00    -0.214 OA
ATOM      8  O   UNL d   1       2.071   7.666  -0.955  0.00  0.00    -0.214 OA
BRANCH   6   9
ATOM      9  C   UNL d   1       2.863   7.539   1.534  0.00  0.00     0.135 A 
ATOM     10  N   UNL d   1       3.692   6.925   2.418  0.00  0.00    -0.356 N 
ATOM     11  C   UNL d   1       3.601   7.350   3.698  0.00  0.00     0.089 A 
ATOM     12  HN  UNL d   1       4.342   6.192   2.135  1.00  0.00     0.166 HD
ATOM     13  C   UNL d   1       2.701   8.315   4.130  0.00  0.00     0.017 A 
ATOM     14  C   UNL d   1       1.853   8.905   3.195  0.00  0.00     0.004 A 
ATOM     15  C   UNL d   1       1.942   8.526   1.860  0.00  0.00     0.042 A 
ENDBRANCH   6   9
ENDBRANCH   1   6
BRANCH   2  16
ATOM     16  N   UNL d   1       1.417   3.423   0.144  0.00  0.00    -0.296 N 
ATOM     17  H   UNL d   1       2.220   2.775   0.135  0.00  0.00     0.187 HD
BRANCH  16  18
ATOM     18  C   UNL d   1       0.169   2.854   0.048  0.00  0.00     0.094 C 
ATOM     19  C   UNL d   1      -1.139   3.509  -0.038  0.00  0.00     0.112 C 
ATOM     20  C   UNL d   1      -2.171   2.581   0.024  0.00  0.00     0.065 C 
ATOM     21  S   UNL d   1      -1.597   0.981  -0.024  0.00  0.00    -0.073 SA
ATOM     22  C   UNL d   1       0.041   1.463  -0.001  0.00  0.00     0.111 C 
BRANCH  19  23
ATOM     23  S   UNL d   1      -1.448   5.229  -0.177  0.00  0.00     0.183 S 
ATOM     24  O   UNL d   1      -0.301   5.830  -0.820  0.00  0.00    -0.222 OA
ATOM     25  O   UNL d   1      -2.730   5.336  -0.846  0.00  0.00    -0.222 OA
BRANCH  23  26
ATOM     26  C   UNL d   1      -1.648   5.849   1.499  0.00  0.00     0.105 C 
ATOM     27  C   UNL d   1      -0.451   5.609   2.404  0.00  0.00     0.026 C 
ATOM     28  C   UNL d   1      -1.963   7.345   1.443  0.00  0.00     0.026 C 
ENDBRANCH  23  26
ENDBRANCH  19  23
BRANCH  20  29
ATOM     29  S   UNL d   1      -3.918   2.805   0.195  0.00  0.00    -0.126 SA
ATOM     30  C   UNL d   1      -4.446   2.671  -1.534  0.00  0.00     0.096 C 
ENDBRANCH  20  29
BRANCH  22  31
ATOM     31  C   UNL d   1       1.013   0.372  -0.020  0.00  0.00     0.302 C 
ATOM     32  O   UNL d   1       0.755  -0.818  -0.148  0.00  0.00    -0.259 OA
BRANCH  31  33
ATOM     33  O   UNL d   1       2.288   0.850   0.128  0.00  0.00    -0.322 OA
ATOM     34  C   UNL d   1       3.283  -0.181   0.112  0.00  0.00     0.213 C 
ENDBRANCH  31  33
ENDBRANCH  22  31
ENDBRANCH  16  18
ENDBRANCH   2  16
TORSDOF 9
