REMARK  4 active torsions:
REMARK  status: ('A' for Active; 'I' for Inactive)
REMARK    1  A    between atoms: C_4  and  C_3 
REMARK    2  A    between atoms: C_6  and  C_5 
REMARK    3  A    between atoms: C_20  and  C_7 
REMARK    4  A    between atoms: C_21  and  C_22 
ROOT
ATOM      1  N   UNL d   1       0.520   0.205  -0.974  0.00  0.00    -0.317 N 
ATOM      2  HN  UNL d   1       1.128   0.388  -1.773  1.00  0.00     0.169 HD
ATOM      3  C   UNL d   1      -0.089  -0.917  -0.644  0.00  0.00     0.200 A 
ATOM      4  C   UNL d   1       0.134   1.071   0.028  0.00  0.00     0.138 A 
ATOM      5  N   UNL d   1      -0.631   0.500   0.971  0.00  0.00    -0.242 N 
ATOM      6  HN  UNL d   1      -1.009   0.926   1.817  1.00  0.00     0.196 HD
ATOM      7  O   UNL d   1      -0.787  -0.807   0.527  0.00  0.00    -0.215 OA
ENDROOT
BRANCH   3   8
ATOM      8  C   UNL d   1      -0.062  -2.162  -1.464  0.00  0.00     0.111 A 
ATOM      9  C   UNL d   1       0.690  -2.366  -2.640  0.00  0.00     0.077 A 
ATOM     10  C   UNL d   1       0.354  -3.634  -3.046  0.00  0.00     0.128 A 
ATOM     11  O   UNL d   1      -0.550  -4.153  -2.167  0.00  0.00    -0.235 OA
ATOM     12  N   UNL d   1      -0.799  -3.238  -1.158  0.00  0.00    -0.256 N 
ATOM     13  HN  UNL d   1      -1.413  -3.358  -0.353  1.00  0.00     0.195 HD
BRANCH  10  14
ATOM     14  C   UNL d   1       0.883  -4.345  -4.238  0.00  0.00     0.075 A 
ATOM     15  N   UNL d   1       1.883  -3.803  -5.024  0.00  0.00    -0.352 N 
ATOM     16  C   UNL d   1       2.206  -4.653  -5.976  0.00  0.00     0.047 A 
ATOM     17  HN  UNL d   1       2.307  -2.885  -4.887  1.00  0.00     0.166 HD
ATOM     18  C   UNL d   1       3.289  -4.433  -6.971  0.00  0.00     0.076 C 
ATOM     19  S   UNL d   1       1.286  -6.107  -6.016  0.00  0.00    -0.087 SA
ATOM     20  C   UNL d   1       0.428  -5.587  -4.627  0.00  0.00     0.084 A 
ENDBRANCH  10  14
ENDBRANCH   3   8
BRANCH   4  21
ATOM     21  C   UNL d   1       0.480   2.488   0.024  0.00  0.00     0.010 A 
ATOM     22  C   UNL d   1       1.258   3.037  -0.999  0.00  0.00     0.016 A 
ATOM     23  C   UNL d   1       1.550   4.409  -1.015  0.00  0.00     0.009 A 
ATOM     24  C   UNL d   1       1.079   5.275  -0.010  0.00  0.00    -0.051 A 
ATOM     25  C   UNL d   1       0.303   4.707   1.011  0.00  0.00     0.009 A 
ATOM     26  C   UNL d   1       0.010   3.338   1.030  0.00  0.00     0.016 A 
BRANCH  24  27
ATOM     27  C   UNL d   1       1.419   6.775  -0.046  0.00  0.00    -0.024 C 
ATOM     28  C   UNL d   1       0.825   7.574   1.137  0.00  0.00     0.019 C 
ATOM     29  C   UNL d   1       2.951   6.957   0.004  0.00  0.00     0.019 C 
ATOM     30  C   UNL d   1       0.875   7.412  -1.343  0.00  0.00     0.019 C 
ENDBRANCH  24  27
ENDBRANCH   4  21
TORSDOF 4
