REMARK  8 active torsions:
REMARK  status: ('A' for Active; 'I' for Inactive)
REMARK    1  A    between atoms: N_2  and  C_1 
REMARK    2  A    between atoms: N_3  and  C_1 
REMARK    3  A    between atoms: C_6  and  N_2 
REMARK    4  A    between atoms: C_5  and  N_3 
REMARK    5  A    between atoms: C_9  and  C_6 
REMARK    6  A    between atoms: O_10  and  C_8 
REMARK    7  A    between atoms: C_14  and  C_9 
REMARK    8  A    between atoms: O_11  and  C_14 
ROOT
ATOM      1  C   UNL d   1       1.043   0.044  -0.104  0.00  0.00     0.172 C 
ATOM      2  S   UNL d   1       2.456   0.589  -0.810  0.00  0.00    -0.041 SA
ENDROOT
BRANCH   1   3
ATOM      3  N   UNL d   1       0.545  -1.252  -0.168  0.00  0.00    -0.358 N 
ATOM      4  H   UNL d   1      -0.465  -1.269  -0.104  0.00  0.00     0.162 HD
BRANCH   3   5
ATOM      5  C   UNL d   1       1.150  -2.505  -0.692  0.00  0.00     0.027 C 
ATOM      6  C   UNL d   1       0.168  -3.652  -0.357  0.00  0.00     0.038 C 
ATOM      7  C   UNL d   1       1.287  -2.469  -2.225  0.00  0.00     0.038 C 
BRANCH   5   8
ATOM      8  C   UNL d   1       2.521  -2.817  -0.040  0.00  0.00     0.056 C 
BRANCH   8   9
ATOM      9  C   UNL d   1       2.527  -2.763   1.486  0.00  0.00     0.166 C 
BRANCH   9  10
ATOM     10  O   UNL d   1       3.842  -3.042   1.955  0.00  0.00    -0.401 OA
ATOM     11  H   UNL d   1       3.854  -2.836   2.906  0.00  0.00     0.209 HD
ENDBRANCH   9  10
ENDBRANCH   8   9
ENDBRANCH   5   8
ENDBRANCH   3   5
ENDBRANCH   1   3
BRANCH   1  12
ATOM     12  N   UNL d   1       0.217   0.782   0.749  0.00  0.00    -0.333 N 
ATOM     13  H   UNL d   1      -0.125   0.238   1.529  0.00  0.00     0.168 HD
BRANCH  12  14
ATOM     14  C   UNL d   1       0.195   2.182   0.932  0.00  0.00     0.036 A 
ATOM     15  C   UNL d   1       0.354   3.069  -0.135  0.00  0.00     0.066 A 
ATOM     16  C   UNL d   1       0.340   4.448   0.075  0.00  0.00     0.070 A 
ATOM     17  C   UNL d   1       0.142   4.939   1.366  0.00  0.00     0.037 A 
ATOM     18  C   UNL d   1      -0.060   4.063   2.433  0.00  0.00     0.005 A 
ATOM     19  C   UNL d   1      -0.051   2.683   2.214  0.00  0.00     0.029 A 
BRANCH  16  20
ATOM     20  O   UNL d   1       0.499   5.402  -0.894  0.00  0.00    -0.356 OA
ATOM     21  C   UNL d   1       0.768   4.927  -2.210  0.00  0.00     0.210 C 
ENDBRANCH  16  20
ENDBRANCH  12  14
ENDBRANCH   1  12
TORSDOF 8
