REMARK  5 active torsions:
REMARK  status: ('A' for Active; 'I' for Inactive)
REMARK    1  A    between atoms: C_2  and  C_1 
REMARK    2  A    between atoms: N_14  and  C_2 
REMARK    3  A    between atoms: O_11  and  N_3 
REMARK    4  A    between atoms: C_5  and  O_11 
REMARK       I    between atoms: N_10  and  C_5 
REMARK    5  A    between atoms: C_15  and  N_10 
ROOT
ATOM      1  C   UNL d   1       0.178   1.275  -0.969  0.00  0.00     0.135 C 
ATOM      2  N   UNL d   1       0.750   2.435  -1.128  0.00  0.00    -0.242 N 
ATOM      3  HN  UNL d   1       1.346   2.681  -1.918  1.00  0.00     0.196 HD
ENDROOT
BRANCH   2   4
ATOM      4  O   UNL d   1       0.436   3.304  -0.061  0.00  0.00    -0.179 OA
BRANCH   4   5
ATOM      5  C   UNL d   1       1.127   4.472  -0.216  0.00  0.00     0.387 C 
ATOM      6  N   UNL d   1       0.378   5.623  -0.166  0.00  0.00    -0.301 N 
ATOM      7  H   UNL d   1       0.968   6.438  -0.268  0.00  0.00     0.171 HD
ATOM      8  O   UNL d   1       2.344   4.535  -0.371  0.00  0.00    -0.236 OA
BRANCH   6   9
ATOM      9  C   UNL d   1      -1.014   5.834  -0.204  0.00  0.00     0.036 A 
ATOM     10  C   UNL d   1      -1.985   4.831  -0.152  0.00  0.00     0.029 A 
ATOM     11  C   UNL d   1      -3.344   5.147  -0.261  0.00  0.00     0.002 A 
ATOM     12  C   UNL d   1      -3.749   6.468  -0.423  0.00  0.00     0.000 A 
ATOM     13  C   UNL d   1      -2.794   7.479  -0.464  0.00  0.00     0.002 A 
ATOM     14  C   UNL d   1      -1.438   7.163  -0.348  0.00  0.00     0.029 A 
ENDBRANCH   6   9
ENDBRANCH   4   5
ENDBRANCH   2   4
BRANCH   1  15
ATOM     15  C   UNL d   1       0.297   0.360  -2.083  0.00  0.00     0.139 A 
ATOM     16  O   UNL d   1      -0.273  -0.875  -1.970  0.00  0.00    -0.235 OA
ATOM     17  N   UNL d   1      -0.087  -1.582  -3.148  0.00  0.00    -0.272 N 
ATOM     18  C   UNL d   1       0.589  -0.756  -3.950  0.00  0.00     0.117 A 
ATOM     19  HN  UNL d   1      -0.400  -2.530  -3.357  1.00  0.00     0.194 HD
ATOM     20  C   UNL d   1       0.866   0.473  -3.331  0.00  0.00     0.062 A 
ENDBRANCH   1  15
BRANCH   1  21
ATOM     21  N   UNL d   1      -0.502   0.936   0.180  0.00  0.00    -0.285 NA
ATOM     22  H   UNL d   1      -0.555  -0.061   0.364  0.00  0.00     0.125 HD
ATOM     23  H   UNL d   1      -0.207   1.479   0.984  0.00  0.00     0.125 HD
ENDBRANCH   1  21
TORSDOF 5
