REMARK  6 active torsions:
REMARK  status: ('A' for Active; 'I' for Inactive)
REMARK    1  A    between atoms: C_2  and  C_1 
REMARK       I    between atoms: N_4  and  C_2 
REMARK    2  A    between atoms: C_3  and  N_8 
REMARK       I    between atoms: C_5  and  N_4 
REMARK       I    between atoms: N_8  and  C_5 
REMARK    3  A    between atoms: O_21  and  C_6 
REMARK    4  A    between atoms: O_20  and  C_7 
REMARK    5  A    between atoms: C_16  and  C_11 
REMARK    6  A    between atoms: C_17  and  C_12 
ROOT
ATOM      1  C   UNL d   1      -4.222  -5.043   2.500  0.00  0.00     0.265 C 
ATOM      2  N   UNL d   1      -2.912  -4.691   2.050  0.00  0.00    -0.275 N 
ATOM      3  C   UNL d   1      -1.856  -4.100   1.345  0.00  0.00     0.327 C 
ATOM      4  N   UNL d   1      -2.062  -3.240   0.304  0.00  0.00    -0.308 N 
ATOM      5  O   UNL d   1      -4.161  -5.420   3.683  0.00  0.00    -0.267 OA
ATOM      6  O   UNL d   1      -0.736  -4.340   1.809  0.00  0.00    -0.247 OA
ATOM      7  H   UNL d   1      -2.381  -5.030   2.851  0.00  0.00     0.173 HD
ATOM      8  H   UNL d   1      -2.515  -3.691  -0.476  0.00  0.00     0.170 HD
ENDROOT
BRANCH   1   9
ATOM      9  C   UNL d   1      -5.577  -4.939   1.869  0.00  0.00     0.102 C 
ATOM     10  C   UNL d   1      -5.854  -4.220   0.701  0.00  0.00     0.108 C 
ATOM     11  C   UNL d   1      -7.181  -3.844   0.410  0.00  0.00     0.069 C 
ATOM     12 CL   UNL d   1      -7.561  -2.736  -0.861  0.00  0.00    -0.081 Cl
ATOM     13  C   UNL d   1      -8.243  -4.316   1.167  0.00  0.00     0.048 C 
ATOM     14  C   UNL d   1      -8.015  -5.201   2.221  0.00  0.00     0.047 C 
ATOM     15  C   UNL d   1      -6.691  -5.550   2.557  0.00  0.00     0.104 C 
ATOM     16 BR   UNL d   1      -9.568  -5.715   3.192  0.00  0.00    -0.048 Br
BRANCH  10  17
ATOM     17  O   UNL d   1      -4.836  -3.945  -0.175  0.00  0.00    -0.353 OA
ATOM     18  C   UNL d   1      -5.046  -4.614  -1.428  0.00  0.00     0.210 C 
ENDBRANCH  10  17
BRANCH  15  19
ATOM     19  O   UNL d   1      -6.404  -6.416   3.588  0.00  0.00    -0.353 OA
ATOM     20  C   UNL d   1      -7.107  -7.652   3.690  0.00  0.00     0.210 C 
ENDBRANCH  15  19
ENDBRANCH   1   9
BRANCH   4  21
ATOM     21  C   UNL d   1      -0.968  -2.346  -0.011  0.00  0.00     0.049 A 
ATOM     22  C   UNL d   1      -0.112  -2.492  -1.143  0.00  0.00    -0.027 A 
ATOM     23  C   UNL d   1       0.950  -1.549  -1.296  0.00  0.00     0.010 A 
ATOM     24  C   UNL d   1       1.208  -0.540  -0.385  0.00  0.00     0.001 A 
ATOM     25  C   UNL d   1       0.398  -0.424   0.724  0.00  0.00     0.010 A 
ATOM     26  C   UNL d   1      -0.712  -1.276   0.917  0.00  0.00    -0.027 A 
BRANCH  22  27
ATOM     27  C   UNL d   1       0.026  -3.644  -2.148  0.00  0.00     0.013 C 
ATOM     28  C   UNL d   1      -0.829  -4.896  -2.034  0.00  0.00     0.015 C 
ATOM     29  C   UNL d   1       0.032  -3.179  -3.626  0.00  0.00     0.015 C 
ENDBRANCH  22  27
BRANCH  26  30
ATOM     30  C   UNL d   1      -1.600  -0.966   2.130  0.00  0.00     0.013 C 
ATOM     31  C   UNL d   1      -0.937  -1.381   3.449  0.00  0.00     0.015 C 
ATOM     32  C   UNL d   1      -1.970   0.528   2.204  0.00  0.00     0.015 C 
ENDBRANCH  26  30
ENDBRANCH   4  21
TORSDOF 6
