REMARK  2 active torsions:
REMARK  status: ('A' for Active; 'I' for Inactive)
REMARK    1  A    between atoms: C_3  and  C_1 
REMARK    2  A    between atoms: C_4  and  C_2 
REMARK       I    between atoms: N_6  and  C_3 
REMARK       I    between atoms: N_7  and  C_4 
ROOT
ATOM      1  C   UNL d   1      -0.057   1.194  -0.230  0.00  0.00     0.071 C 
ATOM      2  C   UNL d   1      -0.045  -1.211   0.044  0.00  0.00     0.071 C 
ATOM      3  C   UNL d   1       0.653  -0.003  -0.074  0.00  0.00     0.147 C 
ATOM      4  F   UNL d   1       1.994   0.006  -0.043  0.00  0.00    -0.204 F 
ATOM      5  C   UNL d   1      -1.456   1.161  -0.346  0.00  0.00     0.020 C 
ATOM      6  C   UNL d   1      -1.448  -1.206   0.089  0.00  0.00     0.020 C 
ATOM      7  C   UNL d   1      -2.151  -0.027  -0.144  0.00  0.00     0.002 C 
ENDROOT
BRANCH   1   8
ATOM      8  C   UNL d   1       0.670   2.479  -0.365  0.00  0.00     0.256 C 
ATOM      9  N   UNL d   1       0.302   3.587   0.424  0.00  0.00    -0.348 N 
ATOM     10  C   UNL d   1       0.856   4.888   0.038  0.00  0.00     0.126 C 
ATOM     11  C   UNL d   1      -0.844   3.624   1.338  0.00  0.00     0.126 C 
ATOM     12  C   UNL d   1       1.069   5.820   1.227  0.00  0.00     0.020 C 
ATOM     13  C   UNL d   1      -0.192   5.944   2.071  0.00  0.00     0.003 C 
ATOM     14  C   UNL d   1      -0.648   4.564   2.522  0.00  0.00     0.020 C 
ATOM     15  O   UNL d   1       1.563   2.529  -1.208  0.00  0.00    -0.267 OA
ENDBRANCH   1   8
BRANCH   2  16
ATOM     16  C   UNL d   1       0.686  -2.490   0.196  0.00  0.00     0.256 C 
ATOM     17  N   UNL d   1       0.362  -3.579  -0.631  0.00  0.00    -0.348 N 
ATOM     18  C   UNL d   1       0.876  -4.896  -0.250  0.00  0.00     0.126 C 
ATOM     19  C   UNL d   1      -0.666  -3.577  -1.677  0.00  0.00     0.126 C 
ATOM     20  C   UNL d   1       1.296  -5.725  -1.460  0.00  0.00     0.020 C 
ATOM     21  C   UNL d   1       0.173  -5.814  -2.487  0.00  0.00     0.003 C 
ATOM     22  C   UNL d   1      -0.281  -4.418  -2.889  0.00  0.00     0.020 C 
ATOM     23  O   UNL d   1       1.529  -2.551   1.089  0.00  0.00    -0.267 OA
ENDBRANCH   2  16
TORSDOF 2
