REMARK  6 active torsions:
REMARK  status: ('A' for Active; 'I' for Inactive)
REMARK    1  A    between atoms: C_18  and  N_1 
REMARK    2  A    between atoms: C_8  and  N_4 
REMARK    3  A    between atoms: C_5  and  S_17 
REMARK    4  A    between atoms: S_17  and  C_27 
REMARK    5  A    between atoms: C_26  and  C_18 
REMARK    6  A    between atoms: C_27  and  C_26 
ROOT
ATOM      1  S   UNL d   1       6.053   3.163  -0.425  0.00  0.00    -0.093 SA
ENDROOT
BRANCH   1   2
ATOM      2  C   UNL d   1       7.781   3.057  -0.420  0.00  0.00     0.151 A 
ATOM      3  N   UNL d   1       8.614   4.176  -0.430  0.00  0.00    -0.300 N 
ATOM      4  C   UNL d   1       9.888   3.663  -0.589  0.00  0.00     0.116 A 
ATOM      5  C   UNL d   1       9.753   2.298  -0.673  0.00  0.00     0.108 A 
ATOM      6  N   UNL d   1       8.444   1.930  -0.559  0.00  0.00    -0.345 N 
ATOM      7  HN  UNL d   1       8.063   0.985  -0.576  1.00  0.00     0.167 HD
BRANCH   3   8
ATOM      8  C   UNL d   1       8.271   5.557  -0.270  0.00  0.00     0.064 A 
ATOM      9  C   UNL d   1       7.246   5.900   0.635  0.00  0.00     0.055 A 
ATOM     10  C   UNL d   1       6.826   7.222   0.779  0.00  0.00     0.036 A 
ATOM     11 CL   UNL d   1       5.526   7.596   1.843  0.00  0.00    -0.084 Cl
ATOM     12  C   UNL d   1       7.448   8.236   0.066  0.00  0.00     0.026 A 
ATOM     13  C   UNL d   1       8.492   7.921  -0.803  0.00  0.00     0.028 A 
ATOM     14  C   UNL d   1       8.904   6.590  -0.986  0.00  0.00     0.061 A 
ATOM     15 CL   UNL d   1      10.092   6.348  -2.220  0.00  0.00    -0.082 Cl
ENDBRANCH   3   8
ENDBRANCH   1   2
BRANCH   1  16
ATOM     16  C   UNL d   1       5.504   1.440  -0.344  0.00  0.00     0.084 C 
BRANCH  16  17
ATOM     17  C   UNL d   1       3.975   1.394  -0.228  0.00  0.00     0.031 C 
BRANCH  17  18
ATOM     18  C   UNL d   1       3.260   2.072  -1.403  0.00  0.00     0.136 C 
BRANCH  18  19
ATOM     19  N   UNL d   1       1.822   2.052  -1.260  0.00  0.00    -0.280 N 
ATOM     20  C   UNL d   1       1.098   3.044  -0.650  0.00  0.00     0.261 A 
ATOM     21  C   UNL d   1      -0.308   2.687  -0.814  0.00  0.00     0.048 A 
ATOM     22  O   UNL d   1       1.488   4.049  -0.091  0.00  0.00    -0.267 OA
ATOM     23  C   UNL d   1      -1.453   3.356  -0.429  0.00  0.00     0.018 A 
ATOM     24  C   UNL d   1      -0.358   1.489  -1.502  0.00  0.00     0.048 A 
ATOM     25  C   UNL d   1      -2.678   2.770  -0.766  0.00  0.00     0.001 A 
ATOM     26  C   UNL d   1      -2.726   1.548  -1.471  0.00  0.00     0.001 A 
ATOM     27  C   UNL d   1      -1.553   0.890  -1.849  0.00  0.00     0.018 A 
ATOM     28  C   UNL d   1       1.018   1.077  -1.780  0.00  0.00     0.261 A 
ATOM     29  O   UNL d   1       1.325   0.065  -2.380  0.00  0.00    -0.267 OA
ENDBRANCH  18  19
ENDBRANCH  17  18
ENDBRANCH  16  17
ENDBRANCH   1  16
TORSDOF 6
