REMARK  6 active torsions:
REMARK  status: ('A' for Active; 'I' for Inactive)
REMARK    1  A    between atoms: C_3  and  S_1 
REMARK    2  A    between atoms: N_13  and  S_1 
REMARK    3  A    between atoms: N_4  and  C_20 
REMARK    4  A    between atoms: N_6  and  C_7 
REMARK       I    between atoms: C_12  and  N_6 
REMARK    5  A    between atoms: C_18  and  N_13 
REMARK    6  A    between atoms: C_20  and  C_18 
ROOT
ATOM      1  S   UNL d   1       0.925   0.015   0.134  0.00  0.00     0.258 S 
ATOM      2  O   UNL d   1       0.429  -0.320  -1.181  0.00  0.00    -0.201 OA
ATOM      3  O   UNL d   1       0.664  -0.814   1.287  0.00  0.00    -0.201 OA
ENDROOT
BRANCH   1   4
ATOM      4  C   UNL d   1       0.386   1.667   0.501  0.00  0.00     0.081 A 
ATOM      5  C   UNL d   1       0.094   2.544  -0.543  0.00  0.00     0.051 A 
ATOM      6  C   UNL d   1      -0.387   3.821  -0.245  0.00  0.00     0.062 A 
ATOM      7 CL   UNL d   1      -0.746   4.882  -1.567  0.00  0.00    -0.082 Cl
ATOM      8  C   UNL d   1      -0.592   4.232   1.089  0.00  0.00     0.056 A 
ATOM      9  C   UNL d   1      -0.288   3.334   2.117  0.00  0.00     0.033 A 
ATOM     10  C   UNL d   1       0.190   2.052   1.828  0.00  0.00     0.027 A 
BRANCH   8  11
ATOM     11  N   UNL d   1      -1.113   5.529   1.324  0.00  0.00    -0.326 N 
ATOM     12  C   UNL d   1      -1.422   6.111   2.537  0.00  0.00     0.218 C 
ATOM     13  O   UNL d   1      -1.278   5.609   3.647  0.00  0.00    -0.274 OA
ATOM     14  C   UNL d   1      -2.014   7.492   2.401  0.00  0.00     0.117 C 
ATOM     15  H   UNL d   1      -1.296   6.070   0.484  0.00  0.00     0.169 HD
ENDBRANCH   8  11
ENDBRANCH   1   4
BRANCH   1  16
ATOM     16  N   UNL d   1       2.584   0.187  -0.025  0.00  0.00    -0.314 N 
ATOM     17  H   UNL d   1       2.839   0.625  -0.907  0.00  0.00     0.172 HD
BRANCH  16  18
ATOM     18  C   UNL d   1       3.384   0.640   1.132  0.00  0.00     0.152 C 
BRANCH  18  19
ATOM     19  C   UNL d   1       4.877   0.595   0.763  0.00  0.00     0.148 C 
BRANCH  19  20
ATOM     20  N   UNL d   1       5.137   1.282  -0.494  0.00  0.00    -0.331 N 
ATOM     21  C   UNL d   1       4.970   2.645  -0.689  0.00  0.00     0.318 C 
ATOM     22  N   UNL d   1       5.082   2.886  -2.049  0.00  0.00    -0.341 N 
ATOM     23  O   UNL d   1       4.688   3.478   0.152  0.00  0.00    -0.247 OA
ATOM     24  C   UNL d   1       5.056   1.648  -2.783  0.00  0.00     0.144 C 
ATOM     25  H   UNL d   1       4.797   3.788  -2.407  0.00  0.00     0.164 HD
ATOM     26  C   UNL d   1       5.432   0.603  -1.738  0.00  0.00     0.147 C 
ENDBRANCH  19  20
ENDBRANCH  18  19
ENDBRANCH  16  18
ENDBRANCH   1  16
TORSDOF 6
