REMARK  4 active torsions:
REMARK  status: ('A' for Active; 'I' for Inactive)
REMARK    1  A    between atoms: N_2  and  C_1 
REMARK    2  A    between atoms: N_3  and  C_6 
REMARK    3  A    between atoms: N_7  and  C_5 
REMARK    4  A    between atoms: C_15  and  N_7 
ROOT
ATOM      1  C   UNL d   1       1.029  -0.367   0.380  0.00  0.00     0.131 A 
ATOM      2  C   UNL d   1       0.058  -1.379   0.271  0.00  0.00     0.074 A 
ATOM      3  C   UNL d   1       0.788   0.980   0.035  0.00  0.00     0.061 A 
ATOM      4  C   UNL d   1      -1.239  -1.022  -0.108  0.00  0.00     0.105 A 
ATOM      5  C   UNL d   1      -0.548   1.294  -0.270  0.00  0.00     0.034 A 
ATOM      6  C   UNL d   1      -1.552   0.318  -0.341  0.00  0.00     0.038 A 
ENDROOT
BRANCH   3   7
ATOM      7  N   UNL d   1       1.774   1.965   0.030  0.00  0.00    -0.383 N 
ATOM      8  H   UNL d   1       2.723   1.693   0.292  0.00  0.00     0.160 HD
BRANCH   7   9
ATOM      9  C   UNL d   1       1.685   3.174  -0.811  0.00  0.00     0.091 C 
ATOM     10  C   UNL d   1       2.848   3.281  -1.801  0.00  0.00     0.036 C 
ATOM     11  C   UNL d   1       4.064   3.815  -1.067  0.00  0.00     0.076 C 
ATOM     12  S   UNL d   1       3.417   5.037   0.099  0.00  0.00    -0.167 SA
ATOM     13  C   UNL d   1       1.702   4.435   0.056  0.00  0.00     0.098 C 
ENDBRANCH   7   9
ENDBRANCH   3   7
BRANCH   1  14
ATOM     14  N   UNL d   1       2.293  -0.761   0.965  0.00  0.00    -0.113 N 
ATOM     15  O   UNL d   1       2.261  -1.234   2.107  0.00  0.00    -0.532 OA
ATOM     16  O   UNL d   1       3.315  -0.603   0.277  0.00  0.00    -0.532 OA
ENDBRANCH   1  14
BRANCH   4  17
ATOM     17  N   UNL d   1      -2.277  -2.049  -0.237  0.00  0.00    -0.116 N 
ATOM     18  O   UNL d   1      -1.928  -3.233  -0.139  0.00  0.00    -0.532 OA
ATOM     19  O   UNL d   1      -3.437  -1.669  -0.449  0.00  0.00    -0.532 OA
ENDBRANCH   4  17
TORSDOF 4
