REMARK  2 active torsions:
REMARK  status: ('A' for Active; 'I' for Inactive)
REMARK    1  A    between atoms: C_7  and  C_4 
REMARK    2  A    between atoms: S_8  and  C_5 
ROOT
ATOM      1  C   UNL d   1       1.093   0.806  -0.051  0.00  0.00     0.070 A 
ATOM      2  N   UNL d   1      -1.047   0.041   0.104  0.00  0.00    -0.299 N 
ATOM      3  HN  UNL d   1      -2.062  -0.017   0.180  1.00  0.00     0.187 HD
ATOM      4  C   UNL d   1      -0.288   1.147   0.016  0.00  0.00     0.061 A 
ATOM      5  C   UNL d   1       1.132  -0.563  -0.012  0.00  0.00     0.086 A 
ATOM      6  N   UNL d   1      -0.163  -0.972   0.068  0.00  0.00    -0.294 N 
ATOM      7  H   UNL d   1      -0.507  -1.925   0.109  0.00  0.00     0.187 HD
ENDROOT
BRANCH   4   8
ATOM      8  C   UNL d   1      -0.869   2.490   0.014  0.00  0.00    -0.008 A 
ATOM      9  C   UNL d   1      -2.089   2.741   0.661  0.00  0.00     0.017 A 
ATOM     10  C   UNL d   1      -2.624   4.031   0.694  0.00  0.00     0.043 A 
ATOM     11  C   UNL d   1      -1.943   5.071   0.071  0.00  0.00     0.116 A 
ATOM     12  C   UNL d   1      -0.741   4.844  -0.588  0.00  0.00     0.043 A 
ATOM     13  F   UNL d   1      -2.450   6.309   0.107  0.00  0.00    -0.206 F 
ATOM     14  C   UNL d   1      -0.203   3.555  -0.618  0.00  0.00     0.017 A 
ENDBRANCH   4   8
BRANCH   5  15
ATOM     15  S   UNL d   1       2.397  -1.736  -0.037  0.00  0.00    -0.115 SA
ATOM     16  C   UNL d   1       3.875  -0.697  -0.099  0.00  0.00     0.097 C 
ENDBRANCH   5  15
TORSDOF 2
