REMARK  13 active torsions:
REMARK  status: ('A' for Active; 'I' for Inactive)
REMARK    1  A    between atoms: C_2  and  N_1 
REMARK    2  A    between atoms: C_8  and  C_2 
REMARK    3  A    between atoms: C_9  and  C_2 
REMARK    4  A    between atoms: C_10  and  C_2 
REMARK    5  A    between atoms: C_5  and  C_14 
REMARK    6  A    between atoms: O_18  and  C_5 
REMARK    7  A    between atoms: C_6  and  C_15 
REMARK    8  A    between atoms: O_19  and  C_6 
REMARK    9  A    between atoms: C_7  and  C_16 
REMARK   10  A    between atoms: O_17  and  C_7 
REMARK   11  A    between atoms: C_16  and  C_8 
REMARK   12  A    between atoms: C_14  and  C_9 
REMARK   13  A    between atoms: C_15  and  C_10 
ROOT
ATOM      1  C   UNL d   1       0.231   0.558   1.009  0.00  0.00     0.098 C 
ENDROOT
BRANCH   1   2
ATOM      2  N   UNL d   1       1.028   0.045  -0.208  0.00  0.00    -0.145 N 
ATOM      3  O   UNL d   1       1.758   0.855  -0.793  0.00  0.00    -0.536 OA
ATOM      4  O   UNL d   1       0.855  -1.121  -0.578  0.00  0.00    -0.536 OA
ENDBRANCH   1   2
BRANCH   1   5
ATOM      5  C   UNL d   1      -0.636   1.750   0.501  0.00  0.00     0.048 C 
BRANCH   5   6
ATOM      6  C   UNL d   1      -1.636   1.427  -0.623  0.00  0.00     0.112 C 
BRANCH   6   7
ATOM      7  C   UNL d   1      -2.367   2.670  -1.080  0.00  0.00     0.139 C 
ATOM      8  O   UNL d   1      -2.210   3.785  -0.609  0.00  0.00    -0.650 OA
BRANCH   7   9
ATOM      9  O   UNL d   1      -3.233   2.421  -2.087  0.00  0.00    -0.776 OA
ATOM     10  H   UNL d   1      -3.265   1.488  -2.372  0.00  0.00     0.167 HD
ENDBRANCH   7   9
ENDBRANCH   6   7
ENDBRANCH   5   6
ENDBRANCH   1   5
BRANCH   1  11
ATOM     11  C   UNL d   1      -0.690  -0.581   1.559  0.00  0.00     0.048 C 
BRANCH  11  12
ATOM     12  C   UNL d   1      -0.001  -1.820   2.165  0.00  0.00     0.112 C 
BRANCH  12  13
ATOM     13  C   UNL d   1      -1.014  -2.853   2.610  0.00  0.00     0.139 C 
ATOM     14  O   UNL d   1      -2.224  -2.698   2.597  0.00  0.00    -0.650 OA
BRANCH  13  15
ATOM     15  O   UNL d   1      -0.429  -3.993   3.045  0.00  0.00    -0.776 OA
ATOM     16  H   UNL d   1       0.545  -3.992   2.994  0.00  0.00     0.167 HD
ENDBRANCH  13  15
ENDBRANCH  12  13
ENDBRANCH  11  12
ENDBRANCH   1  11
BRANCH   1  17
ATOM     17  C   UNL d   1       1.226   1.022   2.117  0.00  0.00     0.048 C 
BRANCH  17  18
ATOM     18  C   UNL d   1       2.195   2.166   1.778  0.00  0.00     0.112 C 
BRANCH  18  19
ATOM     19  C   UNL d   1       3.076   2.538   2.951  0.00  0.00     0.139 C 
ATOM     20  O   UNL d   1       3.002   2.039   4.061  0.00  0.00    -0.650 OA
BRANCH  19  21
ATOM     21  O   UNL d   1       3.979   3.487   2.628  0.00  0.00    -0.776 OA
ATOM     22  H   UNL d   1       3.933   3.787   1.699  0.00  0.00     0.167 HD
ENDBRANCH  19  21
ENDBRANCH  18  19
ENDBRANCH  17  18
ENDBRANCH   1  17
TORSDOF 13
