REMARK  3 active torsions:
REMARK  status: ('A' for Active; 'I' for Inactive)
REMARK    1  A    between atoms: C_8  and  C_7 
REMARK    2  A    between atoms: O_17  and  C_12 
REMARK    3  A    between atoms: O_18  and  C_15 
ROOT
ATOM      1  C   UNL d   1       1.300   0.104  -0.814  0.00  0.00     0.101 C 
ATOM      2  N   UNL d   1      -0.750  -1.114  -1.150  0.00  0.00    -0.275 N 
ATOM      3  N   UNL d   1      -0.632   1.091  -1.844  0.00  0.00    -0.275 N 
ATOM      4  C   UNL d   1       0.538  -1.167  -0.695  0.00  0.00     0.265 C 
ATOM      5  C   UNL d   1       0.697   1.240  -1.553  0.00  0.00     0.265 C 
ATOM      6  C   UNL d   1      -1.387  -0.023  -1.651  0.00  0.00     0.329 C 
ATOM      7  C   UNL d   1       2.473   0.160  -0.155  0.00  0.00     0.037 C 
ATOM      8  O   UNL d   1       1.309   2.234  -1.921  0.00  0.00    -0.267 OA
ATOM      9  O   UNL d   1       0.988  -2.184  -0.181  0.00  0.00    -0.267 OA
ATOM     10  O   UNL d   1      -2.585  -0.044  -1.915  0.00  0.00    -0.246 OA
ATOM     11  H   UNL d   1      -1.309  -1.944  -1.018  0.00  0.00     0.173 HD
ATOM     12  H   UNL d   1      -1.081   1.873  -2.300  0.00  0.00     0.173 HD
ENDROOT
BRANCH   7  13
ATOM     13  C   UNL d   1       3.306   1.351   0.048  0.00  0.00     0.001 A 
ATOM     14  C   UNL d   1       3.109   2.267   1.095  0.00  0.00     0.078 A 
ATOM     15  C   UNL d   1       3.921   3.405   1.170  0.00  0.00     0.040 A 
ATOM     16  C   UNL d   1       4.942   3.628   0.242  0.00  0.00     0.039 A 
ATOM     17  C   UNL d   1       5.163   2.711  -0.781  0.00  0.00     0.069 A 
ATOM     18  C   UNL d   1       4.340   1.583  -0.876  0.00  0.00     0.051 A 
BRANCH  14  19
ATOM     19  O   UNL d   1       2.130   2.236   2.053  0.00  0.00    -0.355 OA
ATOM     20  C   UNL d   1       1.830   0.977   2.641  0.00  0.00     0.210 C 
ENDBRANCH  14  19
BRANCH  17  21
ATOM     21  O   UNL d   1       6.134   2.798  -1.741  0.00  0.00    -0.356 OA
ATOM     22  C   UNL d   1       7.009   3.918  -1.670  0.00  0.00     0.210 C 
ENDBRANCH  17  21
ENDBRANCH   7  13
TORSDOF 3
