REMARK  3 active torsions:
REMARK  status: ('A' for Active; 'I' for Inactive)
REMARK    1  A    between atoms: C_7  and  C_2 
REMARK    2  A    between atoms: S_13  and  C_4 
REMARK    3  A    between atoms: C_11  and  C_7 
ROOT
ATOM      1  C   UNL d   1       0.082  -0.816   0.064  0.00  0.00     0.041 C 
ATOM      2  C   UNL d   1       1.801   0.786  -0.048  0.00  0.00     0.064 C 
ATOM      3  C   UNL d   1       0.425   0.593   0.014  0.00  0.00    -0.021 C 
ATOM      4  C   UNL d   1       1.205  -1.619   0.112  0.00  0.00     0.056 C 
ATOM      5  S   UNL d   1       2.628  -0.691   0.229  0.00  0.00    -0.078 SA
ATOM      6  C   UNL d   1      -1.311  -1.267   0.040  0.00  0.00     0.162 C 
ATOM      7  C   UNL d   1      -0.642   1.667  -0.048  0.00  0.00     0.050 C 
ATOM      8  C   UNL d   1      -2.055   1.141   0.344  0.00  0.00    -0.037 C 
ATOM      9  C   UNL d   1      -2.331  -0.211  -0.350  0.00  0.00     0.093 C 
ATOM     10  O   UNL d   1      -1.665  -2.415   0.298  0.00  0.00    -0.292 OA
ATOM     11  C   UNL d   1      -3.127   2.147  -0.114  0.00  0.00     0.015 C 
ATOM     12  C   UNL d   1      -2.176   0.990   1.876  0.00  0.00     0.015 C 
ENDROOT
BRANCH   2  13
ATOM     13  C   UNL d   1       2.549   2.033  -0.230  0.00  0.00     0.199 C 
ATOM     14  O   UNL d   1       2.088   3.137   0.057  0.00  0.00    -0.286 OA
BRANCH  13  15
ATOM     15  C   UNL d   1       3.930   2.006  -0.808  0.00  0.00     0.015 A 
ATOM     16  C   UNL d   1       4.914   2.831  -0.248  0.00  0.00     0.017 A 
ATOM     17  C   UNL d   1       6.228   2.771  -0.728  0.00  0.00     0.025 A 
ATOM     18  C   UNL d   1       6.554   1.897  -1.766  0.00  0.00     0.034 A 
ATOM     19  C   UNL d   1       5.570   1.106  -2.355  0.00  0.00     0.025 A 
ATOM     20 CL   UNL d   1       8.178   1.792  -2.321  0.00  0.00    -0.084 Cl
ATOM     21  C   UNL d   1       4.252   1.175  -1.890  0.00  0.00     0.017 A 
ENDBRANCH  13  15
ENDBRANCH   2  13
BRANCH   4  22
ATOM     22  S   UNL d   1       1.313  -3.372   0.016  0.00  0.00    -0.126 SA
ATOM     23  C   UNL d   1       1.414  -3.787   1.769  0.00  0.00     0.096 C 
ENDBRANCH   4  22
TORSDOF 3
