REMARK  4 active torsions:
REMARK  status: ('A' for Active; 'I' for Inactive)
REMARK    1  A    between atoms: S_17  and  C_3 
REMARK    2  A    between atoms: S_13  and  C_8 
REMARK    3  A    between atoms: C_18  and  S_13 
REMARK    4  A    between atoms: C_20  and  C_18 
ROOT
ATOM      1  C   UNL d   1      -0.875  -0.567  -0.021  0.00  0.00     0.022 A 
ATOM      2  C   UNL d   1       0.584  -0.452   0.001  0.00  0.00     0.054 A 
ATOM      3  C   UNL d   1      -1.633  -1.732  -0.004  0.00  0.00     0.053 A 
ATOM      4  N   UNL d   1       1.321  -1.578   0.000  0.00  0.00    -0.336 N 
ATOM      5  HN  UNL d   1       0.880  -2.498  -0.030  1.00  0.00     0.168 HD
ATOM      6  C   UNL d   1      -1.714   0.607  -0.039  0.00  0.00    -0.037 A 
ATOM      7  S   UNL d   1      -3.319  -1.390  -0.023  0.00  0.00    -0.093 SA
ATOM      8  C   UNL d   1       2.654  -1.449   0.040  0.00  0.00     0.144 A 
ATOM      9  C   UNL d   1      -3.056   0.290  -0.041  0.00  0.00     0.059 A 
ATOM     10  C   UNL d   1       1.151   0.812   0.010  0.00  0.00    -0.015 A 
ATOM     11  N   UNL d   1       3.305  -0.276   0.066  0.00  0.00    -0.346 N 
ATOM     12  HN  UNL d   1       4.323  -0.223   0.100  1.00  0.00     0.167 HD
ATOM     13  C   UNL d   1       2.533   0.828   0.044  0.00  0.00     0.099 A 
ATOM     14  C   UNL d   1      -1.168   1.998  -0.040  0.00  0.00     0.045 A 
ATOM     15  C   UNL d   1       0.367   2.093  -0.025  0.00  0.00     0.047 A 
ENDROOT
BRANCH   8  16
ATOM     16  S   UNL d   1       3.584  -2.959  -0.043  0.00  0.00    -0.089 SA
BRANCH  16  17
ATOM     17  C   UNL d   1       5.082  -2.486   0.874  0.00  0.00     0.121 C 
BRANCH  17  18
ATOM     18  C   UNL d   1       6.019  -3.670   1.024  0.00  0.00    -0.048 A 
ATOM     19  C   UNL d   1       6.981  -3.948   0.040  0.00  0.00     0.009 A 
ATOM     20  C   UNL d   1       7.825  -5.058   0.163  0.00  0.00     0.024 A 
ATOM     21  C   UNL d   1       7.709  -5.898   1.268  0.00  0.00     0.034 A 
ATOM     22  C   UNL d   1       6.757  -5.639   2.251  0.00  0.00     0.024 A 
ATOM     23 CL   UNL d   1       8.744  -7.266   1.415  0.00  0.00    -0.084 Cl
ATOM     24  C   UNL d   1       5.914  -4.531   2.128  0.00  0.00     0.009 A 
ENDBRANCH  17  18
ENDBRANCH  16  17
ENDBRANCH   8  16
BRANCH   3  25
ATOM     25  S   UNL d   1      -1.131  -3.422   0.071  0.00  0.00    -0.126 SA
ATOM     26  C   UNL d   1      -1.012  -3.792  -1.694  0.00  0.00     0.096 C 
ENDBRANCH   3  25
TORSDOF 4
