REMARK  5 active torsions:
REMARK  status: ('A' for Active; 'I' for Inactive)
REMARK    1  A    between atoms: N_3  and  C_1 
REMARK    2  A    between atoms: N_9  and  C_1 
REMARK       I    between atoms: C_2  and  N_8 
REMARK    3  A    between atoms: C_5  and  C_2 
REMARK    4  A    between atoms: C_4  and  N_3 
REMARK    5  A    between atoms: N_8  and  N_9 
ROOT
ATOM      1  N   UNL d   1       2.105   0.593   0.311  0.00  0.00    -0.274 N 
ATOM      2  H   UNL d   1       1.966   1.602   0.289  0.00  0.00     0.189 HD
ENDROOT
BRANCH   1   3
ATOM      3  N   UNL d   1       2.979   0.154   1.315  0.00  0.00    -0.264 N 
ATOM      4  C   UNL d   1       3.727   1.127   1.950  0.00  0.00     0.271 C 
ATOM      5  O   UNL d   1       3.473   2.327   1.816  0.00  0.00    -0.266 OA
ATOM      6  H   UNL d   1       3.270  -0.814   1.242  0.00  0.00     0.190 HD
BRANCH   4   7
ATOM      7  C   UNL d   1       4.882   0.696   2.778  0.00  0.00     0.049 A 
ATOM      8  C   UNL d   1       5.677   1.685   3.356  0.00  0.00     0.104 A 
ATOM      9  N   UNL d   1       6.764   1.430   4.129  0.00  0.00    -0.374 N 
ATOM     10  C   UNL d   1       7.074   0.136   4.339  0.00  0.00     0.087 A 
ATOM     11  HN  UNL d   1       7.321   2.184   4.533  1.00  0.00     0.164 HD
ATOM     12  C   UNL d   1       6.347  -0.920   3.808  0.00  0.00     0.018 A 
ATOM     13  C   UNL d   1       5.234  -0.632   3.016  0.00  0.00     0.020 A 
ENDBRANCH   4   7
ENDBRANCH   1   3
BRANCH   1  14
ATOM     14  C   UNL d   1       1.105  -0.204  -0.197  0.00  0.00     0.186 C 
ATOM     15  S   UNL d   1       0.602  -1.659   0.442  0.00  0.00    -0.040 SA
BRANCH  14  16
ATOM     16  N   UNL d   1       0.569   0.235  -1.379  0.00  0.00    -0.361 N 
ATOM     17  H   UNL d   1      -0.199  -0.316  -1.750  0.00  0.00     0.162 HD
BRANCH  16  18
ATOM     18  C   UNL d   1       1.221   1.185  -2.267  0.00  0.00     0.092 C 
ATOM     19  C   UNL d   1       0.958   1.003  -3.787  0.00  0.00     0.031 C 
ATOM     20  C   UNL d   1      -0.503   1.213  -4.114  0.00  0.00    -0.024 C 
ATOM     21  C   UNL d   1       1.497   2.352  -4.287  0.00  0.00     0.019 C 
ATOM     22  C   UNL d   1      -0.772   2.511  -3.912  0.00  0.00    -0.026 C 
ATOM     23  C   UNL d   1       0.507   3.168  -3.447  0.00  0.00     0.010 C 
ATOM     24  C   UNL d   1       0.812   2.664  -2.019  0.00  0.00     0.034 C 
ENDBRANCH  16  18
ENDBRANCH  14  16
ENDBRANCH   1  14
TORSDOF 5
