REMARK  5 active torsions:
REMARK  status: ('A' for Active; 'I' for Inactive)
REMARK    1  A    between atoms: C_9  and  C_1 
REMARK    2  A    between atoms: N_8  and  C_2 
REMARK    3  A    between atoms: C_14  and  C_4 
REMARK    4  A    between atoms: C_5  and  C_7 
REMARK       I    between atoms: C_7  and  N_8 
REMARK       I    between atoms: N_19  and  C_9 
REMARK    5  A    between atoms: C_18  and  C_10 
ROOT
ATOM      1  C   UNL d   1      -2.147   2.334   0.026  0.00  0.00     0.113 C 
ATOM      2  C   UNL d   1      -3.477   2.116   0.099  0.00  0.00     0.039 C 
ATOM      3  C   UNL d   1      -1.592   3.523  -0.523  0.00  0.00     0.105 C 
ATOM      4  N   UNL d   1      -1.128   4.484  -0.973  0.00  0.00    -0.191 NA
ENDROOT
BRANCH   1   5
ATOM      5  C   UNL d   1      -1.231   1.210   0.434  0.00  0.00     0.266 C 
ATOM      6  N   UNL d   1       0.035   1.587   0.840  0.00  0.00    -0.321 N 
ATOM      7  H   UNL d   1       0.217   2.551   1.125  0.00  0.00     0.169 HD
ATOM      8  O   UNL d   1      -1.640   0.050   0.422  0.00  0.00    -0.267 OA
BRANCH   6   9
ATOM      9  C   UNL d   1       1.104   0.702   1.040  0.00  0.00     0.058 A 
ATOM     10  C   UNL d   1       2.192   1.029   1.834  0.00  0.00     0.099 A 
ATOM     11  S   UNL d   1       3.365  -0.213   1.847  0.00  0.00    -0.086 SA
ATOM     12  C   UNL d   1       2.481  -1.199   0.754  0.00  0.00    -0.007 A 
ATOM     13  C   UNL d   1       1.260  -0.604   0.466  0.00  0.00     0.046 A 
BRANCH  10  14
ATOM     14  C   UNL d   1       2.375   2.236   2.622  0.00  0.00     0.258 C 
ATOM     15  O   UNL d   1       1.649   3.224   2.526  0.00  0.00    -0.267 OA
ATOM     16  N   UNL d   1       3.388   2.229   3.542  0.00  0.00    -0.365 N 
ATOM     17  H   UNL d   1       3.941   1.399   3.708  0.00  0.00     0.159 HD
ATOM     18  H   UNL d   1       3.488   3.023   4.159  0.00  0.00     0.159 HD
ENDBRANCH  10  14
BRANCH  12  19
ATOM     19  C   UNL d   1       3.079  -2.523   0.249  0.00  0.00    -0.018 C 
ATOM     20  C   UNL d   1       3.234  -3.525   1.410  0.00  0.00     0.020 C 
ATOM     21  C   UNL d   1       2.179  -3.171  -0.823  0.00  0.00     0.020 C 
ATOM     22  C   UNL d   1       4.463  -2.283  -0.397  0.00  0.00     0.020 C 
ENDBRANCH  12  19
ENDBRANCH   6   9
ENDBRANCH   1   5
BRANCH   2  23
ATOM     23  C   UNL d   1      -4.530   3.027  -0.376  0.00  0.00    -0.035 A 
ATOM     24  C   UNL d   1      -4.939   2.993  -1.716  0.00  0.00     0.013 A 
ATOM     25  C   UNL d   1      -5.974   3.823  -2.169  0.00  0.00     0.023 A 
ATOM     26  C   UNL d   1      -6.610   4.699  -1.285  0.00  0.00     0.044 A 
ATOM     27  C   UNL d   1      -7.683   5.545  -1.746  0.00  0.00     0.099 C 
ATOM     28  C   UNL d   1      -6.205   4.739   0.052  0.00  0.00     0.023 A 
ATOM     29  N   UNL d   1      -8.552   6.222  -2.116  0.00  0.00    -0.191 NA
ATOM     30  C   UNL d   1      -5.169   3.908   0.505  0.00  0.00     0.013 A 
ENDBRANCH   2  23
TORSDOF 5
