REMARK  5 active torsions:
REMARK  status: ('A' for Active; 'I' for Inactive)
REMARK    1  A    between atoms: C_7  and  C_1 
REMARK    2  A    between atoms: C_10  and  C_5 
REMARK    3  A    between atoms: S_9  and  C_7 
REMARK    4  A    between atoms: C_8  and  C_11 
REMARK    5  A    between atoms: C_20  and  S_9 
ROOT
ATOM      1  C   UNL d   1      -0.198  -1.077   0.375  0.00  0.00     0.086 A 
ATOM      2  S   UNL d   1       1.246  -0.214   0.714  0.00  0.00    -0.065 SA
ATOM      3  N   UNL d   1      -0.784   1.173   0.045  0.00  0.00    -0.352 N 
ATOM      4  HN  UNL d   1      -1.398   1.965  -0.147  1.00  0.00     0.166 HD
ATOM      5  C   UNL d   1       0.510   1.270   0.277  0.00  0.00     0.085 A 
ATOM      6  C   UNL d   1      -1.201  -0.154   0.099  0.00  0.00     0.028 A 
ATOM      7  C   UNL d   1      -2.635  -0.441  -0.186  0.00  0.00     0.070 C 
ENDROOT
BRANCH   1   8
ATOM      8  C   UNL d   1      -0.298  -2.532   0.394  0.00  0.00     0.232 C 
ATOM      9  O   UNL d   1      -1.347  -3.133   0.183  0.00  0.00    -0.279 OA
BRANCH   8  10
ATOM     10  S   UNL d   1       1.226  -3.389   0.657  0.00  0.00    -0.047 SA
BRANCH  10  11
ATOM     11  C   UNL d   1       0.865  -5.082   1.044  0.00  0.00     0.008 A 
ATOM     12  C   UNL d   1      -0.337  -5.547   1.575  0.00  0.00     0.019 A 
ATOM     13  C   UNL d   1      -0.510  -6.906   1.868  0.00  0.00     0.008 A 
ATOM     14  C   UNL d   1       0.531  -7.818   1.667  0.00  0.00    -0.062 A 
ATOM     15  C   UNL d   1       1.746  -7.354   1.159  0.00  0.00     0.008 A 
ATOM     16  C   UNL d   1       0.319  -9.276   1.939  0.00  0.00     0.048 C 
ATOM     17  C   UNL d   1       1.909  -6.001   0.855  0.00  0.00     0.019 A 
ENDBRANCH  10  11
ENDBRANCH   8  10
ENDBRANCH   1   8
BRANCH   5  18
ATOM     18  C   UNL d   1       1.302   2.513   0.167  0.00  0.00    -0.002 A 
ATOM     19  C   UNL d   1       2.706   2.530   0.220  0.00  0.00     0.015 A 
ATOM     20  C   UNL d   1       3.427   3.716   0.059  0.00  0.00     0.017 A 
ATOM     21  C   UNL d   1       2.762   4.928  -0.163  0.00  0.00     0.048 A 
ATOM     22  C   UNL d   1       1.361   4.926  -0.209  0.00  0.00     0.017 A 
ATOM     23  C   UNL d   1       0.642   3.734  -0.048  0.00  0.00     0.015 A 
BRANCH  21  24
ATOM     24  C   UNL d   1       3.532   6.211  -0.359  0.00  0.00     0.417 C 
ATOM     25  F   UNL d   1       4.883   6.050  -0.288  0.00  0.00    -0.166 F 
ATOM     26  F   UNL d   1       3.289   6.783  -1.570  0.00  0.00    -0.166 F 
ATOM     27  F   UNL d   1       3.220   7.154   0.572  0.00  0.00    -0.166 F 
ENDBRANCH  21  24
ENDBRANCH   5  18
TORSDOF 5
