REMARK  5 active torsions:
REMARK  status: ('A' for Active; 'I' for Inactive)
REMARK    1  A    between atoms: C_7  and  C_1 
REMARK    2  A    between atoms: C_9  and  C_3 
REMARK       I    between atoms: N_11  and  C_7 
REMARK    3  A    between atoms: C_8  and  C_13 
REMARK       I    between atoms: C_10  and  N_12 
REMARK    4  A    between atoms: C_14  and  C_10 
REMARK    5  A    between atoms: N_12  and  N_11 
ROOT
ATOM      1  C   UNL d   1      -0.263  -2.594   0.043  0.00  0.00     0.279 C 
ATOM      2  N   UNL d   1       0.885  -3.362   0.145  0.00  0.00    -0.262 N 
ATOM      3  O   UNL d   1      -1.362  -3.151  -0.037  0.00  0.00    -0.265 OA
ATOM      4  H   UNL d   1       1.817  -2.975   0.271  0.00  0.00     0.190 HD
ENDROOT
BRANCH   1   5
ATOM      5  C   UNL d   1      -0.102  -1.148   0.039  0.00  0.00     0.098 A 
ATOM      6  S   UNL d   1       1.426  -0.366   0.079  0.00  0.00    -0.064 SA
ATOM      7  C   UNL d   1       0.660   1.179   0.025  0.00  0.00     0.086 A 
ATOM      8  N   UNL d   1      -0.654   1.128   0.011  0.00  0.00    -0.352 N 
ATOM      9  C   UNL d   1      -1.101  -0.185  -0.008  0.00  0.00     0.029 A 
ATOM     10  HN  UNL d   1      -1.264   1.945   0.012  1.00  0.00     0.166 HD
ATOM     11  C   UNL d   1      -2.571  -0.416  -0.073  0.00  0.00     0.070 C 
BRANCH   7  12
ATOM     12  C   UNL d   1       1.426   2.433   0.035  0.00  0.00     0.013 A 
ATOM     13  C   UNL d   1       0.856   3.585   0.576  0.00  0.00     0.101 A 
ATOM     14  N   UNL d   1       1.463   4.800   0.633  0.00  0.00    -0.374 N 
ATOM     15  C   UNL d   1       2.700   4.882   0.105  0.00  0.00     0.087 A 
ATOM     16  HN  UNL d   1       1.006   5.608   1.054  1.00  0.00     0.164 HD
ATOM     17  C   UNL d   1       3.354   3.809  -0.474  0.00  0.00     0.018 A 
ATOM     18  C   UNL d   1       2.708   2.571  -0.508  0.00  0.00     0.017 A 
ENDBRANCH   7  12
ENDBRANCH   1   5
BRANCH   2  19
ATOM     19  N   UNL d   1       0.757  -4.763   0.222  0.00  0.00    -0.263 N 
ATOM     20  C   UNL d   1       1.900  -5.526   0.336  0.00  0.00     0.270 C 
ATOM     21  O   UNL d   1       3.025  -5.031   0.377  0.00  0.00    -0.266 OA
ATOM     22  H   UNL d   1      -0.166  -5.143   0.016  0.00  0.00     0.190 HD
BRANCH  20  23
ATOM     23  C   UNL d   1       1.718  -7.005   0.393  0.00  0.00     0.033 A 
ATOM     24  C   UNL d   1       2.747  -7.822  -0.093  0.00  0.00     0.018 A 
ATOM     25  C   UNL d   1       2.646  -9.216  -0.012  0.00  0.00     0.017 A 
ATOM     26  C   UNL d   1       1.521  -9.817   0.571  0.00  0.00     0.048 A 
ATOM     27  C   UNL d   1       0.493  -8.993   1.057  0.00  0.00     0.017 A 
ATOM     28  C   UNL d   1       0.588  -7.597   0.971  0.00  0.00     0.018 A 
BRANCH  26  29
ATOM     29  C   UNL d   1       1.418 -11.320   0.703  0.00  0.00     0.417 C 
ATOM     30  F   UNL d   1       2.475 -11.990   0.166  0.00  0.00    -0.166 F 
ATOM     31  F   UNL d   1       1.342 -11.723   2.002  0.00  0.00    -0.166 F 
ATOM     32  F   UNL d   1       0.309 -11.822   0.092  0.00  0.00    -0.166 F 
ENDBRANCH  26  29
ENDBRANCH  20  23
ENDBRANCH   2  19
TORSDOF 5
