REMARK  4 active torsions:
REMARK  status: ('A' for Active; 'I' for Inactive)
REMARK    1  A    between atoms: C_2  and  O_13 
REMARK       I    between atoms: N_5  and  C_2 
REMARK    2  A    between atoms: C_9  and  N_5 
REMARK    3  A    between atoms: O_13  and  N_7 
REMARK    4  A    between atoms: C_16  and  C_17 
ROOT
ATOM      1  N   UNL d   1       4.785  -2.245   0.075  0.00  0.00    -0.267 N 
ATOM      2  HN  UNL d   1       4.151  -3.016   0.284  1.00  0.00     0.194 HD
ATOM      3  C   UNL d   1       4.452  -1.023  -0.212  0.00  0.00     0.126 C 
ENDROOT
BRANCH   1   4
ATOM      4  O   UNL d   1       6.199  -2.299   0.042  0.00  0.00    -0.181 OA
BRANCH   4   5
ATOM      5  C   UNL d   1       6.717  -3.553   0.311  0.00  0.00     0.387 C 
ATOM      6  N   UNL d   1       5.771  -4.493   0.648  0.00  0.00    -0.301 N 
ATOM      7  H   UNL d   1       4.835  -4.104   0.653  0.00  0.00     0.171 HD
ATOM      8  O   UNL d   1       7.930  -3.729   0.243  0.00  0.00    -0.236 OA
BRANCH   6   9
ATOM      9  C   UNL d   1       5.970  -5.861   0.926  0.00  0.00     0.038 A 
ATOM     10  C   UNL d   1       7.223  -6.482   0.892  0.00  0.00     0.053 A 
ATOM     11  C   UNL d   1       7.339  -7.852   1.143  0.00  0.00     0.036 A 
ATOM     12 CL   UNL d   1       8.886  -8.605   1.077  0.00  0.00    -0.084 Cl
ATOM     13  C   UNL d   1       6.215  -8.618   1.439  0.00  0.00     0.024 A 
ATOM     14  C   UNL d   1       4.965  -8.006   1.492  0.00  0.00     0.004 A 
ATOM     15  C   UNL d   1       4.844  -6.634   1.238  0.00  0.00     0.029 A 
ENDBRANCH   6   9
ENDBRANCH   4   5
ENDBRANCH   1   4
BRANCH   3  16
ATOM     16  C   UNL d   1       3.055  -0.562  -0.275  0.00  0.00    -0.018 A 
ATOM     17  C   UNL d   1       2.805   0.796  -0.483  0.00  0.00     0.015 A 
ATOM     18  C   UNL d   1       1.490   1.262  -0.484  0.00  0.00     0.038 A 
ATOM     19  C   UNL d   1       0.429   0.373  -0.300  0.00  0.00     0.076 A 
ATOM     20  O   UNL d   1      -0.817   0.935  -0.279  0.00  0.00    -0.340 OA
ATOM     21  C   UNL d   1       0.672  -0.998  -0.171  0.00  0.00    -0.024 A 
ATOM     22  C   UNL d   1      -1.929   0.072   0.024  0.00  0.00     0.061 C 
ATOM     23  C   UNL d   1      -1.742  -1.326  -0.585  0.00  0.00     0.042 C 
ATOM     24  C   UNL d   1      -3.152   0.741  -0.618  0.00  0.00     0.046 C 
ATOM     25  C   UNL d   1      -2.146   0.022   1.544  0.00  0.00     0.046 C 
ATOM     26  C   UNL d   1      -0.463  -1.972  -0.072  0.00  0.00     0.044 C 
ATOM     27  C   UNL d   1       1.995  -1.460  -0.126  0.00  0.00     0.022 A 
ENDBRANCH   3  16
TORSDOF 4
