REMARK  2 active torsions:
REMARK  status: ('A' for Active; 'I' for Inactive)
REMARK    1  A    between atoms: C_6  and  C_1 
REMARK    2  A    between atoms: C_5  and  C_6 
ROOT
ATOM      1  C   UNL d   1       0.182  -1.030   0.053  0.00  0.00    -0.006 A 
ATOM      2  N   UNL d   1      -0.178   1.125   0.765  0.00  0.00    -0.304 N 
ATOM      3  HN  UNL d   1      -0.457   1.938   1.314  1.00  0.00     0.186 HD
ATOM      4  N   UNL d   1       0.467   1.105  -0.405  0.00  0.00    -0.304 N 
ATOM      5  C   UNL d   1       0.681  -0.151  -0.899  0.00  0.00     0.030 A 
ATOM      6  C   UNL d   1      -0.374  -0.166   1.050  0.00  0.00     0.030 A 
ATOM      7  C   UNL d   1       1.308  -0.340  -2.229  0.00  0.00     0.070 C 
ATOM      8  C   UNL d   1      -1.149  -0.531   2.264  0.00  0.00     0.070 C 
ATOM      9  H   UNL d   1       0.703   1.994  -0.832  0.00  0.00     0.186 HD
ENDROOT
BRANCH   1  10
ATOM     10  C   UNL d   1       0.077  -2.523   0.023  0.00  0.00     0.086 C 
BRANCH  10  11
ATOM     11  C   UNL d   1       1.459  -3.130   0.035  0.00  0.00     0.006 A 
ATOM     12  C   UNL d   1       2.204  -3.369   1.202  0.00  0.00     0.043 A 
ATOM     13 CL   UNL d   1       1.628  -2.945   2.771  0.00  0.00    -0.084 Cl
ATOM     14  C   UNL d   1       3.446  -4.019   1.145  0.00  0.00     0.024 A 
ATOM     15  C   UNL d   1       3.971  -4.440  -0.074  0.00  0.00     0.005 A 
ATOM     16  C   UNL d   1       3.254  -4.207  -1.240  0.00  0.00     0.043 A 
ATOM     17  C   UNL d   1       2.017  -3.567  -1.174  0.00  0.00     0.124 A 
ATOM     18  F   UNL d   1       1.340  -3.398  -2.321  0.00  0.00    -0.205 F 
ENDBRANCH  10  11
ENDBRANCH   1  10
TORSDOF 2
