REMARK  6 active torsions:
REMARK  status: ('A' for Active; 'I' for Inactive)
REMARK    1  A    between atoms: C_2  and  C_1 
REMARK    2  A    between atoms: C_3  and  C_7 
REMARK    3  A    between atoms: C_4  and  N_6 
REMARK    4  A    between atoms: N_8  and  C_4 
REMARK    5  A    between atoms: N_6  and  C_5 
REMARK    6  A    between atoms: C_11  and  N_8 
ROOT
ATOM      1  C   UNL d   1       0.166  -1.511  -1.369  0.00  0.00     0.176 C 
ATOM      2  S   UNL d   1       0.185  -1.980  -2.977  0.00  0.00    -0.041 SA
ENDROOT
BRANCH   1   3
ATOM      3  N   UNL d   1      -0.152  -2.475  -0.444  0.00  0.00    -0.332 N 
ATOM      4  H   UNL d   1      -0.557  -3.298  -0.887  0.00  0.00     0.168 HD
BRANCH   3   5
ATOM      5  C   UNL d   1       0.216  -2.609   0.920  0.00  0.00     0.049 A 
ATOM      6  C   UNL d   1      -0.249  -3.716   1.662  0.00  0.00     0.074 A 
ATOM      7  C   UNL d   1       0.238  -3.927   2.971  0.00  0.00     0.018 A 
ATOM      8  C   UNL d   1       1.141  -3.046   3.556  0.00  0.00     0.001 A 
ATOM      9  C   UNL d   1       1.571  -1.938   2.840  0.00  0.00     0.002 A 
ATOM     10  C   UNL d   1       1.121  -1.729   1.533  0.00  0.00     0.030 A 
BRANCH   6  11
ATOM     11  C   UNL d   1      -1.224  -4.733   1.123  0.00  0.00     0.419 C 
ATOM     12  F   UNL d   1      -1.928  -4.311   0.035  0.00  0.00    -0.166 F 
ATOM     13  F   UNL d   1      -2.161  -5.104   2.042  0.00  0.00    -0.166 F 
ATOM     14  F   UNL d   1      -0.608  -5.884   0.736  0.00  0.00    -0.166 F 
ENDBRANCH   6  11
ENDBRANCH   3   5
ENDBRANCH   1   3
BRANCH   1  15
ATOM     15  N   UNL d   1       0.298  -0.235  -0.892  0.00  0.00    -0.333 N 
ATOM     16  H   UNL d   1      -0.347  -0.021  -0.140  0.00  0.00     0.168 HD
BRANCH  15  17
ATOM     17  C   UNL d   1       1.024   0.853  -1.418  0.00  0.00     0.035 A 
ATOM     18  C   UNL d   1       2.167   0.692  -2.205  0.00  0.00     0.045 A 
ATOM     19  C   UNL d   1       2.913   1.807  -2.627  0.00  0.00     0.050 A 
ATOM     20  C   UNL d   1       2.492   3.090  -2.252  0.00  0.00     0.016 A 
ATOM     21  C   UNL d   1       1.355   3.254  -1.458  0.00  0.00     0.003 A 
ATOM     22  C   UNL d   1       0.635   2.139  -1.032  0.00  0.00     0.029 A 
BRANCH  19  23
ATOM     23  C   UNL d   1       4.181   1.638  -3.428  0.00  0.00     0.417 C 
ATOM     24  F   UNL d   1       4.394   0.366  -3.862  0.00  0.00    -0.166 F 
ATOM     25  F   UNL d   1       4.209   2.423  -4.541  0.00  0.00    -0.166 F 
ATOM     26  F   UNL d   1       5.289   1.975  -2.709  0.00  0.00    -0.166 F 
ENDBRANCH  19  23
ENDBRANCH  15  17
ENDBRANCH   1  15
TORSDOF 6
