REMARK  5 active torsions:
REMARK  status: ('A' for Active; 'I' for Inactive)
REMARK    1  A    between atoms: C_4  and  C_1 
REMARK    2  A    between atoms: C_2  and  C_7 
REMARK       I    between atoms: C_3  and  N_5 
REMARK    3  A    between atoms: C_8  and  C_3 
REMARK    4  A    between atoms: N_5  and  C_6 
REMARK    5  A    between atoms: O_24  and  C_13 
ROOT
ATOM      1  C   UNL d   1       0.773  -4.941   1.152  0.00  0.00     0.256 C 
ATOM      2  N   UNL d   1       0.372  -4.205   2.251  0.00  0.00    -0.323 N 
ATOM      3  O   UNL d   1       0.923  -4.513   0.011  0.00  0.00    -0.267 OA
ATOM      4  H   UNL d   1       0.117  -4.710   3.087  0.00  0.00     0.169 HD
ENDROOT
BRANCH   2   5
ATOM      5  C   UNL d   1       0.270  -2.790   2.316  0.00  0.00     0.038 A 
ATOM      6  C   UNL d   1       0.661  -1.948   1.269  0.00  0.00     0.046 A 
ATOM      7  C   UNL d   1       0.652  -0.553   1.414  0.00  0.00     0.052 A 
ATOM      8  C   UNL d   1       0.203  -0.004   2.619  0.00  0.00     0.053 A 
ATOM      9  C   UNL d   1      -0.216  -0.825   3.669  0.00  0.00     0.071 A 
ATOM     10  C   UNL d   1      -0.179  -2.216   3.515  0.00  0.00     0.066 A 
BRANCH   7  11
ATOM     11  C   UNL d   1       1.163   0.344   0.315  0.00  0.00     0.417 C 
ATOM     12  F   UNL d   1       1.597  -0.325  -0.788  0.00  0.00    -0.166 F 
ATOM     13  F   UNL d   1       2.219   1.103   0.724  0.00  0.00    -0.166 F 
ATOM     14  F   UNL d   1       0.222   1.223  -0.127  0.00  0.00    -0.166 F 
ENDBRANCH   7  11
BRANCH   9  15
ATOM     15  O   UNL d   1      -0.608  -0.139   4.785  0.00  0.00    -0.356 OA
ATOM     16  C   UNL d   1      -1.059  -0.899   5.898  0.00  0.00     0.210 C 
ENDBRANCH   9  15
ENDBRANCH   2   5
BRANCH   1  17
ATOM     17  C   UNL d   1       1.047  -6.391   1.365  0.00  0.00     0.032 A 
ATOM     18  C   UNL d   1       0.947  -7.241   0.254  0.00  0.00     0.018 A 
ATOM     19  C   UNL d   1       1.311  -8.584   0.350  0.00  0.00     0.017 A 
ATOM     20  C   UNL d   1       1.792  -9.105   1.558  0.00  0.00     0.048 A 
ATOM     21  C   UNL d   1       1.873  -8.258   2.676  0.00  0.00     0.017 A 
ATOM     22  C   UNL d   1       1.507  -6.906   2.584  0.00  0.00     0.018 A 
BRANCH  20  23
ATOM     23  C   UNL d   1       2.245 -10.545   1.618  0.00  0.00     0.417 C 
ATOM     24  F   UNL d   1       2.713 -10.918   2.843  0.00  0.00    -0.166 F 
ATOM     25  F   UNL d   1       1.247 -11.419   1.317  0.00  0.00    -0.166 F 
ATOM     26  F   UNL d   1       3.253 -10.809   0.740  0.00  0.00    -0.166 F 
ENDBRANCH  20  23
ENDBRANCH   1  17
TORSDOF 5
