REMARK  4 active torsions:
REMARK  status: ('A' for Active; 'I' for Inactive)
REMARK    1  A    between atoms: N_7  and  C_2 
REMARK    2  A    between atoms: C_14  and  C_3 
REMARK    3  A    between atoms: C_16  and  N_12 
REMARK    4  A    between atoms: C_19  and  C_16 
ROOT
ATOM      1  C   UNL d   1       0.362   0.969  -1.091  0.00  0.00     0.048 A 
ATOM      2  C   UNL d   1       1.370   1.478  -0.228  0.00  0.00     0.097 A 
ATOM      3  C   UNL d   1      -0.526   1.546  -2.095  0.00  0.00    -0.003 A 
ATOM      4  C   UNL d   1       0.140  -0.402  -0.997  0.00  0.00     0.089 A 
ATOM      5  C   UNL d   1      -1.352   0.586  -2.658  0.00  0.00     0.065 A 
ATOM      6  S   UNL d   1      -1.073  -0.974  -2.042  0.00  0.00    -0.082 SA
ATOM      7  N   UNL d   1       2.019   0.598   0.586  0.00  0.00    -0.342 N 
ATOM      8  HN  UNL d   1       2.755   0.926   1.211  1.00  0.00     0.167 HD
ATOM      9  N   UNL d   1       0.768  -1.277  -0.196  0.00  0.00    -0.346 N 
ATOM     10  HN  UNL d   1       0.561  -2.276  -0.173  1.00  0.00     0.167 HD
ATOM     11  C   UNL d   1       1.689  -0.697   0.561  0.00  0.00     0.182 A 
ENDROOT
BRANCH   2  12
ATOM     12  N   UNL d   1       1.732   2.855  -0.156  0.00  0.00    -0.267 NA
ATOM     13  C   UNL d   1       2.244   3.158   1.206  0.00  0.00     0.127 C 
ATOM     14  C   UNL d   1       2.222   4.659   1.544  0.00  0.00     0.287 C 
ATOM     15  N   UNL d   1       3.024   5.580   0.722  0.00  0.00     0.093 N 
ATOM     16  C   UNL d   1       2.460   5.687  -0.625  0.00  0.00     0.274 C 
ATOM     17  C   UNL d   1       2.775   4.595  -1.652  0.00  0.00     0.045 C 
ATOM     18  C   UNL d   1       2.709   3.127  -1.225  0.00  0.00     0.099 C 
BRANCH  15  19
ATOM     19  C   UNL d   1       4.465   5.326   0.707  0.00  0.00     0.311 C 
BRANCH  19  20
ATOM     20  C   UNL d   1       5.134   5.357   2.064  0.00  0.00    -0.030 A 
ATOM     21  C   UNL d   1       5.782   4.209   2.551  0.00  0.00     0.012 A 
ATOM     22  C   UNL d   1       6.460   4.246   3.771  0.00  0.00     0.043 A 
ATOM     23  C   UNL d   1       6.487   5.426   4.500  0.00  0.00     0.116 A 
ATOM     24  C   UNL d   1       5.840   6.569   4.045  0.00  0.00     0.043 A 
ATOM     25  F   UNL d   1       7.156   5.466   5.660  0.00  0.00    -0.206 F 
ATOM     26  C   UNL d   1       5.159   6.534   2.826  0.00  0.00     0.012 A 
ENDBRANCH  19  20
ENDBRANCH  15  19
ENDBRANCH   2  12
BRANCH   3  27
ATOM     27  C   UNL d   1      -0.640   2.931  -2.556  0.00  0.00    -0.024 A 
ATOM     28  C   UNL d   1      -0.635   3.222  -3.931  0.00  0.00     0.012 A 
ATOM     29  C   UNL d   1      -0.734   4.540  -4.383  0.00  0.00     0.001 A 
ATOM     30  C   UNL d   1      -0.836   5.583  -3.467  0.00  0.00     0.000 A 
ATOM     31  C   UNL d   1      -0.867   5.305  -2.103  0.00  0.00     0.001 A 
ATOM     32  C   UNL d   1      -0.775   3.985  -1.649  0.00  0.00     0.012 A 
ENDBRANCH   3  27
TORSDOF 4
