REMARK  5 active torsions:
REMARK  status: ('A' for Active; 'I' for Inactive)
REMARK    1  A    between atoms: C_6  and  C_1 
REMARK    2  A    between atoms: S_17  and  C_3 
REMARK    3  A    between atoms: C_7  and  C_6 
REMARK    4  A    between atoms: N_11  and  C_8 
REMARK    5  A    between atoms: C_13  and  N_11 
ROOT
ATOM      1  C   UNL d   1      -0.211  -4.662  -0.629  0.00  0.00     0.111 C 
ATOM      2  C   UNL d   1      -0.763  -5.834  -0.248  0.00  0.00     0.116 C 
ATOM      3  C   UNL d   1       0.765  -4.633  -1.660  0.00  0.00     0.105 C 
ATOM      4  N   UNL d   1       1.562  -4.633  -2.502  0.00  0.00    -0.191 NA
ENDROOT
BRANCH   1   5
ATOM      5  C   UNL d   1      -0.695  -3.369  -0.021  0.00  0.00     0.211 C 
ATOM      6  O   UNL d   1      -1.851  -3.328   0.408  0.00  0.00    -0.285 OA
BRANCH   5   7
ATOM      7  C   UNL d   1       0.183  -2.190   0.017  0.00  0.00     0.065 C 
ATOM      8  S   UNL d   1       1.880  -2.358   0.227  0.00  0.00    -0.078 SA
ATOM      9  C   UNL d   1       2.172  -0.685   0.049  0.00  0.00     0.052 C 
ATOM     10  C   UNL d   1       0.982   0.011  -0.002  0.00  0.00    -0.005 A 
ATOM     11  C   UNL d   1      -0.174  -0.846   0.010  0.00  0.00    -0.025 A 
ATOM     12  C   UNL d   1       0.840   1.432  -0.058  0.00  0.00     0.010 A 
ATOM     13  C   UNL d   1      -1.574  -0.288  -0.026  0.00  0.00     0.045 A 
ATOM     14  C   UNL d   1      -1.661   1.254   0.021  0.00  0.00     0.032 A 
ATOM     15  C   UNL d   1      -0.366   2.019  -0.046  0.00  0.00    -0.025 A 
BRANCH   9  16
ATOM     16  S   UNL d   1       3.810  -0.032   0.055  0.00  0.00    -0.126 SA
ATOM     17  C   UNL d   1       4.504  -0.815  -1.423  0.00  0.00     0.096 C 
ENDBRANCH   9  16
ENDBRANCH   5   7
ENDBRANCH   1   5
BRANCH   2  18
ATOM     18  N   UNL d   1      -0.380  -7.093  -0.655  0.00  0.00    -0.351 N 
ATOM     19  H   UNL d   1       0.564  -7.206  -1.023  0.00  0.00     0.166 HD
BRANCH  18  20
ATOM     20  C   UNL d   1      -0.879  -8.352  -0.329  0.00  0.00     0.104 A 
ATOM     21  N   UNL d   1       0.011  -9.359  -0.468  0.00  0.00    -0.352 N 
ATOM     22  C   UNL d   1      -0.401 -10.617  -0.200  0.00  0.00     0.089 A 
ATOM     23  HN  UNL d   1       0.968  -9.174  -0.768  1.00  0.00     0.166 HD
ATOM     24  C   UNL d   1      -1.689 -10.937   0.183  0.00  0.00     0.017 A 
ATOM     25  C   UNL d   1      -2.602  -9.899   0.310  0.00  0.00     0.005 A 
ATOM     26  C   UNL d   1      -2.191  -8.587   0.063  0.00  0.00     0.048 A 
ENDBRANCH  18  20
ENDBRANCH   2  18
TORSDOF 5
