REMARK  6 active torsions:
REMARK  status: ('A' for Active; 'I' for Inactive)
REMARK    1  A    between atoms: N_5  and  C_1 
REMARK    2  A    between atoms: C_4  and  C_6 
REMARK       I    between atoms: C_9  and  N_13 
REMARK    3  A    between atoms: C_10  and  C_9 
REMARK    4  A    between atoms: C_11  and  C_12 
REMARK    5  A    between atoms: O_26  and  C_11 
REMARK    6  A    between atoms: N_13  and  C_23 
ROOT
ATOM      1  N   UNL d   1       0.145   2.630   0.145  0.00  0.00    -0.254 NA
ATOM      2  C   UNL d   1      -0.016   3.324  -1.128  0.00  0.00     0.100 C 
ATOM      3  C   UNL d   1      -0.515   3.272   1.280  0.00  0.00     0.100 C 
ATOM      4  C   UNL d   1       0.628   4.704  -1.011  0.00  0.00     0.040 C 
ATOM      5  C   UNL d   1       0.051   4.676   1.470  0.00  0.00     0.040 C 
ATOM      6  C   UNL d   1       0.094   5.506   0.181  0.00  0.00     0.087 C 
ENDROOT
BRANCH   1   7
ATOM      7  C   UNL d   1      -0.037   1.250   0.110  0.00  0.00     0.159 A 
ATOM      8  N   UNL d   1       0.132   0.568   1.253  0.00  0.00    -0.329 N 
ATOM      9  C   UNL d   1       0.016  -0.784   1.236  0.00  0.00     0.120 A 
ATOM     10  HN  UNL d   1       0.344   1.059   2.122  1.00  0.00     0.168 HD
ATOM     11  C   UNL d   1      -0.297  -1.469   0.080  0.00  0.00     0.051 A 
ATOM     12  C   UNL d   1      -0.462  -0.698  -1.041  0.00  0.00     0.093 A 
ATOM     13  N   UNL d   1      -0.328   0.640  -1.048  0.00  0.00    -0.343 N 
ATOM     14  HN  UNL d   1      -0.444   1.175  -1.909  1.00  0.00     0.167 HD
BRANCH   9  15
ATOM     15  C   UNL d   1       0.228  -1.560   2.523  0.00  0.00     0.432 C 
ATOM     16  F   UNL d   1       0.576  -0.793   3.595  0.00  0.00    -0.165 F 
ATOM     17  F   UNL d   1      -0.891  -2.243   2.904  0.00  0.00    -0.165 F 
ATOM     18  F   UNL d   1       1.208  -2.504   2.409  0.00  0.00    -0.165 F 
ENDBRANCH   9  15
ENDBRANCH   1   7
BRANCH   6  19
ATOM     19  N   UNL d   1      -1.202   6.122  -0.118  0.00  0.00    -0.353 N 
ATOM     20  C   UNL d   1      -1.477   7.242  -0.848  0.00  0.00     0.241 C 
ATOM     21  O   UNL d   1      -2.642   7.569  -1.058  0.00  0.00    -0.269 OA
ATOM     22  H   UNL d   1      -2.044   5.625   0.149  0.00  0.00     0.163 HD
BRANCH  20  23
ATOM     23  C   UNL d   1      -0.347   8.045  -1.366  0.00  0.00     0.080 C 
ATOM     24  C   UNL d   1      -0.593   9.160  -2.071  0.00  0.00     0.086 C 
BRANCH  24  25
ATOM     25  C   UNL d   1       0.554   9.941  -2.559  0.00  0.00     0.165 C 
ATOM     26  O   UNL d   1       1.722   9.648  -2.365  0.00  0.00    -0.647 OA
BRANCH  25  27
ATOM     27  O   UNL d   1       0.172  11.031  -3.254  0.00  0.00    -0.773 OA
ATOM     28  H   UNL d   1      -0.791  11.159  -3.341  0.00  0.00     0.167 HD
ENDBRANCH  25  27
ENDBRANCH  24  25
ENDBRANCH  20  23
ENDBRANCH   6  19
TORSDOF 6
