REMARK  2 active torsions:
REMARK  status: ('A' for Active; 'I' for Inactive)
REMARK    1  A    between atoms: C_11  and  C_7 
REMARK    2  A    between atoms: O_14  and  C_13 
ROOT
ATOM      1  C   UNL d   1       1.179   0.117  -0.019  0.00  0.00     0.101 A 
ATOM      2  N   UNL d   1      -0.811  -1.249  -0.011  0.00  0.00    -0.275 N 
ATOM      3  N   UNL d   1      -1.042   1.052  -0.016  0.00  0.00    -0.275 N 
ATOM      4  C   UNL d   1       0.554  -1.233  -0.013  0.00  0.00     0.265 A 
ATOM      5  C   UNL d   1       0.297   1.316  -0.058  0.00  0.00     0.265 A 
ATOM      6  C   UNL d   1      -1.637  -0.170  -0.008  0.00  0.00     0.329 A 
ATOM      7  C   UNL d   1       2.526   0.159   0.021  0.00  0.00     0.034 C 
ATOM      8  O   UNL d   1       0.693   2.473  -0.131  0.00  0.00    -0.267 OA
ATOM      9  O   UNL d   1       1.196  -2.276   0.001  0.00  0.00    -0.267 OA
ATOM     10  O   UNL d   1      -2.857  -0.293  -0.002  0.00  0.00    -0.246 OA
ATOM     11  H   UNL d   1      -1.254  -2.156  -0.005  0.00  0.00     0.173 HD
ATOM     12  H   UNL d   1      -1.655   1.854  -0.039  0.00  0.00     0.173 HD
ENDROOT
BRANCH   7  13
ATOM     13  C   UNL d   1       3.350   1.372   0.043  0.00  0.00    -0.032 A 
ATOM     14  C   UNL d   1       3.692   1.966   1.263  0.00  0.00     0.048 A 
ATOM     15  C   UNL d   1       4.426   3.150   1.265  0.00  0.00     0.066 A 
ATOM     16  C   UNL d   1       4.842   3.736   0.075  0.00  0.00     0.036 A 
ATOM     17  C   UNL d   1       4.520   3.134  -1.140  0.00  0.00     0.004 A 
ATOM     18  C   UNL d   1       3.775   1.953  -1.158  0.00  0.00     0.011 A 
BRANCH  15  19
ATOM     19  O   UNL d   1       4.751   3.782   2.430  0.00  0.00    -0.361 OA
ATOM     20  H   UNL d   1       4.273   3.352   3.157  0.00  0.00     0.217 HD
ENDBRANCH  15  19
ENDBRANCH   7  13
TORSDOF 2
