REMARK  4 active torsions:
REMARK  status: ('A' for Active; 'I' for Inactive)
REMARK    1  A    between atoms: N_4  and  C_1 
REMARK    2  A    between atoms: C_2  and  C_7 
REMARK    3  A    between atoms: C_3  and  C_6 
REMARK       I    between atoms: C_5  and  N_4 
REMARK       I    between atoms: N_12  and  C_5 
REMARK    4  A    between atoms: C_11  and  N_12 
ROOT
ATOM      1  C   UNL d   1      -1.105  -1.782   0.401  0.00  0.00     0.050 A 
ATOM      2  C   UNL d   1      -3.252  -2.641  -0.368  0.00  0.00     0.050 A 
ATOM      3  C   UNL d   1      -1.911  -2.852  -0.012  0.00  0.00     0.032 A 
ATOM      4  C   UNL d   1      -2.983  -0.257   0.092  0.00  0.00     0.037 A 
ATOM      5  C   UNL d   1      -1.660  -0.494   0.465  0.00  0.00     0.045 A 
ATOM      6  C   UNL d   1      -3.784  -1.342  -0.285  0.00  0.00     0.045 A 
ENDROOT
BRANCH   4   7
ATOM      7  N   UNL d   1      -3.548   1.030  -0.017  0.00  0.00    -0.309 N 
ATOM      8  C   UNL d   1      -2.909   2.231   0.082  0.00  0.00     0.325 C 
ATOM      9  N   UNL d   1      -3.584   3.358  -0.290  0.00  0.00    -0.303 N 
ATOM     10  O   UNL d   1      -1.752   2.392   0.460  0.00  0.00    -0.247 OA
ATOM     11  H   UNL d   1      -2.992   4.173  -0.181  0.00  0.00     0.171 HD
ATOM     12  H   UNL d   1      -4.510   1.085  -0.312  0.00  0.00     0.170 HD
BRANCH   9  13
ATOM     13  C   UNL d   1      -4.820   3.587  -0.857  0.00  0.00     0.078 A 
ATOM     14  S   UNL d   1      -5.940   2.364  -1.201  0.00  0.00    -0.084 SA
ATOM     15  C   UNL d   1      -7.049   3.471  -1.881  0.00  0.00     0.058 A 
ATOM     16  C   UNL d   1      -6.588   4.772  -1.840  0.00  0.00    -0.053 A 
ATOM     17  C   UNL d   1      -5.294   4.827  -1.229  0.00  0.00     0.044 A 
ATOM     18  C   UNL d   1      -7.318   5.960  -2.371  0.00  0.00     0.049 C 
ENDBRANCH   9  13
ENDBRANCH   4   7
BRANCH   1  19
ATOM     19  C   UNL d   1       0.361  -1.970   0.711  0.00  0.00     0.417 C 
ATOM     20  F   UNL d   1       0.795  -3.246   0.505  0.00  0.00    -0.166 F 
ATOM     21  F   UNL d   1       1.160  -1.182  -0.059  0.00  0.00    -0.166 F 
ATOM     22  F   UNL d   1       0.670  -1.676   2.003  0.00  0.00    -0.166 F 
ENDBRANCH   1  19
BRANCH   2  23
ATOM     23  C   UNL d   1      -4.104  -3.769  -0.900  0.00  0.00     0.417 C 
ATOM     24  F   UNL d   1      -3.405  -4.914  -1.134  0.00  0.00    -0.166 F 
ATOM     25  F   UNL d   1      -5.113  -4.109  -0.054  0.00  0.00    -0.166 F 
ATOM     26  F   UNL d   1      -4.698  -3.450  -2.084  0.00  0.00    -0.166 F 
ENDBRANCH   2  23
TORSDOF 4
