REMARK  5 active torsions:
REMARK  status: ('A' for Active; 'I' for Inactive)
REMARK    1  A    between atoms: C_2  and  S_1 
REMARK    2  A    between atoms: N_10  and  S_1 
REMARK    3  A    between atoms: C_15  and  N_10 
REMARK    4  A    between atoms: C_22  and  C_15 
REMARK    5  A    between atoms: C_19  and  C_22 
ROOT
ATOM      1  S   UNL d   1       0.966   0.018  -0.054  0.00  0.00     0.259 S 
ATOM      2  O   UNL d   1       0.223   0.846  -0.976  0.00  0.00    -0.201 OA
ATOM      3  O   UNL d   1       2.409   0.056  -0.065  0.00  0.00    -0.201 OA
ENDROOT
BRANCH   1   4
ATOM      4  C   UNL d   1       0.345  -1.683  -0.188  0.00  0.00     0.092 C 
ATOM      5  C   UNL d   1      -1.055  -1.915  -0.033  0.00  0.00    -0.032 C 
ATOM      6  C   UNL d   1      -1.533  -3.256  -0.002  0.00  0.00    -0.048 C 
ATOM      7  C   UNL d   1      -2.081  -0.809   0.061  0.00  0.00     0.050 C 
ATOM      8  C   UNL d   1      -3.023  -3.561   0.063  0.00  0.00     0.049 C 
ATOM      9  C   UNL d   1      -0.631  -4.345  -0.048  0.00  0.00    -0.049 C 
ATOM     10  C   UNL d   1       0.753  -4.108  -0.225  0.00  0.00    -0.048 C 
ATOM     11  C   UNL d   1      -1.181  -5.756   0.051  0.00  0.00     0.049 C 
ATOM     12  C   UNL d   1       1.233  -2.776  -0.395  0.00  0.00    -0.032 C 
ATOM     13  C   UNL d   1       1.702  -5.290  -0.255  0.00  0.00     0.049 C 
ATOM     14  C   UNL d   1       2.667  -2.604  -0.839  0.00  0.00     0.050 C 
ENDBRANCH   1   4
BRANCH   1  15
ATOM     15  N   UNL d   1       0.511   0.464   1.509  0.00  0.00    -0.315 N 
ATOM     16  H   UNL d   1      -0.362   0.985   1.559  0.00  0.00     0.172 HD
BRANCH  15  17
ATOM     17  C   UNL d   1       0.912  -0.328   2.679  0.00  0.00     0.137 C 
BRANCH  17  18
ATOM     18  C   UNL d   1       2.426  -0.514   2.798  0.00  0.00     0.059 C 
BRANCH  18  19
ATOM     19  C   UNL d   1       2.771  -1.372   3.986  0.00  0.00    -0.054 A 
ATOM     20  C   UNL d   1       2.839  -2.760   3.842  0.00  0.00     0.024 A 
ATOM     21  C   UNL d   1       3.101  -3.526   4.968  0.00  0.00     0.088 A 
ATOM     22  N   UNL d   1       3.297  -3.005   6.195  0.00  0.00    -0.375 N 
ATOM     23  C   UNL d   1       3.240  -1.657   6.300  0.00  0.00     0.088 A 
ATOM     24  HN  UNL d   1       3.479  -3.597   7.005  1.00  0.00     0.164 HD
ATOM     25  C   UNL d   1       2.985  -0.808   5.240  0.00  0.00     0.024 A 
ENDBRANCH  18  19
ENDBRANCH  17  18
ENDBRANCH  15  17
ENDBRANCH   1  15
TORSDOF 5
