REMARK  5 active torsions:
REMARK  status: ('A' for Active; 'I' for Inactive)
REMARK       I    between atoms: C_2  and  N_1 
REMARK    1  A    between atoms: C_3  and  N_1 
REMARK    2  A    between atoms: C_7  and  N_1 
REMARK    3  A    between atoms: C_4  and  C_2 
REMARK    4  A    between atoms: C_14  and  C_5 
REMARK    5  A    between atoms: C_16  and  C_7 
ROOT
ATOM      1  N   UNL d   1       0.627  -0.173   0.143  0.00  0.00    -0.338 N 
ATOM      2  C   UNL d   1       1.020  -1.350  -0.545  0.00  0.00     0.261 C 
ATOM      3  O   UNL d   1       1.029  -1.357  -1.779  0.00  0.00    -0.267 OA
ENDROOT
BRANCH   1   4
ATOM      4  C   UNL d   1       0.191   0.999  -0.691  0.00  0.00     0.092 C 
ATOM      5  C   UNL d   1       0.735   2.401  -0.235  0.00  0.00     0.012 C 
ATOM      6  C   UNL d   1      -0.030   3.553  -0.935  0.00  0.00     0.007 C 
ATOM      7  C   UNL d   1      -1.539   3.433  -0.804  0.00  0.00     0.005 C 
ATOM      8  C   UNL d   1      -2.015   2.143  -1.462  0.00  0.00    -0.017 C 
ATOM      9  C   UNL d   1      -1.352   0.948  -0.790  0.00  0.00     0.030 C 
ATOM     10  C   UNL d   1      -3.536   2.017  -1.361  0.00  0.00     0.010 C 
BRANCH   5  11
ATOM     11  C   UNL d   1       2.274   2.656  -0.402  0.00  0.00    -0.017 C 
ATOM     12  C   UNL d   1       3.160   1.648   0.326  0.00  0.00     0.010 C 
ATOM     13  C   UNL d   1       2.751   2.796  -1.853  0.00  0.00     0.010 C 
ENDBRANCH   5  11
ENDBRANCH   1   4
BRANCH   1  14
ATOM     14  C   UNL d   1       0.322  -0.158   1.585  0.00  0.00     0.165 C 
BRANCH  14  15
ATOM     15  C   UNL d   1      -0.812  -1.026   2.102  0.00  0.00    -0.040 A 
ATOM     16  C   UNL d   1      -1.712  -1.729   1.287  0.00  0.00     0.009 A 
ATOM     17  C   UNL d   1      -2.742  -2.494   1.841  0.00  0.00     0.001 A 
ATOM     18  C   UNL d   1      -2.896  -2.564   3.222  0.00  0.00     0.000 A 
ATOM     19  C   UNL d   1      -2.023  -1.866   4.050  0.00  0.00     0.001 A 
ATOM     20  C   UNL d   1      -0.993  -1.104   3.495  0.00  0.00     0.009 A 
ENDBRANCH  14  15
ENDBRANCH   1  14
BRANCH   2  21
ATOM     21  C   UNL d   1       1.366  -2.559   0.206  0.00  0.00     0.072 A 
ATOM     22  S   UNL d   1       0.769  -4.069  -0.387  0.00  0.00    -0.097 SA
ATOM     23  C   UNL d   1       1.486  -4.944   0.892  0.00  0.00     0.050 A 
ATOM     24  C   UNL d   1       2.201  -4.126   1.739  0.00  0.00     0.009 A 
ATOM     25  C   UNL d   1       2.152  -2.756   1.326  0.00  0.00     0.025 A 
ENDBRANCH   2  21
TORSDOF 5
