REMARK  3 active torsions:
REMARK  status: ('A' for Active; 'I' for Inactive)
REMARK    1  A    between atoms: C_9  and  C_1 
REMARK       I    between atoms: C_2  and  N_8 
REMARK       I    between atoms: N_7  and  C_2 
REMARK    2  A    between atoms: C_11  and  N_7 
REMARK    3  A    between atoms: N_8  and  C_9 
ROOT
ATOM      1  C   UNL d   1      -1.946   3.952  -0.231  0.00  0.00     0.321 C 
ATOM      2  N   UNL d   1      -1.088   5.001  -0.073  0.00  0.00    -0.309 N 
ATOM      3  N   UNL d   1      -1.468   2.712   0.042  0.00  0.00    -0.338 N 
ATOM      4  O   UNL d   1      -3.115   4.171  -0.540  0.00  0.00    -0.247 OA
ATOM      5  H   UNL d   1      -1.593   5.879  -0.032  0.00  0.00     0.170 HD
ATOM      6  H   UNL d   1      -0.636   2.654   0.609  0.00  0.00     0.164 HD
ENDROOT
BRANCH   3   7
ATOM      7  C   UNL d   1      -2.301   1.531  -0.034  0.00  0.00     0.172 C 
BRANCH   7   8
ATOM      8  C   UNL d   1      -1.935   0.594   1.076  0.00  0.00     0.022 A 
ATOM      9  C   UNL d   1      -2.707   0.158   2.136  0.00  0.00     0.049 A 
ATOM     10  C   UNL d   1      -2.007  -0.745   2.987  0.00  0.00     0.032 A 
ATOM     11 CL   UNL d   1      -4.329   0.605   2.451  0.00  0.00    -0.083 Cl
ATOM     12  C   UNL d   1      -0.721  -0.973   2.554  0.00  0.00     0.052 A 
ATOM     13  S   UNL d   1      -0.366  -0.111   1.122  0.00  0.00    -0.103 SA
ENDBRANCH   7   8
ENDBRANCH   3   7
BRANCH   2  14
ATOM     14  C   UNL d   1       0.312   5.068   0.021  0.00  0.00     0.037 A 
ATOM     15  C   UNL d   1       1.174   4.063  -0.426  0.00  0.00     0.053 A 
ATOM     16  C   UNL d   1       2.555   4.208  -0.272  0.00  0.00     0.036 A 
ATOM     17 CL   UNL d   1       3.607   2.956  -0.809  0.00  0.00    -0.084 Cl
ATOM     18  C   UNL d   1       3.091   5.357   0.305  0.00  0.00     0.024 A 
ATOM     19  C   UNL d   1       2.240   6.382   0.710  0.00  0.00     0.004 A 
ATOM     20  C   UNL d   1       0.858   6.243   0.555  0.00  0.00     0.029 A 
ENDBRANCH   2  14
TORSDOF 3
