REMARK  3 active torsions:
REMARK  status: ('A' for Active; 'I' for Inactive)
REMARK    1  A    between atoms: C_3  and  C_1 
REMARK    2  A    between atoms: N_4  and  C_2 
REMARK    3  A    between atoms: O_7  and  C_3 
ROOT
ATOM      1  C   UNL d   1       1.419  -0.136   0.143  0.00  0.00     0.059 A 
ATOM      2  C   UNL d   1       0.667  -1.332   0.002  0.00  0.00     0.027 A 
ATOM      3  C   UNL d   1       0.786   1.115   0.215  0.00  0.00     0.020 A 
ATOM      4  C   UNL d   1      -0.730  -1.207  -0.069  0.00  0.00     0.025 A 
ATOM      5  C   UNL d   1      -0.599   1.205   0.122  0.00  0.00     0.001 A 
ATOM      6  C   UNL d   1      -1.355   0.045  -0.017  0.00  0.00     0.002 A 
ENDROOT
BRANCH   2   7
ATOM      7  N   UNL d   1       1.323  -2.571  -0.127  0.00  0.00    -0.279 NA
ATOM      8  C   UNL d   1       0.648  -3.662  -0.873  0.00  0.00     0.122 C 
ATOM      9  C   UNL d   1       1.700  -4.742  -1.182  0.00  0.00     0.182 C 
ATOM     10  O   UNL d   1       2.278  -5.263   0.028  0.00  0.00    -0.389 OA
ATOM     11  C   UNL d   1       2.897  -4.217   0.800  0.00  0.00     0.182 C 
ATOM     12  C   UNL d   1       1.887  -3.106   1.152  0.00  0.00     0.122 C 
ENDBRANCH   2   7
BRANCH   1  13
ATOM     13  C   UNL d   1       2.910  -0.112   0.135  0.00  0.00     0.177 C 
ATOM     14  O   UNL d   1       3.570   0.768   0.668  0.00  0.00    -0.646 OA
BRANCH  13  15
ATOM     15  O   UNL d   1       3.462  -1.116  -0.580  0.00  0.00    -0.773 OA
ATOM     16  H   UNL d   1       2.766  -1.766  -0.836  0.00  0.00     0.167 HD
ENDBRANCH  13  15
ENDBRANCH   1  13
TORSDOF 3
