REMARK  3 active torsions:
REMARK  status: ('A' for Active; 'I' for Inactive)
REMARK    1  A    between atoms: C_7  and  C_3 
REMARK    2  A    between atoms: C_12  and  N_4 
REMARK    3  A    between atoms: C_15  and  C_8 
ROOT
ATOM      1  N   UNL d   1       0.770   0.342   1.064  0.00  0.00    -0.288 N 
ATOM      2  HN  UNL d   1       1.249   0.678   1.899  1.00  0.00     0.188 HD
ATOM      3  C   UNL d   1       1.225   0.623  -0.129  0.00  0.00     0.125 C 
ATOM      4  N   UNL d   1      -0.374  -0.419   1.167  0.00  0.00    -0.267 N 
ATOM      5  C   UNL d   1       0.458   0.230  -1.387  0.00  0.00     0.203 C 
ATOM      6  C   UNL d   1      -0.667  -0.694  -1.208  0.00  0.00     0.076 C 
ATOM      7  C   UNL d   1      -1.011  -0.938   0.056  0.00  0.00     0.120 C 
ATOM      8  O   UNL d   1       0.685   0.711  -2.485  0.00  0.00    -0.286 OA
ENDROOT
BRANCH   3   9
ATOM      9  C   UNL d   1       2.514   1.342  -0.280  0.00  0.00     0.067 A 
ATOM     10  N   UNL d   1       3.206   1.112  -1.413  0.00  0.00    -0.343 N 
ATOM     11  C   UNL d   1       4.378   1.749  -1.561  0.00  0.00     0.089 A 
ATOM     12  HN  UNL d   1       2.853   0.478  -2.129  1.00  0.00     0.167 HD
ATOM     13  N   UNL d   1       4.890   2.582  -0.633  0.00  0.00    -0.355 N 
ATOM     14  C   UNL d   1       4.182   2.756   0.498  0.00  0.00     0.092 A 
ATOM     15  HN  UNL d   1       5.778   3.060  -0.781  1.00  0.00     0.166 HD
ATOM     16  C   UNL d   1       2.971   2.156   0.733  0.00  0.00     0.049 A 
BRANCH  11  17
ATOM     17  C   UNL d   1       5.104   1.617  -2.898  0.00  0.00     0.007 C 
ATOM     18  C   UNL d   1       4.637   2.760  -3.813  0.00  0.00     0.022 C 
ATOM     19  C   UNL d   1       6.630   1.705  -2.705  0.00  0.00     0.022 C 
ATOM     20  C   UNL d   1       4.787   0.269  -3.577  0.00  0.00     0.022 C 
ENDBRANCH  11  17
ENDBRANCH   3   9
BRANCH   4  21
ATOM     21  C   UNL d   1      -0.809  -0.675   2.508  0.00  0.00     0.056 A 
ATOM     22  C   UNL d   1      -0.561   0.265   3.528  0.00  0.00     0.034 A 
ATOM     23  C   UNL d   1      -1.008   0.056   4.837  0.00  0.00     0.044 A 
ATOM     24  C   UNL d   1      -1.696  -1.108   5.145  0.00  0.00     0.116 A 
ATOM     25  C   UNL d   1      -1.942  -2.067   4.173  0.00  0.00     0.044 A 
ATOM     26  F   UNL d   1      -2.127  -1.311   6.397  0.00  0.00    -0.206 F 
ATOM     27  C   UNL d   1      -1.501  -1.851   2.862  0.00  0.00     0.034 A 
ENDBRANCH   4  21
TORSDOF 3
