REMARK  3 active torsions:
REMARK  status: ('A' for Active; 'I' for Inactive)
REMARK    1  A    between atoms: C_3  and  C_1 
REMARK    2  A    between atoms: C_4  and  C_2 
REMARK       I    between atoms: N_11  and  C_3 
REMARK    3  A    between atoms: O_15  and  C_7 
ROOT
ATOM      1  C   UNL d   1       0.878   0.399   0.247  0.00  0.00     0.112 C 
ATOM      2  C   UNL d   1       0.345   0.717  -0.948  0.00  0.00     0.042 C 
ATOM      3  C   UNL d   1       2.141   0.883   0.682  0.00  0.00     0.105 C 
ATOM      4  N   UNL d   1       3.176   1.238   1.075  0.00  0.00    -0.191 NA
ENDROOT
BRANCH   1   5
ATOM      5  C   UNL d   1       0.081  -0.502   1.131  0.00  0.00     0.260 C 
ATOM      6  O   UNL d   1      -1.004  -0.967   0.798  0.00  0.00    -0.267 OA
ATOM      7  N   UNL d   1       0.603  -0.792   2.355  0.00  0.00    -0.365 N 
ATOM      8  H   UNL d   1       1.480  -0.437   2.716  0.00  0.00     0.159 HD
ATOM      9  H   UNL d   1       0.057  -1.390   2.963  0.00  0.00     0.159 HD
ENDBRANCH   1   5
BRANCH   2  10
ATOM     10  C   UNL d   1       0.983   1.632  -1.902  0.00  0.00     0.000 A 
ATOM     11  C   UNL d   1       0.723   3.014  -1.940  0.00  0.00     0.078 A 
ATOM     12  C   UNL d   1       1.494   3.837  -2.771  0.00  0.00     0.039 A 
ATOM     13  C   UNL d   1       2.504   3.303  -3.572  0.00  0.00     0.022 A 
ATOM     14  C   UNL d   1       2.746   1.934  -3.546  0.00  0.00     0.011 A 
ATOM     15  C   UNL d   1       1.989   1.098  -2.727  0.00  0.00     0.033 A 
ATOM     16 BR   UNL d   1       4.147   1.206  -4.586  0.00  0.00    -0.051 Br
BRANCH  11  17
ATOM     17  O   UNL d   1      -0.153   3.696  -1.138  0.00  0.00    -0.355 OA
ATOM     18  C   UNL d   1      -1.458   3.140  -1.011  0.00  0.00     0.210 C 
ENDBRANCH  11  17
ENDBRANCH   2  10
TORSDOF 3
