REMARK  6 active torsions:
REMARK  status: ('A' for Active; 'I' for Inactive)
REMARK    1  A    between atoms: C_6  and  C_1 
REMARK    2  A    between atoms: C_9  and  N_2 
REMARK    3  A    between atoms: C_16  and  C_3 
REMARK    4  A    between atoms: S_8  and  C_6 
REMARK    5  A    between atoms: C_10  and  S_8 
REMARK    6  A    between atoms: C_23  and  C_16 
ROOT
ATOM      1  C   UNL d   1      -0.205   1.101   0.185  0.00  0.00     0.063 C 
ATOM      2  N   UNL d   1       0.818  -0.884  -0.026  0.00  0.00    -0.260 N 
ATOM      3  C   UNL d   1       1.035   0.500  -0.071  0.00  0.00     0.050 C 
ATOM      4  N   UNL d   1      -0.514  -1.155   0.055  0.00  0.00    -0.304 N 
ATOM      5  HN  UNL d   1      -0.963  -2.069   0.010  1.00  0.00     0.186 HD
ATOM      6  C   UNL d   1      -1.104   0.023   0.205  0.00  0.00     0.126 C 
ENDROOT
BRANCH   1   7
ATOM      7  C   UNL d   1      -0.490   2.523   0.348  0.00  0.00     0.228 C 
ATOM      8  O   UNL d   1       0.234   3.415  -0.090  0.00  0.00    -0.279 OA
BRANCH   7   9
ATOM      9  S   UNL d   1      -1.988   2.933   1.169  0.00  0.00    -0.029 SA
BRANCH   9  10
ATOM     10  C   UNL d   1      -1.634   2.440   2.843  0.00  0.00     0.077 A 
ATOM     11  N   UNL d   1      -0.767   1.429   3.059  0.00  0.00    -0.360 N 
ATOM     12  C   UNL d   1      -0.569   1.024   4.333  0.00  0.00     0.089 A 
ATOM     13  HN  UNL d   1      -0.277   0.982   2.284  1.00  0.00     0.166 HD
ATOM     14  C   UNL d   1      -1.195   1.597   5.425  0.00  0.00     0.017 A 
ATOM     15  C   UNL d   1      -2.086   2.636   5.191  0.00  0.00     0.004 A 
ATOM     16  C   UNL d   1      -2.316   3.062   3.884  0.00  0.00     0.037 A 
ENDBRANCH   9  10
ENDBRANCH   7   9
ENDBRANCH   1   7
BRANCH   3  17
ATOM     17  C   UNL d   1       2.331   1.184  -0.395  0.00  0.00     0.060 C 
BRANCH  17  18
ATOM     18  C   UNL d   1       3.207   1.481   0.826  0.00  0.00     0.002 C 
ATOM     19  C   UNL d   1       2.738   2.664   1.655  0.00  0.00     0.005 C 
ENDBRANCH  17  18
ENDBRANCH   3  17
BRANCH   2  20
ATOM     20  C   UNL d   1       1.720  -1.999  -0.123  0.00  0.00     0.056 A 
ATOM     21  C   UNL d   1       3.111  -1.867  -0.126  0.00  0.00     0.033 A 
ATOM     22  C   UNL d   1       3.940  -2.964  -0.378  0.00  0.00     0.026 A 
ATOM     23  C   UNL d   1       3.386  -4.221  -0.593  0.00  0.00     0.034 A 
ATOM     24  C   UNL d   1       2.010  -4.397  -0.495  0.00  0.00     0.026 A 
ATOM     25 CL   UNL d   1       4.401  -5.544  -0.998  0.00  0.00    -0.084 Cl
ATOM     26  C   UNL d   1       1.181  -3.296  -0.250  0.00  0.00     0.033 A 
ENDBRANCH   2  20
TORSDOF 6
