REMARK  1 active torsions:
REMARK  status: ('A' for Active; 'I' for Inactive)
REMARK    1  A    between atoms: C_9  and  C_3 
ROOT
ATOM      1  N   UNL d   1       4.565  -6.679   0.222  0.00  0.00    -0.191 NA
ATOM      2  C   UNL d   1       3.929  -5.710   0.161  0.00  0.00     0.099 C 
ATOM      3  C   UNL d   1       1.489  -2.228   0.019  0.00  0.00    -0.001 A 
ATOM      4  C   UNL d   1       2.410  -2.418   1.061  0.00  0.00     0.016 A 
ATOM      5  C   UNL d   1       1.431  -3.190  -1.001  0.00  0.00     0.016 A 
ATOM      6  C   UNL d   1       3.132  -4.521   0.096  0.00  0.00     0.044 A 
ATOM      7  C   UNL d   1       2.243  -4.329  -0.964  0.00  0.00     0.023 A 
ATOM      8  C   UNL d   1       3.224  -3.556   1.102  0.00  0.00     0.023 A 
ENDROOT
BRANCH   3   9
ATOM      9  C   UNL d   1       0.593  -1.079   0.025  0.00  0.00     0.102 A 
ATOM     10  C   UNL d   1       0.361  -0.010   0.864  0.00  0.00     0.127 A 
ATOM     11  N   UNL d   1      -0.665   0.765   0.383  0.00  0.00    -0.354 N 
ATOM     12  C   UNL d   1      -1.017   0.147  -0.721  0.00  0.00     0.233 A 
ATOM     13  HN  UNL d   1      -1.059   1.615   0.785  1.00  0.00     0.166 HD
ATOM     14  O   UNL d   1      -0.302  -0.974  -1.010  0.00  0.00    -0.304 OA
ENDBRANCH   3   9
TORSDOF 1
