REMARK  2 active torsions:
REMARK  status: ('A' for Active; 'I' for Inactive)
REMARK    1  A    between atoms: O_7  and  C_1 
REMARK    2  A    between atoms: C_11  and  O_7 
ROOT
ATOM      1  C   UNL d   1      -1.016  -1.531  -0.182  0.00  0.00     0.152 C 
ATOM      2  C   UNL d   1      -1.527  -0.293  -0.101  0.00  0.00     0.122 C 
ATOM      3  C   UNL d   1       0.461  -1.705  -0.338  0.00  0.00     0.218 C 
ATOM      4  C   UNL d   1      -0.685   0.931  -0.074  0.00  0.00     0.207 C 
ATOM      5  C   UNL d   1       1.326  -0.525  -0.158  0.00  0.00     0.031 A 
ATOM      6  C   UNL d   1       0.776   0.748  -0.062  0.00  0.00     0.030 A 
ATOM      7  O   UNL d   1       0.972  -2.781  -0.625  0.00  0.00    -0.284 OA
ATOM      8  O   UNL d   1      -1.159   2.060  -0.041  0.00  0.00    -0.286 OA
ATOM      9 CL   UNL d   1      -3.241  -0.035  -0.018  0.00  0.00    -0.077 Cl
ATOM     10  C   UNL d   1       1.615   1.866   0.045  0.00  0.00     0.016 A 
ATOM     11  C   UNL d   1       2.717  -0.690  -0.115  0.00  0.00     0.016 A 
ATOM     12  C   UNL d   1       3.001   1.701   0.075  0.00  0.00     0.001 A 
ATOM     13  C   UNL d   1       3.551   0.423   0.005  0.00  0.00     0.001 A 
ENDROOT
BRANCH   1  14
ATOM     14  O   UNL d   1      -1.875  -2.629  -0.251  0.00  0.00    -0.305 OA
BRANCH  14  15
ATOM     15  C   UNL d   1      -1.563  -3.815   0.369  0.00  0.00     0.076 A 
ATOM     16  C   UNL d   1      -0.840  -3.917   1.560  0.00  0.00     0.039 A 
ATOM     17  C   UNL d   1      -0.573  -5.176   2.106  0.00  0.00     0.026 A 
ATOM     18  C   UNL d   1      -1.063  -6.323   1.483  0.00  0.00     0.034 A 
ATOM     19  C   UNL d   1      -1.827  -6.224   0.323  0.00  0.00     0.026 A 
ATOM     20 CL   UNL d   1      -0.727  -7.870   2.157  0.00  0.00    -0.084 Cl
ATOM     21  C   UNL d   1      -2.080  -4.967  -0.231  0.00  0.00     0.039 A 
ENDBRANCH  14  15
ENDBRANCH   1  14
TORSDOF 2
