REMARK  9 active torsions:
REMARK  status: ('A' for Active; 'I' for Inactive)
REMARK    1  A    between atoms: C_14  and  C_1 
REMARK    2  A    between atoms: N_5  and  C_2 
REMARK    3  A    between atoms: S_12  and  C_6 
REMARK    4  A    between atoms: C_18  and  C_7 
REMARK    5  A    between atoms: C_9  and  C_15 
REMARK    6  A    between atoms: C_11  and  S_12 
REMARK    7  A    between atoms: O_27  and  C_14 
REMARK    8  A    between atoms: O_28  and  C_18 
REMARK    9  A    between atoms: O_29  and  C_18 
ROOT
ATOM      1  C   UNL d   1      -1.558   1.386  -0.058  0.00  0.00     0.068 A 
ATOM      2  N   UNL d   1      -1.471  -1.018  -0.195  0.00  0.00    -0.348 N 
ATOM      3  HN  UNL d   1      -1.957  -1.915  -0.229  1.00  0.00     0.166 HD
ATOM      4  C   UNL d   1      -0.121  -0.987  -0.240  0.00  0.00     0.096 A 
ATOM      5  C   UNL d   1      -2.196   0.145  -0.103  0.00  0.00     0.082 A 
ATOM      6  C   UNL d   1       0.576   0.212  -0.254  0.00  0.00     0.079 A 
ATOM      7  C   UNL d   1      -0.155   1.406  -0.157  0.00  0.00     0.045 A 
ATOM      8  C   UNL d   1       1.998   0.269  -0.346  0.00  0.00     0.102 C 
ATOM      9  N   UNL d   1       3.151   0.347  -0.438  0.00  0.00    -0.191 NA
ENDROOT
BRANCH   4  10
ATOM     10  S   UNL d   1       0.656  -2.591  -0.159  0.00  0.00    -0.069 SA
BRANCH  10  11
ATOM     11  C   UNL d   1       0.760  -3.058  -1.881  0.00  0.00     0.040 A 
ATOM     12  C   UNL d   1       1.947  -3.479  -2.500  0.00  0.00     0.120 A 
ATOM     13  C   UNL d   1       2.020  -3.722  -3.883  0.00  0.00     0.053 A 
ATOM     14  C   UNL d   1       0.877  -3.577  -4.680  0.00  0.00     0.050 A 
ATOM     15  C   UNL d   1      -0.335  -3.245  -4.057  0.00  0.00     0.017 A 
ATOM     16  C   UNL d   1      -0.392  -2.993  -2.680  0.00  0.00     0.022 A 
BRANCH  12  17
ATOM     17  N   UNL d   1       3.162  -3.695  -1.731  0.00  0.00    -0.114 N 
ATOM     18  O   UNL d   1       3.124  -4.538  -0.827  0.00  0.00    -0.532 OA
ATOM     19  O   UNL d   1       4.167  -3.069  -2.095  0.00  0.00    -0.532 OA
ENDBRANCH  12  17
BRANCH  14  20
ATOM     20  C   UNL d   1       0.934  -3.753  -6.179  0.00  0.00     0.417 C 
ATOM     21  F   UNL d   1       2.184  -4.025  -6.643  0.00  0.00    -0.166 F 
ATOM     22  F   UNL d   1       0.140  -4.766  -6.617  0.00  0.00    -0.166 F 
ATOM     23  F   UNL d   1       0.524  -2.637  -6.841  0.00  0.00    -0.166 F 
ENDBRANCH  14  20
ENDBRANCH  10  11
ENDBRANCH   4  10
BRANCH   1  24
ATOM     24  C   UNL d   1      -2.293   2.658   0.186  0.00  0.00     0.295 C 
ATOM     25  O   UNL d   1      -3.381   2.725   0.732  0.00  0.00    -0.259 OA
BRANCH  24  26
ATOM     26  O   UNL d   1      -1.546   3.716  -0.210  0.00  0.00    -0.322 OA
ATOM     27  C   UNL d   1      -2.094   4.995   0.131  0.00  0.00     0.213 C 
ENDBRANCH  24  26
ENDBRANCH   1  24
BRANCH   5  28
ATOM     28  C   UNL d   1      -3.718  -0.022  -0.135  0.00  0.00     0.310 C 
BRANCH  28  29
ATOM     29  O   UNL d   1      -4.087   0.031  -1.522  0.00  0.00    -0.360 OA
ATOM     30  C   UNL d   1      -5.496  -0.034  -1.700  0.00  0.00     0.205 C 
ENDBRANCH  28  29
BRANCH  28  31
ATOM     31  O   UNL d   1      -4.138  -1.274   0.436  0.00  0.00    -0.360 OA
ATOM     32  C   UNL d   1      -3.885  -1.354   1.833  0.00  0.00     0.205 C 
ENDBRANCH  28  31
ENDBRANCH   5  28
TORSDOF 9
