REMARK  5 active torsions:
REMARK  status: ('A' for Active; 'I' for Inactive)
REMARK    1  A    between atoms: C_2  and  C_1 
REMARK       I    between atoms: N_4  and  C_2 
REMARK       I    between atoms: C_3  and  N_5 
REMARK    2  A    between atoms: C_6  and  C_3 
REMARK    3  A    between atoms: N_5  and  N_4 
REMARK    4  A    between atoms: N_16  and  C_7 
REMARK    5  A    between atoms: C_8  and  C_9 
ROOT
ATOM      1  C   UNL d   1      -1.917   4.998  -0.110  0.00  0.00     0.270 C 
ATOM      2  N   UNL d   1      -2.436   4.595   1.104  0.00  0.00    -0.263 N 
ATOM      3  O   UNL d   1      -1.984   4.306  -1.124  0.00  0.00    -0.266 OA
ATOM      4  H   UNL d   1      -2.224   5.051   1.990  0.00  0.00     0.190 HD
ENDROOT
BRANCH   2   5
ATOM      5  N   UNL d   1      -3.023   3.323   1.196  0.00  0.00    -0.263 N 
ATOM      6  C   UNL d   1      -3.536   2.928   2.418  0.00  0.00     0.271 C 
ATOM      7  O   UNL d   1      -3.468   3.645   3.420  0.00  0.00    -0.266 OA
ATOM      8  H   UNL d   1      -3.219   2.849   0.315  0.00  0.00     0.190 HD
BRANCH   6   9
ATOM      9  C   UNL d   1      -4.171   1.577   2.487  0.00  0.00     0.054 A 
ATOM     10  C   UNL d   1      -5.209   1.333   3.415  0.00  0.00     0.021 A 
ATOM     11  C   UNL d   1      -5.762   0.044   3.482  0.00  0.00     0.024 A 
ATOM     12  C   UNL d   1      -5.242  -1.004   2.720  0.00  0.00     0.002 A 
ATOM     13  C   UNL d   1      -4.194  -0.767   1.836  0.00  0.00     0.001 A 
ATOM     14  C   UNL d   1      -3.662   0.521   1.712  0.00  0.00     0.019 A 
BRANCH  10  15
ATOM     15  N   UNL d   1      -5.869   2.375   4.098  0.00  0.00    -0.302 NA
ATOM     16  H   UNL d   1      -5.244   3.175   4.244  0.00  0.00     0.124 HD
ATOM     17  H   UNL d   1      -6.310   2.084   4.963  0.00  0.00     0.124 HD
ENDBRANCH  10  15
ENDBRANCH   6   9
ENDBRANCH   2   5
BRANCH   1  18
ATOM     18  C   UNL d   1      -1.235   6.324  -0.136  0.00  0.00     0.033 A 
ATOM     19  C   UNL d   1      -0.205   6.537  -1.055  0.00  0.00     0.017 A 
ATOM     20  C   UNL d   1       0.453   7.774  -1.111  0.00  0.00     0.009 A 
ATOM     21  C   UNL d   1       0.092   8.840  -0.264  0.00  0.00    -0.051 A 
ATOM     22  C   UNL d   1      -0.966   8.612   0.634  0.00  0.00     0.009 A 
ATOM     23  C   UNL d   1      -1.621   7.372   0.702  0.00  0.00     0.017 A 
BRANCH  21  24
ATOM     24  C   UNL d   1       0.851  10.182  -0.330  0.00  0.00    -0.024 C 
ATOM     25  C   UNL d   1       0.312  11.249   0.651  0.00  0.00     0.019 C 
ATOM     26  C   UNL d   1       2.337   9.951   0.021  0.00  0.00     0.019 C 
ATOM     27  C   UNL d   1       0.764  10.788  -1.748  0.00  0.00     0.019 C 
ENDBRANCH  21  24
ENDBRANCH   1  18
TORSDOF 5
