REMARK  5 active torsions:
REMARK  status: ('A' for Active; 'I' for Inactive)
REMARK    1  A    between atoms: N_3  and  S_1 
REMARK    2  A    between atoms: C_6  and  S_1 
REMARK    3  A    between atoms: C_15  and  N_3 
REMARK    4  A    between atoms: C_4  and  O_10 
REMARK    5  A    between atoms: O_10  and  C_14 
ROOT
ATOM      1  C   UNL d   1       0.073  -7.568  -2.316  0.00  0.00     0.100 A 
ATOM      2  C   UNL d   1       0.343  -6.204  -2.518  0.00  0.00     0.098 A 
ATOM      3  C   UNL d   1      -1.202  -7.987  -1.800  0.00  0.00     0.104 C 
ATOM      4  N   UNL d   1      -2.232  -8.329  -1.397  0.00  0.00    -0.191 NA
ATOM      5  C   UNL d   1       1.068  -8.507  -2.633  0.00  0.00     0.057 A 
ATOM      6 CL   UNL d   1       0.846 -10.206  -2.396  0.00  0.00    -0.083 Cl
ATOM      7  C   UNL d   1       1.547  -5.810  -3.124  0.00  0.00     0.039 A 
ATOM      8  C   UNL d   1       2.535  -6.746  -3.409  0.00  0.00     0.005 A 
ATOM      9  C   UNL d   1       2.300  -8.093  -3.154  0.00  0.00     0.025 A 
ENDROOT
BRANCH   2  10
ATOM     10  O   UNL d   1      -0.611  -5.273  -2.142  0.00  0.00    -0.309 OA
BRANCH  10  11
ATOM     11  C   UNL d   1      -0.188  -4.065  -1.618  0.00  0.00     0.076 A 
ATOM     12  C   UNL d   1      -0.989  -2.948  -1.879  0.00  0.00     0.039 A 
ATOM     13  C   UNL d   1      -0.612  -1.683  -1.407  0.00  0.00     0.028 A 
ATOM     14  C   UNL d   1       0.576  -1.544  -0.680  0.00  0.00     0.080 A 
ATOM     15  C   UNL d   1       1.357  -2.663  -0.383  0.00  0.00     0.028 A 
ATOM     16  C   UNL d   1       0.960  -3.923  -0.830  0.00  0.00     0.039 A 
BRANCH  14  17
ATOM     17  S   UNL d   1       1.065   0.034  -0.013  0.00  0.00     0.263 S 
ATOM     18  O   UNL d   1      -0.125   0.853   0.077  0.00  0.00    -0.200 OA
ATOM     19  O   UNL d   1       1.893  -0.210   1.149  0.00  0.00    -0.200 OA
BRANCH  17  20
ATOM     20  N   UNL d   1       2.000   0.705  -1.223  0.00  0.00    -0.281 N 
ATOM     21  H   UNL d   1       1.657   1.555  -1.663  0.00  0.00     0.179 HD
BRANCH  20  22
ATOM     22  C   UNL d   1       3.220   0.123  -1.633  0.00  0.00     0.042 A 
ATOM     23  C   UNL d   1       3.231  -0.707  -2.753  0.00  0.00     0.030 A 
ATOM     24  C   UNL d   1       4.432  -1.253  -3.204  0.00  0.00     0.002 A 
ATOM     25  C   UNL d   1       5.624  -0.951  -2.546  0.00  0.00     0.000 A 
ATOM     26  C   UNL d   1       5.614  -0.107  -1.435  0.00  0.00     0.002 A 
ATOM     27  C   UNL d   1       4.409   0.431  -0.975  0.00  0.00     0.030 A 
ENDBRANCH  20  22
ENDBRANCH  17  20
ENDBRANCH  14  17
ENDBRANCH  10  11
ENDBRANCH   2  10
TORSDOF 5
