REMARK  6 active torsions:
REMARK  status: ('A' for Active; 'I' for Inactive)
REMARK    1  A    between atoms: C_4  and  C_1 
REMARK    2  A    between atoms: C_5  and  C_1 
REMARK    3  A    between atoms: N_3  and  C_2 
REMARK    4  A    between atoms: C_11  and  C_4 
REMARK    5  A    between atoms: N_6  and  C_5 
REMARK    6  A    between atoms: O_21  and  C_18 
ROOT
ATOM      1  C   UNL d   1       1.029  -0.000  -0.096  0.00  0.00     0.092 C 
ATOM      2  C   UNL d   1       0.416   0.613   0.935  0.00  0.00     0.111 C 
ENDROOT
BRANCH   1   3
ATOM      3  C   UNL d   1       0.257  -0.539  -1.250  0.00  0.00     0.203 C 
ATOM      4  O   UNL d   1      -0.904  -0.928  -1.115  0.00  0.00    -0.286 OA
BRANCH   3   5
ATOM      5  C   UNL d   1       0.914  -0.634  -2.576  0.00  0.00     0.016 A 
ATOM      6  C   UNL d   1       0.611  -1.720  -3.407  0.00  0.00     0.018 A 
ATOM      7  C   UNL d   1       1.231  -1.852  -4.657  0.00  0.00     0.037 A 
ATOM      8  C   UNL d   1       2.151  -0.894  -5.083  0.00  0.00     0.068 A 
ATOM      9  C   UNL d   1       2.412   0.215  -4.279  0.00  0.00     0.037 A 
ATOM     10  C   UNL d   1       1.792   0.356  -3.037  0.00  0.00     0.018 A 
BRANCH   8  11
ATOM     11  O   UNL d   1       2.812  -0.903  -6.280  0.00  0.00    -0.356 OA
ATOM     12  C   UNL d   1       3.071  -2.188  -6.833  0.00  0.00     0.210 C 
ENDBRANCH   8  11
ENDBRANCH   3   5
ENDBRANCH   1   3
BRANCH   1  13
ATOM     13  C   UNL d   1       2.549  -0.000  -0.096  0.00  0.00    -0.032 C 
BRANCH  13  14
ATOM     14  N   UNL d   1       3.810  -0.000  -0.096  0.00  0.00    -0.365 N 
ATOM     15  HN2 UNL d   1       2.790  -0.000  -0.096  1.00  0.00     0.165 HD
ATOM     16  HN1 UNL d   1       4.830  -0.000  -0.096  1.00  0.00     0.165 HD
ENDBRANCH  13  14
ENDBRANCH   1  13
BRANCH   2  17
ATOM     17  N   UNL d   1       0.991   1.213   2.063  0.00  0.00    -0.384 N 
ATOM     18  C   UNL d   1       1.997   0.523   2.917  0.00  0.00     0.161 C 
ATOM     19  C   UNL d   1       2.084   1.085   4.320  0.00  0.00    -0.034 A 
ATOM     20  C   UNL d   1       2.360   0.270   5.423  0.00  0.00     0.009 A 
ATOM     21  C   UNL d   1       1.969   2.474   4.502  0.00  0.00    -0.049 A 
ATOM     22  C   UNL d   1       2.493   0.833   6.694  0.00  0.00     0.001 A 
ATOM     23  C   UNL d   1       2.385   2.214   6.865  0.00  0.00     0.001 A 
ATOM     24  C   UNL d   1       2.135   3.038   5.769  0.00  0.00     0.008 A 
ATOM     25  C   UNL d   1       1.633   3.294   3.288  0.00  0.00     0.059 C 
ATOM     26  C   UNL d   1       0.543   2.551   2.505  0.00  0.00     0.127 C 
ENDBRANCH   2  17
TORSDOF 6
