REMARK  6 active torsions:
REMARK  status: ('A' for Active; 'I' for Inactive)
REMARK    1  A    between atoms: O_4  and  C_1 
REMARK    2  A    between atoms: C_3  and  O_4 
REMARK    3  A    between atoms: N_6  and  C_7 
REMARK       I    between atoms: C_8  and  N_6 
REMARK    4  A    between atoms: C_16  and  C_8 
REMARK    5  A    between atoms: S_13  and  C_16 
REMARK    6  A    between atoms: C_17  and  S_13 
ROOT
ATOM      1  C   UNL d   1      -0.659   1.081   0.241  0.00  0.00     0.175 A 
ATOM      2  C   UNL d   1       0.730   1.139   0.079  0.00  0.00     0.086 A 
ATOM      3  N   UNL d   1      -1.367  -0.072   0.145  0.00  0.00    -0.345 N 
ATOM      4  HN  UNL d   1      -2.386  -0.072   0.191  1.00  0.00     0.167 HD
ATOM      5  C   UNL d   1       1.416  -0.073  -0.021  0.00  0.00     0.035 A 
ATOM      6  C   UNL d   1      -0.675  -1.217  -0.012  0.00  0.00     0.090 A 
ATOM      7  C   UNL d   1       0.704  -1.271  -0.072  0.00  0.00     0.019 A 
ENDROOT
BRANCH   2   8
ATOM      8  N   UNL d   1       1.404   2.374   0.088  0.00  0.00    -0.323 N 
ATOM      9  C   UNL d   1       2.490   2.793  -0.643  0.00  0.00     0.231 C 
ATOM     10  O   UNL d   1       2.985   3.888  -0.360  0.00  0.00    -0.272 OA
ATOM     11  H   UNL d   1       0.958   3.134   0.596  0.00  0.00     0.169 HD
BRANCH   9  12
ATOM     12  C   UNL d   1       2.925   2.010  -1.881  0.00  0.00     0.182 C 
BRANCH  12  13
ATOM     13  S   UNL d   1       4.735   1.814  -1.958  0.00  0.00    -0.121 SA
BRANCH  13  14
ATOM     14  C   UNL d   1       4.905   0.904  -3.489  0.00  0.00     0.001 A 
ATOM     15  C   UNL d   1       5.806   1.357  -4.465  0.00  0.00     0.020 A 
ATOM     16  C   UNL d   1       5.992   0.636  -5.650  0.00  0.00     0.025 A 
ATOM     17  C   UNL d   1       5.278  -0.538  -5.865  0.00  0.00     0.034 A 
ATOM     18  C   UNL d   1       4.386  -1.003  -4.903  0.00  0.00     0.025 A 
ATOM     19 CL   UNL d   1       5.513  -1.433  -7.314  0.00  0.00    -0.084 Cl
ATOM     20  C   UNL d   1       4.202  -0.284  -3.716  0.00  0.00     0.020 A 
ENDBRANCH  13  14
ENDBRANCH  12  13
ENDBRANCH   9  12
ENDBRANCH   2   8
BRANCH   1  21
ATOM     21  O   UNL d   1      -1.335   2.290   0.436  0.00  0.00    -0.291 OA
BRANCH  21  22
ATOM     22  C   UNL d   1      -2.650   2.229   0.835  0.00  0.00     0.084 A 
ATOM     23  C   UNL d   1      -3.582   3.035   0.199  0.00  0.00    -0.017 A 
ATOM     24  C   UNL d   1      -4.946   2.944   0.521  0.00  0.00    -0.043 A 
ATOM     25  C   UNL d   1      -3.357   4.005  -0.917  0.00  0.00     0.042 C 
ATOM     26  C   UNL d   1      -5.758   3.836  -0.368  0.00  0.00     0.040 C 
ATOM     27  C   UNL d   1      -5.407   2.061   1.493  0.00  0.00    -0.055 A 
ATOM     28  C   UNL d   1      -4.688   4.771  -0.946  0.00  0.00     0.009 C 
ATOM     29  C   UNL d   1      -4.450   1.323   2.203  0.00  0.00     0.010 A 
ATOM     30  C   UNL d   1      -6.865   1.900   1.782  0.00  0.00     0.049 C 
ATOM     31  C   UNL d   1      -3.086   1.420   1.889  0.00  0.00     0.038 A 
ENDBRANCH  21  22
ENDBRANCH   1  21
TORSDOF 6
