REMARK  7 active torsions:
REMARK  status: ('A' for Active; 'I' for Inactive)
REMARK    1  A    between atoms: C_11  and  C_1 
REMARK    2  A    between atoms: S_2  and  N_7 
REMARK    3  A    between atoms: C_8  and  S_2 
REMARK    4  A    between atoms: N_7  and  C_3 
REMARK    5  A    between atoms: C_19  and  C_5 
REMARK    6  A    between atoms: C_9  and  C_12 
REMARK    7  A    between atoms: C_10  and  C_13 
REMARK       I    between atoms: N_29  and  C_11 
ROOT
ATOM      1  N   UNL d   1       2.392   1.753   0.010  0.00  0.00    -0.279 N 
ATOM      2  H   UNL d   1       2.966   1.776   0.854  0.00  0.00     0.179 HD
ENDROOT
BRANCH   1   3
ATOM      3  S   UNL d   1       3.392   1.944  -1.335  0.00  0.00     0.263 S 
ATOM      4  O   UNL d   1       4.569   2.648  -0.872  0.00  0.00    -0.200 OA
ATOM      5  O   UNL d   1       3.515   0.671  -2.017  0.00  0.00    -0.200 OA
BRANCH   3   6
ATOM      6  C   UNL d   1       2.479   3.055  -2.384  0.00  0.00     0.081 A 
ATOM      7  C   UNL d   1       2.575   4.439  -2.197  0.00  0.00     0.041 A 
ATOM      8  C   UNL d   1       1.942   5.314  -3.095  0.00  0.00     0.050 A 
ATOM      9  C   UNL d   1       1.215   4.777  -4.174  0.00  0.00     0.032 A 
ATOM     10  C   UNL d   1       1.126   3.388  -4.376  0.00  0.00     0.050 A 
ATOM     11  C   UNL d   1       1.765   2.531  -3.469  0.00  0.00     0.041 A 
BRANCH   8  12
ATOM     12  C   UNL d   1       2.062   6.815  -2.950  0.00  0.00     0.417 C 
ATOM     13  F   UNL d   1       2.810   7.208  -1.883  0.00  0.00    -0.166 F 
ATOM     14  F   UNL d   1       2.642   7.387  -4.042  0.00  0.00    -0.166 F 
ATOM     15  F   UNL d   1       0.853   7.426  -2.811  0.00  0.00    -0.166 F 
ENDBRANCH   8  12
BRANCH  10  16
ATOM     16  C   UNL d   1       0.379   2.843  -5.572  0.00  0.00     0.417 C 
ATOM     17  F   UNL d   1       0.443   1.487  -5.681  0.00  0.00    -0.166 F 
ATOM     18  F   UNL d   1      -0.946   3.154  -5.542  0.00  0.00    -0.166 F 
ATOM     19  F   UNL d   1       0.855   3.336  -6.748  0.00  0.00    -0.166 F 
ENDBRANCH  10  16
ENDBRANCH   3   6
ENDBRANCH   1   3
BRANCH   1  20
ATOM     20  C   UNL d   1       1.291   0.880  -0.004  0.00  0.00     0.066 A 
ATOM     21  C   UNL d   1      -0.035   1.275   0.039  0.00  0.00     0.100 A 
ATOM     22  S   UNL d   1      -1.083  -0.078   0.022  0.00  0.00    -0.082 SA
ATOM     23  C   UNL d   1       0.204  -1.207   0.041  0.00  0.00     0.018 A 
ATOM     24  C   UNL d   1       1.420  -0.546   0.016  0.00  0.00     0.051 A 
BRANCH  21  25
ATOM     25  C   UNL d   1      -0.575   2.625   0.092  0.00  0.00     0.258 C 
ATOM     26  O   UNL d   1       0.093   3.653   0.020  0.00  0.00    -0.267 OA
ATOM     27  N   UNL d   1      -1.932   2.739   0.241  0.00  0.00    -0.365 N 
ATOM     28  H   UNL d   1      -2.529   1.929   0.322  0.00  0.00     0.159 HD
ATOM     29  H   UNL d   1      -2.331   3.665   0.305  0.00  0.00     0.159 HD
ENDBRANCH  21  25
BRANCH  23  30
ATOM     30  C   UNL d   1      -0.087  -2.653   0.045  0.00  0.00    -0.019 A 
ATOM     31  C   UNL d   1       0.751  -3.546  -0.643  0.00  0.00     0.016 A 
ATOM     32  C   UNL d   1       0.472  -4.917  -0.668  0.00  0.00     0.043 A 
ATOM     33  C   UNL d   1      -0.646  -5.404  -0.003  0.00  0.00     0.116 A 
ATOM     34  C   UNL d   1      -1.488  -4.548   0.692  0.00  0.00     0.043 A 
ATOM     35  F   UNL d   1      -0.918  -6.715  -0.033  0.00  0.00    -0.206 F 
ATOM     36  C   UNL d   1      -1.205  -3.179   0.721  0.00  0.00     0.016 A 
ENDBRANCH  23  30
ENDBRANCH   1  20
TORSDOF 7
