REMARK  2 active torsions:
REMARK  status: ('A' for Active; 'I' for Inactive)
REMARK    1  A    between atoms: C_5  and  N_1 
REMARK    2  A    between atoms: C_4  and  C_5 
ROOT
ATOM      1  C   UNL d   1       3.289   0.007  -0.130  0.00  0.00     0.175 C 
ENDROOT
BRANCH   1   2
ATOM      2  C   UNL d   1       3.924   0.624   1.126  0.00  0.00    -0.027 C 
ATOM      3  C   UNL d   1       3.110   1.109   2.194  0.00  0.00    -0.047 C 
ATOM      4  C   UNL d   1       3.688   1.878   3.242  0.00  0.00    -0.049 C 
ATOM      5  C   UNL d   1       1.626   0.814   2.266  0.00  0.00     0.049 C 
ATOM      6  C   UNL d   1       2.826   2.575   4.279  0.00  0.00     0.049 C 
ATOM      7  C   UNL d   1       5.096   1.991   3.349  0.00  0.00    -0.049 C 
ATOM      8  C   UNL d   1       5.922   1.412   2.358  0.00  0.00    -0.049 C 
ATOM      9  C   UNL d   1       5.684   2.711   4.546  0.00  0.00     0.049 C 
ATOM     10  C   UNL d   1       5.340   0.765   1.229  0.00  0.00    -0.047 C 
ATOM     11  C   UNL d   1       7.427   1.487   2.527  0.00  0.00     0.049 C 
ATOM     12  C   UNL d   1       6.282   0.216   0.180  0.00  0.00     0.049 C 
ENDBRANCH   1   2
BRANCH   1  13
ATOM     13  N   UNL d   1       3.043   0.994  -1.174  0.00  0.00    -0.276 N 
ATOM     14  C   UNL d   1       3.923   1.342  -2.163  0.00  0.00     0.262 C 
ATOM     15  C   UNL d   1       3.302   2.428  -2.911  0.00  0.00     0.048 A 
ATOM     16  O   UNL d   1       5.002   0.864  -2.477  0.00  0.00    -0.267 OA
ATOM     17  C   UNL d   1       3.818   3.245  -3.896  0.00  0.00     0.018 A 
ATOM     18  C   UNL d   1       2.017   2.587  -2.426  0.00  0.00     0.048 A 
ATOM     19  C   UNL d   1       2.990   4.254  -4.392  0.00  0.00     0.001 A 
ATOM     20  C   UNL d   1       1.670   4.402  -3.913  0.00  0.00     0.001 A 
ATOM     21  C   UNL d   1       1.165   3.552  -2.925  0.00  0.00     0.018 A 
ATOM     22  C   UNL d   1       1.840   1.623  -1.343  0.00  0.00     0.262 C 
ATOM     23  O   UNL d   1       0.781   1.449  -0.763  0.00  0.00    -0.267 OA
ENDBRANCH   1  13
TORSDOF 2
