REMARK  4 active torsions:
REMARK  status: ('A' for Active; 'I' for Inactive)
REMARK    1  A    between atoms: C_2  and  N_1 
REMARK    2  A    between atoms: O_4  and  C_3 
REMARK    3  A    between atoms: C_13  and  O_4 
REMARK    4  A    between atoms: C_9  and  C_10 
ROOT
ATOM      1  O   UNL d   1      -1.174   1.689   0.213  0.00  0.00    -0.291 OA
ENDROOT
BRANCH   1   2
ATOM      2  C   UNL d   1      -2.541   1.892   0.323  0.00  0.00     0.181 A 
ATOM      3  C   UNL d   1      -3.399   1.459  -0.668  0.00  0.00     0.154 A 
ATOM      4  C   UNL d   1      -4.777   1.652  -0.529  0.00  0.00     0.042 A 
ATOM      5  C   UNL d   1      -5.248   2.285   0.618  0.00  0.00     0.020 A 
ATOM      6  C   UNL d   1      -4.324   2.726   1.552  0.00  0.00     0.090 A 
ATOM      7  N   UNL d   1      -2.990   2.562   1.417  0.00  0.00    -0.345 N 
ATOM      8  HN  UNL d   1      -2.341   2.929   2.114  1.00  0.00     0.167 HD
BRANCH   3   9
ATOM      9  N   UNL d   1      -2.899   0.782  -1.833  0.00  0.00    -0.111 N 
ATOM     10  O   UNL d   1      -2.249  -0.256  -1.660  0.00  0.00    -0.532 OA
ATOM     11  O   UNL d   1      -3.218   1.256  -2.933  0.00  0.00    -0.532 OA
ENDBRANCH   3   9
ENDBRANCH   1   2
BRANCH   1  12
ATOM     12  C   UNL d   1      -0.487   1.379   1.370  0.00  0.00     0.077 A 
ATOM     13  C   UNL d   1      -1.027   0.624   2.409  0.00  0.00     0.038 A 
ATOM     14  C   UNL d   1      -0.261   0.323   3.536  0.00  0.00     0.011 A 
ATOM     15  C   UNL d   1       1.085   0.715   3.636  0.00  0.00    -0.050 A 
ATOM     16  C   UNL d   1       1.615   1.473   2.577  0.00  0.00     0.011 A 
ATOM     17  C   UNL d   1       0.840   1.798   1.452  0.00  0.00     0.038 A 
BRANCH  15  18
ATOM     18  C   UNL d   1       1.917   0.260   4.849  0.00  0.00    -0.024 C 
ATOM     19  C   UNL d   1       3.402   0.674   4.777  0.00  0.00     0.019 C 
ATOM     20  C   UNL d   1       1.334   0.846   6.153  0.00  0.00     0.019 C 
ATOM     21  C   UNL d   1       1.880  -1.284   4.932  0.00  0.00     0.019 C 
ENDBRANCH  15  18
ENDBRANCH   1  12
TORSDOF 4
