REMARK  5 active torsions:
REMARK  status: ('A' for Active; 'I' for Inactive)
REMARK    1  A    between atoms: C_2  and  C_1 
REMARK    2  A    between atoms: C_10  and  C_5 
REMARK    3  A    between atoms: C_25  and  C_11 
REMARK    4  A    between atoms: C_17  and  O_23 
REMARK    5  A    between atoms: O_23  and  C_25 
ROOT
ATOM      1  C   UNL d   1      -1.530   2.252  -0.027  0.00  0.00     0.075 A 
ATOM      2  N   UNL d   1      -2.388   2.531   1.020  0.00  0.00    -0.349 N 
ATOM      3  HN  UNL d   1      -2.542   1.927   1.828  1.00  0.00     0.166 HD
ATOM      4  C   UNL d   1      -2.978   3.693   0.819  0.00  0.00     0.075 A 
ATOM      5  C   UNL d   1      -1.438   3.240  -0.987  0.00  0.00     0.084 A 
ATOM      6  S   UNL d   1      -2.470   4.545  -0.589  0.00  0.00    -0.084 SA
ENDROOT
BRANCH   1   7
ATOM      7  C   UNL d   1      -0.749   0.984  -0.085  0.00  0.00     0.128 A 
ATOM      8  C   UNL d   1      -0.013   0.523  -1.150  0.00  0.00     0.074 A 
ATOM      9  C   UNL d   1       0.619  -0.664  -0.699  0.00  0.00     0.069 A 
ATOM     10  N   UNL d   1       0.215  -0.943   0.551  0.00  0.00    -0.260 N 
ATOM     11  O   UNL d   1      -0.643   0.077   0.924  0.00  0.00    -0.235 OA
ATOM     12  HN  UNL d   1       0.488  -1.748   1.115  1.00  0.00     0.195 HD
BRANCH   9  13
ATOM     13  C   UNL d   1       1.545  -1.545  -1.424  0.00  0.00     0.014 A 
ATOM     14  C   UNL d   1       2.459  -1.095  -2.396  0.00  0.00     0.048 A 
ATOM     15  C   UNL d   1       3.285  -2.001  -3.078  0.00  0.00     0.048 A 
ATOM     16 CL   UNL d   1       2.698   0.574  -2.798  0.00  0.00    -0.083 Cl
ATOM     17  C   UNL d   1       3.226  -3.357  -2.781  0.00  0.00     0.035 A 
ATOM     18  C   UNL d   1       2.354  -3.824  -1.806  0.00  0.00     0.025 A 
ATOM     19 CL   UNL d   1       4.246  -4.458  -3.620  0.00  0.00    -0.084 Cl
ATOM     20  C   UNL d   1       1.517  -2.925  -1.134  0.00  0.00     0.017 A 
ENDBRANCH   9  13
ENDBRANCH   1   7
BRANCH   4  21
ATOM     21  C   UNL d   1      -4.003   4.303   1.727  0.00  0.00     0.240 C 
BRANCH  21  22
ATOM     22  O   UNL d   1      -5.273   4.155   1.086  0.00  0.00    -0.345 OA
BRANCH  22  23
ATOM     23  C   UNL d   1      -6.359   4.692   1.721  0.00  0.00     0.072 A 
ATOM     24  C   UNL d   1      -6.341   5.366   2.943  0.00  0.00     0.060 A 
ATOM     25  C   UNL d   1      -7.530   5.874   3.471  0.00  0.00     0.038 A 
ATOM     26 CL   UNL d   1      -7.496   6.712   4.975  0.00  0.00    -0.084 Cl
ATOM     27  C   UNL d   1      -8.738   5.713   2.801  0.00  0.00     0.048 A 
ATOM     28  C   UNL d   1      -8.752   5.037   1.587  0.00  0.00     0.038 A 
ATOM     29  C   UNL d   1      -7.571   4.527   1.046  0.00  0.00     0.060 A 
ATOM     30 CL   UNL d   1     -10.238   4.828   0.744  0.00  0.00    -0.084 Cl
ENDBRANCH  22  23
ENDBRANCH  21  22
ENDBRANCH   4  21
TORSDOF 5
