REMARK  2 active torsions:
REMARK  status: ('A' for Active; 'I' for Inactive)
REMARK    1  A    between atoms: C_18  and  N_4 
REMARK    2  A    between atoms: N_13  and  C_15 
ROOT
ATOM      1  C   UNL d   1       2.710  -0.695  -0.008  0.00  0.00     0.139 A 
ATOM      2  C   UNL d   1       1.758   0.279   0.025  0.00  0.00     0.105 A 
ATOM      3  N   UNL d   1       4.065  -0.296  -0.112  0.00  0.00    -0.288 N 
ATOM      4  N   UNL d   1       2.290  -2.066   0.005  0.00  0.00    -0.262 N 
ATOM      5  N   UNL d   1       3.514   1.990   0.059  0.00  0.00    -0.270 N 
ATOM      6  C   UNL d   1       4.489   1.030   0.020  0.00  0.00     0.332 C 
ATOM      7  C   UNL d   1       2.169   1.719   0.001  0.00  0.00     0.267 C 
ATOM      8  C   UNL d   1       0.924  -2.434  -0.006  0.00  0.00     0.266 A 
ATOM      9  C   UNL d   1      -0.080  -1.379  -0.003  0.00  0.00     0.061 A 
ATOM     10  C   UNL d   1       0.318  -0.067   0.029  0.00  0.00     0.068 A 
ATOM     11  N   UNL d   1      -0.607   0.927   0.042  0.00  0.00    -0.354 N 
ATOM     12  HN  UNL d   1      -0.301   1.900   0.069  1.00  0.00     0.166 HD
ATOM     13  C   UNL d   1      -1.444  -1.697  -0.015  0.00  0.00     0.033 A 
ATOM     14  C   UNL d   1      -4.692   0.094  -0.015  0.00  0.00     0.103 A 
ATOM     15  C   UNL d   1      -2.395  -0.680  -0.005  0.00  0.00    -0.006 A 
ATOM     16  C   UNL d   1      -1.924   0.645   0.019  0.00  0.00     0.043 A 
ATOM     17  C   UNL d   1      -3.773  -0.960  -0.019  0.00  0.00     0.049 A 
ATOM     18  O   UNL d   1       5.686   1.330   0.070  0.00  0.00    -0.246 OA
ATOM     19  O   UNL d   1       1.355   2.639  -0.068  0.00  0.00    -0.267 OA
ATOM     20  O   UNL d   1       0.491  -3.589   0.013  0.00  0.00    -0.267 OA
ATOM     21  C   UNL d   1       5.183  -1.185  -0.398  0.00  0.00     0.163 C 
ATOM     22  C   UNL d   1      -4.242   1.416   0.001  0.00  0.00     0.038 A 
ATOM     23  C   UNL d   1      -2.864   1.672   0.017  0.00  0.00     0.033 A 
ATOM     24  C   UNL d   1       3.910   3.390   0.048  0.00  0.00     0.164 C 
ENDROOT
BRANCH   4  25
ATOM     25  C   UNL d   1       3.152  -3.211   0.097  0.00  0.00     0.044 A 
ATOM     26  C   UNL d   1       3.114  -4.186  -0.917  0.00  0.00     0.030 A 
ATOM     27  C   UNL d   1       3.976  -5.280  -0.885  0.00  0.00     0.002 A 
ATOM     28  C   UNL d   1       4.878  -5.417   0.169  0.00  0.00     0.000 A 
ATOM     29  C   UNL d   1       4.889  -4.483   1.207  0.00  0.00     0.002 A 
ATOM     30  C   UNL d   1       4.014  -3.392   1.184  0.00  0.00     0.030 A 
ENDBRANCH   4  25
BRANCH  14  31
ATOM     31  N   UNL d   1      -6.128  -0.198  -0.027  0.00  0.00    -0.116 N 
ATOM     32  O   UNL d   1      -6.478  -1.387  -0.041  0.00  0.00    -0.532 OA
ATOM     33  O   UNL d   1      -6.913   0.765  -0.023  0.00  0.00    -0.532 OA
ENDBRANCH  14  31
TORSDOF 2
