REMARK  5 active torsions:
REMARK  status: ('A' for Active; 'I' for Inactive)
REMARK    1  A    between atoms: S_2  and  N_1 
REMARK    2  A    between atoms: C_9  and  S_2 
REMARK    3  A    between atoms: C_10  and  C_3 
REMARK    4  A    between atoms: S_8  and  C_4 
REMARK    5  A    between atoms: C_17  and  S_8 
ROOT
ATOM      1  N   UNL d   1       0.960  -0.585  -0.007  0.00  0.00    -0.175 N 
ATOM      2  C   UNL d   1       0.989   0.814  -0.028  0.00  0.00     0.097 A 
ATOM      3  C   UNL d   1      -0.357   1.165  -0.075  0.00  0.00     0.052 A 
ATOM      4  N   UNL d   1      -0.297  -1.103  -0.167  0.00  0.00    -0.294 N 
ATOM      5  HN  UNL d   1      -0.567  -2.082  -0.260  1.00  0.00     0.187 HD
ATOM      6  C   UNL d   1      -1.083  -0.032  -0.172  0.00  0.00     0.129 A 
ENDROOT
BRANCH   1   7
ATOM      7  S   UNL d   1       2.363  -1.598   0.107  0.00  0.00     0.282 S 
ATOM      8  O   UNL d   1       2.811  -1.791  -1.261  0.00  0.00    -0.198 OA
ATOM      9  O   UNL d   1       3.215  -1.002   1.125  0.00  0.00    -0.198 OA
BRANCH   7  10
ATOM     10  C   UNL d   1       1.780  -3.148   0.746  0.00  0.00     0.081 A 
ATOM     11  C   UNL d   1       1.489  -4.201  -0.130  0.00  0.00     0.027 A 
ATOM     12  C   UNL d   1       1.126  -5.448   0.389  0.00  0.00     0.025 A 
ATOM     13  C   UNL d   1       1.067  -5.638   1.770  0.00  0.00     0.034 A 
ATOM     14  C   UNL d   1       1.357  -4.588   2.642  0.00  0.00     0.025 A 
ATOM     15 CL   UNL d   1       0.652  -7.182   2.405  0.00  0.00    -0.084 Cl
ATOM     16  C   UNL d   1       1.719  -3.339   2.132  0.00  0.00     0.027 A 
ENDBRANCH   7  10
ENDBRANCH   1   7
BRANCH   2  17
ATOM     17  C   UNL d   1       2.181   1.680   0.040  0.00  0.00    -0.005 A 
ATOM     18  C   UNL d   1       3.290   1.487  -0.796  0.00  0.00     0.015 A 
ATOM     19  C   UNL d   1       4.392   2.352  -0.744  0.00  0.00     0.024 A 
ATOM     20  C   UNL d   1       4.374   3.451   0.106  0.00  0.00     0.034 A 
ATOM     21  C   UNL d   1       3.276   3.678   0.928  0.00  0.00     0.024 A 
ATOM     22 CL   UNL d   1       5.702   4.544   0.130  0.00  0.00    -0.084 Cl
ATOM     23  C   UNL d   1       2.200   2.785   0.909  0.00  0.00     0.015 A 
ENDBRANCH   2  17
BRANCH   3  24
ATOM     24  S   UNL d   1      -1.103   2.744   0.012  0.00  0.00    -0.087 SA
BRANCH  24  25
ATOM     25  C   UNL d   1      -1.153   3.243  -1.695  0.00  0.00     0.005 A 
ATOM     26  C   UNL d   1      -2.358   3.160  -2.402  0.00  0.00     0.020 A 
ATOM     27  C   UNL d   1      -2.432   3.604  -3.724  0.00  0.00     0.025 A 
ATOM     28  C   UNL d   1      -1.301   4.138  -4.339  0.00  0.00     0.034 A 
ATOM     29  C   UNL d   1      -0.098   4.232  -3.642  0.00  0.00     0.025 A 
ATOM     30 CL   UNL d   1      -1.396   4.696  -5.963  0.00  0.00    -0.084 Cl
ATOM     31  C   UNL d   1      -0.026   3.788  -2.318  0.00  0.00     0.020 A 
ENDBRANCH  24  25
ENDBRANCH   3  24
TORSDOF 5
