REMARK  3 active torsions:
REMARK  status: ('A' for Active; 'I' for Inactive)
REMARK    1  A    between atoms: C_2  and  S_1 
REMARK    2  A    between atoms: C_3  and  S_1 
REMARK    3  A    between atoms: N_13  and  C_4 
ROOT
ATOM      1  C   UNL d   1       0.355  -1.577  -0.467  0.00  0.00     0.159 C 
ATOM      2  C   UNL d   1      -0.350  -2.358   0.370  0.00  0.00     0.120 C 
ATOM      3  C   UNL d   1       0.859  -0.293  -0.101  0.00  0.00     0.113 C 
ATOM      4  N   UNL d   1       1.248   0.734   0.273  0.00  0.00    -0.191 NA
ENDROOT
BRANCH   1   5
ATOM      5  S   UNL d   1       0.723  -2.167  -2.060  0.00  0.00     0.224 S 
ATOM      6  O   UNL d   1       0.286  -1.205  -3.057  0.00  0.00    -0.216 OA
ATOM      7  O   UNL d   1       0.391  -3.572  -2.220  0.00  0.00    -0.216 OA
BRANCH   5   8
ATOM      8  C   UNL d   1       2.504  -2.130  -2.192  0.00  0.00     0.105 A 
ATOM      9  S   UNL d   1       3.377  -3.110  -1.093  0.00  0.00    -0.090 SA
ATOM     10  C   UNL d   1       4.876  -2.658  -1.784  0.00  0.00     0.051 A 
ATOM     11  C   UNL d   1       4.720  -1.768  -2.823  0.00  0.00     0.009 A 
ATOM     12  C   UNL d   1       3.349  -1.461  -3.058  0.00  0.00     0.032 A 
ENDBRANCH   5   8
ENDBRANCH   1   5
BRANCH   2  13
ATOM     13  N   UNL d   1      -0.812  -2.127   1.667  0.00  0.00    -0.397 N 
ATOM     14  C   UNL d   1      -1.193  -0.811   2.188  0.00  0.00     0.148 C 
ATOM     15  C   UNL d   1      -1.018  -3.209   2.631  0.00  0.00     0.148 C 
ENDBRANCH   2  13
TORSDOF 3
