REMARK  9 active torsions:
REMARK  status: ('A' for Active; 'I' for Inactive)
REMARK    1  A    between atoms: C_18  and  C_1 
REMARK    2  A    between atoms: C_2  and  C_17 
REMARK    3  A    between atoms: C_3  and  C_5 
REMARK    4  A    between atoms: C_6  and  C_4 
REMARK       I    between atoms: C_5  and  N_10 
REMARK       I    between atoms: N_11  and  C_6 
REMARK    5  A    between atoms: C_19  and  C_7 
REMARK    6  A    between atoms: C_8  and  C_20 
REMARK       I    between atoms: N_13  and  C_8 
REMARK       I    between atoms: C_9  and  N_12 
REMARK    7  A    between atoms: C_21  and  C_9 
REMARK    8  A    between atoms: N_10  and  N_13 
REMARK    9  A    between atoms: N_12  and  N_11 
ROOT
ATOM      1  C   UNL d   1      -3.839  -5.157  -5.247  0.00  0.00     0.035 A 
ATOM      2  C   UNL d   1      -4.149  -7.539  -5.035  0.00  0.00     0.035 A 
ATOM      3  C   UNL d   1      -4.540  -6.457  -7.206  0.00  0.00    -0.049 A 
ATOM      4  C   UNL d   1      -3.872  -6.300  -4.445  0.00  0.00     0.034 A 
ATOM      5  C   UNL d   1      -4.196  -5.236  -6.603  0.00  0.00     0.025 A 
ATOM      6  C   UNL d   1      -4.436  -7.618  -6.411  0.00  0.00     0.025 A 
ENDROOT
BRANCH   1   7
ATOM      7  C   UNL d   1      -3.477  -3.838  -4.654  0.00  0.00     0.270 C 
ATOM      8  N   UNL d   1      -2.733  -3.004  -5.467  0.00  0.00    -0.263 N 
ATOM      9  H   UNL d   1      -2.362  -3.269  -6.379  0.00  0.00     0.190 HD
ATOM     10  O   UNL d   1      -3.827  -3.544  -3.515  0.00  0.00    -0.266 OA
BRANCH   8  11
ATOM     11  N   UNL d   1      -2.446  -1.696  -5.047  0.00  0.00    -0.263 N 
ATOM     12  C   UNL d   1      -1.855  -0.847  -5.969  0.00  0.00     0.270 C 
ATOM     13  O   UNL d   1      -1.509  -1.252  -7.081  0.00  0.00    -0.266 OA
ATOM     14  H   UNL d   1      -2.806  -1.433  -4.135  0.00  0.00     0.190 HD
BRANCH  12  15
ATOM     15  C   UNL d   1      -1.663   0.593  -5.598  0.00  0.00     0.033 A 
ATOM     16  C   UNL d   1      -2.090   1.146  -4.385  0.00  0.00     0.018 A 
ATOM     17  C   UNL d   1      -1.919   2.516  -4.130  0.00  0.00     0.017 A 
ATOM     18  C   UNL d   1      -1.314   3.359  -5.079  0.00  0.00     0.048 A 
ATOM     19  C   UNL d   1      -0.868   2.800  -6.282  0.00  0.00     0.017 A 
ATOM     20  C   UNL d   1      -1.040   1.435  -6.537  0.00  0.00     0.018 A 
BRANCH  18  21
ATOM     21  C   UNL d   1      -1.178   4.840  -4.800  0.00  0.00     0.417 C 
ATOM     22  F   UNL d   1      -0.516   5.521  -5.776  0.00  0.00    -0.166 F 
ATOM     23  F   UNL d   1      -0.505   5.094  -3.644  0.00  0.00    -0.166 F 
ATOM     24  F   UNL d   1      -2.386   5.454  -4.671  0.00  0.00    -0.166 F 
ENDBRANCH  18  21
ENDBRANCH  12  15
ENDBRANCH   8  11
ENDBRANCH   1   7
BRANCH   2  25
ATOM     25  C   UNL d   1      -4.127  -8.795  -4.237  0.00  0.00     0.270 C 
ATOM     26  N   UNL d   1      -4.695  -8.734  -2.981  0.00  0.00    -0.263 N 
ATOM     27  H   UNL d   1      -5.259  -7.953  -2.648  0.00  0.00     0.190 HD
ATOM     28  O   UNL d   1      -3.648  -9.828  -4.710  0.00  0.00    -0.266 OA
BRANCH  26  29
ATOM     29  N   UNL d   1      -4.742  -9.907  -2.209  0.00  0.00    -0.263 N 
ATOM     30  C   UNL d   1      -5.270  -9.832  -0.933  0.00  0.00     0.270 C 
ATOM     31  O   UNL d   1      -5.767  -8.801  -0.481  0.00  0.00    -0.266 OA
ATOM     32  H   UNL d   1      -4.155 -10.674  -2.530  0.00  0.00     0.190 HD
BRANCH  30  33
ATOM     33  C   UNL d   1      -5.189 -11.063  -0.100  0.00  0.00     0.033 A 
ATOM     34  C   UNL d   1      -5.165 -10.929   1.296  0.00  0.00     0.018 A 
ATOM     35  C   UNL d   1      -5.093 -12.059   2.115  0.00  0.00     0.017 A 
ATOM     36  C   UNL d   1      -5.057 -13.345   1.554  0.00  0.00     0.048 A 
ATOM     37  C   UNL d   1      -5.105 -13.477   0.158  0.00  0.00     0.017 A 
ATOM     38  C   UNL d   1      -5.172 -12.346  -0.664  0.00  0.00     0.018 A 
BRANCH  36  39
ATOM     39  C   UNL d   1      -4.976 -14.547   2.467  0.00  0.00     0.417 C 
ATOM     40  F   UNL d   1      -4.964 -15.734   1.806  0.00  0.00    -0.166 F 
ATOM     41  F   UNL d   1      -3.853 -14.532   3.237  0.00  0.00    -0.166 F 
ATOM     42  F   UNL d   1      -6.023 -14.608   3.335  0.00  0.00    -0.166 F 
ENDBRANCH  36  39
ENDBRANCH  30  33
ENDBRANCH  26  29
ENDBRANCH   2  25
BRANCH   3  43
ATOM     43  C   UNL d   1      -5.083  -6.527  -8.648  0.00  0.00    -0.024 C 
ATOM     44  C   UNL d   1      -5.345  -5.135  -9.271  0.00  0.00     0.019 C 
ATOM     45  C   UNL d   1      -4.099  -7.272  -9.569  0.00  0.00     0.019 C 
ATOM     46  C   UNL d   1      -6.439  -7.269  -8.649  0.00  0.00     0.019 C 
ENDBRANCH   3  43
TORSDOF 9
