REMARK  8 active torsions:
REMARK  status: ('A' for Active; 'I' for Inactive)
REMARK    1  A    between atoms: C_6  and  C_1 
REMARK    2  A    between atoms: C_9  and  C_2 
REMARK    3  A    between atoms: C_13  and  N_3 
REMARK    4  A    between atoms: C_8  and  C_15 
REMARK    5  A    between atoms: O_14  and  C_9 
REMARK    6  A    between atoms: N_10  and  O_14 
REMARK    7  A    between atoms: C_16  and  C_12 
REMARK    8  A    between atoms: N_30  and  C_12 
ROOT
ATOM      1  C   UNL d   1       1.027  -1.034  -0.271  0.00  0.00     0.318 C 
ATOM      2  O   UNL d   1       1.282   0.143  -0.488  0.00  0.00    -0.257 OA
ENDROOT
BRANCH   1   3
ATOM      3  C   UNL d   1      -0.312  -1.519   0.040  0.00  0.00     0.091 C 
ATOM      4  C   UNL d   1      -1.456  -0.793   0.373  0.00  0.00     0.158 C 
ATOM      5  N   UNL d   1      -2.506  -1.705   0.447  0.00  0.00    -0.251 N 
ATOM      6  N   UNL d   1      -2.022  -2.977   0.362  0.00  0.00    -0.303 N 
ATOM      7  C   UNL d   1      -0.741  -2.854   0.042  0.00  0.00     0.127 C 
ATOM      8  HN  UNL d   1      -2.538  -3.844   0.512  1.00  0.00     0.186 HD
BRANCH   4   9
ATOM      9  C   UNL d   1      -1.612   0.643   0.655  0.00  0.00     0.435 C 
ATOM     10  F   UNL d   1      -0.461   1.236   1.049  0.00  0.00    -0.165 F 
ATOM     11  F   UNL d   1      -2.061   1.322  -0.428  0.00  0.00    -0.165 F 
ATOM     12  F   UNL d   1      -2.492   0.871   1.664  0.00  0.00    -0.165 F 
ENDBRANCH   4   9
BRANCH   5  13
ATOM     13  C   UNL d   1      -3.926  -1.548   0.561  0.00  0.00     0.057 A 
ATOM     14  C   UNL d   1      -4.604  -0.355   0.273  0.00  0.00     0.033 A 
ATOM     15  C   UNL d   1      -6.003  -0.291   0.364  0.00  0.00     0.026 A 
ATOM     16  C   UNL d   1      -6.739  -1.414   0.731  0.00  0.00     0.034 A 
ATOM     17  C   UNL d   1      -6.088  -2.607   1.019  0.00  0.00     0.026 A 
ATOM     18 CL   UNL d   1      -8.455  -1.333   0.804  0.00  0.00    -0.084 Cl
ATOM     19  C   UNL d   1      -4.693  -2.675   0.929  0.00  0.00     0.033 A 
ENDBRANCH   5  13
ENDBRANCH   1   3
BRANCH   1  20
ATOM     20  O   UNL d   1       1.944  -2.063  -0.316  0.00  0.00    -0.193 OA
BRANCH  20  21
ATOM     21  N   UNL d   1       2.790  -1.903  -1.437  0.00  0.00    -0.246 N 
ATOM     22  C   UNL d   1       3.779  -2.748  -1.411  0.00  0.00     0.109 C 
ATOM     23  HN  UNL d   1       2.644  -1.212  -2.173  1.00  0.00     0.196 HD
BRANCH  22  24
ATOM     24  C   UNL d   1       4.664  -2.844  -2.620  0.00  0.00     0.004 A 
ATOM     25  C   UNL d   1       4.764  -1.774  -3.516  0.00  0.00     0.015 A 
ATOM     26  C   UNL d   1       5.576  -1.881  -4.652  0.00  0.00     0.017 A 
ATOM     27  C   UNL d   1       6.291  -3.061  -4.913  0.00  0.00     0.048 A 
ATOM     28  C   UNL d   1       6.174  -4.134  -4.016  0.00  0.00     0.017 A 
ATOM     29  C   UNL d   1       5.366  -4.028  -2.881  0.00  0.00     0.015 A 
BRANCH  27  30
ATOM     30  C   UNL d   1       7.171  -3.199  -6.133  0.00  0.00     0.417 C 
ATOM     31  F   UNL d   1       7.169  -2.102  -6.939  0.00  0.00    -0.166 F 
ATOM     32  F   UNL d   1       8.475  -3.420  -5.806  0.00  0.00    -0.166 F 
ATOM     33  F   UNL d   1       6.804  -4.245  -6.924  0.00  0.00    -0.166 F 
ENDBRANCH  27  30
ENDBRANCH  22  24
BRANCH  22  34
ATOM     34  N   UNL d   1       4.056  -3.560  -0.332  0.00  0.00    -0.286 NA
ATOM     35  H   UNL d   1       3.625  -3.224   0.523  0.00  0.00     0.125 HD
ATOM     36  H   UNL d   1       5.041  -3.766  -0.189  0.00  0.00     0.125 HD
ENDBRANCH  22  34
ENDBRANCH  20  21
ENDBRANCH   1  20
TORSDOF 8
