REMARK  9 active torsions:
REMARK  status: ('A' for Active; 'I' for Inactive)
REMARK    1  A    between atoms: C_6  and  C_1 
REMARK    2  A    between atoms: C_8  and  C_2 
REMARK    3  A    between atoms: N_7  and  C_3 
REMARK    4  A    between atoms: N_10  and  C_4 
REMARK    5  A    between atoms: C_12  and  C_6 
REMARK    6  A    between atoms: C_9  and  N_7 
REMARK    7  A    between atoms: O_15  and  C_8 
REMARK    8  A    between atoms: O_16  and  C_14 
REMARK    9  A    between atoms: C_21  and  O_15 
ROOT
ATOM      1  C   UNL d   1      -0.387   1.034  -0.403  0.00  0.00     0.085 C 
ATOM      2  C   UNL d   1      -0.642  -1.305  -0.333  0.00  0.00     0.101 C 
ATOM      3  C   UNL d   1       0.742  -1.183  -0.457  0.00  0.00     0.094 C 
ATOM      4  C   UNL d   1      -1.282  -0.009  -0.292  0.00  0.00     0.066 C 
ATOM      5  S   UNL d   1       1.155   0.450  -0.834  0.00  0.00    -0.065 SA
ENDROOT
BRANCH   3   6
ATOM      6  N   UNL d   1       1.669  -2.195  -0.418  0.00  0.00    -0.347 N 
ATOM      7  H   UNL d   1       1.305  -3.139  -0.270  0.00  0.00     0.167 HD
BRANCH   6   8
ATOM      8  C   UNL d   1       3.011  -2.103   0.047  0.00  0.00     0.066 A 
ATOM      9  C   UNL d   1       4.036  -2.973  -0.381  0.00  0.00     0.094 A 
ATOM     10  C   UNL d   1       5.349  -2.781   0.095  0.00  0.00     0.039 A 
ATOM     11  C   UNL d   1       5.670  -1.753   0.978  0.00  0.00     0.003 A 
ATOM     12  C   UNL d   1       4.669  -0.912   1.428  0.00  0.00     0.002 A 
ATOM     13  C   UNL d   1       3.360  -1.101   0.982  0.00  0.00     0.032 A 
BRANCH   9  14
ATOM     14  O   UNL d   1       3.991  -4.033  -1.246  0.00  0.00    -0.354 OA
ATOM     15  C   UNL d   1       2.797  -4.385  -1.913  0.00  0.00     0.210 C 
ENDBRANCH   9  14
ENDBRANCH   6   8
ENDBRANCH   3   6
BRANCH   2  16
ATOM     16  C   UNL d   1      -1.303  -2.612  -0.267  0.00  0.00     0.298 C 
ATOM     17  O   UNL d   1      -0.704  -3.680  -0.361  0.00  0.00    -0.259 OA
BRANCH  16  18
ATOM     18  O   UNL d   1      -2.664  -2.507  -0.181  0.00  0.00    -0.318 OA
BRANCH  18  19
ATOM     19  C   UNL d   1      -3.419  -3.652  -0.592  0.00  0.00     0.174 C 
ATOM     20  C   UNL d   1      -3.640  -3.549  -2.091  0.00  0.00     0.034 C 
ENDBRANCH  18  19
ENDBRANCH  16  18
ENDBRANCH   2  16
BRANCH   1  21
ATOM     21  C   UNL d   1      -0.559   2.474  -0.276  0.00  0.00     0.201 C 
ATOM     22  O   UNL d   1       0.046   3.296  -0.967  0.00  0.00    -0.286 OA
BRANCH  21  23
ATOM     23  C   UNL d   1      -1.502   3.022   0.749  0.00  0.00     0.015 A 
ATOM     24  C   UNL d   1      -2.096   4.268   0.509  0.00  0.00     0.015 A 
ATOM     25  C   UNL d   1      -2.996   4.810   1.429  0.00  0.00     0.001 A 
ATOM     26  C   UNL d   1      -3.302   4.114   2.597  0.00  0.00     0.000 A 
ATOM     27  C   UNL d   1      -2.698   2.886   2.857  0.00  0.00     0.001 A 
ATOM     28  C   UNL d   1      -1.789   2.346   1.944  0.00  0.00     0.015 A 
ENDBRANCH  21  23
ENDBRANCH   1  21
BRANCH   4  29
ATOM     29  N   UNL d   1      -2.615   0.165  -0.147  0.00  0.00    -0.397 N 
ATOM     30  H   UNL d   1      -3.250  -0.636  -0.158  0.00  0.00     0.156 HD
ATOM     31  H   UNL d   1      -3.092   1.044  -0.332  0.00  0.00     0.156 HD
ENDBRANCH   4  29
TORSDOF 9
