REMARK  10 active torsions:
REMARK  status: ('A' for Active; 'I' for Inactive)
REMARK    1  A    between atoms: O_6  and  C_1 
REMARK    2  A    between atoms: N_4  and  C_2 
REMARK    3  A    between atoms: N_5  and  C_3 
REMARK    4  A    between atoms: C_11  and  O_6 
REMARK    5  A    between atoms: C_7  and  C_8 
REMARK    6  A    between atoms: C_14  and  C_11 
REMARK    7  A    between atoms: C_26  and  C_25 
REMARK    8  A    between atoms: C_27  and  C_26 
REMARK    9  A    between atoms: C_29  and  C_27 
REMARK   10  A    between atoms: C_28  and  C_29 
ROOT
ATOM      1  C   UNL d   1       5.007  -1.094   2.483  0.00  0.00     0.145 C 
ATOM      2  C   UNL d   1       6.031  -0.401   1.827  0.00  0.00     0.140 C 
ATOM      3  C   UNL d   1       4.949  -1.003   3.889  0.00  0.00     0.140 C 
ATOM      4  C   UNL d   1       6.990   0.357   3.928  0.00  0.00     0.052 C 
ATOM      5  C   UNL d   1       5.952  -0.304   4.605  0.00  0.00     0.055 C 
ATOM      6  C   UNL d   1       6.969   0.378   2.530  0.00  0.00     0.055 C 
ENDROOT
BRANCH   1   7
ATOM      7  O   UNL d   1       4.165  -2.042   1.832  0.00  0.00    -0.270 OA
BRANCH   7   8
ATOM      8  C   UNL d   1       3.604  -2.000   0.551  0.00  0.00     0.298 C 
ATOM      9  O   UNL d   1       3.711  -1.077  -0.240  0.00  0.00    -0.259 OA
BRANCH   8  10
ATOM     10  C   UNL d   1       2.806  -3.248   0.320  0.00  0.00     0.040 A 
ATOM     11  C   UNL d   1       2.205  -3.476  -0.926  0.00  0.00     0.018 A 
ATOM     12  C   UNL d   1       1.318  -4.556  -1.095  0.00  0.00     0.008 A 
ATOM     13  C   UNL d   1       1.016  -5.404  -0.019  0.00  0.00    -0.058 A 
ATOM     14  C   UNL d   1       1.708  -5.231   1.186  0.00  0.00     0.008 A 
ATOM     15  C   UNL d   1       2.589  -4.169   1.350  0.00  0.00     0.018 A 
BRANCH  13  16
ATOM     16  C   UNL d   1      -0.088  -6.429  -0.111  0.00  0.00     0.038 C 
BRANCH  16  17
ATOM     17  C   UNL d   1      -1.256  -6.135   0.852  0.00  0.00     0.005 C 
BRANCH  17  18
ATOM     18  C   UNL d   1      -1.942  -4.790   0.581  0.00  0.00    -0.000 C 
BRANCH  18  19
ATOM     19  C   UNL d   1      -3.080  -4.526   1.568  0.00  0.00    -0.005 C 
ATOM     20  C   UNL d   1      -3.736  -3.176   1.312  0.00  0.00     0.005 C 
ENDBRANCH  18  19
ENDBRANCH  17  18
ENDBRANCH  16  17
ENDBRANCH  13  16
ENDBRANCH   8  10
ENDBRANCH   7   8
ENDBRANCH   1   7
BRANCH   2  21
ATOM     21  N   UNL d   1       6.426  -0.742   0.476  0.00  0.00    -0.113 N 
ATOM     22  O   UNL d   1       6.796  -1.909   0.299  0.00  0.00    -0.532 OA
ATOM     23  O   UNL d   1       6.498   0.184  -0.344  0.00  0.00    -0.532 OA
ENDBRANCH   2  21
BRANCH   3  24
ATOM     24  N   UNL d   1       3.916  -1.695   4.683  0.00  0.00    -0.113 N 
ATOM     25  O   UNL d   1       2.924  -2.147   4.097  0.00  0.00    -0.532 OA
ATOM     26  O   UNL d   1       4.091  -1.763   5.903  0.00  0.00    -0.532 OA
ENDBRANCH   3  24
BRANCH   4  27
ATOM     27  C   UNL d   1       8.195   0.907   4.661  0.00  0.00     0.417 C 
ATOM     28  F   UNL d   1       8.281   0.478   5.947  0.00  0.00    -0.166 F 
ATOM     29  F   UNL d   1       9.357   0.520   4.063  0.00  0.00    -0.166 F 
ATOM     30  F   UNL d   1       8.220   2.263   4.698  0.00  0.00    -0.166 F 
ENDBRANCH   4  27
TORSDOF 10
