REMARK  8 active torsions:
REMARK  status: ('A' for Active; 'I' for Inactive)
REMARK    1  A    between atoms: C_7  and  S_1 
REMARK    2  A    between atoms: C_9  and  S_1 
REMARK    3  A    between atoms: S_2  and  C_10 
REMARK    4  A    between atoms: C_8  and  S_2 
REMARK    5  A    between atoms: C_16  and  C_9 
REMARK    6  A    between atoms: C_10  and  C_15 
REMARK    7  A    between atoms: C_15  and  C_17 
REMARK    8  A    between atoms: C_17  and  C_16 
ROOT
ATOM      1  C   UNL d   1       4.753  -0.629  -1.323  0.00  0.00     0.002 C 
ENDROOT
BRANCH   1   2
ATOM      2  C   UNL d   1       5.287  -1.270  -2.603  0.00  0.00     0.015 C 
BRANCH   2   3
ATOM      3  C   UNL d   1       6.814  -1.312  -2.660  0.00  0.00     0.145 C 
BRANCH   3   4
ATOM      4  S   UNL d   1       7.342  -2.067  -4.192  0.00  0.00     0.175 S 
ATOM      5  O   UNL d   1       6.833  -3.426  -4.226  0.00  0.00    -0.223 OA
ATOM      6  O   UNL d   1       7.054  -1.141  -5.270  0.00  0.00    -0.223 OA
BRANCH   4   7
ATOM      7  C   UNL d   1       9.112  -2.187  -4.057  0.00  0.00     0.059 A 
ATOM      8  C   UNL d   1       9.680  -3.332  -3.488  0.00  0.00     0.023 A 
ATOM      9  C   UNL d   1      11.066  -3.494  -3.508  0.00  0.00     0.002 A 
ATOM     10  C   UNL d   1      11.875  -2.523  -4.098  0.00  0.00     0.000 A 
ATOM     11  C   UNL d   1      11.304  -1.381  -4.663  0.00  0.00     0.002 A 
ATOM     12  C   UNL d   1       9.919  -1.210  -4.647  0.00  0.00     0.023 A 
ENDBRANCH   4   7
ENDBRANCH   3   4
ENDBRANCH   2   3
ENDBRANCH   1   2
BRANCH   1  13
ATOM     13  C   UNL d   1       3.223  -0.632  -1.325  0.00  0.00     0.015 C 
BRANCH  13  14
ATOM     14  C   UNL d   1       2.650   0.013  -0.069  0.00  0.00     0.145 C 
BRANCH  14  15
ATOM     15  S   UNL d   1       0.866  -0.003  -0.094  0.00  0.00     0.175 S 
ATOM     16  O   UNL d   1       0.413   0.752  -1.246  0.00  0.00    -0.223 OA
ATOM     17  O   UNL d   1       0.417  -1.367   0.127  0.00  0.00    -0.223 OA
BRANCH  15  18
ATOM     18  C   UNL d   1       0.438   0.939   1.352  0.00  0.00     0.059 A 
ATOM     19  C   UNL d   1       0.257   2.321   1.241  0.00  0.00     0.023 A 
ATOM     20  C   UNL d   1      -0.115   3.055   2.366  0.00  0.00     0.002 A 
ATOM     21  C   UNL d   1      -0.313   2.408   3.588  0.00  0.00     0.000 A 
ATOM     22  C   UNL d   1      -0.137   1.027   3.690  0.00  0.00     0.002 A 
ATOM     23  C   UNL d   1       0.236   0.285   2.570  0.00  0.00     0.023 A 
ENDBRANCH  15  18
ENDBRANCH  14  15
ENDBRANCH  13  14
ENDBRANCH   1  13
TORSDOF 8
