REMARK  5 active torsions:
REMARK  status: ('A' for Active; 'I' for Inactive)
REMARK    1  A    between atoms: C_8  and  C_1 
REMARK    2  A    between atoms: C_12  and  C_7 
REMARK       I    between atoms: C_9  and  N_11 
REMARK       I    between atoms: N_13  and  C_9 
REMARK    3  A    between atoms: N_11  and  C_10 
REMARK    4  A    between atoms: C_21  and  N_13 
REMARK    5  A    between atoms: C_14  and  C_15 
ROOT
ATOM      1  C   UNL d   1      -0.888  -2.520  -1.433  0.00  0.00     0.043 C 
ATOM      2  C   UNL d   1      -0.404  -3.636  -2.140  0.00  0.00     0.051 C 
ATOM      3  C   UNL d   1      -1.810  -2.771  -0.401  0.00  0.00     0.018 C 
ATOM      4  C   UNL d   1      -0.487  -4.909  -1.557  0.00  0.00     0.030 C 
ATOM      5  C   UNL d   1      -2.082  -4.073   0.026  0.00  0.00     0.001 C 
ATOM      6  C   UNL d   1      -1.351  -5.134  -0.492  0.00  0.00     0.002 C 
ENDROOT
BRANCH   1   7
ATOM      7  C   UNL d   1      -0.355  -1.170  -1.614  0.00  0.00     0.177 A 
ATOM      8  O   UNL d   1      -1.032  -0.123  -1.023  0.00  0.00    -0.273 OA
ATOM      9  C   UNL d   1      -0.111   0.896  -1.102  0.00  0.00     0.174 A 
ATOM     10  N   UNL d   1       1.003   0.517  -1.696  0.00  0.00    -0.277 N 
ATOM     11  N   UNL d   1       0.832  -0.806  -2.059  0.00  0.00    -0.277 N 
ATOM     12  HN  UNL d   1       1.831   1.089  -1.858  1.00  0.00     0.189 HD
ATOM     13  HN  UNL d   1       1.495  -1.388  -2.572  1.00  0.00     0.189 HD
BRANCH   9  14
ATOM     14  C   UNL d   1      -0.460   2.188  -0.515  0.00  0.00     0.017 A 
ATOM     15  C   UNL d   1      -1.763   2.692  -0.552  0.00  0.00     0.016 A 
ATOM     16  C   UNL d   1      -2.052   3.989  -0.086  0.00  0.00     0.009 A 
ATOM     17  C   UNL d   1      -1.052   4.833   0.434  0.00  0.00    -0.051 A 
ATOM     18  C   UNL d   1       0.238   4.284   0.536  0.00  0.00     0.009 A 
ATOM     19  C   UNL d   1       0.531   2.994   0.059  0.00  0.00     0.016 A 
BRANCH  17  20
ATOM     20  C   UNL d   1      -1.360   6.281   0.875  0.00  0.00    -0.024 C 
ATOM     21  C   UNL d   1      -0.124   7.210   0.788  0.00  0.00     0.019 C 
ATOM     22  C   UNL d   1      -2.452   6.939  -0.003  0.00  0.00     0.019 C 
ATOM     23  C   UNL d   1      -1.850   6.274   2.336  0.00  0.00     0.019 C 
ENDBRANCH  17  20
ENDBRANCH   9  14
ENDBRANCH   1   7
BRANCH   2  24
ATOM     24  N   UNL d   1      -0.022  -3.536  -3.510  0.00  0.00    -0.308 N 
ATOM     25  C   UNL d   1      -0.595  -4.245  -4.577  0.00  0.00     0.325 C 
ATOM     26  N   UNL d   1      -1.509  -5.216  -4.225  0.00  0.00    -0.309 N 
ATOM     27  O   UNL d   1      -0.312  -3.925  -5.726  0.00  0.00    -0.247 OA
ATOM     28  H   UNL d   1      -1.656  -5.344  -3.246  0.00  0.00     0.170 HD
ATOM     29  H   UNL d   1       0.341  -2.641  -3.835  0.00  0.00     0.170 HD
BRANCH  26  30
ATOM     30  C   UNL d   1      -2.379  -6.006  -4.987  0.00  0.00     0.036 A 
ATOM     31  C   UNL d   1      -2.566  -5.896  -6.360  0.00  0.00     0.029 A 
ATOM     32  C   UNL d   1      -3.535  -6.681  -6.995  0.00  0.00     0.002 A 
ATOM     33  C   UNL d   1      -4.306  -7.593  -6.264  0.00  0.00     0.000 A 
ATOM     34  C   UNL d   1      -4.107  -7.729  -4.900  0.00  0.00     0.002 A 
ATOM     35  C   UNL d   1      -3.152  -6.941  -4.267  0.00  0.00     0.029 A 
ENDBRANCH  26  30
ENDBRANCH   2  24
TORSDOF 5
