REMARK  8 active torsions:
REMARK  status: ('A' for Active; 'I' for Inactive)
REMARK    1  A    between atoms: C_4  and  C_1 
REMARK    2  A    between atoms: N_12  and  C_2 
REMARK    3  A    between atoms: C_5  and  C_3 
REMARK    4  A    between atoms: O_16  and  C_4 
REMARK    5  A    between atoms: O_17  and  C_5 
REMARK    6  A    between atoms: C_11  and  N_13 
REMARK    7  A    between atoms: N_13  and  N_12 
REMARK    8  A    between atoms: C_18  and  O_17 
ROOT
ATOM      1  C   UNL d   1       2.795   3.964  -1.002  0.00  0.00     0.131 C 
ATOM      2  C   UNL d   1       2.891   3.283  -2.247  0.00  0.00     0.106 C 
ATOM      3  N   UNL d   1       2.983   2.720  -3.259  0.00  0.00    -0.191 NA
ATOM      4  C   UNL d   1       3.785   3.912  -0.097  0.00  0.00     0.108 C 
ENDROOT
BRANCH   1   5
ATOM      5  C   UNL d   1       1.606   4.830  -0.794  0.00  0.00     0.304 C 
ATOM      6  O   UNL d   1       0.761   5.035  -1.653  0.00  0.00    -0.258 OA
BRANCH   5   7
ATOM      7  O   UNL d   1       1.614   5.401   0.441  0.00  0.00    -0.317 OA
BRANCH   7   8
ATOM      8  C   UNL d   1       0.679   6.470   0.653  0.00  0.00     0.174 C 
ATOM      9  C   UNL d   1       1.371   7.782   0.334  0.00  0.00     0.034 C 
ENDBRANCH   7   8
ENDBRANCH   5   7
ENDBRANCH   1   5
BRANCH   4  10
ATOM     10  N   UNL d   1       5.000   3.244  -0.150  0.00  0.00    -0.215 NA
ATOM     11  H   UNL d   1       5.700   3.800   0.372  0.00  0.00     0.152 HD
BRANCH  10  12
ATOM     12  N   UNL d   1       5.118   1.902   0.111  0.00  0.00    -0.316 N 
ATOM     13  H   UNL d   1       4.402   1.320  -0.334  0.00  0.00     0.181 HD
BRANCH  12  14
ATOM     14  C   UNL d   1       6.258   1.278   0.538  0.00  0.00     0.067 A 
ATOM     15  C   UNL d   1       7.476   1.817   0.949  0.00  0.00     0.107 A 
ATOM     16  S   UNL d   1       8.579   0.557   1.393  0.00  0.00    -0.094 SA
ATOM     17  C   UNL d   1       7.452  -0.669   1.067  0.00  0.00     0.053 A 
ATOM     18  C   UNL d   1       6.262  -0.156   0.615  0.00  0.00     0.039 A 
BRANCH  15  19
ATOM     19  C   UNL d   1       7.907   3.206   1.066  0.00  0.00     0.302 C 
ATOM     20  O   UNL d   1       7.180   4.191   0.957  0.00  0.00    -0.259 OA
BRANCH  19  21
ATOM     21  O   UNL d   1       9.246   3.302   1.329  0.00  0.00    -0.322 OA
ATOM     22  C   UNL d   1       9.752   4.631   1.464  0.00  0.00     0.213 C 
ENDBRANCH  19  21
ENDBRANCH  15  19
ENDBRANCH  12  14
ENDBRANCH  10  12
ENDBRANCH   4  10
TORSDOF 8
