REMARK  4 active torsions:
REMARK  status: ('A' for Active; 'I' for Inactive)
REMARK    1  A    between atoms: N_2  and  S_1 
REMARK    2  A    between atoms: C_4  and  S_1 
REMARK    3  A    between atoms: C_3  and  C_11 
REMARK    4  A    between atoms: C_11  and  N_6 
ROOT
ATOM      1  N   UNL d   1       0.495   0.986   1.252  0.00  0.00    -0.205 NA
ATOM      2  N   UNL d   1      -0.507   3.931   2.131  0.00  0.00     0.093 N 
ATOM      3  C   UNL d   1       1.040   2.321   0.835  0.00  0.00     0.138 C 
ATOM      4  C   UNL d   1       0.849   3.430   1.878  0.00  0.00     0.288 C 
ATOM      5  C   UNL d   1      -1.403   1.574   2.792  0.00  0.00     0.046 C 
ATOM      6  C   UNL d   1      -0.986   0.986   1.450  0.00  0.00     0.109 C 
ATOM      7  C   UNL d   1      -1.235   3.075   3.066  0.00  0.00     0.274 C 
ENDROOT
BRANCH   1   8
ATOM      8  S   UNL d   1       0.979  -0.268   0.150  0.00  0.00     0.243 S 
ATOM      9  O   UNL d   1       0.822   0.247  -1.194  0.00  0.00    -0.206 OA
ATOM     10  O   UNL d   1       0.352  -1.508   0.559  0.00  0.00    -0.206 OA
BRANCH   8  11
ATOM     11  C   UNL d   1       2.715  -0.450   0.485  0.00  0.00     0.074 A 
ATOM     12  C   UNL d   1       3.102  -1.024   1.701  0.00  0.00     0.026 A 
ATOM     13  C   UNL d   1       4.455  -1.250   1.954  0.00  0.00     0.025 A 
ATOM     14  C   UNL d   1       5.407  -0.904   0.995  0.00  0.00     0.034 A 
ATOM     15  C   UNL d   1       5.020  -0.330  -0.218  0.00  0.00     0.025 A 
ATOM     16 CL   UNL d   1       7.073  -1.203   1.303  0.00  0.00    -0.084 Cl
ATOM     17  C   UNL d   1       3.665  -0.105  -0.481  0.00  0.00     0.026 A 
ENDBRANCH   8  11
ENDBRANCH   1   8
BRANCH   2  18
ATOM     18  C   UNL d   1      -1.317   4.284   0.954  0.00  0.00     0.312 C 
BRANCH  18  19
ATOM     19  C   UNL d   1      -0.753   5.354   0.039  0.00  0.00    -0.008 A 
ATOM     20  C   UNL d   1      -0.911   5.295  -1.361  0.00  0.00     0.043 A 
ATOM     21  C   UNL d   1      -0.486   6.346  -2.178  0.00  0.00     0.048 A 
ATOM     22 CL   UNL d   1      -1.657   3.950  -2.155  0.00  0.00    -0.084 Cl
ATOM     23  C   UNL d   1       0.095   7.472  -1.607  0.00  0.00     0.035 A 
ATOM     24  C   UNL d   1       0.261   7.556  -0.228  0.00  0.00     0.024 A 
ATOM     25 CL   UNL d   1       0.589   8.779  -2.610  0.00  0.00    -0.084 Cl
ATOM     26  C   UNL d   1      -0.167   6.508   0.590  0.00  0.00     0.012 A 
ENDBRANCH  18  19
ENDBRANCH   2  18
TORSDOF 4
