REMARK  2 active torsions:
REMARK  status: ('A' for Active; 'I' for Inactive)
REMARK    1  A    between atoms: C_2  and  N_1 
REMARK    2  A    between atoms: C_14  and  C_10 
ROOT
ATOM      1  C   UNL d   1       3.351  -0.015  -0.079  0.00  0.00     0.161 A 
ATOM      2  N   UNL d   1       4.125   0.686   0.723  0.00  0.00    -0.335 N 
ATOM      3  HN  UNL d   1       3.791   1.339   1.431  1.00  0.00     0.168 HD
ATOM      4  S   UNL d   1       4.189  -0.926  -1.271  0.00  0.00    -0.063 SA
ATOM      5  C   UNL d   1       5.461   0.409   0.466  0.00  0.00     0.051 A 
ATOM      6  C   UNL d   1       5.679  -0.386  -0.640  0.00  0.00     0.083 A 
ENDROOT
BRANCH   1   7
ATOM      7  N   UNL d   1       1.974  -0.034  -0.079  0.00  0.00    -0.222 N 
ATOM      8  C   UNL d   1       1.223   0.977   0.467  0.00  0.00     0.268 A 
ATOM      9  C   UNL d   1      -0.175   0.577   0.282  0.00  0.00     0.048 A 
ATOM     10  O   UNL d   1       1.524   2.042   0.975  0.00  0.00    -0.267 OA
ATOM     11  C   UNL d   1      -1.349   1.240   0.585  0.00  0.00     0.018 A 
ATOM     12  C   UNL d   1      -0.184  -0.672  -0.308  0.00  0.00     0.048 A 
ATOM     13  C   UNL d   1      -2.551   0.584   0.294  0.00  0.00     0.001 A 
ATOM     14  C   UNL d   1      -2.554  -0.705  -0.278  0.00  0.00     0.001 A 
ATOM     15  C   UNL d   1      -1.355  -1.349  -0.589  0.00  0.00     0.018 A 
ATOM     16  C   UNL d   1       1.200  -1.069  -0.537  0.00  0.00     0.268 A 
ATOM     17  O   UNL d   1       1.476  -2.161  -1.001  0.00  0.00    -0.267 OA
ENDBRANCH   1   7
BRANCH   5  18
ATOM     18  C   UNL d   1       6.533   0.934   1.306  0.00  0.00    -0.009 A 
ATOM     19  C   UNL d   1       7.758   0.255   1.429  0.00  0.00     0.015 A 
ATOM     20  C   UNL d   1       8.778   0.760   2.239  0.00  0.00     0.024 A 
ATOM     21  C   UNL d   1       8.579   1.947   2.938  0.00  0.00     0.034 A 
ATOM     22  C   UNL d   1       7.366   2.626   2.842  0.00  0.00     0.024 A 
ATOM     23 CL   UNL d   1       9.839   2.572   3.928  0.00  0.00    -0.084 Cl
ATOM     24  C   UNL d   1       6.343   2.117   2.033  0.00  0.00     0.015 A 
ENDBRANCH   5  18
TORSDOF 2
