REMARK  2 active torsions:
REMARK  status: ('A' for Active; 'I' for Inactive)
REMARK    1  A    between atoms: C_3  and  C_6 
REMARK    2  A    between atoms: O_13  and  C_3 
ROOT
ATOM      1  N   UNL d   1      -0.942  -1.605  -0.018  0.00  0.00    -0.359 N 
ATOM      2  HN  UNL d   1      -0.971  -2.624  -0.020  1.00  0.00     0.166 HD
ATOM      3  C   UNL d   1      -1.993  -0.816  -0.015  0.00  0.00     0.139 A 
ATOM      4  C   UNL d   1       0.013   0.544  -0.018  0.00  0.00     0.034 A 
ATOM      5  C   UNL d   1       2.397   0.938  -0.021  0.00  0.00     0.039 A 
ATOM      6  S   UNL d   1      -1.681   0.868  -0.014  0.00  0.00    -0.083 SA
ATOM      7  C   UNL d   1       0.211  -0.839  -0.017  0.00  0.00     0.049 A 
ATOM      8  C   UNL d   1       1.087   1.448  -0.018  0.00  0.00     0.039 A 
ATOM      9  C   UNL d   1       2.617  -0.442  -0.006  0.00  0.00     0.020 A 
ATOM     10  C   UNL d   1       1.533  -1.332  -0.009  0.00  0.00     0.032 A 
ENDROOT
BRANCH   5  11
ATOM     11  C   UNL d   1       3.507   1.927   0.018  0.00  0.00     0.176 C 
ATOM     12  O   UNL d   1       3.371   3.039   0.506  0.00  0.00    -0.646 OA
BRANCH  11  13
ATOM     13  O   UNL d   1       4.653   1.521  -0.562  0.00  0.00    -0.773 OA
ATOM     14  H   UNL d   1       4.612   0.680  -1.053  0.00  0.00     0.167 HD
ENDBRANCH  11  13
ENDBRANCH   5  11
TORSDOF 2
