REMARK  6 active torsions:
REMARK  status: ('A' for Active; 'I' for Inactive)
REMARK    1  A    between atoms: N_2  and  C_1 
REMARK    2  A    between atoms: N_5  and  C_1 
REMARK    3  A    between atoms: C_3  and  N_2 
REMARK    4  A    between atoms: C_8  and  N_5 
REMARK    5  A    between atoms: C_15  and  C_8 
REMARK    6  A    between atoms: O_14  and  C_15 
ROOT
ATOM      1  C   UNL d   1       1.041   0.007   0.020  0.00  0.00     0.172 C 
ATOM      2  S   UNL d   1       2.615  -0.521   0.244  0.00  0.00    -0.041 SA
ENDROOT
BRANCH   1   3
ATOM      3  N   UNL d   1       0.544   0.640  -1.076  0.00  0.00    -0.331 N 
ATOM      4  H   UNL d   1      -0.066   1.434  -0.868  0.00  0.00     0.168 HD
BRANCH   3   5
ATOM      5  C   UNL d   1       0.944   0.476  -2.418  0.00  0.00     0.073 A 
ATOM      6  C   UNL d   1       0.845   1.553  -3.303  0.00  0.00     0.145 A 
ATOM      7  C   UNL d   1       1.177   1.416  -4.647  0.00  0.00     0.086 A 
ATOM      8  F   UNL d   1       0.458   2.757  -2.853  0.00  0.00    -0.204 F 
ATOM      9  C   UNL d   1       1.570   0.170  -5.118  0.00  0.00     0.119 A 
ATOM     10  C   UNL d   1       1.642  -0.928  -4.270  0.00  0.00     0.044 A 
ATOM     11  F   UNL d   1       1.869   0.022  -6.416  0.00  0.00    -0.206 F 
ATOM     12  C   UNL d   1       1.335  -0.775  -2.916  0.00  0.00     0.036 A 
ENDBRANCH   3   5
ENDBRANCH   1   3
BRANCH   1  13
ATOM     13  N   UNL d   1       0.178  -0.215   1.050  0.00  0.00    -0.356 N 
ATOM     14  H   UNL d   1       0.640  -0.642   1.847  0.00  0.00     0.162 HD
BRANCH  13  15
ATOM     15  C   UNL d   1      -1.301  -0.131   1.113  0.00  0.00     0.046 C 
ATOM     16  C   UNL d   1      -1.957  -0.833  -0.091  0.00  0.00     0.040 C 
ATOM     17  C   UNL d   1      -1.734  -0.895   2.382  0.00  0.00     0.040 C 
BRANCH  15  18
ATOM     18  C   UNL d   1      -1.795   1.333   1.242  0.00  0.00     0.194 C 
BRANCH  18  19
ATOM     19  O   UNL d   1      -1.495   2.112   0.084  0.00  0.00    -0.398 OA
ATOM     20  H   UNL d   1      -1.876   2.996   0.240  0.00  0.00     0.209 HD
ENDBRANCH  18  19
ENDBRANCH  15  18
ENDBRANCH  13  15
ENDBRANCH   1  13
TORSDOF 6
