REMARK  3 active torsions:
REMARK  status: ('A' for Active; 'I' for Inactive)
REMARK    1  A    between atoms: C_3  and  C_1 
REMARK       I    between atoms: N_7  and  C_3 
REMARK    2  A    between atoms: C_18  and  N_7 
REMARK    3  A    between atoms: C_17  and  C_18 
ROOT
ATOM      1  C   UNL d   1       2.298   0.518  -1.834  0.00  0.00     0.249 C 
ATOM      2  N   UNL d   1       1.458   1.280  -2.616  0.00  0.00    -0.355 N 
ATOM      3  O   UNL d   1       3.150  -0.231  -2.328  0.00  0.00    -0.271 OA
ATOM      4  H   UNL d   1       0.944   2.037  -2.179  0.00  0.00     0.162 HD
ENDROOT
BRANCH   1   5
ATOM      5  C   UNL d   1       2.173   0.648  -0.297  0.00  0.00     0.244 C 
ATOM      6  O   UNL d   1       1.220   1.568   0.220  0.00  0.00    -0.331 OA
ATOM      7  C   UNL d   1      -0.037   1.028   0.276  0.00  0.00     0.103 A 
ATOM      8  C   UNL d   1      -1.089   1.929   0.416  0.00  0.00     0.040 A 
ATOM      9  C   UNL d   1      -0.292  -0.337   0.124  0.00  0.00     0.102 A 
ATOM     10  C   UNL d   1      -2.402   1.482   0.276  0.00  0.00     0.003 A 
ATOM     11  C   UNL d   1      -2.657   0.130   0.040  0.00  0.00     0.003 A 
ATOM     12  C   UNL d   1      -1.603  -0.784  -0.006  0.00  0.00     0.039 A 
ATOM     13  O   UNL d   1       0.695  -1.282   0.042  0.00  0.00    -0.345 OA
ATOM     14  C   UNL d   1       1.993  -0.739   0.320  0.00  0.00     0.218 C 
ENDBRANCH   1   5
BRANCH   2  15
ATOM     15  C   UNL d   1       1.608   1.277  -4.059  0.00  0.00     0.161 C 
BRANCH  15  16
ATOM     16  C   UNL d   1       0.335   1.488  -4.847  0.00  0.00    -0.038 A 
ATOM     17  C   UNL d   1       0.409   2.102  -6.114  0.00  0.00     0.048 A 
ATOM     18  C   UNL d   1      -0.737   2.182  -6.884  0.00  0.00     0.105 A 
ATOM     19  O   UNL d   1      -0.822   2.725  -8.126  0.00  0.00    -0.323 OA
ATOM     20  C   UNL d   1      -1.936   1.677  -6.448  0.00  0.00     0.105 A 
ATOM     21  C   UNL d   1      -2.214   2.494  -8.432  0.00  0.00     0.352 A 
ATOM     22  O   UNL d   1      -2.930   1.843  -7.363  0.00  0.00    -0.323 OA
ATOM     23  C   UNL d   1      -2.054   1.062  -5.221  0.00  0.00     0.040 A 
ATOM     24  C   UNL d   1      -0.906   0.960  -4.420  0.00  0.00     0.012 A 
ENDBRANCH  15  16
ENDBRANCH   2  15
TORSDOF 3
