REMARK  4 active torsions:
REMARK  status: ('A' for Active; 'I' for Inactive)
REMARK    1  A    between atoms: C_5  and  C_1 
REMARK    2  A    between atoms: C_2  and  C_6 
REMARK       I    between atoms: C_3  and  N_11 
REMARK       I    between atoms: N_4  and  C_3 
REMARK    3  A    between atoms: C_8  and  N_4 
REMARK    4  A    between atoms: N_11  and  C_10 
ROOT
ATOM      1  C   UNL d   1       0.121   4.815  -2.736  0.00  0.00     0.322 C 
ATOM      2  N   UNL d   1      -0.063   4.275  -3.966  0.00  0.00    -0.316 N 
ATOM      3  N   UNL d   1       0.992   4.167  -1.917  0.00  0.00    -0.309 N 
ATOM      4  O   UNL d   1      -0.515   5.831  -2.465  0.00  0.00    -0.247 OA
ATOM      5  H   UNL d   1      -0.810   4.766  -4.440  0.00  0.00     0.166 HD
ATOM      6  H   UNL d   1       1.385   3.320  -2.310  0.00  0.00     0.170 HD
ENDROOT
BRANCH   3   7
ATOM      7  C   UNL d   1       1.300   4.473  -0.581  0.00  0.00     0.037 A 
ATOM      8  C   UNL d   1       0.980   5.684   0.037  0.00  0.00     0.045 A 
ATOM      9  C   UNL d   1       1.249   5.891   1.402  0.00  0.00     0.050 A 
ATOM     10  C   UNL d   1       1.831   4.853   2.146  0.00  0.00     0.032 A 
ATOM     11  C   UNL d   1       2.163   3.634   1.538  0.00  0.00     0.050 A 
ATOM     12  C   UNL d   1       1.930   3.473   0.164  0.00  0.00     0.045 A 
BRANCH   9  13
ATOM     13  C   UNL d   1       0.898   7.214   2.043  0.00  0.00     0.417 C 
ATOM     14  F   UNL d   1       1.160   7.247   3.381  0.00  0.00    -0.166 F 
ATOM     15  F   UNL d   1      -0.419   7.528   1.917  0.00  0.00    -0.166 F 
ATOM     16  F   UNL d   1       1.591   8.255   1.505  0.00  0.00    -0.166 F 
ENDBRANCH   9  13
BRANCH  11  17
ATOM     17  C   UNL d   1       2.749   2.493   2.334  0.00  0.00     0.417 C 
ATOM     18  F   UNL d   1       2.527   2.599   3.672  0.00  0.00    -0.166 F 
ATOM     19  F   UNL d   1       2.234   1.286   1.966  0.00  0.00    -0.166 F 
ATOM     20  F   UNL d   1       4.095   2.388   2.178  0.00  0.00    -0.166 F 
ENDBRANCH  11  17
ENDBRANCH   3   7
BRANCH   2  21
ATOM     21  C   UNL d   1       0.310   2.986  -4.539  0.00  0.00     0.231 C 
ATOM     22  O   UNL d   1       1.531   2.535  -3.949  0.00  0.00    -0.325 OA
ATOM     23  C   UNL d   1       2.135   1.483  -4.588  0.00  0.00     0.077 A 
ATOM     24  C   UNL d   1       3.053   0.749  -3.841  0.00  0.00     0.037 A 
ATOM     25  C   UNL d   1       1.906   1.170  -5.930  0.00  0.00    -0.025 A 
ATOM     26  C   UNL d   1       3.748  -0.311  -4.430  0.00  0.00     0.003 A 
ATOM     27  C   UNL d   1       3.529  -0.630  -5.764  0.00  0.00     0.001 A 
ATOM     28  C   UNL d   1       2.610   0.106  -6.512  0.00  0.00     0.010 A 
ATOM     29  C   UNL d   1       0.905   1.923  -6.749  0.00  0.00     0.045 C 
ATOM     30  C   UNL d   1       0.430   3.180  -6.048  0.00  0.00     0.059 C 
ENDBRANCH   2  21
TORSDOF 4
