REMARK  5 active torsions:
REMARK  status: ('A' for Active; 'I' for Inactive)
REMARK    1  A    between atoms: C_5  and  C_1 
REMARK    2  A    between atoms: C_8  and  C_2 
REMARK    3  A    between atoms: O_15  and  C_8 
REMARK    4  A    between atoms: N_9  and  O_15 
REMARK    5  A    between atoms: C_17  and  C_16 
ROOT
ATOM      1  C   UNL d   1       2.776  -1.580   0.001  0.00  0.00     0.318 C 
ATOM      2  O   UNL d   1       3.874  -1.031   0.020  0.00  0.00    -0.257 OA
ENDROOT
BRANCH   1   3
ATOM      3  C   UNL d   1       1.543  -0.815  -0.057  0.00  0.00     0.091 A 
ATOM      4  C   UNL d   1       1.328   0.483  -0.625  0.00  0.00     0.150 A 
ATOM      5  N   UNL d   1       0.050   0.879  -0.433  0.00  0.00    -0.294 N 
ATOM      6  N   UNL d   1      -0.525  -0.127   0.237  0.00  0.00    -0.306 N 
ATOM      7  HN  UNL d   1      -0.382   1.753  -0.733  1.00  0.00     0.187 HD
ATOM      8  C   UNL d   1      -1.908  -0.020   0.638  0.00  0.00     0.177 C 
ATOM      9  C   UNL d   1       0.313  -1.176   0.464  0.00  0.00     0.129 A 
BRANCH   4  10
ATOM     10  C   UNL d   1       2.294   1.361  -1.391  0.00  0.00     0.435 C 
ATOM     11  F   UNL d   1       3.506   0.799  -1.618  0.00  0.00    -0.165 F 
ATOM     12  F   UNL d   1       1.805   1.673  -2.625  0.00  0.00    -0.165 F 
ATOM     13  F   UNL d   1       2.524   2.543  -0.757  0.00  0.00    -0.165 F 
ENDBRANCH   4  10
ENDBRANCH   1   3
BRANCH   1  14
ATOM     14  O   UNL d   1       2.562  -2.947   0.042  0.00  0.00    -0.195 OA
BRANCH  14  15
ATOM     15  N   UNL d   1       3.809  -3.604   0.019  0.00  0.00    -0.268 N 
ATOM     16  C   UNL d   1       3.672  -4.888   0.005  0.00  0.00     0.126 C 
ATOM     17  HN  UNL d   1       4.709  -3.124   0.014  1.00  0.00     0.194 HD
BRANCH  16  18
ATOM     18  C   UNL d   1       4.867  -5.761  -0.028  0.00  0.00    -0.019 A 
ATOM     19  C   UNL d   1       6.146  -5.195  -0.103  0.00  0.00     0.014 A 
ATOM     20  C   UNL d   1       7.277  -6.015  -0.124  0.00  0.00     0.024 A 
ATOM     21  C   UNL d   1       7.124  -7.398  -0.066  0.00  0.00     0.034 A 
ATOM     22  C   UNL d   1       5.852  -7.968   0.003  0.00  0.00     0.024 A 
ATOM     23 CL   UNL d   1       8.518  -8.408  -0.078  0.00  0.00    -0.084 Cl
ATOM     24  C   UNL d   1       4.717  -7.150   0.021  0.00  0.00     0.014 A 
ENDBRANCH  16  18
ENDBRANCH  14  15
ENDBRANCH   1  14
TORSDOF 5
