REMARK  4 active torsions:
REMARK  status: ('A' for Active; 'I' for Inactive)
REMARK    1  A    between atoms: C_3  and  C_1 
REMARK    2  A    between atoms: N_6  and  C_2 
REMARK    3  A    between atoms: C_16  and  C_11 
REMARK    4  A    between atoms: N_17  and  C_15 
ROOT
ATOM      1  C   UNL d   1       1.452  -0.771  -0.056  0.00  0.00     0.060 A 
ATOM      2  C   UNL d   1       0.158  -1.262  -0.198  0.00  0.00     0.137 A 
ATOM      3  N   UNL d   1       0.040   0.993   0.245  0.00  0.00    -0.307 N 
ATOM      4  HN  UNL d   1      -0.333   1.924   0.432  1.00  0.00     0.186 HD
ATOM      5  N   UNL d   1      -0.639  -0.136  -0.057  0.00  0.00    -0.281 N 
ATOM      6  C   UNL d   1       1.310   0.600   0.241  0.00  0.00     0.125 A 
ATOM      7  C   UNL d   1      -2.071  -0.047  -0.200  0.00  0.00     0.179 C 
ENDROOT
BRANCH   1   8
ATOM      8  C   UNL d   1       2.733  -1.526  -0.182  0.00  0.00     0.090 A 
ATOM      9  N   UNL d   1       2.824  -2.672  -0.824  0.00  0.00    -0.349 N 
ATOM     10  C   UNL d   1       4.120  -3.152  -0.786  0.00  0.00     0.050 A 
ATOM     11  HN  UNL d   1       2.045  -3.141  -1.286  1.00  0.00     0.166 HD
ATOM     12  C   UNL d   1       4.998  -2.386  -0.047  0.00  0.00     0.082 A 
ATOM     13  S   UNL d   1       4.208  -0.974   0.516  0.00  0.00    -0.081 SA
BRANCH  10  14
ATOM     14  C   UNL d   1       4.502  -4.346  -1.527  0.00  0.00    -0.009 A 
ATOM     15  C   UNL d   1       3.883  -4.614  -2.758  0.00  0.00     0.015 A 
ATOM     16  C   UNL d   1       4.269  -5.719  -3.523  0.00  0.00     0.024 A 
ATOM     17  C   UNL d   1       5.264  -6.570  -3.052  0.00  0.00     0.034 A 
ATOM     18  C   UNL d   1       5.872  -6.330  -1.821  0.00  0.00     0.024 A 
ATOM     19 CL   UNL d   1       5.751  -7.925  -3.994  0.00  0.00    -0.084 Cl
ATOM     20  C   UNL d   1       5.493  -5.220  -1.061  0.00  0.00     0.015 A 
ENDBRANCH  10  14
ENDBRANCH   1   8
BRANCH   2  21
ATOM     21  N   UNL d   1      -0.408  -2.485  -0.428  0.00  0.00    -0.337 N 
ATOM     22  C   UNL d   1       0.145  -3.493   0.166  0.00  0.00     0.179 C 
ATOM     23  HN  UNL d   1      -1.221  -2.596  -1.034  1.00  0.00     0.168 HD
BRANCH  22  24
ATOM     24  N   UNL d   1      -0.226  -4.819   0.087  0.00  0.00    -0.386 N 
ATOM     25  C   UNL d   1      -1.321  -5.245  -0.768  0.00  0.00     0.149 C 
ATOM     26  C   UNL d   1       0.694  -5.870   0.495  0.00  0.00     0.149 C 
ENDBRANCH  22  24
ENDBRANCH   2  21
TORSDOF 4
