REMARK  6 active torsions:
REMARK  status: ('A' for Active; 'I' for Inactive)
REMARK    1  A    between atoms: C_3  and  C_1 
REMARK    2  A    between atoms: C_6  and  C_5 
REMARK    3  A    between atoms: C_14  and  C_6 
REMARK    4  A    between atoms: S_9  and  C_15 
REMARK    5  A    between atoms: C_17  and  S_9 
REMARK    6  A    between atoms: C_16  and  C_17 
ROOT
ATOM      1  N   UNL d   1      -2.476  -7.888   0.333  0.00  0.00    -0.197 NA
ATOM      2  C   UNL d   1      -3.135  -7.893  -0.619  0.00  0.00     0.067 C 
ATOM      3  C   UNL d   1      -3.974  -7.819  -1.814  0.00  0.00     0.207 C 
ENDROOT
BRANCH   3   4
ATOM      4  C   UNL d   1      -3.202  -8.197  -3.052  0.00  0.00     0.172 C 
ATOM      5  O   UNL d   1      -3.169  -9.358  -3.460  0.00  0.00    -0.291 OA
BRANCH   4   6
ATOM      6  C   UNL d   1      -2.511  -7.128  -3.829  0.00  0.00     0.011 A 
ATOM      7  C   UNL d   1      -2.026  -5.959  -3.225  0.00  0.00     0.023 A 
ATOM      8  C   UNL d   1      -1.403  -4.961  -3.995  0.00  0.00    -0.048 A 
ATOM      9  C   UNL d   1      -1.214  -5.196  -5.366  0.00  0.00     0.008 A 
ATOM     10  C   UNL d   1      -1.702  -6.352  -5.972  0.00  0.00     0.002 A 
ATOM     11  C   UNL d   1      -2.353  -7.315  -5.207  0.00  0.00     0.015 A 
BRANCH   8  12
ATOM     12  C   UNL d   1      -0.898  -3.698  -3.325  0.00  0.00     0.117 C 
BRANCH  12  13
ATOM     13  S   UNL d   1      -1.094  -2.210  -4.375  0.00  0.00    -0.125 SA
BRANCH  13  14
ATOM     14  C   UNL d   1      -0.364  -0.895  -3.423  0.00  0.00     0.001 A 
ATOM     15  C   UNL d   1       0.074  -1.017  -2.103  0.00  0.00     0.034 A 
ATOM     16  C   UNL d   1       0.604   0.086  -1.411  0.00  0.00     0.049 A 
ATOM     17  C   UNL d   1       0.705   1.322  -2.067  0.00  0.00     0.016 A 
ATOM     18  C   UNL d   1       0.274   1.453  -3.384  0.00  0.00     0.002 A 
ATOM     19  C   UNL d   1      -0.259   0.351  -4.054  0.00  0.00     0.018 A 
BRANCH  16  20
ATOM     20  C   UNL d   1       1.047  -0.051   0.025  0.00  0.00     0.417 C 
ATOM     21  F   UNL d   1       0.889  -1.312   0.519  0.00  0.00    -0.166 F 
ATOM     22  F   UNL d   1       0.353   0.766   0.864  0.00  0.00    -0.166 F 
ATOM     23  F   UNL d   1       2.361   0.255   0.199  0.00  0.00    -0.166 F 
ENDBRANCH  16  20
ENDBRANCH  13  14
ENDBRANCH  12  13
ENDBRANCH   8  12
ENDBRANCH   4   6
ENDBRANCH   3   4
TORSDOF 6
