REMARK  5 active torsions:
REMARK  status: ('A' for Active; 'I' for Inactive)
REMARK    1  A    between atoms: C_9  and  C_3 
REMARK    2  A    between atoms: S_17  and  C_12 
REMARK    3  A    between atoms: C_13  and  C_21 
REMARK       I    between atoms: N_16  and  C_13 
REMARK    4  A    between atoms: C_24  and  N_16 
REMARK    5  A    between atoms: C_21  and  S_17 
ROOT
ATOM      1  C   UNL d   1      -3.769   0.549  -0.129  0.00  0.00     0.053 A 
ATOM      2  N   UNL d   1      -4.559  -0.230   0.636  0.00  0.00    -0.336 N 
ATOM      3  HN  UNL d   1      -4.167  -0.906   1.291  1.00  0.00     0.168 HD
ATOM      4  C   UNL d   1      -5.874  -0.075   0.496  0.00  0.00     0.145 A 
ATOM      5  N   UNL d   1      -6.480   0.784  -0.338  0.00  0.00    -0.347 N 
ATOM      6  HN  UNL d   1      -7.495   0.855  -0.401  1.00  0.00     0.167 HD
ATOM      7  C   UNL d   1      -4.294   1.464  -1.024  0.00  0.00     0.048 A 
ATOM      8  C   UNL d   1      -5.664   1.542  -1.082  0.00  0.00     0.092 A 
ENDROOT
BRANCH   4   9
ATOM      9  S   UNL d   1      -6.866  -1.338   1.249  0.00  0.00    -0.085 SA
BRANCH   9  10
ATOM     10  C   UNL d   1      -7.718  -1.902  -0.246  0.00  0.00     0.185 C 
BRANCH  10  11
ATOM     11  C   UNL d   1      -6.848  -2.484  -1.356  0.00  0.00     0.231 C 
ATOM     12  N   UNL d   1      -5.497  -2.632  -1.105  0.00  0.00    -0.327 N 
ATOM     13  H   UNL d   1      -5.183  -2.461  -0.154  0.00  0.00     0.169 HD
ATOM     14  O   UNL d   1      -7.406  -2.831  -2.401  0.00  0.00    -0.272 OA
BRANCH  12  15
ATOM     15  C   UNL d   1      -4.526  -3.137  -1.997  0.00  0.00     0.034 A 
ATOM     16  C   UNL d   1      -4.750  -3.300  -3.365  0.00  0.00     0.029 A 
ATOM     17  C   UNL d   1      -3.800  -3.926  -4.174  0.00  0.00     0.002 A 
ATOM     18  C   UNL d   1      -2.605  -4.378  -3.622  0.00  0.00     0.000 A 
ATOM     19  C   UNL d   1      -2.339  -4.154  -2.273  0.00  0.00     0.002 A 
ATOM     20  C   UNL d   1      -3.287  -3.518  -1.466  0.00  0.00     0.029 A 
ENDBRANCH  12  15
ENDBRANCH  10  11
ENDBRANCH   9  10
ENDBRANCH   4   9
BRANCH   1  21
ATOM     21  C   UNL d   1      -2.321   0.279   0.017  0.00  0.00     0.039 A 
ATOM     22  S   UNL d   1      -1.302   0.506  -1.372  0.00  0.00    -0.079 SA
ATOM     23  C   UNL d   1       0.022  -0.025  -0.526  0.00  0.00     0.059 A 
ATOM     24  C   UNL d   1      -0.221  -0.368   0.753  0.00  0.00     0.003 A 
ATOM     25  S   UNL d   1       1.603  -0.208  -1.017  0.00  0.00    -0.074 SA
ATOM     26  C   UNL d   1      -1.590  -0.200   1.130  0.00  0.00    -0.030 A 
ATOM     27  C   UNL d   1       0.947  -0.832   1.440  0.00  0.00    -0.025 A 
ATOM     28  C   UNL d   1      -2.240  -0.453   2.454  0.00  0.00     0.050 C 
ATOM     29  C   UNL d   1       1.121  -1.307   2.844  0.00  0.00     0.051 C 
ATOM     30  C   UNL d   1       2.008  -0.791   0.533  0.00  0.00     0.059 A 
ATOM     31 BR   UNL d   1       3.773  -1.329   0.916  0.00  0.00    -0.042 Br
ENDBRANCH   1  21
TORSDOF 5
