REMARK  3 active torsions:
REMARK  status: ('A' for Active; 'I' for Inactive)
REMARK    1  A    between atoms: C_2  and  C_1 
REMARK    2  A    between atoms: S_4  and  C_2 
REMARK    3  A    between atoms: C_5  and  S_4 
ROOT
ATOM      1  C   UNL d   1       2.154   0.601  -0.316  0.00  0.00     0.234 C 
ATOM      2  O   UNL d   1       1.046   1.238   0.325  0.00  0.00    -0.333 OA
ATOM      3  O   UNL d   1       1.135  -1.620  -0.161  0.00  0.00    -0.345 OA
ATOM      4  C   UNL d   1      -0.054   0.424   0.412  0.00  0.00     0.103 A 
ATOM      5  C   UNL d   1       2.294  -0.842   0.155  0.00  0.00     0.217 C 
ATOM      6  C   UNL d   1      -0.017  -0.943   0.133  0.00  0.00     0.102 A 
ATOM      7  C   UNL d   1      -1.252   1.023   0.801  0.00  0.00     0.040 A 
ATOM      8  C   UNL d   1      -1.196  -1.691   0.141  0.00  0.00     0.039 A 
ATOM      9  C   UNL d   1      -2.424   0.266   0.847  0.00  0.00     0.003 A 
ATOM     10  C   UNL d   1      -2.400  -1.085   0.494  0.00  0.00     0.003 A 
ENDROOT
BRANCH   1  11
ATOM     11  C   UNL d   1       2.141   0.690  -1.850  0.00  0.00     0.222 C 
ATOM     12  O   UNL d   1       2.208  -0.270  -2.607  0.00  0.00    -0.282 OA
BRANCH  11  13
ATOM     13  S   UNL d   1       2.225   2.336  -2.476  0.00  0.00    -0.043 SA
BRANCH  13  14
ATOM     14  C   UNL d   1       0.607   2.523  -3.137  0.00  0.00     0.048 A 
ATOM     15  S   UNL d   1       0.024   4.103  -3.483  0.00  0.00    -0.095 SA
ATOM     16  C   UNL d   1      -1.478   3.508  -4.034  0.00  0.00     0.051 A 
ATOM     17  C   UNL d   1      -1.539   2.135  -3.974  0.00  0.00     0.009 A 
ATOM     18  C   UNL d   1      -0.331   1.565  -3.468  0.00  0.00     0.027 A 
ENDBRANCH  13  14
ENDBRANCH  11  13
ENDBRANCH   1  11
TORSDOF 3
