REMARK  2 active torsions:
REMARK  status: ('A' for Active; 'I' for Inactive)
REMARK       I    between atoms: N_2  and  C_1 
REMARK       I    between atoms: N_3  and  C_1 
REMARK    1  A    between atoms: C_5  and  N_2 
REMARK    2  A    between atoms: C_8  and  N_3 
ROOT
ATOM      1  C   UNL d   1       1.242   1.041  -1.498  0.00  0.00     0.321 C 
ATOM      2  N   UNL d   1       2.535   0.836  -1.050  0.00  0.00    -0.309 N 
ATOM      3  N   UNL d   1       0.331   0.744  -0.498  0.00  0.00    -0.338 N 
ATOM      4  O   UNL d   1       0.893   1.458  -2.595  0.00  0.00    -0.247 OA
ATOM      5  H   UNL d   1       2.626   0.567  -0.085  0.00  0.00     0.170 HD
ATOM      6  H   UNL d   1       0.634   0.122   0.232  0.00  0.00     0.164 HD
ENDROOT
BRANCH   2   7
ATOM      7  C   UNL d   1       3.739   1.047  -1.755  0.00  0.00     0.036 A 
ATOM      8  C   UNL d   1       3.803   1.486  -3.081  0.00  0.00     0.031 A 
ATOM      9  C   UNL d   1       5.041   1.666  -3.711  0.00  0.00     0.026 A 
ATOM     10  C   UNL d   1       6.220   1.408  -3.022  0.00  0.00     0.034 A 
ATOM     11  C   UNL d   1       6.175   0.972  -1.699  0.00  0.00     0.026 A 
ATOM     12 CL   UNL d   1       7.738   1.623  -3.801  0.00  0.00    -0.084 Cl
ATOM     13  C   UNL d   1       4.938   0.795  -1.071  0.00  0.00     0.031 A 
ENDBRANCH   2   7
BRANCH   3  14
ATOM     14  C   UNL d   1      -1.111   0.910  -0.686  0.00  0.00     0.086 C 
ATOM     15  C   UNL d   1      -1.796   1.203   0.653  0.00  0.00     0.025 C 
ATOM     16  C   UNL d   1      -1.790  -0.001   1.591  0.00  0.00     0.002 C 
ATOM     17  C   UNL d   1      -2.363  -1.257   0.943  0.00  0.00     0.000 C 
ATOM     18  C   UNL d   1      -1.818  -1.539  -0.456  0.00  0.00     0.002 C 
ATOM     19  C   UNL d   1      -1.764  -0.305  -1.357  0.00  0.00     0.025 C 
ENDBRANCH   3  14
TORSDOF 2
