REMARK  2 active torsions:
REMARK  status: ('A' for Active; 'I' for Inactive)
REMARK    1  A    between atoms: C_13  and  C_7 
REMARK    2  A    between atoms: N_14  and  C_10 
ROOT
ATOM      1  C   UNL d   1       0.265   0.683  -0.027  0.00  0.00     0.141 A 
ATOM      2  C   UNL d   1       0.234  -0.713   0.031  0.00  0.00     0.122 A 
ATOM      3  N   UNL d   1      -2.136  -0.672   0.073  0.00  0.00    -0.308 N 
ATOM      4  HN  UNL d   1      -3.053  -1.116   0.127  1.00  0.00     0.170 HD
ATOM      5  C   UNL d   1      -0.999  -1.455   0.077  0.00  0.00     0.264 A 
ATOM      6  N   UNL d   1      -0.886   1.363  -0.054  0.00  0.00    -0.326 N 
ATOM      7  C   UNL d   1      -2.054   0.627   0.001  0.00  0.00     0.120 A 
ATOM      8  N   UNL d   1       1.503   1.172  -0.049  0.00  0.00    -0.283 N 
ATOM      9  HN  UNL d   1       1.801   2.147  -0.084  1.00  0.00     0.188 HD
ATOM     10  C   UNL d   1       1.549  -1.108   0.031  0.00  0.00     0.133 A 
ATOM     11  N   UNL d   1       2.269   0.059  -0.013  0.00  0.00    -0.283 N 
ATOM     12  O   UNL d   1      -1.028  -2.679   0.111  0.00  0.00    -0.267 OA
ATOM     13  H   UNL d   1      -0.885   2.373  -0.010  0.00  0.00     0.169 HD
ATOM     14  H   UNL d   1       3.277   0.163  -0.016  0.00  0.00     0.188 HD
ENDROOT
BRANCH   7  15
ATOM     15  C   UNL d   1      -3.355   1.373  -0.036  0.00  0.00     0.008 A 
ATOM     16  C   UNL d   1      -4.468   0.850   0.634  0.00  0.00     0.015 A 
ATOM     17  C   UNL d   1      -5.698   1.506   0.564  0.00  0.00     0.001 A 
ATOM     18  C   UNL d   1      -5.821   2.679  -0.179  0.00  0.00     0.000 A 
ATOM     19  C   UNL d   1      -4.714   3.204  -0.848  0.00  0.00     0.001 A 
ATOM     20  C   UNL d   1      -3.480   2.554  -0.777  0.00  0.00     0.015 A 
ENDBRANCH   7  15
BRANCH  10  21
ATOM     21  N   UNL d   1       2.133  -2.319   0.071  0.00  0.00    -0.384 N 
ATOM     22  H   UNL d   1       1.556  -3.163   0.036  0.00  0.00     0.157 HD
ATOM     23  H   UNL d   1       3.127  -2.493  -0.042  0.00  0.00     0.157 HD
ENDBRANCH  10  21
TORSDOF 2
