REMARK  1 active torsions:
REMARK  status: ('A' for Active; 'I' for Inactive)
REMARK    1  A    between atoms: N_14  and  C_10 
ROOT
ATOM      1  S   UNL d   1      -1.035  -1.464   0.015  0.00  0.00     0.270 S 
ATOM      2  C   UNL d   1      -2.046  -0.192  -0.548  0.00  0.00     0.145 C 
ATOM      3  C   UNL d   1      -1.670  -0.225   2.289  0.00  0.00     0.101 A 
ATOM      4  N   UNL d   1      -1.401  -1.496   1.671  0.00  0.00    -0.269 N 
ATOM      5  C   UNL d   1      -1.871   0.960   1.591  0.00  0.00     0.057 A 
ATOM      6  C   UNL d   1      -1.776   1.066   0.136  0.00  0.00     0.210 C 
ATOM      7  S   UNL d   1      -1.821  -0.004   3.970  0.00  0.00    -0.075 SA
ATOM      8  C   UNL d   1      -2.245   2.046   2.480  0.00  0.00    -0.032 A 
ATOM      9  C   UNL d   1      -2.209   1.645   3.806  0.00  0.00    -0.012 A 
ATOM     10  C   UNL d   1      -3.107  -0.444  -1.334  0.00  0.00     0.114 C 
ATOM     11  O   UNL d   1      -1.468  -2.736  -0.535  0.00  0.00    -0.200 OA
ATOM     12  O   UNL d   1       0.357  -1.078  -0.102  0.00  0.00    -0.200 OA
ATOM     13  O   UNL d   1      -1.561   2.114  -0.469  0.00  0.00    -0.286 OA
ATOM     14  C   UNL d   1      -1.129  -2.745   2.386  0.00  0.00     0.170 C 
ATOM     15  C   UNL d   1      -2.659   3.424   2.056  0.00  0.00     0.050 C 
ATOM     16  C   UNL d   1      -2.491   2.474   5.017  0.00  0.00     0.057 C 
ENDROOT
BRANCH  10  17
ATOM     17  N   UNL d   1      -4.209   0.315  -1.723  0.00  0.00    -0.397 N 
ATOM     18  C   UNL d   1      -4.483   1.688  -1.295  0.00  0.00     0.148 C 
ATOM     19  C   UNL d   1      -5.160  -0.184  -2.721  0.00  0.00     0.148 C 
ENDBRANCH  10  17
TORSDOF 1
