REMARK  4 active torsions:
REMARK  status: ('A' for Active; 'I' for Inactive)
REMARK    1  A    between atoms: N_4  and  S_1 
REMARK    2  A    between atoms: C_8  and  S_1 
REMARK    3  A    between atoms: C_2  and  C_3 
REMARK       I    between atoms: C_3  and  N_5 
REMARK    4  A    between atoms: N_5  and  N_4 
ROOT
ATOM      1  N   UNL d   1       0.417   1.507  -0.146  0.00  0.00    -0.220 N 
ATOM      2  H   UNL d   1      -0.578   1.588  -0.389  0.00  0.00     0.200 HD
ENDROOT
BRANCH   1   3
ATOM      3  S   UNL d   1       1.024  -0.046   0.157  0.00  0.00     0.276 S 
ATOM      4  O   UNL d   1       0.380  -0.512   1.366  0.00  0.00    -0.199 OA
ATOM      5  O   UNL d   1       2.466   0.018   0.051  0.00  0.00    -0.199 OA
BRANCH   3   6
ATOM      6  C   UNL d   1       0.408  -0.990  -1.208  0.00  0.00     0.081 A 
ATOM      7  C   UNL d   1       0.837  -0.681  -2.504  0.00  0.00     0.027 A 
ATOM      8  C   UNL d   1       0.393  -1.458  -3.576  0.00  0.00     0.025 A 
ATOM      9  C   UNL d   1      -0.464  -2.536  -3.347  0.00  0.00     0.034 A 
ATOM     10  C   UNL d   1      -0.887  -2.844  -2.053  0.00  0.00     0.025 A 
ATOM     11 CL   UNL d   1      -0.994  -3.502  -4.668  0.00  0.00    -0.084 Cl
ATOM     12  C   UNL d   1      -0.451  -2.068  -0.977  0.00  0.00     0.027 A 
ENDBRANCH   3   6
ENDBRANCH   1   3
BRANCH   1  13
ATOM     13  N   UNL d   1       0.940   2.567   0.714  0.00  0.00    -0.256 N 
ATOM     14  C   UNL d   1       0.134   3.647   1.044  0.00  0.00     0.278 C 
ATOM     15  O   UNL d   1      -0.962   3.779   0.495  0.00  0.00    -0.265 OA
ATOM     16  H   UNL d   1       1.808   2.382   1.215  0.00  0.00     0.191 HD
BRANCH  14  17
ATOM     17  C   UNL d   1       0.671   4.535   2.074  0.00  0.00     0.090 A 
ATOM     18  C   UNL d   1       0.176   5.718   2.596  0.00  0.00     0.029 A 
ATOM     19  C   UNL d   1       0.985   6.277   3.626  0.00  0.00     0.027 A 
ATOM     20  I   UNL d   1      -1.556   6.667   2.014  0.00  0.00    -0.043 I 
ATOM     21  C   UNL d   1       2.096   5.507   3.876  0.00  0.00     0.052 A 
ATOM     22  S   UNL d   1       2.157   4.133   2.869  0.00  0.00    -0.095 SA
ENDBRANCH  14  17
ENDBRANCH   1  13
TORSDOF 4
