REMARK  4 active torsions:
REMARK  status: ('A' for Active; 'I' for Inactive)
REMARK    1  A    between atoms: N_4  and  C_1 
REMARK    2  A    between atoms: C_5  and  S_12 
REMARK    3  A    between atoms: S_12  and  C_6 
REMARK    4  A    between atoms: C_16  and  C_7 
ROOT
ATOM      1  N   UNL d   1       2.492  -3.507   0.903  0.00  0.00    -0.323 N 
ATOM      2  C   UNL d   1       1.523  -3.594  -0.047  0.00  0.00     0.167 A 
ATOM      3  C   UNL d   1       3.523  -4.307   0.473  0.00  0.00     0.105 A 
ATOM      4  N   UNL d   1       3.192  -4.805  -0.705  0.00  0.00    -0.286 N 
ATOM      5  HN  UNL d   1       3.775  -5.415  -1.279  1.00  0.00     0.188 HD
ATOM      6  N   UNL d   1       1.925  -4.361  -1.028  0.00  0.00    -0.278 N 
ATOM      7  HN  UNL d   1       1.401  -4.589  -1.873  1.00  0.00     0.189 HD
ATOM      8  H   UNL d   1       2.438  -2.988   1.765  0.00  0.00     0.169 HD
ENDROOT
BRANCH   2   9
ATOM      9  S   UNL d   1      -0.025  -2.894   0.211  0.00  0.00    -0.027 SA
BRANCH   9  10
ATOM     10  C   UNL d   1      -0.084  -1.898  -1.226  0.00  0.00     0.121 A 
ATOM     11  S   UNL d   1      -1.274  -2.119  -2.447  0.00  0.00    -0.039 SA
ATOM     12  C   UNL d   1      -0.708  -0.714  -3.215  0.00  0.00     0.161 A 
ATOM     13  C   UNL d   1       0.348  -0.168  -2.525  0.00  0.00     0.133 A 
ATOM     14  N   UNL d   1       0.698  -0.847  -1.367  0.00  0.00    -0.352 N 
ATOM     15  HN  UNL d   1       1.443  -0.575  -0.726  1.00  0.00     0.166 HD
BRANCH  12  16
ATOM     16  N   UNL d   1      -1.313  -0.203  -4.405  0.00  0.00    -0.107 N 
ATOM     17  O   UNL d   1      -0.826   0.838  -4.862  0.00  0.00    -0.531 OA
ATOM     18  O   UNL d   1      -2.277  -0.815  -4.881  0.00  0.00    -0.531 OA
ENDBRANCH  12  16
ENDBRANCH   9  10
ENDBRANCH   2   9
BRANCH   3  19
ATOM     19  C   UNL d   1       4.790  -4.545   1.260  0.00  0.00     0.009 C 
ATOM     20  C   UNL d   1       4.457  -5.097   2.659  0.00  0.00     0.023 C 
ATOM     21  C   UNL d   1       5.681  -5.573   0.536  0.00  0.00     0.023 C 
ATOM     22  C   UNL d   1       5.574  -3.230   1.405  0.00  0.00     0.023 C 
ENDBRANCH   3  19
TORSDOF 4
