REMARK  1 active torsions:
REMARK  status: ('A' for Active; 'I' for Inactive)
REMARK    1  A    between atoms: C_2  and  C_1 
REMARK       I    between atoms: N_4  and  C_2 
ROOT
ATOM      1  C   UNL d   1       1.386  -1.721   0.251  0.00  0.00     0.067 A 
ATOM      2  C   UNL d   1       0.397  -1.174  -0.559  0.00  0.00     0.090 A 
ATOM      3  C   UNL d   1      -0.171   0.066  -0.285  0.00  0.00    -0.020 A 
ATOM      4  C   UNL d   1       1.761  -1.001   1.394  0.00  0.00     0.039 A 
ATOM      5  O   UNL d   1      -0.127  -1.744  -1.695  0.00  0.00    -0.349 OA
ATOM      6  C   UNL d   1       0.246   0.820   0.799  0.00  0.00     0.029 A 
ATOM      7  C   UNL d   1       1.215   0.270   1.641  0.00  0.00     0.012 A 
ATOM      8 BR   UNL d   1       1.805   1.254   3.146  0.00  0.00    -0.051 Br
ATOM      9  C   UNL d   1      -1.346  -1.002  -1.919  0.00  0.00     0.180 C 
ATOM     10  C   UNL d   1      -1.177   0.391  -1.322  0.00  0.00     0.068 C 
ENDROOT
BRANCH   1  11
ATOM     11  C   UNL d   1       1.899  -3.085  -0.013  0.00  0.00     0.256 C 
ATOM     12  N   UNL d   1       3.272  -3.349  -0.025  0.00  0.00    -0.348 N 
ATOM     13  C   UNL d   1       4.365  -2.408   0.216  0.00  0.00     0.126 C 
ATOM     14  C   UNL d   1       3.715  -4.721  -0.261  0.00  0.00     0.126 C 
ATOM     15  C   UNL d   1       5.146  -2.845   1.458  0.00  0.00     0.020 C 
ATOM     16  C   UNL d   1       5.643  -4.287   1.314  0.00  0.00     0.003 C 
ATOM     17  C   UNL d   1       4.504  -5.239   0.940  0.00  0.00     0.020 C 
ATOM     18  O   UNL d   1       1.059  -3.969  -0.188  0.00  0.00    -0.267 OA
ENDBRANCH   1  11
TORSDOF 1
