REMARK  5 active torsions:
REMARK  status: ('A' for Active; 'I' for Inactive)
REMARK    1  A    between atoms: C_10  and  C_2 
REMARK    2  A    between atoms: S_13  and  C_3 
REMARK    3  A    between atoms: S_14  and  C_16 
REMARK    4  A    between atoms: C_17  and  S_14 
REMARK    5  A    between atoms: C_16  and  C_15 
ROOT
ATOM      1  C   UNL d   1      -0.523  -0.981   0.662  0.00  0.00     0.105 A 
ATOM      2  C   UNL d   1      -1.377  -0.024   0.116  0.00  0.00     0.067 A 
ATOM      3  C   UNL d   1       0.825  -0.645   0.702  0.00  0.00     0.094 A 
ATOM      4  N   UNL d   1       1.307   0.509   0.198  0.00  0.00    -0.340 N 
ATOM      5  HN  UNL d   1       2.302   0.730   0.237  1.00  0.00     0.167 HD
ATOM      6  N   UNL d   1      -0.891   1.130  -0.412  0.00  0.00    -0.344 N 
ATOM      7  HN  UNL d   1      -1.516   1.812  -0.840  1.00  0.00     0.167 HD
ATOM      8  C   UNL d   1       0.430   1.351  -0.356  0.00  0.00     0.078 A 
ATOM      9  C   UNL d   1      -0.984  -2.249   1.132  0.00  0.00     0.104 C 
ATOM     10  N   UNL d   1      -1.372  -3.272   1.520  0.00  0.00    -0.191 NA
ATOM     11  C   UNL d   1       0.952   2.621  -0.949  0.00  0.00     0.089 C 
ENDROOT
BRANCH   2  12
ATOM     12  C   UNL d   1      -2.865  -0.101   0.070  0.00  0.00    -0.007 A 
ATOM     13  C   UNL d   1      -3.588   0.475  -1.004  0.00  0.00     0.021 A 
ATOM     14  C   UNL d   1      -5.000   0.499  -1.044  0.00  0.00    -0.048 A 
ATOM     15  C   UNL d   1      -5.695  -0.152  -0.018  0.00  0.00     0.008 A 
ATOM     16  C   UNL d   1      -5.015  -0.707   1.061  0.00  0.00     0.002 A 
ATOM     17  C   UNL d   1      -3.621  -0.658   1.115  0.00  0.00     0.014 A 
BRANCH  14  18
ATOM     18  C   UNL d   1      -5.722   1.198  -2.188  0.00  0.00     0.117 C 
BRANCH  18  19
ATOM     19  S   UNL d   1      -7.240   2.072  -1.630  0.00  0.00    -0.125 SA
BRANCH  19  20
ATOM     20  C   UNL d   1      -7.881   2.828  -3.112  0.00  0.00     0.000 A 
ATOM     21  C   UNL d   1      -9.275   2.883  -3.259  0.00  0.00     0.018 A 
ATOM     22  C   UNL d   1      -9.857   3.586  -4.317  0.00  0.00     0.001 A 
ATOM     23  C   UNL d   1      -9.049   4.244  -5.239  0.00  0.00     0.000 A 
ATOM     24  C   UNL d   1      -7.662   4.186  -5.110  0.00  0.00     0.001 A 
ATOM     25  C   UNL d   1      -7.080   3.482  -4.050  0.00  0.00     0.018 A 
ENDBRANCH  19  20
ENDBRANCH  18  19
ENDBRANCH  14  18
ENDBRANCH   2  12
BRANCH   3  26
ATOM     26  S   UNL d   1       2.048  -1.723   1.462  0.00  0.00    -0.115 SA
ATOM     27  C   UNL d   1       3.554  -0.726   1.284  0.00  0.00     0.097 C 
ENDBRANCH   3  26
TORSDOF 5
