REMARK  3 active torsions:
REMARK  status: ('A' for Active; 'I' for Inactive)
REMARK    1  A    between atoms: C_12  and  N_2 
REMARK    2  A    between atoms: N_13  and  C_7 
REMARK    3  A    between atoms: C_14  and  N_8 
ROOT
ATOM      1  C   UNL d   1      -0.703   1.101   0.011  0.00  0.00     0.706 A 
ATOM      2  N   UNL d   1       0.722   1.097   0.069  0.00  0.00     0.022 N 
ATOM      3  C   UNL d   1       1.440  -0.103   0.163  0.00  0.00     0.700 A 
ATOM      4  N   UNL d   1      -1.403  -0.097  -0.082  0.00  0.00    -0.164 N 
ATOM      5  HN  UNL d   1      -2.419  -0.119  -0.163  1.00  0.00     0.187 HD
ATOM      6  N   UNL d   1       0.642  -1.200   0.027  0.00  0.00    -0.165 N 
ATOM      7  C   UNL d   1      -0.701  -1.179  -0.061  0.00  0.00     0.184 A 
ATOM      8  N   UNL d   1      -1.412   2.200   0.042  0.00  0.00    -0.191 N 
ATOM      9  HN  UNL d   1      -0.906   3.085   0.077  1.00  0.00     0.184 HD
ATOM     10  N   UNL d   1       2.694  -0.326   0.418  0.00  0.00    -0.233 N 
ATOM     11  HN  UNL d   1       3.132  -1.246   0.449  1.00  0.00     0.174 HD
ATOM     12  H   UNL d   1       1.106  -2.075   0.216  0.00  0.00     0.187 HD
ATOM     13  H   UNL d   1       3.179   0.564   0.583  0.00  0.00     0.174 HD
ENDROOT
BRANCH   2  14
ATOM     14  C   UNL d   1       1.450   2.341   0.018  0.00  0.00     0.075 A 
ATOM     15  C   UNL d   1       1.072   3.456   0.785  0.00  0.00     0.031 A 
ATOM     16  C   UNL d   1       1.808   4.645   0.755  0.00  0.00     0.002 A 
ATOM     17  C   UNL d   1       2.955   4.739  -0.026  0.00  0.00     0.000 A 
ATOM     18  C   UNL d   1       3.351   3.655  -0.801  0.00  0.00     0.002 A 
ATOM     19  C   UNL d   1       2.597   2.476  -0.792  0.00  0.00     0.031 A 
ENDBRANCH   2  14
BRANCH   8  20
ATOM     20  C   UNL d   1      -2.817   2.258   0.032  0.00  0.00     0.049 A 
ATOM     21  C   UNL d   1      -3.657   1.405   0.761  0.00  0.00     0.030 A 
ATOM     22  C   UNL d   1      -5.047   1.559   0.734  0.00  0.00     0.002 A 
ATOM     23  C   UNL d   1      -5.617   2.605   0.016  0.00  0.00     0.000 A 
ATOM     24  C   UNL d   1      -4.798   3.496  -0.672  0.00  0.00     0.002 A 
ATOM     25  C   UNL d   1      -3.410   3.319  -0.663  0.00  0.00     0.030 A 
ENDBRANCH   8  20
BRANCH   7  26
ATOM     26  N   UNL d   1      -1.295  -2.398  -0.090  0.00  0.00    -0.273 NA
ATOM     27  H   UNL d   1      -0.873  -3.067  -0.722  0.00  0.00     0.127 HD
ATOM     28  H   UNL d   1      -2.291  -2.309  -0.271  0.00  0.00     0.127 HD
ENDBRANCH   7  26
TORSDOF 3
