REMARK  4 active torsions:
REMARK  status: ('A' for Active; 'I' for Inactive)
REMARK    1  A    between atoms: C_7  and  C_1 
REMARK    2  A    between atoms: C_13  and  N_4 
REMARK    3  A    between atoms: C_8  and  C_7 
REMARK    4  A    between atoms: C_14  and  C_13 
ROOT
ATOM      1  N   UNL d   1       3.312  -0.626   2.689  0.00  0.00    -0.197 NA
ATOM      2  C   UNL d   1       2.849   0.291   2.150  0.00  0.00     0.060 C 
ATOM      3  C   UNL d   1       2.313   1.485   1.464  0.00  0.00     0.145 C 
ENDROOT
BRANCH   3   4
ATOM      4  C   UNL d   1       2.074   1.243  -0.024  0.00  0.00     0.163 C 
BRANCH   4   5
ATOM      5  N   UNL d   1       1.012   0.279  -0.269  0.00  0.00    -0.295 N 
ATOM      6  C   UNL d   1       1.106  -1.084  -0.403  0.00  0.00     0.033 C 
ATOM      7  C   UNL d   1      -0.188  -1.581  -0.218  0.00  0.00    -0.006 C 
ATOM      8  C   UNL d   1       2.411  -1.773  -0.578  0.00  0.00     0.070 C 
ATOM      9  C   UNL d   1      -0.987  -0.391  -0.147  0.00  0.00     0.030 C 
ATOM     10  N   UNL d   1      -0.246   0.718  -0.211  0.00  0.00    -0.302 N 
ATOM     11  C   UNL d   1      -2.448  -0.225   0.051  0.00  0.00     0.070 C 
ATOM     12  HN  UNL d   1      -0.570   1.686  -0.214  1.00  0.00     0.186 HD
BRANCH   7  13
ATOM     13  C   UNL d   1      -0.604  -3.005   0.082  0.00  0.00     0.084 C 
BRANCH  13  14
ATOM     14  C   UNL d   1      -1.085  -3.742  -1.155  0.00  0.00    -0.010 A 
ATOM     15  C   UNL d   1      -0.216  -4.526  -1.947  0.00  0.00     0.042 A 
ATOM     16 CL   UNL d   1       1.413  -4.884  -1.488  0.00  0.00    -0.084 Cl
ATOM     17  C   UNL d   1      -0.665  -5.212  -3.089  0.00  0.00     0.024 A 
ATOM     18  C   UNL d   1      -2.005  -5.196  -3.442  0.00  0.00     0.003 A 
ATOM     19  C   UNL d   1      -2.901  -4.515  -2.632  0.00  0.00     0.024 A 
ATOM     20  C   UNL d   1      -2.454  -3.813  -1.500  0.00  0.00     0.042 A 
ATOM     21 CL   UNL d   1      -3.714  -3.207  -0.480  0.00  0.00    -0.084 Cl
ENDBRANCH  13  14
ENDBRANCH   7  13
ENDBRANCH   4   5
ENDBRANCH   3   4
TORSDOF 4
