REMARK  4 active torsions:
REMARK  status: ('A' for Active; 'I' for Inactive)
REMARK       I    between atoms: N_2  and  C_1 
REMARK       I    between atoms: N_5  and  C_1 
REMARK    1  A    between atoms: C_4  and  N_2 
REMARK    2  A    between atoms: C_6  and  N_5 
REMARK    3  A    between atoms: C_11  and  C_6 
REMARK    4  A    between atoms: C_7  and  C_11 
ROOT
ATOM      1  C   UNL d   1       1.127   0.092   0.025  0.00  0.00     0.316 C 
ATOM      2  N   UNL d   1       0.510   1.065   0.753  0.00  0.00    -0.335 N 
ATOM      3  O   UNL d   1       0.547  -0.746  -0.659  0.00  0.00    -0.247 OA
ATOM      4  N   UNL d   1       2.488   0.080   0.089  0.00  0.00    -0.343 N 
ATOM      5  H   UNL d   1       1.080   1.471   1.472  0.00  0.00     0.165 HD
ATOM      6  H   UNL d   1       2.892  -0.675  -0.453  0.00  0.00     0.164 HD
ENDROOT
BRANCH   4   7
ATOM      7  C   UNL d   1       3.368   0.939   0.871  0.00  0.00     0.129 C 
BRANCH   7   8
ATOM      8  C   UNL d   1       4.853   0.644   0.647  0.00  0.00     0.058 C 
BRANCH   8   9
ATOM      9  C   UNL d   1       5.726   1.528   1.504  0.00  0.00    -0.057 A 
ATOM     10  C   UNL d   1       6.016   1.175   2.828  0.00  0.00     0.007 A 
ATOM     11  C   UNL d   1       6.794   2.004   3.634  0.00  0.00     0.001 A 
ATOM     12  C   UNL d   1       7.291   3.207   3.123  0.00  0.00     0.000 A 
ATOM     13  C   UNL d   1       7.007   3.568   1.809  0.00  0.00     0.001 A 
ATOM     14  C   UNL d   1       6.229   2.741   1.002  0.00  0.00     0.007 A 
ENDBRANCH   8   9
ENDBRANCH   7   8
ENDBRANCH   4   7
BRANCH   2  15
ATOM     15  C   UNL d   1      -0.948   1.175   0.952  0.00  0.00     0.023 C 
ATOM     16  C   UNL d   1      -1.507  -0.100   1.613  0.00  0.00     0.037 C 
ATOM     17  C   UNL d   1      -1.206   2.393   1.868  0.00  0.00     0.037 C 
ATOM     18  C   UNL d   1      -1.678   1.425  -0.380  0.00  0.00     0.037 C 
ENDBRANCH   2  15
TORSDOF 4
