REMARK  10 active torsions:
REMARK  status: ('A' for Active; 'I' for Inactive)
REMARK    1  A    between atoms: N_10  and  C_1 
REMARK    2  A    between atoms: S_5  and  C_2 
REMARK    3  A    between atoms: C_13  and  C_3 
REMARK    4  A    between atoms: S_4  and  N_11 
REMARK    5  A    between atoms: C_12  and  S_4 
REMARK    6  A    between atoms: C_22  and  S_5 
REMARK    7  A    between atoms: C_9  and  C_7 
REMARK    8  A    between atoms: N_11  and  N_10 
REMARK    9  A    between atoms: O_23  and  C_13 
REMARK   10  A    between atoms: C_27  and  C_22 
ROOT
ATOM      1  N   UNL d   1       2.446   1.607  -0.523  0.00  0.00    -0.288 N 
ATOM      2  H   UNL d   1       3.399   1.214  -0.426  0.00  0.00     0.188 HD
ENDROOT
BRANCH   1   3
ATOM      3  C   UNL d   1       1.341   0.825  -0.331  0.00  0.00     0.093 A 
ATOM      4  C   UNL d   1       1.405  -0.617  -0.259  0.00  0.00     0.095 A 
ATOM      5  C   UNL d   1       0.171  -1.198  -0.063  0.00  0.00     0.076 A 
ATOM      6  S   UNL d   1      -1.066  -0.046   0.047  0.00  0.00    -0.092 SA
ATOM      7  C   UNL d   1       0.035   1.274  -0.123  0.00  0.00     0.109 A 
BRANCH   4   8
ATOM      8  S   UNL d   1       2.832  -1.606  -0.408  0.00  0.00     0.178 S 
ATOM      9  O   UNL d   1       3.934  -0.686  -0.198  0.00  0.00    -0.223 OA
ATOM     10  O   UNL d   1       2.573  -2.730   0.466  0.00  0.00    -0.223 OA
BRANCH   8  11
ATOM     11  C   UNL d   1       2.809  -2.143  -2.107  0.00  0.00     0.145 C 
BRANCH  11  12
ATOM     12  C   UNL d   1       3.723  -3.333  -2.386  0.00  0.00     0.011 C 
ATOM     13  C   UNL d   1       5.197  -3.060  -2.133  0.00  0.00     0.006 C 
ENDBRANCH  11  12
ENDBRANCH   8  11
ENDBRANCH   4   8
BRANCH   7  14
ATOM     14  C   UNL d   1      -0.504   2.627  -0.056  0.00  0.00     0.302 C 
ATOM     15  O   UNL d   1      -0.045   3.616  -0.622  0.00  0.00    -0.259 OA
BRANCH  14  16
ATOM     16  O   UNL d   1      -1.599   2.677   0.763  0.00  0.00    -0.322 OA
ATOM     17  C   UNL d   1      -2.176   3.974   0.914  0.00  0.00     0.213 C 
ENDBRANCH  14  16
ENDBRANCH   7  14
ENDBRANCH   1   3
BRANCH   1  18
ATOM     18  N   UNL d   1       2.407   3.043  -0.816  0.00  0.00    -0.222 N 
ATOM     19  H   UNL d   1       1.510   3.521  -0.977  0.00  0.00     0.200 HD
BRANCH  18  20
ATOM     20  S   UNL d   1       3.793   3.978  -1.056  0.00  0.00     0.277 S 
ATOM     21  O   UNL d   1       4.736   3.785   0.021  0.00  0.00    -0.199 OA
ATOM     22  O   UNL d   1       4.191   3.773  -2.434  0.00  0.00    -0.199 OA
BRANCH  20  23
ATOM     23  C   UNL d   1       3.151   5.647  -0.918  0.00  0.00     0.096 A 
ATOM     24  C   UNL d   1       2.570   6.147   0.264  0.00  0.00     0.071 A 
ATOM     25  C   UNL d   1       2.108   7.486   0.258  0.00  0.00     0.018 A 
ATOM     26  C   UNL d   1       2.226   8.300  -0.868  0.00  0.00     0.001 A 
ATOM     27  C   UNL d   1       2.810   7.795  -2.022  0.00  0.00     0.002 A 
ATOM     28  C   UNL d   1       3.269   6.477  -2.050  0.00  0.00     0.026 A 
BRANCH  24  29
ATOM     29  C   UNL d   1       2.375   5.392   1.559  0.00  0.00     0.419 C 
ATOM     30  F   UNL d   1       2.822   4.120   1.613  0.00  0.00    -0.166 F 
ATOM     31  F   UNL d   1       2.960   6.038   2.609  0.00  0.00    -0.166 F 
ATOM     32  F   UNL d   1       1.049   5.316   1.883  0.00  0.00    -0.166 F 
ENDBRANCH  24  29
ENDBRANCH  20  23
ENDBRANCH  18  20
ENDBRANCH   1  18
TORSDOF 10
