REMARK  7 active torsions:
REMARK  status: ('A' for Active; 'I' for Inactive)
REMARK    1  A    between atoms: N_4  and  C_1 
REMARK       I    between atoms: C_8  and  N_4 
REMARK    2  A    between atoms: C_7  and  C_5 
REMARK    3  A    between atoms: C_10  and  C_7 
REMARK    4  A    between atoms: C_14  and  C_8 
REMARK    5  A    between atoms: O_15  and  C_10 
REMARK    6  A    between atoms: S_13  and  C_14 
REMARK    7  A    between atoms: C_16  and  S_13 
ROOT
ATOM      1  N   UNL d   1       0.203  -2.630   0.082  0.00  0.00    -0.306 N 
ATOM      2  C   UNL d   1       1.247  -3.523  -0.013  0.00  0.00     0.233 C 
ATOM      3  O   UNL d   1       2.445  -3.247   0.080  0.00  0.00    -0.272 OA
ATOM      4  H   UNL d   1      -0.753  -2.961   0.078  0.00  0.00     0.171 HD
ENDROOT
BRANCH   1   5
ATOM      5  C   UNL d   1       0.400  -1.281   0.095  0.00  0.00     0.151 A 
ATOM      6  N   UNL d   1       1.516  -0.620  -0.076  0.00  0.00    -0.339 N 
ATOM      7  C   UNL d   1       1.287   0.746   0.011  0.00  0.00     0.027 A 
ATOM      8  HN  UNL d   1       2.425  -1.048  -0.248  1.00  0.00     0.168 HD
ATOM      9  C   UNL d   1      -0.025   1.077   0.307  0.00  0.00     0.078 A 
ATOM     10  S   UNL d   1      -0.996  -0.343   0.360  0.00  0.00    -0.064 SA
BRANCH   7  11
ATOM     11  C   UNL d   1       2.487   1.618  -0.153  0.00  0.00     0.167 C 
BRANCH  11  12
ATOM     12  C   UNL d   1       2.240   3.022  -0.646  0.00  0.00     0.145 C 
ATOM     13  O   UNL d   1       1.155   3.547  -0.844  0.00  0.00    -0.650 OA
BRANCH  12  14
ATOM     14  O   UNL d   1       3.397   3.707  -0.838  0.00  0.00    -0.776 OA
ATOM     15  H   UNL d   1       4.206   3.188  -0.657  0.00  0.00     0.167 HD
ENDBRANCH  12  14
ENDBRANCH  11  12
ENDBRANCH   7  11
ENDBRANCH   1   5
BRANCH   2  16
ATOM     16  C   UNL d   1       0.826  -4.984  -0.132  0.00  0.00     0.182 C 
BRANCH  16  17
ATOM     17  S   UNL d   1      -0.658  -5.165  -1.180  0.00  0.00    -0.121 SA
BRANCH  17  18
ATOM     18  C   UNL d   1      -0.945  -6.926  -1.176  0.00  0.00     0.001 A 
ATOM     19  C   UNL d   1      -2.279  -7.348  -1.245  0.00  0.00     0.018 A 
ATOM     20  C   UNL d   1      -2.599  -8.703  -1.347  0.00  0.00     0.001 A 
ATOM     21  C   UNL d   1      -1.584  -9.654  -1.384  0.00  0.00     0.000 A 
ATOM     22  C   UNL d   1      -0.252  -9.249  -1.309  0.00  0.00     0.001 A 
ATOM     23  C   UNL d   1       0.068  -7.890  -1.206  0.00  0.00     0.018 A 
ENDBRANCH  17  18
ENDBRANCH  16  17
ENDBRANCH   2  16
TORSDOF 7
