REMARK  6 active torsions:
REMARK  status: ('A' for Active; 'I' for Inactive)
REMARK       I    between atoms: N_2  and  C_1 
REMARK    1  A    between atoms: C_13  and  C_1 
REMARK    2  A    between atoms: C_4  and  N_2 
REMARK    3  A    between atoms: C_6  and  C_4 
REMARK    4  A    between atoms: O_12  and  C_14 
REMARK    5  A    between atoms: C_15  and  C_13 
REMARK    6  A    between atoms: C_14  and  C_15 
ROOT
ATOM      1  C   UNL d   1       1.100  -0.138  -0.113  0.00  0.00     0.217 C 
ATOM      2  N   UNL d   1       0.281  -0.759  -1.030  0.00  0.00    -0.357 N 
ATOM      3  O   UNL d   1       2.306  -0.334  -0.045  0.00  0.00    -0.274 OA
ATOM      4  H   UNL d   1      -0.713  -0.577  -1.017  0.00  0.00     0.162 HD
ENDROOT
BRANCH   2   5
ATOM      5  C   UNL d   1       0.788  -1.699  -2.007  0.00  0.00     0.161 C 
BRANCH   5   6
ATOM      6  C   UNL d   1       0.384  -1.298  -3.403  0.00  0.00    -0.040 A 
ATOM      7  C   UNL d   1       0.881  -0.108  -3.965  0.00  0.00     0.012 A 
ATOM      8  C   UNL d   1       0.512   0.275  -5.255  0.00  0.00     0.043 A 
ATOM      9  C   UNL d   1      -0.349  -0.530  -5.987  0.00  0.00     0.116 A 
ATOM     10  C   UNL d   1      -0.846  -1.716  -5.457  0.00  0.00     0.043 A 
ATOM     11  F   UNL d   1      -0.708  -0.162  -7.224  0.00  0.00    -0.206 F 
ATOM     12  C   UNL d   1      -0.480  -2.101  -4.165  0.00  0.00     0.012 A 
ENDBRANCH   5   6
ENDBRANCH   2   5
BRANCH   1  13
ATOM     13  C   UNL d   1       0.346   0.801   0.813  0.00  0.00     0.105 C 
BRANCH  13  14
ATOM     14  C   UNL d   1       1.242   1.490   1.845  0.00  0.00     0.035 C 
BRANCH  14  15
ATOM     15  C   UNL d   1       2.223   2.493   1.250  0.00  0.00     0.164 C 
BRANCH  15  16
ATOM     16  O   UNL d   1       1.514   3.507   0.547  0.00  0.00    -0.401 OA
ATOM     17  H   UNL d   1       2.185   4.115   0.188  0.00  0.00     0.209 HD
ENDBRANCH  15  16
ENDBRANCH  14  15
ENDBRANCH  13  14
ENDBRANCH   1  13
TORSDOF 6
