REMARK  2 active torsions:
REMARK  status: ('A' for Active; 'I' for Inactive)
REMARK    1  A    between atoms: C_2  and  C_1 
REMARK       I    between atoms: N_3  and  C_1 
REMARK    2  A    between atoms: C_9  and  N_3 
ROOT
ATOM      1  C   UNL d   1       0.926   0.065  -0.178  0.00  0.00     0.274 C 
ATOM      2  N   UNL d   1       0.194  -1.109  -0.134  0.00  0.00    -0.322 N 
ATOM      3  O   UNL d   1       0.481   1.202  -0.272  0.00  0.00    -0.266 OA
ATOM      4  H   UNL d   1       0.734  -1.946   0.064  0.00  0.00     0.169 HD
ENDROOT
BRANCH   1   5
ATOM      5  C   UNL d   1       2.399  -0.125  -0.104  0.00  0.00     0.116 A 
ATOM      6  N   UNL d   1       2.873  -1.405  -0.084  0.00  0.00    -0.359 N 
ATOM      7  C   UNL d   1       4.226  -1.503  -0.096  0.00  0.00     0.105 A 
ATOM      8  HN  UNL d   1       2.261  -2.221  -0.061  1.00  0.00     0.165 HD
ATOM      9  C   UNL d   1       5.062  -0.394  -0.114  0.00  0.00     0.104 A 
ATOM     10  N   UNL d   1       4.588   0.872  -0.114  0.00  0.00    -0.372 N 
ATOM     11  C   UNL d   1       3.235   0.983  -0.112  0.00  0.00     0.122 A 
ATOM     12  HN  UNL d   1       5.203   1.685  -0.116  1.00  0.00     0.164 HD
ENDBRANCH   1   5
BRANCH   2  13
ATOM     13  C   UNL d   1      -1.192  -1.247  -0.356  0.00  0.00     0.035 A 
ATOM     14  C   UNL d   1      -1.991  -0.217  -0.859  0.00  0.00     0.031 A 
ATOM     15  C   UNL d   1      -3.353  -0.423  -1.105  0.00  0.00     0.026 A 
ATOM     16  C   UNL d   1      -3.924  -1.663  -0.838  0.00  0.00     0.034 A 
ATOM     17  C   UNL d   1      -3.143  -2.698  -0.328  0.00  0.00     0.026 A 
ATOM     18 CL   UNL d   1      -5.596  -1.919  -1.147  0.00  0.00    -0.084 Cl
ATOM     19  C   UNL d   1      -1.777  -2.491  -0.098  0.00  0.00     0.031 A 
ENDBRANCH   2  13
TORSDOF 2
