REMARK  5 active torsions:
REMARK  status: ('A' for Active; 'I' for Inactive)
REMARK    1  A    between atoms: C_2  and  C_1 
REMARK    2  A    between atoms: O_8  and  C_2 
REMARK    3  A    between atoms: C_7  and  C_3 
REMARK    4  A    between atoms: C_15  and  O_8 
REMARK    5  A    between atoms: O_14  and  C_9 
ROOT
ATOM      1  C   UNL d   1       1.018   0.101  -0.064  0.00  0.00     0.120 C 
ATOM      2  C   UNL d   1       0.361  -0.942   0.479  0.00  0.00     0.040 C 
ATOM      3  C   UNL d   1       0.357   1.186  -0.709  0.00  0.00     0.105 C 
ATOM      4  N   UNL d   1      -0.194   2.068  -1.221  0.00  0.00    -0.191 NA
ENDROOT
BRANCH   1   5
ATOM      5  C   UNL d   1       2.492   0.117   0.100  0.00  0.00     0.303 C 
ATOM      6  O   UNL d   1       3.126  -0.740   0.700  0.00  0.00    -0.258 OA
BRANCH   5   7
ATOM      7  O   UNL d   1       3.014   1.250  -0.433  0.00  0.00    -0.317 OA
BRANCH   7   8
ATOM      8  C   UNL d   1       4.351   1.571  -0.025  0.00  0.00     0.174 C 
ATOM      9  C   UNL d   1       4.269   2.386   1.253  0.00  0.00     0.034 C 
ENDBRANCH   7   8
ENDBRANCH   5   7
ENDBRANCH   1   5
BRANCH   2  10
ATOM     10  C   UNL d   1      -1.094  -1.076   0.457  0.00  0.00    -0.034 A 
ATOM     11  C   UNL d   1      -1.720  -1.704  -0.622  0.00  0.00     0.014 A 
ATOM     12  C   UNL d   1      -3.115  -1.768  -0.686  0.00  0.00     0.037 A 
ATOM     13  C   UNL d   1      -3.888  -1.202   0.329  0.00  0.00     0.068 A 
ATOM     14  C   UNL d   1      -3.259  -0.608   1.425  0.00  0.00     0.037 A 
ATOM     15  C   UNL d   1      -1.866  -0.535   1.489  0.00  0.00     0.014 A 
BRANCH  13  16
ATOM     16  O   UNL d   1      -5.254  -1.208   0.371  0.00  0.00    -0.356 OA
ATOM     17  C   UNL d   1      -5.902  -1.192  -0.897  0.00  0.00     0.210 C 
ENDBRANCH  13  16
ENDBRANCH   2  10
TORSDOF 5
