REMARK  5 active torsions:
REMARK  status: ('A' for Active; 'I' for Inactive)
REMARK    1  A    between atoms: N_6  and  C_2 
REMARK    2  A    between atoms: C_10  and  C_3 
REMARK       I    between atoms: C_9  and  N_6 
REMARK    3  A    between atoms: C_11  and  C_9 
REMARK    4  A    between atoms: C_13  and  C_12 
REMARK    5  A    between atoms: C_27  and  C_23 
ROOT
ATOM      1  N   UNL d   1       0.280   2.583  -0.288  0.00  0.00    -0.302 N 
ATOM      2  C   UNL d   1       1.503   3.161  -0.016  0.00  0.00     0.257 C 
ATOM      3  O   UNL d   1       1.707   4.305   0.379  0.00  0.00    -0.267 OA
ATOM      4  H   UNL d   1       0.211   1.585  -0.406  0.00  0.00     0.171 HD
ENDROOT
BRANCH   2   5
ATOM      5  C   UNL d   1       2.675   2.254  -0.139  0.00  0.00     0.032 A 
ATOM      6  C   UNL d   1       2.730   1.233  -1.086  0.00  0.00     0.018 A 
ATOM      7  C   UNL d   1       3.837   0.374  -1.123  0.00  0.00     0.013 A 
ATOM      8  C   UNL d   1       4.923   0.520  -0.236  0.00  0.00    -0.026 A 
ATOM      9  C   UNL d   1       4.866   1.596   0.667  0.00  0.00     0.013 A 
ATOM     10  C   UNL d   1       3.758   2.449   0.723  0.00  0.00     0.018 A 
BRANCH   8  11
ATOM     11  C   UNL d   1       6.065  -0.430  -0.237  0.00  0.00    -0.026 A 
ATOM     12  C   UNL d   1       6.767  -0.734   0.945  0.00  0.00     0.013 A 
ATOM     13  C   UNL d   1       7.829  -1.648   0.960  0.00  0.00     0.008 A 
ATOM     14  C   UNL d   1       8.211  -2.308  -0.209  0.00  0.00    -0.059 A 
ATOM     15  C   UNL d   1       7.534  -2.013  -1.395  0.00  0.00     0.008 A 
ATOM     16  C   UNL d   1       6.484  -1.087  -1.407  0.00  0.00     0.013 A 
BRANCH  14  17
ATOM     17  C   UNL d   1       9.326  -3.321  -0.198  0.00  0.00     0.034 C 
ATOM     18  C   UNL d   1      10.684  -2.705  -0.493  0.00  0.00     0.010 C 
ENDBRANCH  14  17
ENDBRANCH   8  11
ENDBRANCH   2   5
BRANCH   1  19
ATOM     19  C   UNL d   1      -0.940   3.199  -0.134  0.00  0.00     0.168 C 
ATOM     20  S   UNL d   1      -1.116   4.880   0.054  0.00  0.00    -0.037 SA
ATOM     21  C   UNL d   1      -2.786   4.606   0.378  0.00  0.00     0.077 C 
ATOM     22  N   UNL d   1      -3.147   3.351   0.181  0.00  0.00    -0.295 N 
ATOM     23  N   UNL d   1      -2.075   2.537  -0.134  0.00  0.00    -0.279 N 
ATOM     24  HN  UNL d   1      -4.109   3.019   0.253  1.00  0.00     0.187 HD
ATOM     25  HN  UNL d   1      -2.155   1.542  -0.341  1.00  0.00     0.189 HD
BRANCH  21  26
ATOM     26  C   UNL d   1      -3.702   5.716   0.873  0.00  0.00    -0.001 C 
ATOM     27  C   UNL d   1      -3.866   6.810  -0.195  0.00  0.00     0.021 C 
ATOM     28  C   UNL d   1      -5.094   5.137   1.199  0.00  0.00     0.021 C 
ATOM     29  C   UNL d   1      -3.145   6.341   2.169  0.00  0.00     0.021 C 
ENDBRANCH  21  26
ENDBRANCH   1  19
TORSDOF 5
