REMARK  3 active torsions:
REMARK  status: ('A' for Active; 'I' for Inactive)
REMARK    1  A    between atoms: C_9  and  C_1 
REMARK    2  A    between atoms: O_13  and  C_11 
REMARK    3  A    between atoms: C_16  and  O_13 
ROOT
ATOM      1  C   UNL d   1      -0.474  -1.780  -0.011  0.00  0.00    -0.007 A 
ATOM      2  C   UNL d   1       0.317   0.561  -0.007  0.00  0.00     0.093 A 
ATOM      3  C   UNL d   1       0.620  -0.797   0.010  0.00  0.00     0.009 A 
ATOM      4  O   UNL d   1      -1.017   1.010  -0.017  0.00  0.00    -0.275 OA
ATOM      5  C   UNL d   1      -2.069   0.114   0.005  0.00  0.00     0.289 A 
ATOM      6  C   UNL d   1      -1.734  -1.319  -0.008  0.00  0.00     0.095 A 
ATOM      7  C   UNL d   1       1.307   1.547  -0.011  0.00  0.00     0.075 A 
ATOM      8  C   UNL d   1       1.970  -1.164   0.040  0.00  0.00     0.018 A 
ATOM      9  O   UNL d   1      -3.239   0.482   0.025  0.00  0.00    -0.260 OA
ATOM     10  C   UNL d   1       2.647   1.172   0.017  0.00  0.00     0.071 A 
ATOM     11  C   UNL d   1       2.973  -0.186   0.049  0.00  0.00     0.038 A 
ENDROOT
BRANCH   1  12
ATOM     12  C   UNL d   1      -0.284  -3.243  -0.058  0.00  0.00    -0.025 A 
ATOM     13  C   UNL d   1      -0.188  -3.898  -1.292  0.00  0.00     0.012 A 
ATOM     14  C   UNL d   1       0.119  -5.258  -1.344  0.00  0.00     0.001 A 
ATOM     15  C   UNL d   1       0.331  -5.971  -0.164  0.00  0.00     0.000 A 
ATOM     16  C   UNL d   1       0.210  -5.331   1.069  0.00  0.00     0.001 A 
ATOM     17  C   UNL d   1      -0.105  -3.972   1.125  0.00  0.00     0.012 A 
ENDBRANCH   1  12
BRANCH  10  18
ATOM     18  O   UNL d   1       3.719   2.023   0.017  0.00  0.00    -0.351 OA
BRANCH  18  19
ATOM     19  C   UNL d   1       3.423   3.419  -0.024  0.00  0.00     0.171 C 
ATOM     20  C   UNL d   1       4.732   4.186  -0.020  0.00  0.00     0.034 C 
ENDBRANCH  18  19
ENDBRANCH  10  18
TORSDOF 3
