REMARK  3 active torsions:
REMARK  status: ('A' for Active; 'I' for Inactive)
REMARK    1  A    between atoms: O_8  and  C_1 
REMARK    2  A    between atoms: N_2  and  C_7 
REMARK    3  A    between atoms: C_12  and  O_8 
ROOT
ATOM      1  C   UNL d   1      -1.407  -1.176  -0.013  0.00  0.00     0.177 A 
ATOM      2  N   UNL d   1      -2.277  -0.167   0.059  0.00  0.00    -0.278 N 
ATOM      3  HN  UNL d   1      -3.296  -0.211   0.090  1.00  0.00     0.189 HD
ATOM      4  C   UNL d   1      -0.056  -0.747  -0.015  0.00  0.00     0.045 A 
ATOM      5  N   UNL d   1      -1.489   0.919   0.080  0.00  0.00    -0.298 N 
ATOM      6  C   UNL d   1      -0.148   0.644   0.026  0.00  0.00     0.062 A 
ATOM      7  C   UNL d   1       1.224  -1.336  -0.051  0.00  0.00     0.018 A 
ATOM      8  C   UNL d   1       0.970   1.486   0.023  0.00  0.00     0.032 A 
ATOM      9  C   UNL d   1       2.355  -0.510  -0.070  0.00  0.00     0.001 A 
ATOM     10  C   UNL d   1       2.227   0.878  -0.033  0.00  0.00     0.002 A 
ATOM     11  H   UNL d   1      -1.930   1.831   0.133  0.00  0.00     0.187 HD
ENDROOT
BRANCH   1  12
ATOM     12  O   UNL d   1      -1.949  -2.411  -0.040  0.00  0.00    -0.275 OA
BRANCH  12  13
ATOM     13  C   UNL d   1      -1.384  -3.443  -0.746  0.00  0.00     0.149 A 
ATOM     14  N   UNL d   1      -1.563  -4.667  -0.192  0.00  0.00    -0.344 N 
ATOM     15  C   UNL d   1      -1.101  -5.742  -0.876  0.00  0.00     0.126 A 
ATOM     16  HN  UNL d   1      -2.030  -4.775   0.709  1.00  0.00     0.167 HD
ATOM     17  C   UNL d   1      -0.456  -5.639  -2.098  0.00  0.00     0.118 A 
ATOM     18  C   UNL d   1      -0.276  -4.375  -2.662  0.00  0.00     0.041 A 
ATOM     19  C   UNL d   1      -0.771  -3.262  -1.983  0.00  0.00     0.059 A 
BRANCH  17  20
ATOM     20  N   UNL d   1       0.008  -6.838  -2.781  0.00  0.00    -0.114 N 
ATOM     21  O   UNL d   1      -0.230  -7.932  -2.252  0.00  0.00    -0.532 OA
ATOM     22  O   UNL d   1       0.613  -6.689  -3.852  0.00  0.00    -0.532 OA
ENDBRANCH  17  20
ENDBRANCH  12  13
ENDBRANCH   1  12
TORSDOF 3
