REMARK  5 active torsions:
REMARK  status: ('A' for Active; 'I' for Inactive)
REMARK    1  A    between atoms: C_7  and  C_1 
REMARK    2  A    between atoms: C_8  and  C_6 
REMARK    3  A    between atoms: C_14  and  C_10 
REMARK    4  A    between atoms: C_11  and  C_14 
REMARK    5  A    between atoms: N_20  and  C_15 
ROOT
ATOM      1  C   UNL d   1       2.460   1.655  -0.218  0.00  0.00     0.034 A 
ATOM      2  S   UNL d   1       2.695   2.973   0.843  0.00  0.00    -0.084 SA
ATOM      3  C   UNL d   1       4.213   3.377   0.159  0.00  0.00     0.055 A 
ATOM      4  C   UNL d   1       3.477   1.568  -1.144  0.00  0.00     0.023 A 
ATOM      5  C   UNL d   1       4.479   2.562  -0.931  0.00  0.00     0.024 A 
ENDROOT
BRANCH   1   6
ATOM      6  C   UNL d   1       1.308   0.694  -0.136  0.00  0.00     0.067 A 
ATOM      7  C   UNL d   1       0.206   0.778   0.736  0.00  0.00     0.068 A 
ATOM      8  C   UNL d   1      -0.570  -0.341   0.480  0.00  0.00     0.136 A 
ATOM      9  N   UNL d   1       0.116  -1.042  -0.475  0.00  0.00    -0.292 N 
ATOM     10  N   UNL d   1       1.229  -0.402  -0.899  0.00  0.00    -0.297 N 
ATOM     11  C   UNL d   1      -0.132  -2.350  -1.038  0.00  0.00     0.178 C 
ATOM     12  HN  UNL d   1       1.868  -0.691  -1.640  1.00  0.00     0.187 HD
BRANCH   8  13
ATOM     13  C   UNL d   1      -1.849  -0.731   1.106  0.00  0.00     0.434 C 
ATOM     14  F   UNL d   1      -2.409  -1.852   0.596  0.00  0.00    -0.165 F 
ATOM     15  F   UNL d   1      -1.696  -0.944   2.438  0.00  0.00    -0.165 F 
ATOM     16  F   UNL d   1      -2.775   0.253   0.974  0.00  0.00    -0.165 F 
ENDBRANCH   8  13
ENDBRANCH   1   6
BRANCH   3  17
ATOM     17  C   UNL d   1       5.095   4.425   0.681  0.00  0.00     0.190 C 
ATOM     18  O   UNL d   1       6.208   4.624   0.183  0.00  0.00    -0.287 OA
BRANCH  17  19
ATOM     19  C   UNL d   1       4.663   5.270   1.843  0.00  0.00     0.073 C 
ATOM     20  C   UNL d   1       5.484   6.185   2.380  0.00  0.00     0.088 C 
BRANCH  20  21
ATOM     21  N   UNL d   1       5.278   7.054   3.447  0.00  0.00    -0.398 N 
ATOM     22  C   UNL d   1       4.051   7.130   4.237  0.00  0.00     0.148 C 
ATOM     23  C   UNL d   1       6.326   7.974   3.901  0.00  0.00     0.148 C 
ENDBRANCH  20  21
ENDBRANCH  17  19
ENDBRANCH   3  17
TORSDOF 5
