REMARK  6 active torsions:
REMARK  status: ('A' for Active; 'I' for Inactive)
REMARK    1  A    between atoms: N_9  and  C_1 
REMARK    2  A    between atoms: C_15  and  N_2 
REMARK    3  A    between atoms: C_3  and  C_15 
REMARK    4  A    between atoms: S_17  and  C_10 
REMARK    5  A    between atoms: C_16  and  C_18 
REMARK    6  A    between atoms: C_18  and  S_17 
ROOT
ATOM      1  C   UNL d   1       3.466   0.763  -0.142  0.00  0.00     0.120 A 
ATOM      2  N   UNL d   1       3.753   0.030  -1.276  0.00  0.00    -0.318 N 
ATOM      3  C   UNL d   1       4.955  -0.579  -1.025  0.00  0.00     0.162 A 
ATOM      4  N   UNL d   1       4.496   0.679   0.680  0.00  0.00    -0.285 N 
ATOM      5  HN  UNL d   1       4.583   1.158   1.576  1.00  0.00     0.188 HD
ATOM      6  N   UNL d   1       5.426  -0.158   0.128  0.00  0.00    -0.278 N 
ATOM      7  HN  UNL d   1       6.325  -0.411   0.537  1.00  0.00     0.189 HD
ATOM      8  C   UNL d   1       2.946  -0.109  -2.461  0.00  0.00     0.160 C 
ENDROOT
BRANCH   1   9
ATOM      9  C   UNL d   1       2.167   1.408   0.183  0.00  0.00     0.227 C 
BRANCH   9  10
ATOM     10  N   UNL d   1       2.264   2.865   0.255  0.00  0.00    -0.287 N 
ATOM     11  C   UNL d   1       2.448   3.646   1.377  0.00  0.00     0.060 A 
ATOM     12  C   UNL d   1       2.144   4.942   0.979  0.00  0.00     0.150 A 
ATOM     13  C   UNL d   1       2.863   3.106   2.701  0.00  0.00     0.072 C 
ATOM     14  C   UNL d   1       1.871   4.852  -0.411  0.00  0.00     0.057 A 
ATOM     15  N   UNL d   1       1.939   3.584  -0.844  0.00  0.00    -0.300 N 
ATOM     16  C   UNL d   1       1.522   5.938  -1.364  0.00  0.00     0.072 C 
ATOM     17  HN  UNL d   1       1.780   3.239  -1.791  1.00  0.00     0.187 HD
BRANCH  12  18
ATOM     18  N   UNL d   1       2.098   6.121   1.808  0.00  0.00    -0.112 N 
ATOM     19  O   UNL d   1       2.263   5.972   3.026  0.00  0.00    -0.532 OA
ATOM     20  O   UNL d   1       1.867   7.199   1.247  0.00  0.00    -0.532 OA
ENDBRANCH  12  18
ENDBRANCH   9  10
ENDBRANCH   1   9
BRANCH   3  21
ATOM     21  S   UNL d   1       5.682  -1.786  -2.035  0.00  0.00    -0.088 SA
BRANCH  21  22
ATOM     22  C   UNL d   1       7.156  -2.166  -1.032  0.00  0.00     0.124 C 
BRANCH  22  23
ATOM     23  C   UNL d   1       8.011  -3.286  -1.586  0.00  0.00    -0.005 A 
ATOM     24  C   UNL d   1       9.003  -3.037  -2.556  0.00  0.00     0.042 A 
ATOM     25 CL   UNL d   1       9.227  -1.473  -3.261  0.00  0.00    -0.084 Cl
ATOM     26  C   UNL d   1       9.869  -4.051  -2.989  0.00  0.00     0.024 A 
ATOM     27  C   UNL d   1       9.761  -5.337  -2.472  0.00  0.00     0.003 A 
ATOM     28  C   UNL d   1       8.765  -5.617  -1.542  0.00  0.00     0.024 A 
ATOM     29  C   UNL d   1       7.893  -4.607  -1.111  0.00  0.00     0.042 A 
ATOM     30 CL   UNL d   1       6.683  -5.072   0.036  0.00  0.00    -0.084 Cl
ENDBRANCH  22  23
ENDBRANCH  21  22
ENDBRANCH   3  21
TORSDOF 6
