REMARK  6 active torsions:
REMARK  status: ('A' for Active; 'I' for Inactive)
REMARK    1  A    between atoms: S_2  and  C_1 
REMARK    2  A    between atoms: N_7  and  S_2 
REMARK    3  A    between atoms: C_8  and  C_4 
REMARK    4  A    between atoms: C_13  and  N_7 
REMARK    5  A    between atoms: O_19  and  C_8 
REMARK    6  A    between atoms: C_11  and  C_13 
ROOT
ATOM      1  S   UNL d   1       0.485   2.845  -0.018  0.00  0.00     0.257 S 
ATOM      2  O   UNL d   1       1.446   2.883  -1.095  0.00  0.00    -0.204 OA
ATOM      3  O   UNL d   1      -0.711   3.657  -0.028  0.00  0.00    -0.204 OA
ENDROOT
BRANCH   1   4
ATOM      4  C   UNL d   1      -0.098   1.161   0.028  0.00  0.00     0.146 A 
ATOM      5  N   UNL d   1       0.720   0.039   0.035  0.00  0.00    -0.336 N 
ATOM      6  C   UNL d   1      -0.050  -1.123   0.031  0.00  0.00     0.111 A 
ATOM      7  C   UNL d   1       2.170   0.032   0.015  0.00  0.00     0.157 C 
ATOM      8  C   UNL d   1      -1.376  -0.713   0.027  0.00  0.00     0.039 A 
ATOM      9  C   UNL d   1      -1.404   0.693   0.030  0.00  0.00     0.046 A 
BRANCH   6  10
ATOM     10  C   UNL d   1       0.455  -2.486   0.023  0.00  0.00     0.309 C 
ATOM     11  O   UNL d   1       1.636  -2.817   0.031  0.00  0.00    -0.258 OA
BRANCH  10  12
ATOM     12  O   UNL d   1      -0.592  -3.359   0.011  0.00  0.00    -0.321 OA
ATOM     13  C   UNL d   1      -0.230  -4.739   0.012  0.00  0.00     0.213 C 
ENDBRANCH  10  12
ENDBRANCH   6  10
ENDBRANCH   1   4
BRANCH   1  14
ATOM     14  N   UNL d   1       1.312   3.134   1.415  0.00  0.00    -0.208 NA
ATOM     15  H   UNL d   1       2.050   3.824   1.259  0.00  0.00     0.140 HD
BRANCH  14  16
ATOM     16  C   UNL d   1       0.457   3.509   2.553  0.00  0.00     0.169 C 
BRANCH  16  17
ATOM     17  C   UNL d   1       1.309   3.741   3.751  0.00  0.00     0.066 A 
ATOM     18  O   UNL d   1       2.276   4.702   3.646  0.00  0.00    -0.326 OA
ATOM     19  C   UNL d   1       2.876   4.795   4.862  0.00  0.00     0.142 A 
ATOM     20  C   UNL d   1       2.311   3.908   5.747  0.00  0.00     0.027 A 
ATOM     21  C   UNL d   1       1.306   3.218   5.028  0.00  0.00     0.036 A 
ENDBRANCH  16  17
ENDBRANCH  14  16
ENDBRANCH   1  14
TORSDOF 6
