REMARK  2 active torsions:
REMARK  status: ('A' for Active; 'I' for Inactive)
REMARK    1  A    between atoms: C_3  and  C_1 
REMARK    2  A    between atoms: C_7  and  C_2 
REMARK       I    between atoms: N_4  and  C_3 
ROOT
ATOM      1  C   UNL d   1      -0.075  -1.686   1.355  0.00  0.00     0.087 C 
ATOM      2  C   UNL d   1       0.234  -0.275   1.208  0.00  0.00     0.086 C 
ATOM      3  N   UNL d   1      -0.366   0.450   2.162  0.00  0.00    -0.259 N 
ATOM      4  HN  UNL d   1      -0.383   1.467   2.239  1.00  0.00     0.195 HD
ATOM      5  O   UNL d   1      -0.951  -0.443   3.007  0.00  0.00    -0.241 OA
ATOM      6  C   UNL d   1      -0.745  -1.714   2.571  0.00  0.00     0.090 C 
ATOM      7  C   UNL d   1      -1.231  -2.707   3.551  0.00  0.00     0.080 C 
ENDROOT
BRANCH   1   8
ATOM      8  C   UNL d   1       0.367  -2.728   0.415  0.00  0.00     0.238 C 
ATOM      9  N   UNL d   1      -0.405  -3.894   0.201  0.00  0.00    -0.244 NA
ATOM     10  C   UNL d   1      -0.049  -4.746  -0.963  0.00  0.00     0.067 C 
ATOM     11  C   UNL d   1      -0.644  -4.772   1.335  0.00  0.00     0.108 C 
ATOM     12  C   UNL d   1       0.602  -5.941  -0.282  0.00  0.00     0.030 C 
ATOM     13  C   UNL d   1      -1.292  -5.204  -1.771  0.00  0.00     0.028 C 
ATOM     14  C   UNL d   1      -0.449  -6.208   0.803  0.00  0.00    -0.030 C 
ATOM     15  C   UNL d   1      -1.800  -6.728   0.240  0.00  0.00     0.019 C 
ATOM     16  C   UNL d   1       0.082  -7.141   1.888  0.00  0.00     0.016 C 
ATOM     17  C   UNL d   1      -2.001  -6.503  -1.276  0.00  0.00    -0.045 C 
ATOM     18  C   UNL d   1      -3.511  -6.408  -1.591  0.00  0.00     0.015 C 
ATOM     19  C   UNL d   1      -1.504  -7.763  -2.034  0.00  0.00     0.015 C 
ATOM     20  O   UNL d   1       1.384  -2.532  -0.254  0.00  0.00    -0.274 OA
ENDBRANCH   1   8
BRANCH   2  21
ATOM     21  C   UNL d   1       1.069   0.423   0.229  0.00  0.00     0.037 A 
ATOM     22  C   UNL d   1       0.733   0.463  -1.135  0.00  0.00     0.048 A 
ATOM     23 CL   UNL d   1      -0.688  -0.297  -1.773  0.00  0.00    -0.083 Cl
ATOM     24  C   UNL d   1       1.532   1.172  -2.047  0.00  0.00     0.025 A 
ATOM     25  C   UNL d   1       2.652   1.871  -1.616  0.00  0.00     0.003 A 
ATOM     26  C   UNL d   1       2.993   1.857  -0.267  0.00  0.00     0.025 A 
ATOM     27  C   UNL d   1       2.218   1.131   0.648  0.00  0.00     0.048 A 
ATOM     28 CL   UNL d   1       2.768   1.147   2.295  0.00  0.00    -0.083 Cl
ENDBRANCH   2  21
TORSDOF 2
