REMARK  3 active torsions:
REMARK  status: ('A' for Active; 'I' for Inactive)
REMARK    1  A    between atoms: C_2  and  N_1 
REMARK    2  A    between atoms: N_3  and  C_6 
REMARK    3  A    between atoms: O_13  and  C_4 
ROOT
ATOM      1  C   UNL d   1       0.354   1.111  -0.612  0.00  0.00     0.136 A 
ATOM      2  C   UNL d   1       0.353   1.197  -2.008  0.00  0.00     0.100 A 
ATOM      3  C   UNL d   1      -0.388   2.202  -2.642  0.00  0.00     0.068 A 
ATOM      4  C   UNL d   1      -1.127   3.147  -1.912  0.00  0.00     0.033 A 
ATOM      5  C   UNL d   1      -0.375   2.038   0.140  0.00  0.00     0.041 A 
ATOM      6  C   UNL d   1      -1.098   3.040  -0.512  0.00  0.00     0.032 A 
ENDROOT
BRANCH   4   7
ATOM      7  N   UNL d   1      -1.897   4.123  -2.515  0.00  0.00    -0.381 N 
ATOM      8  C   UNL d   1      -2.492   3.944  -3.838  0.00  0.00     0.123 C 
ATOM      9  C   UNL d   1      -3.931   4.471  -3.791  0.00  0.00     0.024 C 
ATOM     10  C   UNL d   1      -4.001   5.917  -3.272  0.00  0.00    -0.015 C 
ATOM     11  C   UNL d   1      -3.245   6.060  -1.941  0.00  0.00     0.024 C 
ATOM     12  C   UNL d   1      -5.453   6.362  -3.109  0.00  0.00     0.010 C 
ATOM     13  C   UNL d   1      -1.825   5.509  -2.048  0.00  0.00     0.123 C 
ENDBRANCH   4   7
BRANCH   2  14
ATOM     14  O   UNL d   1       1.036   0.356  -2.849  0.00  0.00    -0.358 OA
ATOM     15  H   UNL d   1       1.537  -0.304  -2.324  0.00  0.00     0.217 HD
ENDBRANCH   2  14
BRANCH   1  16
ATOM     16  N   UNL d   1       1.096   0.063   0.088  0.00  0.00    -0.113 N 
ATOM     17  O   UNL d   1       1.754  -0.731  -0.605  0.00  0.00    -0.532 OA
ATOM     18  O   UNL d   1       1.030   0.023   1.324  0.00  0.00    -0.532 OA
ENDBRANCH   1  16
TORSDOF 3
