REMARK  6 active torsions:
REMARK  status: ('A' for Active; 'I' for Inactive)
REMARK    1  A    between atoms: N_6  and  C_1 
REMARK    2  A    between atoms: C_9  and  C_2 
REMARK       I    between atoms: C_8  and  N_6 
REMARK    3  A    between atoms: O_14  and  C_8 
REMARK    4  A    between atoms: N_10  and  O_14 
REMARK    5  A    between atoms: C_15  and  C_12 
REMARK    6  A    between atoms: N_22  and  C_12 
ROOT
ATOM      1  N   UNL d   1      -0.837  -2.464   0.282  0.00  0.00    -0.293 N 
ATOM      2  C   UNL d   1      -0.544  -1.141   0.532  0.00  0.00     0.387 C 
ATOM      3  O   UNL d   1       0.624  -0.809   0.751  0.00  0.00    -0.236 OA
ATOM      4  H   UNL d   1      -0.012  -3.039   0.195  0.00  0.00     0.172 HD
ENDROOT
BRANCH   2   5
ATOM      5  O   UNL d   1      -1.579  -0.256   0.401  0.00  0.00    -0.179 OA
BRANCH   5   6
ATOM      6  N   UNL d   1      -1.556   0.679   1.455  0.00  0.00    -0.244 N 
ATOM      7  C   UNL d   1      -2.382   1.656   1.223  0.00  0.00     0.109 C 
ATOM      8  HN  UNL d   1      -0.971   0.600   2.287  1.00  0.00     0.196 HD
BRANCH   7   9
ATOM      9  C   UNL d   1      -2.645   2.646   2.323  0.00  0.00     0.004 A 
ATOM     10  C   UNL d   1      -1.776   2.727   3.420  0.00  0.00     0.016 A 
ATOM     11  C   UNL d   1      -2.022   3.646   4.444  0.00  0.00     0.024 A 
ATOM     12  C   UNL d   1      -3.138   4.480   4.377  0.00  0.00     0.034 A 
ATOM     13  C   UNL d   1      -4.021   4.391   3.304  0.00  0.00     0.024 A 
ATOM     14 CL   UNL d   1      -3.430   5.623   5.629  0.00  0.00    -0.084 Cl
ATOM     15  C   UNL d   1      -3.779   3.471   2.281  0.00  0.00     0.016 A 
ENDBRANCH   7   9
BRANCH   7  16
ATOM     16  N   UNL d   1      -3.023   1.833   0.014  0.00  0.00    -0.286 NA
ATOM     17  H   UNL d   1      -2.577   1.297  -0.722  0.00  0.00     0.125 HD
ATOM     18  H   UNL d   1      -3.169   2.795  -0.265  0.00  0.00     0.125 HD
ENDBRANCH   7  16
ENDBRANCH   5   6
ENDBRANCH   2   5
BRANCH   1  19
ATOM     19  C   UNL d   1      -2.066  -3.102   0.284  0.00  0.00     0.102 A 
ATOM     20  S   UNL d   1      -3.493  -2.327   0.793  0.00  0.00    -0.051 SA
ATOM     21  C   UNL d   1      -4.405  -3.732   0.449  0.00  0.00     0.093 A 
ATOM     22  N   UNL d   1      -3.687  -4.771   0.073  0.00  0.00    -0.351 N 
ATOM     23  C   UNL d   1      -2.349  -4.420  -0.038  0.00  0.00     0.040 A 
ATOM     24  HN  UNL d   1      -4.062  -5.701  -0.111  1.00  0.00     0.166 HD
ATOM     25  C   UNL d   1      -1.418  -5.463  -0.543  0.00  0.00     0.071 C 
BRANCH  21  26
ATOM     26  C   UNL d   1      -5.846  -3.800   0.513  0.00  0.00     0.038 A 
ATOM     27  S   UNL d   1      -6.858  -2.430   0.740  0.00  0.00    -0.099 SA
ATOM     28  C   UNL d   1      -8.282  -3.359   0.579  0.00  0.00     0.050 A 
ATOM     29  C   UNL d   1      -8.008  -4.692   0.381  0.00  0.00     0.008 A 
ATOM     30  C   UNL d   1      -6.607  -4.946   0.350  0.00  0.00     0.022 A 
ENDBRANCH  21  26
ENDBRANCH   1  19
TORSDOF 6
