REMARK  4 active torsions:
REMARK  status: ('A' for Active; 'I' for Inactive)
REMARK    1  A    between atoms: N_13  and  C_2 
REMARK    2  A    between atoms: N_3  and  C_9 
REMARK    3  A    between atoms: N_10  and  N_13 
REMARK    4  A    between atoms: C_19  and  C_18 
ROOT
ATOM      1  N   UNL d   1      -1.639   3.712   0.214  0.00  0.00    -0.297 N 
ATOM      2  HN  UNL d   1      -2.481   3.210   0.497  1.00  0.00     0.186 HD
ATOM      3  C   UNL d   1      -1.651   4.984  -0.021  0.00  0.00     0.119 C 
ENDROOT
BRANCH   1   4
ATOM      4  N   UNL d   1      -0.445   3.079   0.066  0.00  0.00    -0.132 N 
ATOM      5  H   UNL d   1       0.401   3.572  -0.208  0.00  0.00     0.205 HD
BRANCH   4   6
ATOM      6  C   UNL d   1      -0.271   1.733   0.266  0.00  0.00     0.700 A 
ATOM      7  N   UNL d   1      -1.386   1.036   0.637  0.00  0.00    -0.155 N 
ATOM      8  C   UNL d   1      -1.392  -0.301   0.872  0.00  0.00     0.261 A 
ATOM      9  H   UNL d   1      -2.240   1.563   0.735  0.00  0.00     0.187 HD
ATOM     10  C   UNL d   1      -0.089  -0.956   0.699  0.00  0.00     0.100 A 
ATOM     11  O   UNL d   1      -2.389  -0.933   1.202  0.00  0.00    -0.268 OA
ATOM     12  C   UNL d   1       0.956  -0.198   0.335  0.00  0.00     0.028 A 
ATOM     13  C   UNL d   1       2.317  -0.803   0.148  0.00  0.00     0.069 C 
ATOM     14  N   UNL d   1       0.882   1.159   0.111  0.00  0.00    -0.194 N 
ATOM     15  HN  UNL d   1       1.705   1.693  -0.168  1.00  0.00     0.184 HD
ENDBRANCH   4   6
ENDBRANCH   1   4
BRANCH   3  16
ATOM     16  C   UNL d   1      -2.909   5.748   0.117  0.00  0.00    -0.019 A 
ATOM     17  C   UNL d   1      -4.086   5.085   0.493  0.00  0.00     0.015 A 
ATOM     18  C   UNL d   1      -5.280   5.792   0.632  0.00  0.00     0.037 A 
ATOM     19  C   UNL d   1      -5.293   7.170   0.393  0.00  0.00     0.102 A 
ATOM     20  C   UNL d   1      -4.119   7.841   0.015  0.00  0.00     0.037 A 
ATOM     21  C   UNL d   1      -2.922   7.126  -0.123  0.00  0.00     0.015 A 
BRANCH  19  22
ATOM     22  N   UNL d   1      -6.549   7.916   0.545  0.00  0.00    -0.116 N 
ATOM     23  O   UNL d   1      -6.521   9.136   0.327  0.00  0.00    -0.532 OA
ATOM     24  O   UNL d   1      -7.560   7.284   0.881  0.00  0.00    -0.532 OA
ENDBRANCH  19  22
ENDBRANCH   3  16
TORSDOF 4
