REMARK  4 active torsions:
REMARK  status: ('A' for Active; 'I' for Inactive)
REMARK    1  A    between atoms: C_10  and  C_4 
REMARK    2  A    between atoms: S_6  and  C_10 
REMARK    3  A    between atoms: C_17  and  S_6 
REMARK    4  A    between atoms: C_18  and  C_17 
ROOT
ATOM      1  C   UNL d   1       0.022   0.909  -0.660  0.00  0.00     0.181 A 
ATOM      2  N   UNL d   1       0.651   0.756   0.493  0.00  0.00    -0.277 N 
ATOM      3  HN  UNL d   1       1.203   1.464   0.979  1.00  0.00     0.189 HD
ATOM      4  C   UNL d   1      -0.341  -1.094   0.004  0.00  0.00     0.154 A 
ATOM      5  O   UNL d   1      -0.603  -0.258  -1.046  0.00  0.00    -0.276 OA
ATOM      6  N   UNL d   1       0.425  -0.536   0.917  0.00  0.00    -0.280 N 
ATOM      7  HN  UNL d   1       0.779  -0.972   1.768  1.00  0.00     0.189 HD
ATOM      8  C   UNL d   1       0.007   2.135  -1.408  0.00  0.00     0.057 A 
ATOM      9  S   UNL d   1      -0.847   2.282  -2.886  0.00  0.00    -0.098 SA
ATOM     10  C   UNL d   1       0.631   3.323  -1.071  0.00  0.00     0.024 A 
ATOM     11  C   UNL d   1      -0.392   3.922  -3.067  0.00  0.00     0.050 A 
ATOM     12  C   UNL d   1       0.401   4.354  -2.029  0.00  0.00     0.009 A 
ENDROOT
BRANCH   4  13
ATOM     13  C   UNL d   1      -0.834  -2.479  -0.059  0.00  0.00     0.226 C 
BRANCH  13  14
ATOM     14  S   UNL d   1      -2.613  -2.436  -0.052  0.00  0.00     0.151 S 
ATOM     15  O   UNL d   1      -3.063  -1.768   1.155  0.00  0.00    -0.227 OA
ATOM     16  O   UNL d   1      -3.068  -2.007  -1.362  0.00  0.00    -0.227 OA
BRANCH  14  17
ATOM     17  C   UNL d   1      -3.055  -4.165   0.112  0.00  0.00     0.140 C 
BRANCH  17  18
ATOM     18  C   UNL d   1      -4.572  -4.338   0.112  0.00  0.00     0.010 C 
ATOM     19  C   UNL d   1      -4.987  -5.793   0.251  0.00  0.00     0.006 C 
ENDBRANCH  17  18
ENDBRANCH  14  17
ENDBRANCH  13  14
ENDBRANCH   4  13
TORSDOF 4
