REMARK  4 active torsions:
REMARK  status: ('A' for Active; 'I' for Inactive)
REMARK    1  A    between atoms: C_7  and  C_1 
REMARK       I    between atoms: C_2  and  N_6 
REMARK    2  A    between atoms: C_3  and  C_2 
REMARK    3  A    between atoms: N_6  and  C_17 
REMARK    4  A    between atoms: C_17  and  C_19 
ROOT
ATOM      1  C   UNL d   1      -0.495  -7.564  -0.526  0.00  0.00     0.251 C 
ATOM      2  N   UNL d   1       0.085  -6.389  -0.108  0.00  0.00    -0.353 N 
ATOM      3  O   UNL d   1      -1.652  -7.879  -0.270  0.00  0.00    -0.268 OA
ATOM      4  H   UNL d   1       1.091  -6.290  -0.120  0.00  0.00     0.163 HD
ENDROOT
BRANCH   2   5
ATOM      5  C   UNL d   1      -0.666  -5.423   0.666  0.00  0.00     0.161 C 
BRANCH   5   6
ATOM      6  C   UNL d   1      -0.138  -4.028   0.448  0.00  0.00    -0.041 A 
ATOM      7  C   UNL d   1      -0.171  -3.457  -0.833  0.00  0.00     0.009 A 
ATOM      8  C   UNL d   1       0.302  -2.161  -1.048  0.00  0.00     0.017 A 
ATOM      9  C   UNL d   1       0.813  -1.403   0.015  0.00  0.00     0.047 A 
ATOM     10  C   UNL d   1       0.837  -1.971   1.298  0.00  0.00     0.017 A 
ATOM     11  C   UNL d   1       0.366  -3.270   1.512  0.00  0.00     0.009 A 
BRANCH   9  12
ATOM     12  C   UNL d   1       1.321  -0.004  -0.235  0.00  0.00     0.417 C 
ATOM     13  F   UNL d   1       1.803   0.611   0.881  0.00  0.00    -0.166 F 
ATOM     14  F   UNL d   1       0.357   0.821  -0.728  0.00  0.00    -0.166 F 
ATOM     15  F   UNL d   1       2.337   0.025  -1.142  0.00  0.00    -0.166 F 
ENDBRANCH   9  12
ENDBRANCH   5   6
ENDBRANCH   2   5
BRANCH   1  16
ATOM     16  C   UNL d   1       0.357  -8.484  -1.326  0.00  0.00     0.033 A 
ATOM     17  C   UNL d   1       1.373  -8.004  -2.162  0.00  0.00     0.042 A 
ATOM     18  C   UNL d   1       2.107  -8.896  -2.953  0.00  0.00     0.056 A 
ATOM     19 CL   UNL d   1       3.330  -8.234  -3.980  0.00  0.00    -0.083 Cl
ATOM     20  C   UNL d   1       1.830 -10.269  -2.910  0.00  0.00     0.055 A 
ATOM     21  C   UNL d   1       0.815 -10.745  -2.076  0.00  0.00     0.026 A 
ATOM     22 CL   UNL d   1       2.688 -11.419  -3.870  0.00  0.00    -0.083 Cl
ATOM     23  C   UNL d   1       0.077  -9.855  -1.292  0.00  0.00     0.019 A 
ENDBRANCH   1  16
TORSDOF 4
