REMARK  11 active torsions:
REMARK  status: ('A' for Active; 'I' for Inactive)
REMARK    1  A    between atoms: O_19  and  C_1 
REMARK    2  A    between atoms: O_20  and  C_2 
REMARK    3  A    between atoms: C_3  and  C_10 
REMARK    4  A    between atoms: C_9  and  C_4 
REMARK    5  A    between atoms: O_24  and  C_5 
REMARK    6  A    between atoms: O_22  and  C_6 
REMARK    7  A    between atoms: O_23  and  C_7 
REMARK    8  A    between atoms: O_21  and  C_8 
REMARK       I    between atoms: N_17  and  C_9 
REMARK       I    between atoms: C_10  and  N_18 
REMARK    9  A    between atoms: C_25  and  N_17 
REMARK   10  A    between atoms: N_18  and  C_26 
REMARK   11  A    between atoms: C_26  and  C_25 
ROOT
ATOM      1  C   UNL d   1      -5.132  -0.344  -1.036  0.00  0.00     0.142 C 
ENDROOT
BRANCH   1   2
ATOM      2  N   UNL d   1      -3.712  -0.546  -0.788  0.00  0.00    -0.355 N 
ATOM      3  C   UNL d   1      -2.857  -0.859  -1.824  0.00  0.00     0.251 C 
ATOM      4  O   UNL d   1      -3.256  -0.978  -2.977  0.00  0.00    -0.268 OA
ATOM      5  H   UNL d   1      -3.379  -0.433   0.154  0.00  0.00     0.162 HD
BRANCH   3   6
ATOM      6  C   UNL d   1      -1.407  -1.059  -1.513  0.00  0.00     0.037 A 
ATOM      7  C   UNL d   1      -0.550  -1.237  -2.605  0.00  0.00     0.057 A 
ATOM      8  C   UNL d   1       0.817  -1.486  -2.440  0.00  0.00     0.105 A 
ATOM      9  C   UNL d   1       1.340  -1.559  -1.143  0.00  0.00     0.135 A 
ATOM     10  C   UNL d   1       0.500  -1.305  -0.031  0.00  0.00     0.105 A 
ATOM     11  C   UNL d   1      -0.873  -1.091  -0.221  0.00  0.00     0.057 A 
BRANCH   8  12
ATOM     12  O   UNL d   1       1.450  -1.631  -3.644  0.00  0.00    -0.353 OA
ATOM     13  C   UNL d   1       2.847  -1.863  -3.673  0.00  0.00     0.210 C 
ENDBRANCH   8  12
BRANCH   9  14
ATOM     14  O   UNL d   1       2.684  -1.767  -0.954  0.00  0.00    -0.351 OA
ATOM     15  C   UNL d   1       2.978  -2.967  -0.235  0.00  0.00     0.210 C 
ENDBRANCH   9  14
BRANCH  10  16
ATOM     16  O   UNL d   1       1.107  -1.297   1.202  0.00  0.00    -0.353 OA
ATOM     17  C   UNL d   1       0.401  -0.708   2.285  0.00  0.00     0.210 C 
ENDBRANCH  10  16
ENDBRANCH   3   6
ENDBRANCH   1   2
BRANCH   1  18
ATOM     18  C   UNL d   1      -5.942  -1.602  -0.695  0.00  0.00     0.142 C 
BRANCH  18  19
ATOM     19  N   UNL d   1      -7.394  -1.468  -0.741  0.00  0.00    -0.355 N 
ATOM     20  C   UNL d   1      -8.263  -0.634  -0.085  0.00  0.00     0.251 C 
ATOM     21  O   UNL d   1      -9.473  -0.745  -0.279  0.00  0.00    -0.268 OA
ATOM     22  H   UNL d   1      -7.891  -2.139  -1.317  0.00  0.00     0.162 HD
BRANCH  20  23
ATOM     23  C   UNL d   1      -7.769   0.446   0.795  0.00  0.00     0.037 A 
ATOM     24  C   UNL d   1      -8.303   1.724   0.631  0.00  0.00     0.057 A 
ATOM     25  C   UNL d   1      -7.784   2.814   1.340  0.00  0.00     0.105 A 
ATOM     26  C   UNL d   1      -6.703   2.611   2.215  0.00  0.00     0.135 A 
ATOM     27  C   UNL d   1      -6.224   1.299   2.450  0.00  0.00     0.105 A 
ATOM     28  C   UNL d   1      -6.786   0.222   1.756  0.00  0.00     0.057 A 
BRANCH  25  29
ATOM     29  O   UNL d   1      -8.466   3.972   1.078  0.00  0.00    -0.353 OA
ATOM     30  C   UNL d   1      -7.805   5.209   1.282  0.00  0.00     0.210 C 
ENDBRANCH  25  29
BRANCH  26  31
ATOM     31  O   UNL d   1      -6.208   3.667   2.940  0.00  0.00    -0.351 OA
ATOM     32  C   UNL d   1      -4.835   3.955   2.673  0.00  0.00     0.210 C 
ENDBRANCH  26  31
BRANCH  27  33
ATOM     33  O   UNL d   1      -5.214   1.157   3.372  0.00  0.00    -0.353 OA
ATOM     34  C   UNL d   1      -4.652  -0.138   3.542  0.00  0.00     0.210 C 
ENDBRANCH  27  33
ENDBRANCH  20  23
ENDBRANCH  18  19
ENDBRANCH   1  18
TORSDOF 11
