REMARK  1 active torsions:
REMARK  status: ('A' for Active; 'I' for Inactive)
REMARK    1  A    between atoms: S_4  and  C_2 
ROOT
ATOM      1  C   UNL d   1       0.345   0.763   0.091  0.00  0.00     0.045 A 
ATOM      2  C   UNL d   1       1.627   1.298   0.108  0.00  0.00     0.113 A 
ATOM      3  C   UNL d   1       0.350  -0.665   0.017  0.00  0.00    -0.035 A 
ATOM      4  S   UNL d   1       2.810   0.057   0.142  0.00  0.00    -0.089 SA
ATOM      5  C   UNL d   1      -0.888   1.529   0.098  0.00  0.00     0.162 C 
ATOM      6  C   UNL d   1       1.633  -1.171   0.059  0.00  0.00     0.059 A 
ATOM      7  C   UNL d   1      -0.881  -1.497  -0.135  0.00  0.00     0.049 C 
ATOM      8  C   UNL d   1      -2.233  -0.738  -0.014  0.00  0.00    -0.037 C 
ATOM      9  C   UNL d   1      -2.180   0.803  -0.205  0.00  0.00     0.093 C 
ATOM     10  O   UNL d   1      -0.898   2.741   0.308  0.00  0.00    -0.292 OA
ATOM     11  C   UNL d   1      -2.865  -1.060   1.358  0.00  0.00     0.015 C 
ATOM     12  C   UNL d   1      -3.183  -1.294  -1.101  0.00  0.00     0.015 C 
ENDROOT
BRANCH   2  13
ATOM     13  S   UNL d   1       2.268   2.971   0.019  0.00  0.00     0.179 S 
ATOM     14  O   UNL d   1       3.716   2.880   0.071  0.00  0.00    -0.222 OA
ATOM     15  O   UNL d   1       1.599   3.569  -1.122  0.00  0.00    -0.222 OA
ATOM     16  C   UNL d   1       1.738   3.756   1.522  0.00  0.00     0.167 C 
ENDBRANCH   2  13
TORSDOF 1
