REMARK  4 active torsions:
REMARK  status: ('A' for Active; 'I' for Inactive)
REMARK       I    between atoms: N_2  and  C_1 
REMARK    1  A    between atoms: C_4  and  C_1 
REMARK       I    between atoms: C_3  and  N_5 
REMARK    2  A    between atoms: O_7  and  C_3 
REMARK    3  A    between atoms: N_5  and  C_18 
REMARK    4  A    between atoms: C_15  and  O_7 
ROOT
ATOM      1  C   UNL d   1       1.415   0.124  -0.491  0.00  0.00     0.277 C 
ATOM      2  N   UNL d   1       1.051   1.171   0.367  0.00  0.00    -0.346 N 
ATOM      3  C   UNL d   1       0.286   1.059   1.601  0.00  0.00     0.128 C 
ATOM      4  C   UNL d   1       1.323   2.548  -0.020  0.00  0.00     0.128 C 
ATOM      5  O   UNL d   1       2.188   0.336  -1.429  0.00  0.00    -0.265 OA
ATOM      6  C   UNL d   1      -1.103   1.639   1.394  0.00  0.00     0.045 C 
ATOM      7  C   UNL d   1       0.014   3.289  -0.281  0.00  0.00     0.045 C 
ATOM      8  C   UNL d   1      -1.091   3.042   0.762  0.00  0.00     0.089 C 
ENDROOT
BRANCH   8   9
ATOM      9  N   UNL d   1      -1.285   4.123   1.727  0.00  0.00    -0.332 N 
ATOM     10  C   UNL d   1      -0.502   4.644   2.708  0.00  0.00     0.361 C 
ATOM     11  O   UNL d   1      -0.961   5.498   3.456  0.00  0.00    -0.238 OA
ATOM     12  H   UNL d   1      -2.210   4.534   1.762  0.00  0.00     0.165 HD
BRANCH  10  13
ATOM     13  O   UNL d   1       0.751   4.144   2.760  0.00  0.00    -0.294 OA
BRANCH  13  14
ATOM     14  C   UNL d   1       1.664   4.627   3.789  0.00  0.00     0.061 C 
ATOM     15  C   UNL d   1       1.125   4.334   5.197  0.00  0.00     0.046 C 
ATOM     16  C   UNL d   1       2.962   3.830   3.587  0.00  0.00     0.046 C 
ATOM     17  C   UNL d   1       1.983   6.117   3.606  0.00  0.00     0.046 C 
ENDBRANCH  13  14
ENDBRANCH  10  13
ENDBRANCH   8   9
BRANCH   1  18
ATOM     18  C   UNL d   1       0.879  -1.213  -0.275  0.00  0.00     0.142 A 
ATOM     19  O   UNL d   1      -0.355  -1.402   0.291  0.00  0.00    -0.317 OA
ATOM     20  C   UNL d   1      -0.601  -2.736   0.307  0.00  0.00     0.143 A 
ATOM     21  C   UNL d   1       0.445  -3.424  -0.264  0.00  0.00     0.027 A 
ATOM     22  C   UNL d   1       1.386  -2.444  -0.658  0.00  0.00     0.045 A 
ENDBRANCH   1  18
TORSDOF 4
