REMARK  2 active torsions:
REMARK  status: ('A' for Active; 'I' for Inactive)
REMARK    1  A    between atoms: C_2  and  C_1 
REMARK       I    between atoms: N_4  and  C_2 
REMARK    2  A    between atoms: C_11  and  N_4 
ROOT
ATOM      1  C   UNL d   1       1.181  -1.513   0.057  0.00  0.00     0.067 A 
ATOM      2  C   UNL d   1       1.974  -0.373   0.084  0.00  0.00     0.090 A 
ATOM      3  C   UNL d   1       1.408   0.902   0.073  0.00  0.00    -0.020 A 
ATOM      4  C   UNL d   1      -0.213  -1.328  -0.000  0.00  0.00     0.039 A 
ATOM      5  O   UNL d   1       3.348  -0.335   0.138  0.00  0.00    -0.349 OA
ATOM      6  C   UNL d   1       0.037   1.089   0.029  0.00  0.00     0.029 A 
ATOM      7  C   UNL d   1      -0.774  -0.042  -0.016  0.00  0.00     0.012 A 
ATOM      8 BR   UNL d   1      -2.652   0.153  -0.090  0.00  0.00    -0.051 Br
ATOM      9  C   UNL d   1       3.675   1.049  -0.149  0.00  0.00     0.180 C 
ATOM     10  C   UNL d   1       2.471   1.926   0.183  0.00  0.00     0.068 C 
ENDROOT
BRANCH   1  11
ATOM     11  C   UNL d   1       1.683  -2.917   0.066  0.00  0.00     0.255 C 
ATOM     12  N   UNL d   1       3.039  -3.128   0.192  0.00  0.00    -0.349 N 
ATOM     13  H   UNL d   1       3.637  -2.307   0.227  0.00  0.00     0.163 HD
ATOM     14  O   UNL d   1       0.869  -3.831  -0.042  0.00  0.00    -0.268 OA
BRANCH  12  15
ATOM     15  C   UNL d   1       3.671  -4.459   0.129  0.00  0.00     0.022 C 
ATOM     16  C   UNL d   1       3.419  -5.115  -1.240  0.00  0.00     0.037 C 
ATOM     17  C   UNL d   1       5.191  -4.295   0.313  0.00  0.00     0.037 C 
ATOM     18  C   UNL d   1       3.155  -5.378   1.251  0.00  0.00     0.037 C 
ENDBRANCH  12  15
ENDBRANCH   1  11
TORSDOF 2
