REMARK  2 active torsions:
REMARK  status: ('A' for Active; 'I' for Inactive)
REMARK    1  A    between atoms: C_8  and  N_1 
REMARK    2  A    between atoms: S_14  and  C_2 
ROOT
ATOM      1  C   UNL d   1      -2.993  -2.384   4.043  0.00  0.00     0.112 A 
ATOM      2  N   UNL d   1      -1.990  -1.674   4.504  0.00  0.00    -0.344 N 
ATOM      3  HN  UNL d   1      -1.804  -1.493   5.490  1.00  0.00     0.167 HD
ATOM      4  S   UNL d   1      -3.080  -2.543   2.341  0.00  0.00    -0.063 SA
ATOM      5  C   UNL d   1      -1.660  -1.580   2.179  0.00  0.00     0.036 A 
ATOM      6  C   UNL d   1      -1.223  -1.210   3.453  0.00  0.00     0.050 A 
ATOM      7  C   UNL d   1       0.163  -0.387   1.161  0.00  0.00     0.104 A 
ATOM      8  C   UNL d   1      -0.985  -1.183   1.010  0.00  0.00     0.057 A 
ATOM      9  C   UNL d   1      -0.066  -0.412   3.572  0.00  0.00     0.033 A 
ATOM     10  C   UNL d   1       0.623  -0.003   2.425  0.00  0.00     0.038 A 
ENDROOT
BRANCH   7  11
ATOM     11  N   UNL d   1       0.896   0.053  -0.035  0.00  0.00    -0.116 N 
ATOM     12  O   UNL d   1       0.458  -0.299  -1.140  0.00  0.00    -0.532 OA
ATOM     13  O   UNL d   1       1.906   0.750   0.131  0.00  0.00    -0.532 OA
ENDBRANCH   7  11
BRANCH   1  14
ATOM     14  S   UNL d   1      -4.171  -3.121   5.109  0.00  0.00    -0.109 SA
ATOM     15  C   UNL d   1      -3.549  -2.589   6.720  0.00  0.00     0.097 C 
ENDBRANCH   1  14
TORSDOF 2
