REMARK  3 active torsions:
REMARK  status: ('A' for Active; 'I' for Inactive)
REMARK    1  A    between atoms: N_3  and  C_1 
REMARK    2  A    between atoms: C_4  and  C_2 
REMARK       I    between atoms: N_8  and  C_4 
REMARK       I    between atoms: C_10  and  N_8 
REMARK       I    between atoms: N_11  and  C_10 
REMARK    3  A    between atoms: C_16  and  N_11 
ROOT
ATOM      1  C   UNL d   1       2.673  -1.371  -0.550  0.00  0.00     0.265 C 
ATOM      2  N   UNL d   1       3.936  -0.961  -0.175  0.00  0.00    -0.275 N 
ATOM      3  C   UNL d   1       4.543   0.273  -0.254  0.00  0.00     0.327 C 
ATOM      4  N   UNL d   1       3.775   1.326  -0.676  0.00  0.00    -0.309 N 
ATOM      5  O   UNL d   1       1.824  -0.578  -0.952  0.00  0.00    -0.267 OA
ATOM      6  O   UNL d   1       5.732   0.315   0.042  0.00  0.00    -0.247 OA
ATOM      7  H   UNL d   1       4.624  -1.656   0.091  0.00  0.00     0.173 HD
ATOM      8  H   UNL d   1       2.819   1.102  -0.943  0.00  0.00     0.170 HD
ENDROOT
BRANCH   1   9
ATOM      9  C   UNL d   1       2.384  -2.804  -0.483  0.00  0.00     0.101 A 
ATOM     10  C   UNL d   1       2.989  -3.869   0.171  0.00  0.00     0.207 A 
ATOM     11  N   UNL d   1       2.313  -5.012  -0.155  0.00  0.00    -0.276 N 
ATOM     12  N   UNL d   1       1.241  -4.757  -0.933  0.00  0.00    -0.307 N 
ATOM     13  C   UNL d   1       2.604  -6.401   0.132  0.00  0.00     0.179 C 
ATOM     14  C   UNL d   1       1.278  -3.436  -1.115  0.00  0.00     0.128 A 
ATOM     15  HN  UNL d   1       0.559  -5.422  -1.299  1.00  0.00     0.186 HD
BRANCH  10  16
ATOM     16  N   UNL d   1       4.100  -3.907   1.045  0.00  0.00    -0.095 N 
ATOM     17  O   UNL d   1       5.069  -3.217   0.715  0.00  0.00    -0.530 OA
ATOM     18  O   UNL d   1       4.001  -4.595   2.064  0.00  0.00    -0.530 OA
ENDBRANCH  10  16
ENDBRANCH   1   9
BRANCH   4  19
ATOM     19  C   UNL d   1       4.198   2.669  -0.844  0.00  0.00     0.036 A 
ATOM     20  C   UNL d   1       5.470   3.135  -0.482  0.00  0.00     0.032 A 
ATOM     21  C   UNL d   1       5.837   4.471  -0.692  0.00  0.00     0.044 A 
ATOM     22  C   UNL d   1       4.930   5.348  -1.262  0.00  0.00     0.116 A 
ATOM     23  C   UNL d   1       3.659   4.917  -1.620  0.00  0.00     0.044 A 
ATOM     24  F   UNL d   1       5.283   6.623  -1.470  0.00  0.00    -0.206 F 
ATOM     25  C   UNL d   1       3.291   3.581  -1.406  0.00  0.00     0.032 A 
ENDBRANCH   4  19
TORSDOF 3
