REMARK  6 active torsions:
REMARK  status: ('A' for Active; 'I' for Inactive)
REMARK    1  A    between atoms: S_9  and  C_3 
REMARK    2  A    between atoms: C_10  and  C_4 
REMARK    3  A    between atoms: C_15  and  S_9 
REMARK    4  A    between atoms: C_11  and  C_15 
REMARK    5  A    between atoms: C_14  and  C_11 
REMARK    6  A    between atoms: O_23  and  C_20 
ROOT
ATOM      1  N   UNL d   1       0.748   0.521   0.374  0.00  0.00    -0.334 N 
ATOM      2  HN  UNL d   1       1.693   0.898   0.437  1.00  0.00     0.168 HD
ATOM      3  C   UNL d   1      -0.264   1.265  -0.112  0.00  0.00     0.095 A 
ATOM      4  C   UNL d   1       0.474  -0.734   0.775  0.00  0.00     0.133 A 
ATOM      5  N   UNL d   1      -0.757  -1.280   0.726  0.00  0.00    -0.343 N 
ATOM      6  HN  UNL d   1      -0.925  -2.234   1.044  1.00  0.00     0.167 HD
ATOM      7  C   UNL d   1      -1.565   0.782  -0.216  0.00  0.00     0.089 A 
ATOM      8  C   UNL d   1      -1.765  -0.516   0.237  0.00  0.00     0.031 A 
ATOM      9 CL   UNL d   1      -2.871   1.711  -0.860  0.00  0.00    -0.079 Cl
ATOM     10  C   UNL d   1      -3.119  -1.167   0.233  0.00  0.00     0.070 C 
ENDROOT
BRANCH   3  11
ATOM     11  S   UNL d   1       0.186   2.931  -0.601  0.00  0.00    -0.103 SA
BRANCH  11  12
ATOM     12  C   UNL d   1       1.950   2.965  -0.113  0.00  0.00     0.164 C 
BRANCH  12  13
ATOM     13  C   UNL d   1       2.582   4.330  -0.341  0.00  0.00     0.169 C 
ATOM     14  O   UNL d   1       1.992   5.283  -0.850  0.00  0.00    -0.291 OA
BRANCH  13  15
ATOM     15  C   UNL d   1       4.007   4.530   0.084  0.00  0.00     0.011 A 
ATOM     16  C   UNL d   1       4.780   3.513   0.659  0.00  0.00     0.018 A 
ATOM     17  C   UNL d   1       6.099   3.768   1.064  0.00  0.00     0.037 A 
ATOM     18  C   UNL d   1       6.656   5.036   0.899  0.00  0.00     0.068 A 
ATOM     19  C   UNL d   1       5.902   6.040   0.294  0.00  0.00     0.037 A 
ATOM     20  C   UNL d   1       4.585   5.794  -0.102  0.00  0.00     0.018 A 
BRANCH  18  21
ATOM     21  O   UNL d   1       7.931   5.387   1.247  0.00  0.00    -0.356 OA
ATOM     22  C   UNL d   1       8.461   4.716   2.386  0.00  0.00     0.210 C 
ENDBRANCH  18  21
ENDBRANCH  13  15
ENDBRANCH  12  13
ENDBRANCH  11  12
ENDBRANCH   3  11
BRANCH   4  23
ATOM     23  C   UNL d   1       1.590  -1.556   1.306  0.00  0.00     0.076 A 
ATOM     24  N   UNL d   1       2.810  -0.952   1.419  0.00  0.00    -0.363 N 
ATOM     25  C   UNL d   1       3.838  -1.684   1.901  0.00  0.00     0.088 A 
ATOM     26  HN  UNL d   1       2.941   0.023   1.149  1.00  0.00     0.165 HD
ATOM     27  C   UNL d   1       3.727  -3.007   2.285  0.00  0.00     0.017 A 
ATOM     28  C   UNL d   1       2.488  -3.622   2.169  0.00  0.00     0.004 A 
ATOM     29  C   UNL d   1       1.408  -2.892   1.677  0.00  0.00     0.033 A 
ENDBRANCH   4  23
TORSDOF 6
