REMARK  8 active torsions:
REMARK  status: ('A' for Active; 'I' for Inactive)
REMARK    1  A    between atoms: C_13  and  C_2 
REMARK    2  A    between atoms: S_11  and  C_3 
REMARK    3  A    between atoms: C_8  and  C_15 
REMARK       I    between atoms: C_9  and  N_12 
REMARK    4  A    between atoms: C_18  and  C_9 
REMARK    5  A    between atoms: C_10  and  C_24 
REMARK       I    between atoms: N_16  and  C_10 
REMARK    6  A    between atoms: C_24  and  S_11 
REMARK    7  A    between atoms: N_12  and  N_16 
REMARK    8  A    between atoms: C_14  and  C_13 
ROOT
ATOM      1  C   UNL d   1       2.646  -4.440  -0.222  0.00  0.00     0.245 C 
ATOM      2  N   UNL d   1       1.948  -5.315  -1.030  0.00  0.00    -0.267 N 
ATOM      3  O   UNL d   1       3.723  -4.763   0.288  0.00  0.00    -0.271 OA
ATOM      4  H   UNL d   1       0.966  -5.162  -1.258  0.00  0.00     0.190 HD
ENDROOT
BRANCH   1   5
ATOM      5  C   UNL d   1       2.117  -3.018  -0.138  0.00  0.00     0.186 C 
BRANCH   5   6
ATOM      6  S   UNL d   1       0.326  -2.859  -0.401  0.00  0.00    -0.083 SA
BRANCH   6   7
ATOM      7  C   UNL d   1      -0.282  -3.560   1.055  0.00  0.00     0.162 A 
ATOM      8  N   UNL d   1      -1.573  -3.983   1.212  0.00  0.00    -0.319 N 
ATOM      9  C   UNL d   1      -1.605  -4.606   2.438  0.00  0.00     0.104 A 
ATOM     10  C   UNL d   1      -2.650  -3.828   0.269  0.00  0.00     0.159 C 
ATOM     11  N   UNL d   1      -0.430  -4.449   3.022  0.00  0.00    -0.286 N 
ATOM     12  N   UNL d   1       0.403  -3.802   2.144  0.00  0.00    -0.278 N 
ATOM     13  HN  UNL d   1      -0.185  -4.756   3.963  1.00  0.00     0.188 HD
ATOM     14  HN  UNL d   1       1.378  -3.554   2.311  1.00  0.00     0.189 HD
BRANCH   9  15
ATOM     15  C   UNL d   1      -2.745  -5.397   2.989  0.00  0.00     0.117 C 
BRANCH  15  16
ATOM     16  C   UNL d   1      -2.676  -6.838   2.557  0.00  0.00    -0.044 A 
ATOM     17  C   UNL d   1      -1.647  -7.706   2.890  0.00  0.00     0.057 A 
ATOM     18  S   UNL d   1      -1.855  -9.269   2.236  0.00  0.00    -0.113 SA
ATOM     19  C   UNL d   1      -3.329  -8.822   1.501  0.00  0.00     0.050 A 
ATOM     20  C   UNL d   1      -3.655  -7.509   1.749  0.00  0.00     0.015 A 
ENDBRANCH  15  16
ENDBRANCH   9  15
ENDBRANCH   6   7
ENDBRANCH   5   6
ENDBRANCH   1   5
BRANCH   2  21
ATOM     21  N   UNL d   1       2.409  -6.634  -1.115  0.00  0.00    -0.263 N 
ATOM     22  C   UNL d   1       1.489  -7.644  -1.302  0.00  0.00     0.270 C 
ATOM     23  O   UNL d   1       0.286  -7.446  -1.448  0.00  0.00    -0.266 OA
ATOM     24  H   UNL d   1       3.324  -6.807  -0.699  0.00  0.00     0.190 HD
BRANCH  22  25
ATOM     25  C   UNL d   1       2.052  -9.023  -1.324  0.00  0.00     0.033 A 
ATOM     26  C   UNL d   1       1.282 -10.085  -0.840  0.00  0.00     0.018 A 
ATOM     27  C   UNL d   1       1.778 -11.394  -0.898  0.00  0.00     0.017 A 
ATOM     28  C   UNL d   1       3.041 -11.656  -1.455  0.00  0.00     0.048 A 
ATOM     29  C   UNL d   1       3.804 -10.582  -1.940  0.00  0.00     0.017 A 
ATOM     30  C   UNL d   1       3.315  -9.275  -1.877  0.00  0.00     0.018 A 
BRANCH  28  31
ATOM     31  C   UNL d   1       3.576 -13.066  -1.565  0.00  0.00     0.417 C 
ATOM     32  F   UNL d   1       2.762 -14.006  -1.013  0.00  0.00    -0.166 F 
ATOM     33  F   UNL d   1       3.763 -13.446  -2.859  0.00  0.00    -0.166 F 
ATOM     34  F   UNL d   1       4.785 -13.212  -0.956  0.00  0.00    -0.166 F 
ENDBRANCH  28  31
ENDBRANCH  22  25
ENDBRANCH   2  21
TORSDOF 8
