REMARK  5 active torsions:
REMARK  status: ('A' for Active; 'I' for Inactive)
REMARK    1  A    between atoms: N_3  and  C_1 
REMARK    2  A    between atoms: C_6  and  C_2 
REMARK    3  A    between atoms: N_15  and  C_6 
REMARK    4  A    between atoms: O_13  and  N_8 
REMARK    5  A    between atoms: C_12  and  O_13 
ROOT
ATOM      1  C   UNL d   1       2.535  -1.615  -0.056  0.00  0.00     0.109 C 
ATOM      2  N   UNL d   1       2.538  -2.913   0.009  0.00  0.00    -0.246 N 
ATOM      3  HN  UNL d   1       3.396  -3.462   0.047  1.00  0.00     0.196 HD
ENDROOT
BRANCH   1   4
ATOM      4  C   UNL d   1       1.355  -0.740  -0.017  0.00  0.00     0.013 A 
ATOM      5  C   UNL d   1       0.086  -0.996   0.619  0.00  0.00     0.059 A 
ATOM      6  C   UNL d   1      -0.818   0.034   0.448  0.00  0.00     0.144 A 
ATOM      7  S   UNL d   1      -0.168   1.331  -0.423  0.00  0.00    -0.077 SA
ATOM      8  C   UNL d   1       1.327   0.519  -0.609  0.00  0.00     0.067 A 
BRANCH   6   9
ATOM      9  N   UNL d   1      -2.178   0.075   0.928  0.00  0.00    -0.108 N 
ATOM     10  O   UNL d   1      -2.570  -0.931   1.533  0.00  0.00    -0.531 OA
ATOM     11  O   UNL d   1      -2.850   1.091   0.707  0.00  0.00    -0.531 OA
ENDBRANCH   6   9
ENDBRANCH   1   4
BRANCH   1  12
ATOM     12  N   UNL d   1       3.721  -0.941  -0.166  0.00  0.00    -0.286 NA
ATOM     13  H   UNL d   1       3.781  -0.028   0.262  0.00  0.00     0.125 HD
ATOM     14  H   UNL d   1       4.515  -1.539   0.046  0.00  0.00     0.125 HD
ENDBRANCH   1  12
BRANCH   2  15
ATOM     15  O   UNL d   1       1.264  -3.493   0.022  0.00  0.00    -0.199 OA
BRANCH  15  16
ATOM     16  C   UNL d   1       1.371  -4.861   0.036  0.00  0.00     0.277 C 
ATOM     17  O   UNL d   1       2.397  -5.528   0.045  0.00  0.00    -0.264 OA
ATOM     18  C   UNL d   1      -0.003  -5.472   0.044  0.00  0.00     0.128 C 
ENDBRANCH  15  16
ENDBRANCH   2  15
TORSDOF 5
