REMARK  8 active torsions:
REMARK  status: ('A' for Active; 'I' for Inactive)
REMARK    1  A    between atoms: N_3  and  C_1 
REMARK    2  A    between atoms: S_7  and  C_1 
REMARK    3  A    between atoms: C_2  and  S_6 
REMARK    4  A    between atoms: N_4  and  C_2 
REMARK    5  A    between atoms: S_6  and  C_12 
REMARK    6  A    between atoms: C_13  and  S_7 
REMARK    7  A    between atoms: C_8  and  C_13 
REMARK    8  A    between atoms: C_12  and  C_9 
ROOT
ATOM      1  C   UNL d   1      -2.916   0.218   3.087  0.00  0.00     0.130 A 
ATOM      2  C   UNL d   1      -2.264  -0.816   2.387  0.00  0.00    -0.009 A 
ATOM      3  C   UNL d   1      -3.626  -0.010   4.285  0.00  0.00    -0.009 A 
ATOM      4  F   UNL d   1      -2.857   1.470   2.601  0.00  0.00    -0.205 F 
ATOM      5  C   UNL d   1      -3.695  -1.329   4.744  0.00  0.00     0.011 A 
ATOM      6  C   UNL d   1      -2.307  -2.101   2.934  0.00  0.00     0.011 A 
ATOM      7  C   UNL d   1      -3.037  -2.362   4.084  0.00  0.00     0.001 A 
ENDROOT
BRANCH   2   8
ATOM      8  C   UNL d   1      -1.553  -0.489   1.087  0.00  0.00     0.123 C 
BRANCH   8   9
ATOM      9  S   UNL d   1      -0.850  -1.868   0.121  0.00  0.00    -0.096 SA
BRANCH   9  10
ATOM     10  C   UNL d   1      -2.246  -2.909  -0.228  0.00  0.00     0.137 C 
ATOM     11  S   UNL d   1      -3.704  -2.236  -0.742  0.00  0.00    -0.053 SA
BRANCH  10  12
ATOM     12  N   UNL d   1      -2.015  -4.292  -0.106  0.00  0.00    -0.362 N 
ATOM     13  C   UNL d   1      -0.754  -4.936   0.326  0.00  0.00     0.150 C 
ATOM     14  C   UNL d   1      -0.153  -5.744  -0.832  0.00  0.00     0.187 C 
ATOM     15  O   UNL d   1      -1.086  -6.730  -1.304  0.00  0.00    -0.388 OA
ATOM     16  C   UNL d   1      -2.305  -6.111  -1.749  0.00  0.00     0.187 C 
ATOM     17  C   UNL d   1      -2.963  -5.308  -0.619  0.00  0.00     0.150 C 
ENDBRANCH  10  12
ENDBRANCH   9  10
ENDBRANCH   8   9
ENDBRANCH   2   8
BRANCH   3  18
ATOM     18  C   UNL d   1      -4.291   1.158   4.996  0.00  0.00     0.123 C 
BRANCH  18  19
ATOM     19  S   UNL d   1      -5.006   0.739   6.627  0.00  0.00    -0.096 SA
BRANCH  19  20
ATOM     20  C   UNL d   1      -5.593   2.308   7.152  0.00  0.00     0.137 C 
ATOM     21  S   UNL d   1      -7.138   2.770   6.674  0.00  0.00    -0.053 SA
BRANCH  20  22
ATOM     22  N   UNL d   1      -4.757   3.026   8.013  0.00  0.00    -0.362 N 
ATOM     23  C   UNL d   1      -3.409   2.603   8.453  0.00  0.00     0.150 C 
ATOM     24  C   UNL d   1      -3.265   2.748   9.972  0.00  0.00     0.187 C 
ATOM     25  O   UNL d   1      -3.530   4.096  10.383  0.00  0.00    -0.388 OA
ATOM     26  C   UNL d   1      -4.868   4.476  10.029  0.00  0.00     0.187 C 
ATOM     27  C   UNL d   1      -5.096   4.373   8.515  0.00  0.00     0.150 C 
ENDBRANCH  20  22
ENDBRANCH  19  20
ENDBRANCH  18  19
ENDBRANCH   3  18
TORSDOF 8
