REMARK  7 active torsions:
REMARK  status: ('A' for Active; 'I' for Inactive)
REMARK    1  A    between atoms: N_2  and  C_1 
REMARK    2  A    between atoms: C_3  and  C_8 
REMARK    3  A    between atoms: C_4  and  C_12 
REMARK    4  A    between atoms: O_14  and  C_6 
REMARK    5  A    between atoms: C_7  and  C_16 
REMARK    6  A    between atoms: C_25  and  C_9 
REMARK    7  A    between atoms: C_30  and  O_14 
ROOT
ATOM      1  C   UNL d   1       7.318   1.573  -1.017  0.00  0.00     0.055 C 
ATOM      2  C   UNL d   1       8.006   1.795   0.124  0.00  0.00     0.034 C 
ATOM      3  C   UNL d   1       6.028   2.166  -1.214  0.00  0.00     0.100 C 
ATOM      4  N   UNL d   1       4.974   2.630  -1.375  0.00  0.00    -0.191 NA
ENDROOT
BRANCH   1   5
ATOM      5  C   UNL d   1       7.886   0.696  -2.081  0.00  0.00    -0.015 A 
ATOM      6  C   UNL d   1       7.054  -0.099  -2.891  0.00  0.00     0.016 A 
ATOM      7  C   UNL d   1       7.586  -0.905  -3.909  0.00  0.00     0.038 A 
ATOM      8  C   UNL d   1       8.960  -0.935  -4.132  0.00  0.00     0.076 A 
ATOM      9  C   UNL d   1       9.795  -0.114  -3.373  0.00  0.00     0.038 A 
ATOM     10  C   UNL d   1       9.265   0.676  -2.348  0.00  0.00     0.016 A 
BRANCH   8  11
ATOM     11  O   UNL d   1       9.422  -1.767  -5.133  0.00  0.00    -0.308 OA
BRANCH  11  12
ATOM     12  C   UNL d   1      10.633  -2.396  -4.937  0.00  0.00     0.109 A 
ATOM     13  C   UNL d   1      11.550  -2.510  -5.985  0.00  0.00     0.137 A 
ATOM     14  C   UNL d   1      12.795  -3.138  -5.809  0.00  0.00     0.055 A 
ATOM     15  C   UNL d   1      13.138  -3.662  -4.553  0.00  0.00     0.050 A 
ATOM     16  C   UNL d   1      12.204  -3.579  -3.508  0.00  0.00     0.019 A 
ATOM     17  C   UNL d   1      10.956  -2.982  -3.706  0.00  0.00     0.040 A 
BRANCH  13  18
ATOM     18  N   UNL d   1      11.247  -1.957  -7.292  0.00  0.00    -0.113 N 
ATOM     19  O   UNL d   1      11.347  -2.723  -8.258  0.00  0.00    -0.532 OA
ATOM     20  O   UNL d   1      10.972  -0.751  -7.352  0.00  0.00    -0.532 OA
ENDBRANCH  13  18
BRANCH  15  21
ATOM     21  C   UNL d   1      14.485  -4.298  -4.298  0.00  0.00     0.417 C 
ATOM     22  F   UNL d   1      15.245  -4.425  -5.418  0.00  0.00    -0.166 F 
ATOM     23  F   UNL d   1      15.229  -3.578  -3.415  0.00  0.00    -0.166 F 
ATOM     24  F   UNL d   1      14.376  -5.546  -3.769  0.00  0.00    -0.166 F 
ENDBRANCH  15  21
ENDBRANCH  11  12
ENDBRANCH   8  11
ENDBRANCH   1   5
BRANCH   2  25
ATOM     25  C   UNL d   1       7.556   2.656   1.224  0.00  0.00    -0.035 A 
ATOM     26  C   UNL d   1       6.847   2.105   2.296  0.00  0.00     0.012 A 
ATOM     27  C   UNL d   1       6.436   2.914   3.358  0.00  0.00     0.017 A 
ATOM     28  C   UNL d   1       6.730   4.286   3.367  0.00  0.00     0.048 A 
ATOM     29  C   UNL d   1       7.427   4.835   2.278  0.00  0.00     0.017 A 
ATOM     30  C   UNL d   1       7.838   4.025   1.214  0.00  0.00     0.012 A 
BRANCH  28  31
ATOM     31  C   UNL d   1       6.327   5.163   4.527  0.00  0.00     0.417 C 
ATOM     32  F   UNL d   1       5.654   4.496   5.507  0.00  0.00    -0.166 F 
ATOM     33  F   UNL d   1       7.402   5.734   5.140  0.00  0.00    -0.166 F 
ATOM     34  F   UNL d   1       5.519   6.193   4.154  0.00  0.00    -0.166 F 
ENDBRANCH  28  31
ENDBRANCH   2  25
TORSDOF 7
