REMARK  6 active torsions:
REMARK  status: ('A' for Active; 'I' for Inactive)
REMARK    1  A    between atoms: C_12  and  S_1 
REMARK    2  A    between atoms: C_13  and  S_1 
REMARK    3  A    between atoms: C_14  and  N_18 
REMARK    4  A    between atoms: C_15  and  N_19 
REMARK    5  A    between atoms: N_18  and  C_24 
REMARK    6  A    between atoms: N_19  and  C_25 
ROOT
ATOM      1  C   UNL d   1      -0.207  -6.917  -4.191  0.00  0.00     0.139 C 
ATOM      2  C   UNL d   1       0.274  -8.203  -3.827  0.00  0.00     0.112 C 
ATOM      3  C   UNL d   1      -0.903  -6.757  -5.413  0.00  0.00     0.112 C 
ATOM      4  N   UNL d   1      -1.477  -6.591  -6.409  0.00  0.00    -0.191 NA
ATOM      5  N   UNL d   1       0.676  -9.245  -3.510  0.00  0.00    -0.191 NA
ATOM      6  C   UNL d   1      -0.006  -5.880  -3.352  0.00  0.00     0.122 C 
ENDROOT
BRANCH   6   7
ATOM      7  N   UNL d   1      -0.407  -4.567  -3.460  0.00  0.00    -0.364 N 
ATOM      8  H   UNL d   1      -0.933  -4.291  -4.289  0.00  0.00     0.165 HD
BRANCH   7   9
ATOM      9  C   UNL d   1      -0.057  -3.499  -2.612  0.00  0.00     0.032 A 
ATOM     10  C   UNL d   1       1.119  -3.492  -1.849  0.00  0.00     0.031 A 
ATOM     11  C   UNL d   1       1.432  -2.413  -1.019  0.00  0.00     0.026 A 
ATOM     12  C   UNL d   1       0.542  -1.343  -0.912  0.00  0.00     0.064 A 
ATOM     13  C   UNL d   1      -0.657  -1.348  -1.626  0.00  0.00     0.026 A 
ATOM     14  C   UNL d   1      -0.952  -2.427  -2.466  0.00  0.00     0.031 A 
BRANCH  12  15
ATOM     15  S   UNL d   1       1.016   0.093   0.021  0.00  0.00     0.206 S 
ATOM     16  O   UNL d   1       0.301   1.224  -0.542  0.00  0.00    -0.217 OA
ATOM     17  O   UNL d   1       2.467   0.108   0.082  0.00  0.00    -0.217 OA
BRANCH  15  18
ATOM     18  C   UNL d   1       0.423  -0.130   1.681  0.00  0.00     0.064 A 
ATOM     19  C   UNL d   1       1.259  -0.679   2.655  0.00  0.00     0.026 A 
ATOM     20  C   UNL d   1       0.829  -0.723   3.986  0.00  0.00     0.031 A 
ATOM     21  C   UNL d   1      -0.423  -0.211   4.359  0.00  0.00     0.032 A 
ATOM     22  C   UNL d   1      -1.261   0.295   3.355  0.00  0.00     0.031 A 
ATOM     23  C   UNL d   1      -0.837   0.356   2.025  0.00  0.00     0.026 A 
BRANCH  21  24
ATOM     24  N   UNL d   1      -0.820  -0.290   5.707  0.00  0.00    -0.364 N 
ATOM     25  H   UNL d   1      -0.063  -0.163   6.378  0.00  0.00     0.165 HD
BRANCH  24  26
ATOM     26  C   UNL d   1      -2.108  -0.368   6.189  0.00  0.00     0.122 C 
ATOM     27  C   UNL d   1      -2.571  -0.317   7.450  0.00  0.00     0.139 C 
ATOM     28  C   UNL d   1      -1.700  -0.129   8.556  0.00  0.00     0.112 C 
ATOM     29  C   UNL d   1      -3.966  -0.468   7.685  0.00  0.00     0.112 C 
ATOM     30  N   UNL d   1      -0.965   0.021   9.443  0.00  0.00    -0.191 NA
ATOM     31  N   UNL d   1      -5.109  -0.599   7.846  0.00  0.00    -0.191 NA
ENDBRANCH  24  26
ENDBRANCH  21  24
ENDBRANCH  15  18
ENDBRANCH  12  15
ENDBRANCH   7   9
ENDBRANCH   6   7
TORSDOF 6
