REMARK  2 active torsions:
REMARK  status: ('A' for Active; 'I' for Inactive)
REMARK    1  A    between atoms: C_2  and  C_1 
REMARK       I    between atoms: N_3  and  C_1 
REMARK    2  A    between atoms: C_9  and  N_3 
ROOT
ATOM      1  C   UNL d   1       1.010  -1.006  -1.307  0.00  0.00     0.253 C 
ATOM      2  N   UNL d   1       0.234   0.079  -0.961  0.00  0.00    -0.351 N 
ATOM      3  O   UNL d   1       0.556  -2.003  -1.852  0.00  0.00    -0.268 OA
ATOM      4  H   UNL d   1       0.676   0.854  -0.480  0.00  0.00     0.163 HD
ENDROOT
BRANCH   1   5
ATOM      5  C   UNL d   1       2.445  -0.959  -0.901  0.00  0.00     0.053 A 
ATOM      6  C   UNL d   1       3.227   0.204  -0.872  0.00  0.00     0.049 A 
ATOM      7 CL   UNL d   1       2.678   1.735  -1.457  0.00  0.00    -0.083 Cl
ATOM      8  C   UNL d   1       4.539   0.154  -0.384  0.00  0.00     0.025 A 
ATOM      9  C   UNL d   1       5.087  -1.050   0.058  0.00  0.00     0.002 A 
ATOM     10  C   UNL d   1       4.334  -2.219  -0.011  0.00  0.00     0.001 A 
ATOM     11  C   UNL d   1       3.022  -2.176  -0.491  0.00  0.00     0.019 A 
ENDBRANCH   1   5
BRANCH   2  12
ATOM     12  C   UNL d   1      -1.218   0.172  -1.182  0.00  0.00     0.103 C 
ATOM     13  C   UNL d   1      -1.962  -0.863  -0.320  0.00  0.00     0.101 C 
ATOM     14  S   UNL d   1      -3.773  -0.712  -0.340  0.00  0.00    -0.152 SA
ATOM     15  C   UNL d   1      -4.048  -0.953  -2.119  0.00  0.00     0.104 C 
ATOM     16  S   UNL d   1      -3.333   0.439  -3.043  0.00  0.00    -0.152 SA
ATOM     17  C   UNL d   1      -5.548  -1.041  -2.382  0.00  0.00     0.033 C 
ATOM     18  C   UNL d   1      -1.572   0.132  -2.680  0.00  0.00     0.101 C 
ENDBRANCH   2  12
TORSDOF 2
