REMARK  7 active torsions:
REMARK  status: ('A' for Active; 'I' for Inactive)
REMARK    1  A    between atoms: C_6  and  N_1 
REMARK    2  A    between atoms: C_11  and  C_2 
REMARK    3  A    between atoms: C_8  and  C_3 
REMARK    4  A    between atoms: O_23  and  C_8 
REMARK    5  A    between atoms: C_10  and  N_17 
REMARK    6  A    between atoms: N_19  and  C_10 
REMARK    7  A    between atoms: N_17  and  N_12 
ROOT
ATOM      1  N   UNL d   1       1.011  -0.558  -0.057  0.00  0.00    -0.251 N 
ATOM      2  C   UNL d   1       1.073   0.827  -0.011  0.00  0.00     0.091 C 
ATOM      3  C   UNL d   1      -0.244   1.274  -0.019  0.00  0.00     0.086 C 
ATOM      4  N   UNL d   1      -0.265  -0.992  -0.248  0.00  0.00    -0.303 N 
ATOM      5  HN  UNL d   1      -0.578  -1.942  -0.448  1.00  0.00     0.186 HD
ATOM      6  C   UNL d   1      -1.013   0.102  -0.115  0.00  0.00     0.127 C 
ENDROOT
BRANCH   2   7
ATOM      7  C   UNL d   1       2.272   1.613  -0.001  0.00  0.00     0.139 C 
ATOM      8  N   UNL d   1       2.315   2.732   0.645  0.00  0.00    -0.307 N 
ATOM      9  HN  UNL d   1       1.519   3.082   1.178  1.00  0.00     0.186 HD
BRANCH   8  10
ATOM     10  N   UNL d   1       3.494   3.415   0.567  0.00  0.00    -0.277 N 
ATOM     11  H   UNL d   1       4.202   3.073  -0.066  0.00  0.00     0.189 HD
BRANCH  10  12
ATOM     12  C   UNL d   1       3.663   4.637   1.169  0.00  0.00     0.186 C 
ATOM     13  S   UNL d   1       2.541   5.435   2.121  0.00  0.00    -0.040 SA
BRANCH  12  14
ATOM     14  N   UNL d   1       4.871   5.247   0.980  0.00  0.00    -0.370 N 
ATOM     15  C   UNL d   1       6.019   4.815   0.214  0.00  0.00     0.148 C 
ATOM     16  H   UNL d   1       4.917   6.170   1.399  0.00  0.00     0.161 HD
ENDBRANCH  12  14
ENDBRANCH  10  12
ENDBRANCH   8  10
ENDBRANCH   2   7
BRANCH   1  17
ATOM     17  C   UNL d   1       2.041  -1.530   0.079  0.00  0.00     0.095 A 
ATOM     18  C   UNL d   1       3.180  -1.296   0.854  0.00  0.00     0.147 A 
ATOM     19  C   UNL d   1       4.154  -2.280   1.012  0.00  0.00     0.087 A 
ATOM     20  F   UNL d   1       3.345  -0.158   1.536  0.00  0.00    -0.203 F 
ATOM     21  C   UNL d   1       3.990  -3.505   0.387  0.00  0.00     0.119 A 
ATOM     22  C   UNL d   1       2.864  -3.770  -0.385  0.00  0.00     0.045 A 
ATOM     23  F   UNL d   1       4.922  -4.455   0.542  0.00  0.00    -0.206 F 
ATOM     24  C   UNL d   1       1.879  -2.788  -0.529  0.00  0.00     0.038 A 
ENDBRANCH   1  17
BRANCH   3  25
ATOM     25  C   UNL d   1      -0.722   2.642  -0.030  0.00  0.00     0.296 C 
ATOM     26  O   UNL d   1      -0.160   3.553  -0.624  0.00  0.00    -0.259 OA
BRANCH  25  27
ATOM     27  O   UNL d   1      -1.911   2.771   0.630  0.00  0.00    -0.322 OA
ATOM     28  C   UNL d   1      -2.395   4.113   0.674  0.00  0.00     0.213 C 
ENDBRANCH  25  27
ENDBRANCH   3  25
TORSDOF 7
