REMARK  4 active torsions:
REMARK  status: ('A' for Active; 'I' for Inactive)
REMARK    1  A    between atoms: O_3  and  C_4 
REMARK    2  A    between atoms: C_6  and  O_3 
REMARK    3  A    between atoms: C_8  and  C_6 
REMARK    4  A    between atoms: C_7  and  C_9 
ROOT
ATOM      1  N   UNL d   1       4.732   1.093  -2.227  0.00  0.00    -0.197 NA
ATOM      2  C   UNL d   1       4.318   0.635  -1.240  0.00  0.00     0.063 C 
ATOM      3  C   UNL d   1       3.781   0.088   0.018  0.00  0.00     0.162 C 
ENDROOT
BRANCH   3   4
ATOM      4  C   UNL d   1       4.242  -1.325   0.293  0.00  0.00    -0.043 A 
ATOM      5  C   UNL d   1       3.510  -2.425  -0.183  0.00  0.00     0.044 A 
ATOM      6  C   UNL d   1       3.952  -3.735   0.037  0.00  0.00     0.069 A 
ATOM      7  C   UNL d   1       5.115  -3.952   0.776  0.00  0.00     0.037 A 
ATOM      8  C   UNL d   1       5.855  -2.867   1.248  0.00  0.00     0.003 A 
ATOM      9  C   UNL d   1       5.428  -1.562   1.002  0.00  0.00     0.008 A 
BRANCH   6  10
ATOM     10  O   UNL d   1       3.170  -4.715  -0.513  0.00  0.00    -0.347 OA
BRANCH  10  11
ATOM     11  C   UNL d   1       3.788  -5.995  -0.662  0.00  0.00     0.214 C 
BRANCH  11  12
ATOM     12  C   UNL d   1       3.014  -6.817  -1.664  0.00  0.00    -0.034 A 
ATOM     13  C   UNL d   1       2.803  -6.329  -2.962  0.00  0.00     0.009 A 
ATOM     14  C   UNL d   1       2.141  -7.105  -3.913  0.00  0.00     0.001 A 
ATOM     15  C   UNL d   1       1.685  -8.379  -3.578  0.00  0.00     0.000 A 
ATOM     16  C   UNL d   1       1.888  -8.875  -2.291  0.00  0.00     0.001 A 
ATOM     17  C   UNL d   1       2.551  -8.100  -1.338  0.00  0.00     0.009 A 
ENDBRANCH  11  12
ENDBRANCH  10  11
ENDBRANCH   6  10
ENDBRANCH   3   4
TORSDOF 4
