REMARK  6 active torsions:
REMARK  status: ('A' for Active; 'I' for Inactive)
REMARK    1  A    between atoms: N_7  and  C_1 
REMARK    2  A    between atoms: N_2  and  N_7 
REMARK    3  A    between atoms: C_5  and  N_2 
REMARK    4  A    between atoms: C_4  and  C_5 
REMARK    5  A    between atoms: C_14  and  N_9 
REMARK    6  A    between atoms: C_15  and  C_14 
ROOT
ATOM      1  N   UNL d   1       2.313   2.161   0.942  0.00  0.00    -0.276 N 
ATOM      2  H   UNL d   1       1.297   2.168   0.872  0.00  0.00     0.189 HD
ENDROOT
BRANCH   1   3
ATOM      3  N   UNL d   1       2.963   3.318   1.271  0.00  0.00    -0.302 N 
ATOM      4  HN  UNL d   1       3.915   3.475   0.939  1.00  0.00     0.186 HD
BRANCH   3   5
ATOM      5  C   UNL d   1       2.378   4.219   2.005  0.00  0.00     0.039 C 
ATOM      6  C   UNL d   1       0.991   4.022   2.582  0.00  0.00     0.071 C 
BRANCH   5   7
ATOM      7  C   UNL d   1       3.158   5.427   2.283  0.00  0.00     0.028 A 
ATOM      8  S   UNL d   1       2.624   6.668   3.336  0.00  0.00    -0.100 SA
ATOM      9  C   UNL d   1       4.054   7.579   3.128  0.00  0.00     0.050 A 
ATOM     10  C   UNL d   1       4.929   6.970   2.259  0.00  0.00     0.008 A 
ATOM     11  C   UNL d   1       4.411   5.736   1.772  0.00  0.00     0.021 A 
ENDBRANCH   5   7
ENDBRANCH   3   5
ENDBRANCH   1   3
BRANCH   1  12
ATOM     12  C   UNL d   1       2.987   1.139   0.314  0.00  0.00     0.186 C 
ATOM     13  S   UNL d   1       4.609   1.131  -0.105  0.00  0.00    -0.040 SA
ATOM     14  N   UNL d   1       2.277   0.001   0.057  0.00  0.00    -0.364 N 
ATOM     15  H   UNL d   1       2.832  -0.717  -0.394  0.00  0.00     0.162 HD
BRANCH  14  16
ATOM     16  C   UNL d   1       0.973  -0.390   0.578  0.00  0.00     0.154 C 
BRANCH  16  17
ATOM     17  C   UNL d   1      -0.210   0.075  -0.274  0.00  0.00     0.139 C 
ATOM     18  O   UNL d   1      -0.293   1.516  -0.302  0.00  0.00    -0.384 OA
ATOM     19  C   UNL d   1      -0.611   1.910  -1.650  0.00  0.00     0.168 C 
ATOM     20  C   UNL d   1      -1.018   0.658  -2.398  0.00  0.00     0.029 C 
ATOM     21  C   UNL d   1      -0.183  -0.398  -1.718  0.00  0.00     0.035 C 
ENDBRANCH  16  17
ENDBRANCH  14  16
ENDBRANCH   1  12
TORSDOF 6
