REMARK  6 active torsions:
REMARK  status: ('A' for Active; 'I' for Inactive)
REMARK    1  A    between atoms: C_5  and  N_1 
REMARK    2  A    between atoms: C_2  and  C_3 
REMARK    3  A    between atoms: N_4  and  C_2 
REMARK    4  A    between atoms: C_14  and  C_2 
REMARK    5  A    between atoms: C_3  and  C_8 
REMARK       I    between atoms: C4_18  and  N_4 
REMARK    6  A    between atoms: O_15  and  C_14 
ROOT
ATOM      1  C   UNK d   1      -1.927  -1.584  -4.447  0.00  0.00     0.184 C 
ATOM      2  O   UNK d   1      -1.980  -1.692  -3.219  0.00  0.00    -0.290 OA
ENDROOT
BRANCH   1   3
ATOM      3  C   UNK d   1      -3.068  -0.933  -5.231  0.00  0.00     0.182 C 
BRANCH   3   4
ATOM      4  N   UNK d   1      -4.128  -1.937  -5.315  0.00  0.00    -0.348 N 
ATOM      5  C4  <1> d   1      -5.079  -1.875  -6.305  0.00  0.00     0.214 C 
ATOM      6  O4  <1> d   1      -5.052  -1.046  -7.207  0.00  0.00    -0.274 OA
ATOM      7  C11 <1> d   1      -6.142  -2.936  -6.220  0.00  0.00     0.117 C 
ATOM      8  H   UNK d   1      -4.309  -2.498  -4.489  0.00  0.00     0.163 HD
ENDBRANCH   3   4
BRANCH   3   9
ATOM      9  C   UNK d   1      -3.571   0.317  -4.490  0.00  0.00     0.197 C 
BRANCH   9  10
ATOM     10  O   UNK d   1      -2.559   1.318  -4.413  0.00  0.00    -0.398 OA
ATOM     11  H   UNK d   1      -2.154   1.240  -3.529  0.00  0.00     0.209 HD
ENDBRANCH   9  10
ENDBRANCH   3   9
ENDBRANCH   1   3
BRANCH   1  12
ATOM     12  C   UNK d   1      -0.808  -2.270  -5.171  0.00  0.00     0.012 A 
ATOM     13  C   UNK d   1      -0.400  -1.936  -6.469  0.00  0.00     0.017 A 
ATOM     14  C   UNK d   1       0.657  -2.631  -7.080  0.00  0.00     0.037 A 
ATOM     15  C   UNK d   1       1.308  -3.666  -6.391  0.00  0.00     0.102 A 
ATOM     16  C   UNK d   1       0.909  -4.007  -5.095  0.00  0.00     0.037 A 
ATOM     17  C   UNK d   1      -0.140  -3.306  -4.492  0.00  0.00     0.017 A 
BRANCH  15  18
ATOM     18  N   UNK d   1       2.417  -4.394  -7.025  0.00  0.00    -0.116 N 
ATOM     19  O   UNK d   1       2.950  -5.307  -6.380  0.00  0.00    -0.532 OA
ATOM     20  O   UNK d   1       2.751  -4.048  -8.169  0.00  0.00    -0.532 OA
ENDBRANCH  15  18
ENDBRANCH   1  12
TORSDOF 6
