REMARK  5 active torsions:
REMARK  status: ('A' for Active; 'I' for Inactive)
REMARK    1  A    between atoms: C_5  and  C_3 
REMARK    2  A    between atoms: C_14  and  N_4 
REMARK    3  A    between atoms: C_6  and  C_13 
REMARK    4  A    between atoms: S_17  and  C_11 
REMARK    5  A    between atoms: C_13  and  S_17 
ROOT
ATOM      1  C   UNL d   1       2.546   1.288  -0.365  0.00  0.00     0.067 A 
ATOM      2  N   UNL d   1       3.272   1.032  -1.470  0.00  0.00    -0.335 N 
ATOM      3  HN  UNL d   1       2.930   0.410  -2.203  1.00  0.00     0.168 HD
ATOM      4  C   UNL d   1       4.465   1.632  -1.558  0.00  0.00     0.144 A 
ATOM      5  N   UNL d   1       4.951   2.483  -0.639  0.00  0.00    -0.347 N 
ATOM      6  HN  UNL d   1       5.867   2.919  -0.749  1.00  0.00     0.167 HD
ATOM      7  C   UNL d   1       2.947   2.162   0.623  0.00  0.00     0.049 A 
ATOM      8  C   UNL d   1       4.178   2.735   0.432  0.00  0.00     0.092 A 
ENDROOT
BRANCH   1   9
ATOM      9  C   UNL d   1       1.253   0.572  -0.214  0.00  0.00     0.125 A 
ATOM     10  N   UNL d   1       0.264   1.147   0.419  0.00  0.00    -0.288 N 
ATOM     11  N   UNL d   1      -0.900   0.433   0.610  0.00  0.00    -0.267 N 
ATOM     12  HN  UNL d   1       0.351   2.103   0.764  1.00  0.00     0.188 HD
ATOM     13  C   UNL d   1      -1.033  -0.875   0.192  0.00  0.00     0.120 A 
ATOM     14  C   UNL d   1      -0.107  -1.568  -0.470  0.00  0.00     0.076 A 
ATOM     15  C   UNL d   1       1.140  -0.849  -0.758  0.00  0.00     0.203 A 
ATOM     16  O   UNL d   1       2.035  -1.407  -1.373  0.00  0.00    -0.286 OA
BRANCH  11  17
ATOM     17  C   UNL d   1      -1.958   1.157   1.248  0.00  0.00     0.056 A 
ATOM     18  C   UNL d   1      -2.077   2.551   1.076  0.00  0.00     0.034 A 
ATOM     19  C   UNL d   1      -3.128   3.269   1.656  0.00  0.00     0.044 A 
ATOM     20  C   UNL d   1      -4.065   2.604   2.432  0.00  0.00     0.116 A 
ATOM     21  C   UNL d   1      -3.971   1.235   2.642  0.00  0.00     0.044 A 
ATOM     22  F   UNL d   1      -5.072   3.289   2.989  0.00  0.00    -0.206 F 
ATOM     23  C   UNL d   1      -2.924   0.518   2.052  0.00  0.00     0.034 A 
ENDBRANCH  11  17
ENDBRANCH   1   9
BRANCH   4  24
ATOM     24  S   UNL d   1       5.508   1.305  -2.959  0.00  0.00    -0.089 SA
BRANCH  24  25
ATOM     25  C   UNL d   1       4.499   0.065  -3.826  0.00  0.00     0.124 C 
BRANCH  25  26
ATOM     26  C   UNL d   1       5.161  -0.433  -5.094  0.00  0.00    -0.005 A 
ATOM     27  C   UNL d   1       5.992  -1.570  -5.089  0.00  0.00     0.042 A 
ATOM     28 CL   UNL d   1       6.393  -2.414  -3.632  0.00  0.00    -0.084 Cl
ATOM     29  C   UNL d   1       6.540  -2.075  -6.276  0.00  0.00     0.024 A 
ATOM     30  C   UNL d   1       6.288  -1.446  -7.491  0.00  0.00     0.003 A 
ATOM     31  C   UNL d   1       5.510  -0.293  -7.514  0.00  0.00     0.024 A 
ATOM     32  C   UNL d   1       4.959   0.214  -6.330  0.00  0.00     0.042 A 
ATOM     33 CL   UNL d   1       4.025   1.665  -6.469  0.00  0.00    -0.084 Cl
ENDBRANCH  25  26
ENDBRANCH  24  25
ENDBRANCH   4  24
TORSDOF 5
