REMARK  6 active torsions:
REMARK  status: ('A' for Active; 'I' for Inactive)
REMARK    1  A    between atoms: S_8  and  C_3 
REMARK    2  A    between atoms: C_9  and  C_4 
REMARK    3  A    between atoms: C_7  and  C_10 
REMARK    4  A    between atoms: C_10  and  S_8 
REMARK    5  A    between atoms: O_15  and  C_9 
REMARK    6  A    between atoms: O_16  and  C_9 
ROOT
ATOM      1  N   UNL d   1       1.093   0.592   0.043  0.00  0.00    -0.336 N 
ATOM      2  HN  UNL d   1       1.992   1.072   0.056  1.00  0.00     0.168 HD
ATOM      3  C   UNL d   1      -0.051   1.282   0.086  0.00  0.00     0.144 A 
ATOM      4  C   UNL d   1       1.030  -0.757  -0.019  0.00  0.00     0.067 A 
ATOM      5  N   UNL d   1      -1.268   0.723   0.034  0.00  0.00    -0.347 N 
ATOM      6  HN  UNL d   1      -2.120   1.282   0.080  1.00  0.00     0.167 HD
ATOM      7  C   UNL d   1      -0.180  -1.416  -0.113  0.00  0.00     0.047 A 
ATOM      8  C   UNL d   1      -1.302  -0.618  -0.082  0.00  0.00     0.092 A 
ENDROOT
BRANCH   3   9
ATOM      9  S   UNL d   1       0.055   3.031   0.362  0.00  0.00    -0.089 SA
BRANCH   9  10
ATOM     10  C   UNL d   1       1.808   3.285  -0.067  0.00  0.00     0.122 C 
BRANCH  10  11
ATOM     11  C   UNL d   1       2.280   4.682   0.263  0.00  0.00    -0.027 A 
ATOM     12  C   UNL d   1       2.986   4.991   1.438  0.00  0.00     0.041 A 
ATOM     13 CL   UNL d   1       3.353   3.798   2.634  0.00  0.00    -0.084 Cl
ATOM     14  C   UNL d   1       3.427   6.296   1.680  0.00  0.00     0.024 A 
ATOM     15  C   UNL d   1       3.159   7.311   0.761  0.00  0.00     0.002 A 
ATOM     16  C   UNL d   1       2.447   7.025  -0.397  0.00  0.00     0.001 A 
ATOM     17  C   UNL d   1       2.008   5.722  -0.647  0.00  0.00     0.009 A 
ENDBRANCH  10  11
ENDBRANCH   9  10
ENDBRANCH   3   9
BRANCH   4  18
ATOM     18  C   UNL d   1       2.341  -1.532   0.091  0.00  0.00     0.309 C 
BRANCH  18  19
ATOM     19  O   UNL d   1       2.804  -1.789  -1.241  0.00  0.00    -0.360 OA
ATOM     20  C   UNL d   1       3.987  -2.573  -1.256  0.00  0.00     0.205 C 
ENDBRANCH  18  19
BRANCH  18  21
ATOM     21  O   UNL d   1       3.335  -0.808   0.831  0.00  0.00    -0.360 OA
ATOM     22  C   UNL d   1       3.002  -0.622   2.200  0.00  0.00     0.205 C 
ENDBRANCH  18  21
ENDBRANCH   4  18
TORSDOF 6
