REMARK  5 active torsions:
REMARK  status: ('A' for Active; 'I' for Inactive)
REMARK    1  A    between atoms: C_3  and  C_7 
REMARK       I    between atoms: N_9  and  C_3 
REMARK    2  A    between atoms: N_4  and  N_9 
REMARK    3  A    between atoms: O_16  and  C_6 
REMARK    4  A    between atoms: O_17  and  C_8 
REMARK    5  A    between atoms: C_14  and  C_13 
ROOT
ATOM      1  N   UNL d   1       6.142   4.478  -1.117  0.00  0.00    -0.197 NA
ATOM      2  C   UNL d   1       5.562   4.894  -2.034  0.00  0.00     0.068 C 
ATOM      3  C   UNL d   1       4.778   5.387  -3.156  0.00  0.00     0.228 C 
ENDROOT
BRANCH   3   4
ATOM      4  C   UNL d   1       3.307   5.036  -3.092  0.00  0.00     0.249 C 
ATOM      5  N   UNL d   1       2.845   4.300  -2.005  0.00  0.00    -0.270 N 
ATOM      6  H   UNL d   1       3.447   3.985  -1.248  0.00  0.00     0.190 HD
ATOM      7  O   UNL d   1       2.573   5.422  -4.008  0.00  0.00    -0.271 OA
BRANCH   5   8
ATOM      8  N   UNL d   1       1.510   4.019  -1.948  0.00  0.00    -0.308 N 
ATOM      9  C   UNL d   1       1.069   3.330  -0.944  0.00  0.00     0.118 C 
ATOM     10  HN  UNL d   1       0.876   4.343  -2.678  1.00  0.00     0.186 HD
BRANCH   9  11
ATOM     11  C   UNL d   1      -0.379   3.013  -0.831  0.00  0.00    -0.017 A 
ATOM     12  C   UNL d   1      -0.856   2.269   0.257  0.00  0.00     0.052 A 
ATOM     13  C   UNL d   1      -2.224   1.972   0.357  0.00  0.00     0.102 A 
ATOM     14  C   UNL d   1      -3.098   2.437  -0.639  0.00  0.00     0.099 A 
ATOM     15  C   UNL d   1      -2.628   3.177  -1.721  0.00  0.00     0.040 A 
ATOM     16  C   UNL d   1      -1.266   3.463  -1.817  0.00  0.00     0.016 A 
BRANCH  13  17
ATOM     17  O   UNL d   1      -2.804   1.249   1.366  0.00  0.00    -0.353 OA
ATOM     18  C   UNL d   1      -1.959   0.749   2.391  0.00  0.00     0.210 C 
ENDBRANCH  13  17
BRANCH  14  19
ATOM     19  O   UNL d   1      -4.436   2.155  -0.541  0.00  0.00    -0.358 OA
ATOM     20  H   UNL d   1      -4.904   2.554  -1.291  0.00  0.00     0.217 HD
ENDBRANCH  14  19
ENDBRANCH   9  11
ENDBRANCH   5   8
ENDBRANCH   3   4
TORSDOF 5
