REMARK  3 active torsions:
REMARK  status: ('A' for Active; 'I' for Inactive)
REMARK    1  A    between atoms: C_16  and  C_3 
REMARK    2  A    between atoms: C_9  and  C_14 
REMARK    3  A    between atoms: C_17  and  C_13 
ROOT
ATOM      1  C   UNL d   1      -2.041   0.292   0.001  0.00  0.00     0.027 C 
ATOM      2  C   UNL d   1      -1.099  -0.854  -0.140  0.00  0.00     0.194 C 
ATOM      3  C   UNL d   1      -1.423   1.552   0.542  0.00  0.00     0.199 C 
ATOM      4  O   UNL d   1      -0.194   1.858  -0.156  0.00  0.00    -0.335 OA
ATOM      5  C   UNL d   1       0.335  -0.510  -0.107  0.00  0.00     0.048 A 
ATOM      6  C   UNL d   1       0.712   0.832  -0.144  0.00  0.00     0.084 A 
ATOM      7  C   UNL d   1      -3.327   0.092  -0.345  0.00  0.00     0.025 C 
ATOM      8  O   UNL d   1      -1.476  -2.012  -0.263  0.00  0.00    -0.287 OA
ATOM      9  C   UNL d   1       1.307  -1.513  -0.069  0.00  0.00     0.018 A 
ATOM     10  C   UNL d   1       2.061   1.177  -0.185  0.00  0.00     0.038 A 
ATOM     11  C   UNL d   1       2.659  -1.165  -0.072  0.00  0.00     0.001 A 
ATOM     12  C   UNL d   1       3.035   0.178  -0.138  0.00  0.00     0.003 A 
ENDROOT
BRANCH   3  13
ATOM     13  C   UNL d   1      -1.201   1.595   2.058  0.00  0.00    -0.024 A 
ATOM     14  C   UNL d   1      -1.590   0.557   2.922  0.00  0.00     0.010 A 
ATOM     15  C   UNL d   1      -1.345   0.638   4.295  0.00  0.00     0.001 A 
ATOM     16  C   UNL d   1      -0.720   1.761   4.828  0.00  0.00     0.000 A 
ATOM     17  C   UNL d   1      -0.342   2.808   3.992  0.00  0.00     0.001 A 
ATOM     18  C   UNL d   1      -0.583   2.727   2.619  0.00  0.00     0.010 A 
ENDBRANCH   3  13
BRANCH   7  19
ATOM     19  C   UNL d   1      -4.359   1.126  -0.270  0.00  0.00    -0.035 A 
ATOM     20  C   UNL d   1      -4.662   1.878  -1.407  0.00  0.00     0.012 A 
ATOM     21  C   UNL d   1      -5.641   2.875  -1.356  0.00  0.00     0.016 A 
ATOM     22  C   UNL d   1      -6.333   3.134  -0.164  0.00  0.00     0.010 A 
ATOM     23  C   UNL d   1      -6.005   2.392   0.979  0.00  0.00     0.016 A 
ATOM     24  C   UNL d   1      -5.028   1.390   0.928  0.00  0.00     0.012 A 
BRANCH  22  25
ATOM     25  C   UNL d   1      -7.377   4.149  -0.090  0.00  0.00     0.141 A 
ATOM     26  N   UNL d   1      -7.747   4.857   0.960  0.00  0.00    -0.270 N 
ATOM     27  N   UNL d   1      -8.780   5.663   0.545  0.00  0.00    -0.007 NA
ATOM     28  HN  UNL d   1      -7.345   4.815   1.897  1.00  0.00     0.185 HD
ATOM     29  N   UNL d   1      -9.066   5.448  -0.731  0.00  0.00    -0.007 NA
ATOM     30  N   UNL d   1      -8.203   4.503  -1.123  0.00  0.00    -0.270 N 
ATOM     31  H   UNL d   1      -8.252   4.141  -2.065  0.00  0.00     0.185 HD
ENDBRANCH  22  25
ENDBRANCH   7  19
TORSDOF 3
