REMARK  6 active torsions:
REMARK  status: ('A' for Active; 'I' for Inactive)
REMARK    1  A    between atoms: C_5  and  C_1 
REMARK    2  A    between atoms: S_15  and  C_6 
REMARK    3  A    between atoms: C_11  and  C_13 
REMARK    4  A    between atoms: C_18  and  S_15 
REMARK    5  A    between atoms: C_16  and  C_18 
REMARK    6  A    between atoms: C_23  and  C_16 
ROOT
ATOM      1  C   UNL d   1      -0.233  -1.015   0.007  0.00  0.00     0.177 A 
ATOM      2  O   UNL d   1      -1.148   0.007  -0.061  0.00  0.00    -0.267 OA
ATOM      3  N   UNL d   1       1.003  -0.567   0.103  0.00  0.00    -0.277 N 
ATOM      4  HN  UNL d   1       1.849  -1.131   0.178  1.00  0.00     0.189 HD
ATOM      5  C   UNL d   1      -0.343   1.115  -0.030  0.00  0.00     0.204 A 
ATOM      6  N   UNL d   1       0.933   0.805   0.081  0.00  0.00    -0.272 N 
ATOM      7  HN  UNL d   1       1.715   1.457   0.141  1.00  0.00     0.189 HD
ENDROOT
BRANCH   1   8
ATOM      8  C   UNL d   1      -0.739  -2.385  -0.037  0.00  0.00     0.039 A 
ATOM      9  C   UNL d   1       0.108  -3.499   0.070  0.00  0.00     0.020 A 
ATOM     10  N   UNL d   1      -0.345  -4.784   0.009  0.00  0.00    -0.355 N 
ATOM     11  C   UNL d   1       1.595  -3.377   0.257  0.00  0.00     0.069 C 
ATOM     12  C   UNL d   1      -1.675  -5.015  -0.162  0.00  0.00     0.117 A 
ATOM     13  HN  UNL d   1       0.307  -5.564   0.091  1.00  0.00     0.166 HD
ATOM     14  C   UNL d   1      -2.580  -3.963  -0.264  0.00  0.00     0.035 A 
ATOM     15  C   UNL d   1      -2.107  -2.650  -0.201  0.00  0.00     0.020 A 
BRANCH  12  16
ATOM     16  C   UNL d   1      -2.182  -6.450  -0.251  0.00  0.00     0.432 C 
ATOM     17  F   UNL d   1      -1.210  -7.400  -0.144  0.00  0.00    -0.165 F 
ATOM     18  F   UNL d   1      -3.094  -6.741   0.723  0.00  0.00    -0.165 F 
ATOM     19  F   UNL d   1      -2.820  -6.703  -1.431  0.00  0.00    -0.165 F 
ENDBRANCH  12  16
ENDBRANCH   1   8
BRANCH   5  20
ATOM     20  S   UNL d   1      -0.944   2.743  -0.097  0.00  0.00    -0.077 SA
BRANCH  20  21
ATOM     21  C   UNL d   1       0.463   3.558  -0.922  0.00  0.00     0.166 C 
BRANCH  21  22
ATOM     22  C   UNL d   1       0.651   3.075  -2.354  0.00  0.00     0.169 C 
ATOM     23  O   UNL d   1      -0.094   2.259  -2.895  0.00  0.00    -0.291 OA
BRANCH  22  24
ATOM     24  C   UNL d   1       1.788   3.635  -3.151  0.00  0.00     0.010 A 
ATOM     25  C   UNL d   1       2.600   4.679  -2.689  0.00  0.00     0.015 A 
ATOM     26  C   UNL d   1       3.630   5.178  -3.496  0.00  0.00     0.001 A 
ATOM     27  C   UNL d   1       3.857   4.637  -4.761  0.00  0.00     0.000 A 
ATOM     28  C   UNL d   1       3.059   3.595  -5.225  0.00  0.00     0.001 A 
ATOM     29  C   UNL d   1       2.029   3.097  -4.425  0.00  0.00     0.015 A 
ENDBRANCH  22  24
ENDBRANCH  21  22
ENDBRANCH  20  21
ENDBRANCH   5  20
TORSDOF 6
