REMARK  5 active torsions:
REMARK  status: ('A' for Active; 'I' for Inactive)
REMARK    1  A    between atoms: C_2  and  S_1 
REMARK    2  A    between atoms: C_4  and  S_1 
REMARK    3  A    between atoms: C_7  and  C_3 
REMARK    4  A    between atoms: S_8  and  C_9 
REMARK    5  A    between atoms: C_14  and  S_8 
ROOT
ATOM      1  C   UNL d   1       0.870   0.132   2.158  0.00  0.00     0.146 C 
ATOM      2  C   UNL d   1      -0.431   0.463   2.230  0.00  0.00     0.048 C 
ATOM      3  C   UNL d   1       1.832   0.835   1.394  0.00  0.00     0.112 C 
ATOM      4  N   UNL d   1       2.622   1.417   0.774  0.00  0.00    -0.191 NA
ENDROOT
BRANCH   1   5
ATOM      5  S   UNL d   1       1.469  -1.192   3.103  0.00  0.00     0.232 S 
ATOM      6  O   UNL d   1       2.031  -2.189   2.204  0.00  0.00    -0.215 OA
ATOM      7  O   UNL d   1       0.501  -1.602   4.107  0.00  0.00    -0.215 OA
BRANCH   5   8
ATOM      8  C   UNL d   1       2.841  -0.437   3.982  0.00  0.00     0.134 A 
ATOM      9  N   UNL d   1       2.512   0.716   4.627  0.00  0.00    -0.356 N 
ATOM     10  C   UNL d   1       3.529   1.353   5.245  0.00  0.00     0.089 A 
ATOM     11  HN  UNL d   1       1.557   1.075   4.643  1.00  0.00     0.166 HD
ATOM     12  C   UNL d   1       4.844   0.908   5.222  0.00  0.00     0.017 A 
ATOM     13  C   UNL d   1       5.141  -0.266   4.532  0.00  0.00     0.004 A 
ATOM     14  C   UNL d   1       4.120  -0.964   3.894  0.00  0.00     0.042 A 
ENDBRANCH   5   8
ENDBRANCH   1   5
BRANCH   2  15
ATOM     15  C   UNL d   1      -0.956   1.696   1.621  0.00  0.00    -0.017 A 
ATOM     16  C   UNL d   1      -1.586   1.751   0.364  0.00  0.00     0.015 A 
ATOM     17  C   UNL d   1      -1.983   3.000  -0.141  0.00  0.00     0.019 A 
ATOM     18  C   UNL d   1      -1.761   4.172   0.587  0.00  0.00     0.001 A 
ATOM     19  C   UNL d   1      -1.160   4.111   1.839  0.00  0.00     0.001 A 
ATOM     20  C   UNL d   1      -0.760   2.881   2.354  0.00  0.00     0.013 A 
BRANCH  16  21
ATOM     21  S   UNL d   1      -2.034   0.289  -0.555  0.00  0.00    -0.090 SA
BRANCH  21  22
ATOM     22  C   UNL d   1      -0.708  -0.005  -1.711  0.00  0.00     0.005 A 
ATOM     23  C   UNL d   1      -0.677  -1.270  -2.320  0.00  0.00     0.020 A 
ATOM     24  C   UNL d   1       0.311  -1.600  -3.252  0.00  0.00     0.025 A 
ATOM     25  C   UNL d   1       1.280  -0.661  -3.587  0.00  0.00     0.034 A 
ATOM     26  C   UNL d   1       1.262   0.602  -3.002  0.00  0.00     0.025 A 
ATOM     27 CL   UNL d   1       2.500  -1.063  -4.731  0.00  0.00    -0.084 Cl
ATOM     28  C   UNL d   1       0.268   0.931  -2.068  0.00  0.00     0.020 A 
ENDBRANCH  21  22
ENDBRANCH  16  21
ENDBRANCH   2  15
TORSDOF 5
