REMARK  4 active torsions:
REMARK  status: ('A' for Active; 'I' for Inactive)
REMARK       I    between atoms: N_2  and  C_1 
REMARK    1  A    between atoms: C_5  and  C_1 
REMARK    2  A    between atoms: C_6  and  N_2 
REMARK    3  A    between atoms: C_3  and  C_4 
REMARK    4  A    between atoms: O_13  and  C_3 
ROOT
ATOM      1  C   UNL d   1       0.919   0.454  -0.427  0.00  0.00     0.256 C 
ATOM      2  N   UNL d   1       0.433   0.798   0.825  0.00  0.00    -0.323 N 
ATOM      3  O   UNL d   1       1.990   0.787  -0.919  0.00  0.00    -0.267 OA
ATOM      4  H   UNL d   1      -0.376   0.294   1.163  0.00  0.00     0.169 HD
ENDROOT
BRANCH   2   5
ATOM      5  C   UNL d   1       1.102   1.608   1.769  0.00  0.00     0.035 A 
ATOM      6  C   UNL d   1       2.196   2.410   1.442  0.00  0.00     0.047 A 
ATOM      7  C   UNL d   1       2.889   3.120   2.431  0.00  0.00     0.041 A 
ATOM      8  C   UNL d   1       2.459   3.047   3.760  0.00  0.00     0.018 A 
ATOM      9  C   UNL d   1       1.336   2.286   4.089  0.00  0.00     0.003 A 
ATOM     10  C   UNL d   1       0.656   1.576   3.095  0.00  0.00     0.029 A 
BRANCH   7  11
ATOM     11  C   UNL d   1       4.095   3.931   2.108  0.00  0.00     0.293 C 
ATOM     12  O   UNL d   1       4.746   4.538   2.944  0.00  0.00    -0.259 OA
BRANCH  11  13
ATOM     13  O   UNL d   1       4.357   3.877   0.779  0.00  0.00    -0.323 OA
ATOM     14  C   UNL d   1       5.534   4.569   0.370  0.00  0.00     0.213 C 
ENDBRANCH  11  13
ENDBRANCH   7  11
ENDBRANCH   2   5
BRANCH   1  15
ATOM     15  C   UNL d   1       0.072  -0.488  -1.202  0.00  0.00     0.032 A 
ATOM     16  C   UNL d   1      -1.325  -0.408  -1.194  0.00  0.00     0.018 A 
ATOM     17  C   UNL d   1      -2.073  -1.319  -1.947  0.00  0.00     0.025 A 
ATOM     18  C   UNL d   1      -1.425  -2.295  -2.707  0.00  0.00     0.034 A 
ATOM     19  C   UNL d   1      -0.033  -2.366  -2.732  0.00  0.00     0.025 A 
ATOM     20 CL   UNL d   1      -2.352  -3.416  -3.624  0.00  0.00    -0.084 Cl
ATOM     21  C   UNL d   1       0.716  -1.458  -1.984  0.00  0.00     0.018 A 
ENDBRANCH   1  15
TORSDOF 4
