REMARK  7 active torsions:
REMARK  status: ('A' for Active; 'I' for Inactive)
REMARK    1  A    between atoms: C_6  and  N_1 
REMARK    2  A    between atoms: C_11  and  C_2 
REMARK    3  A    between atoms: C_8  and  C_3 
REMARK    4  A    between atoms: O_24  and  C_8 
REMARK    5  A    between atoms: C_10  and  O_19 
REMARK       I    between atoms: N_16  and  C_10 
REMARK    6  A    between atoms: O_19  and  N_13 
REMARK    7  A    between atoms: C_22  and  N_16 
ROOT
ATOM      1  N   UNL d   1       0.310  -0.419   0.188  0.00  0.00    -0.251 N 
ATOM      2  C   UNL d   1       0.701   0.926   0.269  0.00  0.00     0.092 C 
ATOM      3  C   UNL d   1      -0.476   1.650   0.068  0.00  0.00     0.086 C 
ATOM      4  N   UNL d   1      -0.867  -0.526  -0.484  0.00  0.00    -0.303 N 
ATOM      5  HN  UNL d   1      -1.262  -1.356  -0.927  1.00  0.00     0.186 HD
ATOM      6  C   UNL d   1      -1.384   0.692  -0.430  0.00  0.00     0.127 C 
ENDROOT
BRANCH   2   7
ATOM      7  C   UNL d   1       2.055   1.366   0.476  0.00  0.00     0.147 C 
ATOM      8  N   UNL d   1       2.393   2.547   0.893  0.00  0.00    -0.265 N 
ATOM      9  HN  UNL d   1       1.762   3.311   1.134  1.00  0.00     0.194 HD
BRANCH   8  10
ATOM     10  O   UNL d   1       3.809   2.571   0.947  0.00  0.00    -0.181 OA
BRANCH  10  11
ATOM     11  C   UNL d   1       4.356   3.838   1.046  0.00  0.00     0.387 C 
ATOM     12  N   UNL d   1       3.449   4.837   1.318  0.00  0.00    -0.301 N 
ATOM     13  H   UNL d   1       2.509   4.486   1.481  0.00  0.00     0.171 HD
ATOM     14  O   UNL d   1       5.568   3.977   0.916  0.00  0.00    -0.236 OA
BRANCH  12  15
ATOM     15  C   UNL d   1       3.684   6.226   1.325  0.00  0.00     0.037 A 
ATOM     16  C   UNL d   1       4.864   6.809   0.846  0.00  0.00     0.031 A 
ATOM     17  C   UNL d   1       4.999   8.201   0.777  0.00  0.00     0.026 A 
ATOM     18  C   UNL d   1       3.963   9.019   1.212  0.00  0.00     0.034 A 
ATOM     19  C   UNL d   1       2.800   8.457   1.733  0.00  0.00     0.026 A 
ATOM     20 CL   UNL d   1       4.110  10.729   1.084  0.00  0.00    -0.084 Cl
ATOM     21  C   UNL d   1       2.659   7.063   1.782  0.00  0.00     0.031 A 
ENDBRANCH  12  15
ENDBRANCH  10  11
ENDBRANCH   8  10
ENDBRANCH   2   7
BRANCH   1  22
ATOM     22  C   UNL d   1       0.843  -1.618   0.758  0.00  0.00     0.095 A 
ATOM     23  C   UNL d   1       1.858  -1.631   1.717  0.00  0.00     0.147 A 
ATOM     24  C   UNL d   1       2.227  -2.814   2.359  0.00  0.00     0.087 A 
ATOM     25  F   UNL d   1       2.473  -0.515   2.120  0.00  0.00    -0.203 F 
ATOM     26  C   UNL d   1       1.565  -3.996   2.059  0.00  0.00     0.119 A 
ATOM     27  C   UNL d   1       0.563  -4.024   1.102  0.00  0.00     0.045 A 
ATOM     28  F   UNL d   1       1.879  -5.117   2.720  0.00  0.00    -0.206 F 
ATOM     29  C   UNL d   1       0.210  -2.843   0.445  0.00  0.00     0.038 A 
ENDBRANCH   1  22
BRANCH   3  30
ATOM     30  C   UNL d   1      -0.770   3.063   0.220  0.00  0.00     0.296 C 
ATOM     31  O   UNL d   1       0.019   3.925   0.572  0.00  0.00    -0.259 OA
BRANCH  30  32
ATOM     32  O   UNL d   1      -2.092   3.307  -0.051  0.00  0.00    -0.322 OA
ATOM     33  C   UNL d   1      -2.521   4.657   0.109  0.00  0.00     0.213 C 
ENDBRANCH  30  32
ENDBRANCH   3  30
TORSDOF 7
