REMARK  2 active torsions:
REMARK  status: ('A' for Active; 'I' for Inactive)
REMARK    1  A    between atoms: N_3  and  C_1 
REMARK    2  A    between atoms: N_13  and  C_4 
ROOT
ATOM      1  C   UNL d   1      -1.359  -1.484   0.062  0.00  0.00     0.158 A 
ATOM      2  C   UNL d   1      -0.125  -0.790   0.162  0.00  0.00     0.102 A 
ATOM      3  C   UNL d   1      -2.586  -0.785  -0.078  0.00  0.00     0.065 A 
ATOM      4  C   UNL d   1      -0.129   0.711   0.122  0.00  0.00     0.069 A 
ATOM      5  N   UNL d   1       1.117  -1.295   0.302  0.00  0.00    -0.308 N 
ATOM      6  HN  UNL d   1       1.366  -2.281   0.378  1.00  0.00     0.176 HD
ATOM      7  S   UNL d   1       2.162  -0.008   0.326  0.00  0.00     0.068 SA
ATOM      8  C   UNL d   1      -2.518   0.646  -0.095  0.00  0.00     0.034 A 
ATOM      9  N   UNL d   1       1.092   1.254   0.208  0.00  0.00    -0.310 N 
ATOM     10  HN  UNL d   1       1.320   2.248   0.202  1.00  0.00     0.176 HD
ATOM     11  C   UNL d   1      -1.341   1.423   0.006  0.00  0.00     0.035 A 
ENDROOT
BRANCH   1  12
ATOM     12  N   UNL d   1      -1.271  -2.903   0.217  0.00  0.00    -0.111 N 
ATOM     13  O   UNL d   1      -0.847  -3.555  -0.748  0.00  0.00    -0.532 OA
ATOM     14  O   UNL d   1      -1.652  -3.381   1.297  0.00  0.00    -0.532 OA
ENDBRANCH   1  12
BRANCH   3  15
ATOM     15  N   UNL d   1      -3.838  -1.369  -0.263  0.00  0.00    -0.388 N 
ATOM     16  C   UNL d   1      -4.018  -2.658  -0.925  0.00  0.00     0.149 C 
ATOM     17  C   UNL d   1      -5.017  -0.853   0.435  0.00  0.00     0.149 C 
ENDBRANCH   3  15
TORSDOF 2
