REMARK  4 active torsions:
REMARK  status: ('A' for Active; 'I' for Inactive)
REMARK    1  A    between atoms: O_5  and  N_1 
REMARK    2  A    between atoms: C_3  and  O_5 
REMARK    3  A    between atoms: C_12  and  C_3 
REMARK    4  A    between atoms: C_4  and  C_8 
ROOT
ATOM      1  N   UNL d   1       0.866   0.084   0.215  0.00  0.00    -0.261 N 
ATOM      2  HN  UNL d   1       0.421   0.872  -0.255  1.00  0.00     0.194 HD
ATOM      3  C   UNL d   1       2.154  -0.102   0.209  0.00  0.00     0.039 C 
ATOM      4  C   UNL d   1       2.934   0.911  -0.614  0.00  0.00     0.071 C 
ENDROOT
BRANCH   1   5
ATOM      5  O   UNL d   1       0.140  -0.884   0.919  0.00  0.00    -0.195 OA
BRANCH   5   6
ATOM      6  C   UNL d   1      -1.013  -0.354   1.411  0.00  0.00     0.315 C 
ATOM      7  O   UNL d   1      -1.241   0.817   1.694  0.00  0.00    -0.257 OA
BRANCH   6   8
ATOM      8  C   UNL d   1      -1.998  -1.442   1.623  0.00  0.00     0.041 A 
ATOM      9  C   UNL d   1      -2.009  -2.597   0.828  0.00  0.00     0.017 A 
ATOM     10  C   UNL d   1      -2.988  -3.573   1.026  0.00  0.00     0.001 A 
ATOM     11  C   UNL d   1      -3.957  -3.399   2.015  0.00  0.00     0.000 A 
ATOM     12  C   UNL d   1      -3.955  -2.248   2.803  0.00  0.00     0.001 A 
ATOM     13  C   UNL d   1      -2.982  -1.268   2.606  0.00  0.00     0.017 A 
ENDBRANCH   6   8
ENDBRANCH   5   6
ENDBRANCH   1   5
BRANCH   3  14
ATOM     14  C   UNL d   1       2.928  -1.185   0.900  0.00  0.00    -0.011 A 
ATOM     15  C   UNL d   1       2.402  -2.475   1.058  0.00  0.00     0.023 A 
ATOM     16  C   UNL d   1       3.167  -3.436   1.698  0.00  0.00    -0.022 A 
ATOM     17  C   UNL d   1       2.855  -4.854   1.973  0.00  0.00     0.068 C 
ATOM     18  C   UNL d   1       4.455  -3.156   2.118  0.00  0.00     0.075 A 
ATOM     19  C   UNL d   1       4.044  -5.196   2.874  0.00  0.00     0.180 C 
ATOM     20  O   UNL d   1       5.101  -4.230   2.665  0.00  0.00    -0.350 OA
ATOM     21  C   UNL d   1       5.014  -1.908   1.962  0.00  0.00     0.038 A 
ATOM     22  C   UNL d   1       4.232  -0.909   1.375  0.00  0.00     0.016 A 
ENDBRANCH   3  14
TORSDOF 4
