REMARK  2 active torsions:
REMARK  status: ('A' for Active; 'I' for Inactive)
REMARK    1  A    between atoms: C_5  and  C_1 
REMARK    2  A    between atoms: C_9  and  C_5 
ROOT
ATOM      1  C   UNL d   1      -1.568  -1.212   0.009  0.00  0.00     0.037 A 
ATOM      2  C   UNL d   1      -2.365  -0.078   0.019  0.00  0.00     0.104 A 
ATOM      3  N   UNL d   1      -1.552   1.024  -0.013  0.00  0.00    -0.364 N 
ATOM      4  C   UNL d   1      -0.208  -0.753  -0.023  0.00  0.00     0.006 A 
ATOM      5  C   UNL d   1      -0.233   0.643  -0.023  0.00  0.00     0.043 A 
ATOM      6  C   UNL d   1       1.048  -1.396  -0.028  0.00  0.00     0.014 A 
ATOM      7  C   UNL d   1       0.928   1.426  -0.029  0.00  0.00     0.030 A 
ATOM      8  C   UNL d   1       2.220  -0.628  -0.027  0.00  0.00     0.001 A 
ATOM      9  C   UNL d   1       2.156   0.763  -0.028  0.00  0.00     0.002 A 
ATOM     10  H   UNL d   1      -1.869   1.984  -0.020  0.00  0.00     0.165 HD
ENDROOT
BRANCH   1  11
ATOM     11  C   UNL d   1      -2.045  -2.599   0.039  0.00  0.00     0.161 C 
ATOM     12  O   UNL d   1      -1.332  -3.528  -0.336  0.00  0.00    -0.292 OA
BRANCH  11  13
ATOM     13  C   UNL d   1      -3.439  -2.844   0.604  0.00  0.00     0.079 C 
ATOM     14  C   UNL d   1      -3.861  -4.302   0.537  0.00  0.00     0.013 C 
ENDBRANCH  11  13
ENDBRANCH   1  11
TORSDOF 2
