REMARK  7 active torsions:
REMARK  status: ('A' for Active; 'I' for Inactive)
REMARK    1  A    between atoms: N_2  and  S_1 
REMARK    2  A    between atoms: C_4  and  S_1 
REMARK    3  A    between atoms: S_5  and  N_2 
REMARK    4  A    between atoms: C_10  and  S_5 
REMARK    5  A    between atoms: C_6  and  O_9 
REMARK    6  A    between atoms: C_11  and  C_6 
REMARK    7  A    between atoms: O_9  and  C_18 
ROOT
ATOM      1  C   UNL d   1       2.674  -3.103   0.481  0.00  0.00     0.010 A 
ATOM      2  C   UNL d   1       3.494  -1.966   0.471  0.00  0.00     0.022 A 
ATOM      3  C   UNL d   1       3.276  -4.367   0.585  0.00  0.00     0.022 A 
ATOM      4  C   UNL d   1       5.471  -3.353   0.614  0.00  0.00     0.079 A 
ATOM      5  C   UNL d   1       4.886  -2.092   0.514  0.00  0.00     0.039 A 
ATOM      6  C   UNL d   1       4.673  -4.495   0.649  0.00  0.00     0.039 A 
ENDROOT
BRANCH   1   7
ATOM      7  S   UNL d   1       0.867  -3.033   0.267  0.00  0.00    -0.086 SA
ATOM      8  C   UNL d   1       0.449  -2.156   1.801  0.00  0.00     0.108 C 
BRANCH   7   9
ATOM      9  N   UNL d   1       0.871  -1.721  -0.660  0.00  0.00    -0.260 N 
ATOM     10  HN  UNL d   1       0.851  -0.786  -0.252  1.00  0.00     0.186 HD
BRANCH   9  11
ATOM     11  S   UNL d   1       0.909  -1.949  -2.363  0.00  0.00     0.269 S 
ATOM     12  O   UNL d   1       1.867  -2.989  -2.690  0.00  0.00    -0.200 OA
ATOM     13  O   UNL d   1       1.008  -0.655  -3.013  0.00  0.00    -0.200 OA
BRANCH  11  14
ATOM     14  C   UNL d   1      -0.710  -2.584  -2.721  0.00  0.00     0.102 A 
ATOM     15  C   UNL d   1      -1.865  -1.854  -2.432  0.00  0.00     0.057 A 
ATOM     16 CL   UNL d   1      -1.866  -0.295  -1.691  0.00  0.00    -0.083 Cl
ATOM     17  C   UNL d   1      -3.115  -2.403  -2.743  0.00  0.00     0.025 A 
ATOM     18  C   UNL d   1      -3.211  -3.662  -3.339  0.00  0.00     0.002 A 
ATOM     19  C   UNL d   1      -2.057  -4.382  -3.634  0.00  0.00     0.002 A 
ATOM     20  C   UNL d   1      -0.807  -3.846  -3.328  0.00  0.00     0.027 A 
ENDBRANCH  11  14
ENDBRANCH   9  11
ENDBRANCH   7   9
ENDBRANCH   1   7
BRANCH   4  21
ATOM     21  O   UNL d   1       6.883  -3.385   0.566  0.00  0.00    -0.275 OA
BRANCH  21  22
ATOM     22  C   UNL d   1       7.593  -4.213   1.421  0.00  0.00     0.298 C 
ATOM     23  O   UNL d   1       7.123  -4.970   2.260  0.00  0.00    -0.259 OA
BRANCH  22  24
ATOM     24  C   UNL d   1       9.063  -4.085   1.185  0.00  0.00     0.040 A 
ATOM     25  C   UNL d   1       9.917  -4.960   1.879  0.00  0.00     0.019 A 
ATOM     26  C   UNL d   1      11.298  -4.933   1.662  0.00  0.00     0.025 A 
ATOM     27  C   UNL d   1      11.838  -4.027   0.755  0.00  0.00     0.034 A 
ATOM     28  C   UNL d   1      11.008  -3.124   0.086  0.00  0.00     0.025 A 
ATOM     29 CL   UNL d   1      13.530  -4.029   0.447  0.00  0.00    -0.084 Cl
ATOM     30  C   UNL d   1       9.624  -3.150   0.302  0.00  0.00     0.019 A 
ENDBRANCH  22  24
ENDBRANCH  21  22
ENDBRANCH   4  21
TORSDOF 7
