REMARK  4 active torsions:
REMARK  status: ('A' for Active; 'I' for Inactive)
REMARK    1  A    between atoms: N_6  and  N_1 
REMARK    2  A    between atoms: C_3  and  C_4 
REMARK    3  A    between atoms: C_7  and  C_3 
REMARK    4  A    between atoms: C_8  and  N_6 
ROOT
ATOM      1  N   UNL d   1       0.897   0.036  -0.025  0.00  0.00    -0.308 N 
ATOM      2  HN  UNL d   1       0.406   0.762  -0.547  1.00  0.00     0.186 HD
ATOM      3  C   UNL d   1       0.267  -0.848   0.676  0.00  0.00     0.162 C 
ENDROOT
BRANCH   1   4
ATOM      4  N   UNL d   1       2.255  -0.059  -0.025  0.00  0.00    -0.301 N 
ATOM      5  H   UNL d   1       2.698  -0.905   0.333  0.00  0.00     0.187 HD
BRANCH   4   6
ATOM      6  C   UNL d   1       2.904   0.467  -1.166  0.00  0.00     0.048 A 
ATOM      7  C   UNL d   1       2.369   1.546  -1.887  0.00  0.00     0.032 A 
ATOM      8  C   UNL d   1       3.015   2.045  -3.022  0.00  0.00     0.026 A 
ATOM      9  C   UNL d   1       4.211   1.470  -3.440  0.00  0.00     0.034 A 
ATOM     10  C   UNL d   1       4.770   0.412  -2.727  0.00  0.00     0.026 A 
ATOM     11 CL   UNL d   1       5.003   2.067  -4.846  0.00  0.00    -0.084 Cl
ATOM     12  C   UNL d   1       4.126  -0.076  -1.586  0.00  0.00     0.032 A 
ENDBRANCH   4   6
ENDBRANCH   1   4
BRANCH   3  13
ATOM     13  C   UNL d   1      -1.235  -0.848   0.679  0.00  0.00     0.198 C 
ATOM     14  O   UNL d   1      -1.801  -1.933   0.649  0.00  0.00    -0.286 OA
BRANCH  13  15
ATOM     15  C   UNL d   1      -1.980   0.433   0.714  0.00  0.00     0.015 A 
ATOM     16  C   UNL d   1      -3.247   0.491   0.122  0.00  0.00     0.015 A 
ATOM     17  C   UNL d   1      -3.962   1.690   0.130  0.00  0.00     0.001 A 
ATOM     18  C   UNL d   1      -3.421   2.823   0.739  0.00  0.00     0.000 A 
ATOM     19  C   UNL d   1      -2.164   2.762   1.340  0.00  0.00     0.001 A 
ATOM     20  C   UNL d   1      -1.442   1.570   1.328  0.00  0.00     0.015 A 
ENDBRANCH  13  15
ENDBRANCH   3  13
TORSDOF 4
