REMARK  3 active torsions:
REMARK  status: ('A' for Active; 'I' for Inactive)
REMARK    1  A    between atoms: C_2  and  S_1 
REMARK    2  A    between atoms: N_3  and  S_1 
REMARK    3  A    between atoms: C_13  and  N_3 
ROOT
ATOM      1  S   UNL d   1       1.103   0.047   0.121  0.00  0.00     0.263 S 
ATOM      2  O   UNL d   1       0.727   1.292  -0.510  0.00  0.00    -0.200 OA
ATOM      3  O   UNL d   1       0.722  -1.227  -0.452  0.00  0.00    -0.200 OA
ENDROOT
BRANCH   1   4
ATOM      4  C   UNL d   1       0.518   0.102   1.799  0.00  0.00     0.082 A 
ATOM      5  C   UNL d   1       0.251  -1.094   2.471  0.00  0.00     0.065 A 
ATOM      6  C   UNL d   1      -0.235  -1.050   3.775  0.00  0.00     0.103 A 
ATOM      7  O   UNL d   1      -0.469  -2.257   4.380  0.00  0.00    -0.346 OA
ATOM      8  C   UNL d   1      -0.446   0.181   4.408  0.00  0.00     0.102 A 
ATOM      9  C   UNL d   1      -1.245  -2.110   5.575  0.00  0.00     0.202 C 
ATOM     10  C   UNL d   1      -0.739  -0.945   6.409  0.00  0.00     0.202 C 
ATOM     11  O   UNL d   1      -0.892   0.290   5.700  0.00  0.00    -0.346 OA
ATOM     12  C   UNL d   1      -0.214   1.371   3.721  0.00  0.00     0.041 A 
ATOM     13  C   UNL d   1       0.270   1.338   2.411  0.00  0.00     0.028 A 
ENDBRANCH   1   4
BRANCH   1  14
ATOM     14  N   UNL d   1       2.763   0.100   0.291  0.00  0.00    -0.281 N 
ATOM     15  H   UNL d   1       3.229   0.949  -0.022  0.00  0.00     0.179 HD
BRANCH  14  16
ATOM     16  C   UNL d   1       3.505  -0.939   0.892  0.00  0.00     0.042 A 
ATOM     17  C   UNL d   1       3.902  -2.047   0.142  0.00  0.00     0.033 A 
ATOM     18  C   UNL d   1       4.763  -2.994   0.706  0.00  0.00     0.044 A 
ATOM     19  C   UNL d   1       5.208  -2.823   2.013  0.00  0.00     0.116 A 
ATOM     20  C   UNL d   1       4.802  -1.730   2.771  0.00  0.00     0.044 A 
ATOM     21  F   UNL d   1       6.056  -3.714   2.545  0.00  0.00    -0.206 F 
ATOM     22  C   UNL d   1       3.951  -0.779   2.204  0.00  0.00     0.033 A 
ENDBRANCH  14  16
ENDBRANCH   1  14
TORSDOF 3
