REMARK  9 active torsions:
REMARK  status: ('A' for Active; 'I' for Inactive)
REMARK    1  A    between atoms: C_3  and  C_1 
REMARK    2  A    between atoms: C_2  and  C_8 
REMARK       I    between atoms: N_17  and  C_3 
REMARK    3  A    between atoms: N_4  and  C_10 
REMARK    4  A    between atoms: O_21  and  C_7 
REMARK    5  A    between atoms: O_24  and  C_11 
REMARK    6  A    between atoms: O_26  and  C_14 
REMARK    7  A    between atoms: C_27  and  N_17 
REMARK    8  A    between atoms: C_20  and  C_29 
REMARK    9  A    between atoms: C_29  and  C_27 
ROOT
ATOM      1  C   UNL d   1       1.518  -0.152   0.410  0.00  0.00     0.058 A 
ATOM      2  C   UNL d   1       0.780   0.485  -0.618  0.00  0.00     0.047 A 
ATOM      3  C   UNL d   1       0.850  -0.707   1.518  0.00  0.00     0.019 A 
ATOM      4  C   UNL d   1      -0.610   0.603  -0.456  0.00  0.00     0.030 A 
ATOM      5  C   UNL d   1      -0.537  -0.609   1.631  0.00  0.00     0.001 A 
ATOM      6  C   UNL d   1      -1.265   0.061   0.653  0.00  0.00     0.002 A 
ENDROOT
BRANCH   1   7
ATOM      7  C   UNL d   1       3.008  -0.238   0.359  0.00  0.00     0.253 C 
ATOM      8  O   UNL d   1       3.691   0.715   0.020  0.00  0.00    -0.268 OA
ATOM      9  N   UNL d   1       3.555  -1.469   0.695  0.00  0.00    -0.356 N 
ATOM     10  H   UNL d   1       2.969  -2.165   1.136  0.00  0.00     0.162 HD
BRANCH   9  11
ATOM     11  C   UNL d   1       4.992  -1.673   0.714  0.00  0.00     0.127 C 
BRANCH  11  12
ATOM     12  C   UNL d   1       5.392  -3.139   0.511  0.00  0.00     0.058 C 
BRANCH  12  13
ATOM     13  C   UNL d   1       4.934  -4.042   1.634  0.00  0.00    -0.054 A 
ATOM     14  C   UNL d   1       3.719  -4.742   1.536  0.00  0.00     0.046 A 
ATOM     15  C   UNL d   1       3.230  -5.517   2.600  0.00  0.00     0.102 A 
ATOM     16  C   UNL d   1       4.003  -5.623   3.769  0.00  0.00     0.101 A 
ATOM     17  C   UNL d   1       5.222  -4.936   3.859  0.00  0.00     0.040 A 
ATOM     18  C   UNL d   1       5.686  -4.151   2.805  0.00  0.00     0.010 A 
BRANCH  15  19
ATOM     19  O   UNL d   1       2.013  -6.142   2.575  0.00  0.00    -0.353 OA
ATOM     20  C   UNL d   1       1.217  -6.029   1.403  0.00  0.00     0.210 C 
ENDBRANCH  15  19
BRANCH  16  21
ATOM     21  O   UNL d   1       3.695  -6.302   4.921  0.00  0.00    -0.353 OA
ATOM     22  C   UNL d   1       2.837  -7.428   4.808  0.00  0.00     0.210 C 
ENDBRANCH  16  21
ENDBRANCH  12  13
ENDBRANCH  11  12
ENDBRANCH   9  11
ENDBRANCH   1   7
BRANCH   2  23
ATOM     23  N   UNL d   1       1.305   1.007  -1.827  0.00  0.00    -0.364 N 
ATOM     24  C   UNL d   1       2.126   0.246  -2.480  0.00  0.00     0.102 C 
ATOM     25  HN  UNL d   1       1.050   1.935  -2.165  1.00  0.00     0.165 HD
BRANCH  24  26
ATOM     26  C   UNL d   1       2.759   0.626  -3.754  0.00  0.00     0.016 A 
ATOM     27  C   UNL d   1       3.850  -0.122  -4.210  0.00  0.00     0.099 A 
ATOM     28  C   UNL d   1       4.384   0.132  -5.476  0.00  0.00     0.069 A 
ATOM     29 CL   UNL d   1       5.705  -0.809  -6.065  0.00  0.00    -0.081 Cl
ATOM     30  C   UNL d   1       3.842   1.131  -6.281  0.00  0.00     0.050 A 
ATOM     31  C   UNL d   1       2.784   1.902  -5.797  0.00  0.00     0.036 A 
ATOM     32  C   UNL d   1       2.242   1.664  -4.533  0.00  0.00     0.039 A 
ATOM     33 CL   UNL d   1       2.122   3.139  -6.794  0.00  0.00    -0.084 Cl
BRANCH  27  34
ATOM     34  O   UNL d   1       4.390  -1.097  -3.410  0.00  0.00    -0.358 OA
ATOM     35  H   UNL d   1       5.244  -1.359  -3.802  0.00  0.00     0.217 HD
ENDBRANCH  27  34
ENDBRANCH  24  26
ENDBRANCH   2  23
TORSDOF 9
