REMARK  5 active torsions:
REMARK  status: ('A' for Active; 'I' for Inactive)
REMARK    1  A    between atoms: N_2  and  C_1 
REMARK    2  A    between atoms: N_9  and  C_3 
REMARK    3  A    between atoms: C_4  and  N_8 
REMARK    4  A    between atoms: S_22  and  C_4 
REMARK    5  A    between atoms: C_5  and  C_12 
ROOT
ATOM      1  C   UNL d   1       2.994  -6.525   0.026  0.00  0.00     0.151 C 
ATOM      2  N   UNL d   1       1.786  -6.912   0.289  0.00  0.00    -0.274 N 
ATOM      3  HN  UNL d   1       1.563  -7.278   1.215  1.00  0.00     0.180 HD
ATOM      4  C   UNL d   1       0.831  -6.838  -0.640  0.00  0.00     0.183 C 
ATOM      5  N   UNL d   1      -0.013  -6.767  -1.435  0.00  0.00    -0.172 NA
ENDROOT
BRANCH   1   6
ATOM      6  N   UNL d   1       4.036  -6.679   0.915  0.00  0.00    -0.358 N 
ATOM      7  C   UNL d   1       4.385  -5.571   1.826  0.00  0.00     0.145 C 
ATOM      8  C   UNL d   1       5.873  -5.697   2.227  0.00  0.00     0.143 C 
ATOM      9  N   UNL d   1       6.108  -7.019   2.870  0.00  0.00    -0.376 N 
ATOM     10  C   UNL d   1       5.711  -8.148   1.993  0.00  0.00     0.143 C 
ATOM     11  C   UNL d   1       4.228  -7.992   1.569  0.00  0.00     0.145 C 
BRANCH   9  12
ATOM     12  C   UNL d   1       7.252  -7.120   3.663  0.00  0.00     0.063 A 
ATOM     13  C   UNL d   1       7.391  -6.424   4.883  0.00  0.00     0.130 A 
ATOM     14  C   UNL d   1       8.551  -6.479   5.676  0.00  0.00     0.054 A 
ATOM     15  C   UNL d   1       9.630  -7.270   5.273  0.00  0.00     0.050 A 
ATOM     16  C   UNL d   1       9.507  -8.004   4.085  0.00  0.00     0.018 A 
ATOM     17  C   UNL d   1       8.342  -7.929   3.300  0.00  0.00     0.032 A 
BRANCH  13  18
ATOM     18  N   UNL d   1       6.292  -5.633   5.405  0.00  0.00    -0.113 N 
ATOM     19  O   UNL d   1       5.236  -6.215   5.689  0.00  0.00    -0.532 OA
ATOM     20  O   UNL d   1       6.506  -4.420   5.561  0.00  0.00    -0.532 OA
ENDBRANCH  13  18
BRANCH  15  21
ATOM     21  C   UNL d   1      10.896  -7.341   6.093  0.00  0.00     0.417 C 
ATOM     22  F   UNL d   1      10.866  -6.548   7.200  0.00  0.00    -0.166 F 
ATOM     23  F   UNL d   1      11.158  -8.599   6.539  0.00  0.00    -0.166 F 
ATOM     24  F   UNL d   1      11.993  -6.954   5.386  0.00  0.00    -0.166 F 
ENDBRANCH  15  21
ENDBRANCH   9  12
ENDBRANCH   1   6
BRANCH   1  25
ATOM     25  S   UNL d   1       3.556  -5.892  -1.525  0.00  0.00    -0.098 SA
ATOM     26  C   UNL d   1       2.753  -4.279  -1.557  0.00  0.00     0.099 C 
ENDBRANCH   1  25
TORSDOF 5
