REMARK  6 active torsions:
REMARK  status: ('A' for Active; 'I' for Inactive)
REMARK    1  A    between atoms: C_3  and  C_1 
REMARK    2  A    between atoms: C_12  and  C_2 
REMARK       I    between atoms: C_9  and  N_6 
REMARK    3  A    between atoms: C_17  and  C_8 
REMARK       I    between atoms: N_13  and  C_9 
REMARK    4  A    between atoms: O_20  and  C_12 
REMARK    5  A    between atoms: C_19  and  N_13 
REMARK    6  A    between atoms: C_29  and  O_20 
ROOT
ATOM      1  C   UNL d   1       0.088   1.247   0.006  0.00  0.00     0.069 A 
ATOM      2  C   UNL d   1       1.387   0.761  -0.021  0.00  0.00     0.129 A 
ATOM      3  N   UNL d   1       1.481  -0.642   0.023  0.00  0.00    -0.344 N 
ATOM      4  HN  UNL d   1       2.358  -1.161  -0.006  1.00  0.00     0.167 HD
ATOM      5  S   UNL d   1      -0.996  -0.078   0.222  0.00  0.00    -0.067 SA
ATOM      6  C   UNL d   1       0.291  -1.198   0.106  0.00  0.00     0.085 A 
ENDROOT
BRANCH   1   7
ATOM      7  C   UNL d   1      -0.432   2.590   0.020  0.00  0.00     0.082 C 
ATOM      8  N   UNL d   1      -1.624   2.981  -0.583  0.00  0.00    -0.204 N 
ATOM      9  C   UNL d   1      -2.380   2.306  -1.572  0.00  0.00     0.346 C 
ATOM     10  N   UNL d   1      -2.090   4.158  -0.050  0.00  0.00    -0.301 N 
ATOM     11  N   UNL d   1      -3.726   2.524  -1.359  0.00  0.00    -0.307 N 
ATOM     12  O   UNL d   1      -1.814   1.580  -2.375  0.00  0.00    -0.245 OA
ATOM     13  H   UNL d   1      -3.949   3.113  -0.558  0.00  0.00     0.170 HD
ATOM     14  C   UNL d   1      -1.031   4.637   0.609  0.00  0.00     0.110 C 
ATOM     15  HN  UNL d   1      -3.020   4.567  -0.136  1.00  0.00     0.186 HD
ATOM     16  C   UNL d   1       0.022   3.709   0.689  0.00  0.00     0.052 C 
BRANCH  11  17
ATOM     17  C   UNL d   1      -4.778   1.863  -2.016  0.00  0.00     0.036 A 
ATOM     18  C   UNL d   1      -4.612   1.171  -3.220  0.00  0.00     0.031 A 
ATOM     19  C   UNL d   1      -5.701   0.546  -3.834  0.00  0.00     0.026 A 
ATOM     20  C   UNL d   1      -6.956   0.595  -3.236  0.00  0.00     0.034 A 
ATOM     21  C   UNL d   1      -7.131   1.262  -2.026  0.00  0.00     0.026 A 
ATOM     22 CL   UNL d   1      -8.297  -0.166  -3.998  0.00  0.00    -0.084 Cl
ATOM     23  C   UNL d   1      -6.045   1.905  -1.423  0.00  0.00     0.031 A 
ENDBRANCH  11  17
ENDBRANCH   1   7
BRANCH   2  24
ATOM     24  C   UNL d   1       2.603   1.567  -0.121  0.00  0.00     0.311 C 
ATOM     25  O   UNL d   1       2.647   2.699  -0.597  0.00  0.00    -0.258 OA
BRANCH  24  26
ATOM     26  O   UNL d   1       3.684   0.900   0.375  0.00  0.00    -0.317 OA
BRANCH  26  27
ATOM     27  C   UNL d   1       4.968   1.463   0.090  0.00  0.00     0.175 C 
ATOM     28  C   UNL d   1       5.479   0.827  -1.187  0.00  0.00     0.034 C 
ENDBRANCH  26  27
ENDBRANCH  24  26
ENDBRANCH   2  24
BRANCH   6  29
ATOM     29  C   UNL d   1       0.037  -2.650   0.086  0.00  0.00    -0.002 A 
ATOM     30  C   UNL d   1       0.998  -3.508  -0.472  0.00  0.00     0.014 A 
ATOM     31  C   UNL d   1       0.786  -4.888  -0.528  0.00  0.00     0.001 A 
ATOM     32  C   UNL d   1      -0.392  -5.434  -0.023  0.00  0.00     0.000 A 
ATOM     33  C   UNL d   1      -1.355  -4.601   0.540  0.00  0.00     0.001 A 
ATOM     34  C   UNL d   1      -1.141  -3.221   0.596  0.00  0.00     0.014 A 
ENDBRANCH   6  29
TORSDOF 6
