REMARK  7 active torsions:
REMARK  status: ('A' for Active; 'I' for Inactive)
REMARK    1  A    between atoms: C_11  and  N_2 
REMARK       I    between atoms: C_3  and  N_8 
REMARK       I    between atoms: N_5  and  C_3 
REMARK    2  A    between atoms: C_9  and  N_5 
REMARK    3  A    between atoms: N_8  and  C_14 
REMARK    4  A    between atoms: C_14  and  C_11 
REMARK    5  A    between atoms: C_19  and  C_13 
REMARK    6  A    between atoms: C_20  and  C_19 
REMARK    7  A    between atoms: C_21  and  C_20 
ROOT
ATOM      1  C   UNL d   1      -3.581  -3.894  -1.610  0.00  0.00     0.320 C 
ATOM      2  N   UNL d   1      -4.547  -2.965  -1.292  0.00  0.00    -0.309 N 
ATOM      3  O   UNL d   1      -2.436  -3.666  -1.984  0.00  0.00    -0.247 OA
ATOM      4  N   UNL d   1      -4.053  -5.184  -1.492  0.00  0.00    -0.341 N 
ATOM      5  H   UNL d   1      -5.477  -3.324  -1.150  0.00  0.00     0.170 HD
ATOM      6  H   UNL d   1      -4.777  -5.362  -0.814  0.00  0.00     0.164 HD
ENDROOT
BRANCH   4   7
ATOM      7  C   UNL d   1      -3.215  -6.321  -1.860  0.00  0.00     0.144 C 
BRANCH   7   8
ATOM      8  C   UNL d   1      -2.025  -6.584  -0.918  0.00  0.00     0.147 C 
BRANCH   8   9
ATOM      9  N   UNL d   1      -2.424  -6.825   0.459  0.00  0.00    -0.331 N 
ATOM     10  C   UNL d   1      -3.253  -7.873   0.862  0.00  0.00     0.318 C 
ATOM     11  N   UNL d   1      -3.247  -7.884   2.253  0.00  0.00    -0.341 N 
ATOM     12  O   UNL d   1      -3.890  -8.630   0.162  0.00  0.00    -0.247 OA
ATOM     13  C   UNL d   1      -2.543  -6.736   2.758  0.00  0.00     0.144 C 
ATOM     14  H   UNL d   1      -3.937  -8.434   2.748  0.00  0.00     0.164 HD
ATOM     15  C   UNL d   1      -1.647  -6.358   1.587  0.00  0.00     0.147 C 
ENDBRANCH   8   9
ENDBRANCH   7   8
ENDBRANCH   4   7
BRANCH   2  16
ATOM     16  C   UNL d   1      -4.377  -1.566  -1.182  0.00  0.00     0.036 A 
ATOM     17  C   UNL d   1      -3.148  -0.924  -1.354  0.00  0.00     0.030 A 
ATOM     18  C   UNL d   1      -3.005   0.437  -1.068  0.00  0.00     0.009 A 
ATOM     19  C   UNL d   1      -4.090   1.185  -0.602  0.00  0.00    -0.058 A 
ATOM     20  C   UNL d   1      -5.347   0.574  -0.545  0.00  0.00     0.009 A 
ATOM     21  C   UNL d   1      -5.489  -0.792  -0.825  0.00  0.00     0.030 A 
BRANCH  19  22
ATOM     22  C   UNL d   1      -3.874   2.593  -0.102  0.00  0.00     0.038 C 
BRANCH  22  23
ATOM     23  C   UNL d   1      -4.211   2.760   1.389  0.00  0.00     0.004 C 
BRANCH  23  24
ATOM     24  C   UNL d   1      -3.394   1.843   2.310  0.00  0.00    -0.004 C 
ATOM     25  C   UNL d   1      -3.772   2.042   3.770  0.00  0.00     0.005 C 
ENDBRANCH  23  24
ENDBRANCH  22  23
ENDBRANCH  19  22
ENDBRANCH   2  16
TORSDOF 7
