REMARK  4 active torsions:
REMARK  status: ('A' for Active; 'I' for Inactive)
REMARK    1  A    between atoms: C_2  and  C_1 
REMARK       I    between atoms: N_7  and  C_2 
REMARK    2  A    between atoms: N_12  and  C_3 
REMARK    3  A    between atoms: C_10  and  N_7 
REMARK    4  A    between atoms: C_8  and  C_10 
ROOT
ATOM      1  C   UNL d   1       0.901  -0.036   0.166  0.00  0.00     0.127 C 
ATOM      2  C   UNL d   1       0.222  -0.663  -0.814  0.00  0.00     0.113 C 
ATOM      3  C   UNL d   1       0.244   0.623   1.236  0.00  0.00     0.106 C 
ATOM      4  N   UNL d   1      -0.256   1.171   2.132  0.00  0.00    -0.191 NA
ENDROOT
BRANCH   1   5
ATOM      5  C   UNL d   1       2.406  -0.100   0.162  0.00  0.00     0.263 C 
ATOM      6  N   UNL d   1       3.055   0.610   1.154  0.00  0.00    -0.352 N 
ATOM      7  H   UNL d   1       2.548   1.218   1.785  0.00  0.00     0.163 HD
ATOM      8  O   UNL d   1       3.023  -0.740  -0.686  0.00  0.00    -0.267 OA
BRANCH   6   9
ATOM      9  C   UNL d   1       4.504   0.681   1.182  0.00  0.00     0.164 C 
BRANCH   9  10
ATOM     10  C   UNL d   1       5.024   1.420   2.387  0.00  0.00    -0.002 A 
ATOM     11  C   UNL d   1       5.796   2.579   2.233  0.00  0.00     0.127 A 
ATOM     12  C   UNL d   1       6.324   3.257   3.327  0.00  0.00     0.085 A 
ATOM     13  F   UNL d   1       6.049   3.054   1.005  0.00  0.00    -0.205 F 
ATOM     14  C   UNL d   1       6.077   2.770   4.602  0.00  0.00     0.119 A 
ATOM     15  C   UNL d   1       5.313   1.622   4.794  0.00  0.00     0.043 A 
ATOM     16  F   UNL d   1       6.587   3.408   5.663  0.00  0.00    -0.206 F 
ATOM     17  C   UNL d   1       4.788   0.945   3.689  0.00  0.00     0.015 A 
ENDBRANCH   9  10
ENDBRANCH   6   9
ENDBRANCH   1   5
BRANCH   2  18
ATOM     18  N   UNL d   1      -1.142  -0.754  -1.105  0.00  0.00    -0.397 N 
ATOM     19  C   UNL d   1      -2.162   0.194  -0.650  0.00  0.00     0.148 C 
ATOM     20  C   UNL d   1      -1.696  -1.920  -1.800  0.00  0.00     0.148 C 
ENDBRANCH   2  18
TORSDOF 4
