REMARK  3 active torsions:
REMARK  status: ('A' for Active; 'I' for Inactive)
REMARK    1  A    between atoms: N_4  and  C_1 
REMARK    2  A    between atoms: C_3  and  S_8 
REMARK    3  A    between atoms: S_8  and  C_5 
ROOT
ATOM      1  C   UNL d   1       1.841  -3.844   0.058  0.00  0.00     0.120 C 
ATOM      2  N   UNL d   1       2.550  -2.804   0.436  0.00  0.00    -0.344 N 
ATOM      3  HN  UNL d   1       2.382  -1.841   0.147  1.00  0.00     0.167 HD
ATOM      4  S   UNL d   1       2.488  -5.377   0.468  0.00  0.00    -0.063 SA
ATOM      5  C   UNL d   1       3.560  -3.220   1.287  0.00  0.00     0.052 A 
ATOM      6  C   UNL d   1       3.651  -4.601   1.474  0.00  0.00     0.034 A 
ATOM      7  C   UNL d   1       4.428  -2.373   2.002  0.00  0.00     0.054 A 
ATOM      8  C   UNL d   1       4.558  -5.171   2.381  0.00  0.00     0.023 A 
ATOM      9  C   UNL d   1       5.280  -2.930   2.958  0.00  0.00     0.036 A 
ATOM     10  C   UNL d   1       5.344  -4.307   3.149  0.00  0.00     0.025 A 
ATOM     11 CL   UNL d   1       6.222  -1.889   3.955  0.00  0.00    -0.084 Cl
ENDROOT
BRANCH   1  12
ATOM     12  S   UNL d   1       0.333  -3.624  -0.803  0.00  0.00    -0.040 SA
BRANCH  12  13
ATOM     13  C   UNL d   1      -0.713  -3.947   0.571  0.00  0.00     0.120 A 
ATOM     14  S   UNL d   1      -1.732  -2.751   1.273  0.00  0.00    -0.039 SA
ATOM     15  C   UNL d   1      -2.344  -3.932   2.334  0.00  0.00     0.161 A 
ATOM     16  C   UNL d   1      -1.745  -5.147   2.115  0.00  0.00     0.133 A 
ATOM     17  N   UNL d   1      -0.808  -5.155   1.091  0.00  0.00    -0.352 N 
ATOM     18  HN  UNL d   1      -0.275  -5.970   0.789  1.00  0.00     0.166 HD
BRANCH  15  19
ATOM     19  N   UNL d   1      -3.357  -3.645   3.297  0.00  0.00    -0.107 N 
ATOM     20  O   UNL d   1      -3.735  -4.593   3.996  0.00  0.00    -0.531 OA
ATOM     21  O   UNL d   1      -3.787  -2.483   3.368  0.00  0.00    -0.531 OA
ENDBRANCH  15  19
ENDBRANCH  12  13
ENDBRANCH   1  12
TORSDOF 3
