REMARK  5 active torsions:
REMARK  status: ('A' for Active; 'I' for Inactive)
REMARK    1  A    between atoms: C_4  and  C_1 
REMARK    2  A    between atoms: C_6  and  CA_2 
REMARK    3  A    between atoms: C_5  and  C_3 
REMARK       I    between atoms: N_7  and  C_4 
REMARK    4  A    between atoms: OXT_21  and  C_6 
REMARK    5  A    between atoms: C_14  and  N_7 
ROOT
ATOM      1  C   UNL d   1      -1.405  -2.504   0.186  0.00  0.00     0.275 C 
ATOM      2  N   UNL d   1      -0.846  -3.771   0.147  0.00  0.00    -0.322 N 
ATOM      3  O   UNL d   1      -0.739  -1.489   0.352  0.00  0.00    -0.266 OA
ATOM      4  H   UNL d   1      -1.398  -4.542  -0.217  0.00  0.00     0.169 HD
ENDROOT
BRANCH   1   5
ATOM      5  C   UNL d   1      -2.899  -2.328   0.046  0.00  0.00     0.134 A 
ATOM      6  CA  UNL d   1      -3.827  -3.116  -0.621  0.00  0.00     0.139 A 
ATOM      7  N   UNL d   1      -5.152  -2.739  -0.780  0.00  0.00    -0.357 N 
ATOM      8  C   UNL d   1      -5.514  -1.577  -0.193  0.00  0.00     0.105 A 
ATOM      9  HN  UNL d   1      -5.815  -3.306  -1.309  1.00  0.00     0.165 HD
ATOM     10  C   UNL d   1      -4.624  -0.820   0.534  0.00  0.00     0.105 A 
ATOM     11  N   UNL d   1      -3.322  -1.168   0.654  0.00  0.00    -0.358 N 
ATOM     12  HN  UNL d   1      -2.672  -0.586   1.182  1.00  0.00     0.165 HD
BRANCH   6  13
ATOM     13  C   UNL d   1      -3.573  -4.459  -1.210  0.00  0.00     0.196 C 
ATOM     14  O   UNL d   1      -2.573  -5.135  -1.056  0.00  0.00    -0.645 OA
BRANCH  13  15
ATOM     15  OXT UNL d   1      -4.650  -4.887  -1.913  0.00  0.00    -0.772 OA
ATOM     16  HXT UNL d   1      -5.375  -4.220  -1.847  0.00  0.00     0.167 HD
ENDBRANCH  13  15
ENDBRANCH   6  13
ENDBRANCH   1   5
BRANCH   2  17
ATOM     17  C   UNL d   1       0.421  -4.145   0.648  0.00  0.00     0.035 A 
ATOM     18  C   UNL d   1       1.243  -3.307   1.403  0.00  0.00     0.047 A 
ATOM     19  C   UNL d   1       2.382  -3.794   2.089  0.00  0.00     0.067 A 
ATOM     20  C   UNL d   1       2.716  -5.144   1.939  0.00  0.00     0.026 A 
ATOM     21  C   UNL d   1       1.947  -5.969   1.108  0.00  0.00     0.022 A 
ATOM     22 BR   UNL d   1       4.151  -5.991   2.846  0.00  0.00    -0.050 Br
ATOM     23  C   UNL d   1       0.809  -5.475   0.470  0.00  0.00     0.031 A 
BRANCH  19  24
ATOM     24  C   UNL d   1       3.119  -2.800   2.954  0.00  0.00     0.418 C 
ATOM     25  F   UNL d   1       4.056  -3.310   3.795  0.00  0.00    -0.166 F 
ATOM     26  F   UNL d   1       3.767  -1.855   2.214  0.00  0.00    -0.166 F 
ATOM     27  F   UNL d   1       2.265  -2.105   3.764  0.00  0.00    -0.166 F 
ENDBRANCH  19  24
ENDBRANCH   2  17
TORSDOF 5
