REMARK  4 active torsions:
REMARK  status: ('A' for Active; 'I' for Inactive)
REMARK    1  A    between atoms: C_10  and  N_1 
REMARK    2  A    between atoms: S_9  and  C_2 
REMARK    3  A    between atoms: C_7  and  C_11 
REMARK    4  A    between atoms: C_11  and  S_9 
ROOT
ATOM      1  N   UNL d   1      -0.257   1.091   0.173  0.00  0.00    -0.313 N 
ATOM      2  C   UNL d   1       1.027   0.629   0.378  0.00  0.00     0.163 A 
ATOM      3  N   UNL d   1       1.036  -0.683   0.366  0.00  0.00    -0.279 N 
ATOM      4  HN  UNL d   1       1.851  -1.276   0.521  1.00  0.00     0.189 HD
ATOM      5  N   UNL d   1      -0.236  -1.116   0.111  0.00  0.00    -0.294 N 
ATOM      6  HN  UNL d   1      -0.540  -2.087   0.030  1.00  0.00     0.187 HD
ATOM      7  C   UNL d   1      -0.994  -0.053  -0.011  0.00  0.00     0.202 A 
ENDROOT
BRANCH   2   8
ATOM      8  S   UNL d   1       2.423   1.642   0.545  0.00  0.00    -0.087 SA
BRANCH   8   9
ATOM      9  C   UNL d   1       3.792   0.515   0.240  0.00  0.00     0.126 C 
BRANCH   9  10
ATOM     10  C   UNL d   1       4.013  -0.096  -1.126  0.00  0.00     0.012 A 
ATOM     11  C   UNL d   1       3.165   0.072  -2.230  0.00  0.00     0.125 A 
ATOM     12  F   UNL d   1       2.121   0.911  -2.196  0.00  0.00    -0.205 F 
ATOM     13  C   UNL d   1       3.369  -0.606  -3.434  0.00  0.00     0.043 A 
ATOM     14  C   UNL d   1       4.461  -1.448  -3.587  0.00  0.00     0.005 A 
ATOM     15  C   UNL d   1       5.359  -1.593  -2.537  0.00  0.00     0.024 A 
ATOM     16  C   UNL d   1       5.137  -0.927  -1.323  0.00  0.00     0.044 A 
ATOM     17 CL   UNL d   1       6.325  -1.165  -0.082  0.00  0.00    -0.084 Cl
ENDBRANCH   9  10
ENDBRANCH   8   9
ENDBRANCH   2   8
BRANCH   1  18
ATOM     18  C   UNL d   1      -0.770   2.472   0.100  0.00  0.00     0.029 C 
ATOM     19  C   UNL d   1      -0.252   3.177  -1.171  0.00  0.00     0.038 C 
ATOM     20  C   UNL d   1      -2.320   2.520   0.029  0.00  0.00     0.038 C 
ATOM     21  C   UNL d   1      -0.393   3.284   1.360  0.00  0.00     0.038 C 
ENDBRANCH   1  18
TORSDOF 4
