REMARK  3 active torsions:
REMARK  status: ('A' for Active; 'I' for Inactive)
REMARK    1  A    between atoms: C_8  and  N_1 
REMARK    2  A    between atoms: N_9  and  N_2 
REMARK    3  A    between atoms: C_3  and  C_4 
REMARK       I    between atoms: C_4  and  N_9 
ROOT
ATOM      1  N   UNL d   1      -0.807  -1.180   0.093  0.00  0.00    -0.308 N 
ATOM      2  N   UNL d   1       0.549   1.108   0.382  0.00  0.00    -0.248 N 
ATOM      3  C   UNL d   1      -1.518  -0.016  -0.256  0.00  0.00     0.244 C 
ATOM      4  C   UNL d   1       1.320  -0.042   0.450  0.00  0.00     0.257 C 
ATOM      5  C   UNL d   1      -0.614   1.200  -0.499  0.00  0.00     0.255 C 
ATOM      6  C   UNL d   1       0.634  -1.227  -0.204  0.00  0.00     0.236 C 
ATOM      7  O   UNL d   1       2.455  -0.087   0.919  0.00  0.00    -0.270 OA
ATOM      8  O   UNL d   1      -2.735   0.063  -0.396  0.00  0.00    -0.271 OA
ENDROOT
BRANCH   2   9
ATOM      9  N   UNL d   1       1.090   2.313   0.867  0.00  0.00    -0.260 N 
ATOM     10  C   UNL d   1       1.496   3.328   0.010  0.00  0.00     0.278 C 
ATOM     11  O   UNL d   1       1.257   3.274  -1.198  0.00  0.00    -0.265 OA
ATOM     12  H   UNL d   1       1.533   2.239   1.782  0.00  0.00     0.190 HD
BRANCH  10  13
ATOM     13  C   UNL d   1       2.146   4.460   0.664  0.00  0.00     0.096 A 
ATOM     14  C   UNL d   1       2.697   4.601   1.927  0.00  0.00     0.057 A 
ATOM     15  C   UNL d   1       3.155   5.927   2.183  0.00  0.00     0.032 A 
ATOM     16 CL   UNL d   1       2.853   3.390   3.133  0.00  0.00    -0.083 Cl
ATOM     17  C   UNL d   1       2.963   6.760   1.106  0.00  0.00     0.052 A 
ATOM     18  S   UNL d   1       2.256   5.940  -0.212  0.00  0.00    -0.095 SA
ENDBRANCH  10  13
ENDBRANCH   2   9
BRANCH   1  19
ATOM     19  C   UNL d   1      -1.447  -2.365   0.550  0.00  0.00     0.041 A 
ATOM     20  C   UNL d   1      -2.670  -2.800   0.026  0.00  0.00     0.053 A 
ATOM     21  C   UNL d   1      -3.257  -3.978   0.494  0.00  0.00     0.037 A 
ATOM     22 CL   UNL d   1      -4.725  -4.537  -0.211  0.00  0.00    -0.084 Cl
ATOM     23  C   UNL d   1      -2.664  -4.717   1.512  0.00  0.00     0.048 A 
ATOM     24  C   UNL d   1      -1.466  -4.271   2.057  0.00  0.00     0.037 A 
ATOM     25  C   UNL d   1      -0.851  -3.115   1.576  0.00  0.00     0.053 A 
ATOM     26 CL   UNL d   1      -0.737  -5.146   3.348  0.00  0.00    -0.084 Cl
ENDBRANCH   1  19
TORSDOF 3
