REMARK  3 active torsions:
REMARK  status: ('A' for Active; 'I' for Inactive)
REMARK       I    between atoms: N_2  and  C_1 
REMARK       I    between atoms: N_3  and  C_1 
REMARK    1  A    between atoms: C_9  and  N_3 
REMARK    2  A    between atoms: C_8  and  N_4 
REMARK    3  A    between atoms: C_16  and  C_8 
ROOT
ATOM      1  C   UNL d   1       0.986   0.004   0.098  0.00  0.00     0.323 C 
ATOM      2  N   UNL d   1       0.526  -1.229  -0.356  0.00  0.00    -0.331 N 
ATOM      3  N   UNL d   1       0.478   1.112  -0.534  0.00  0.00    -0.309 N 
ATOM      4  N   UNL d   1      -0.098  -3.980  -1.282  0.00  0.00     0.095 N 
ATOM      5  O   UNL d   1       1.836   0.056   0.988  0.00  0.00    -0.247 OA
ATOM      6  C   UNL d   1       1.088  -2.409   0.310  0.00  0.00     0.158 C 
ATOM      7  C   UNL d   1      -0.687  -1.485  -1.147  0.00  0.00     0.158 C 
ATOM      8  C   UNL d   1      -0.603  -2.782  -1.990  0.00  0.00     0.292 C 
ATOM      9  C   UNL d   1       1.178  -3.618  -0.629  0.00  0.00     0.292 C 
ATOM     10  H   UNL d   1      -0.307   0.983  -1.145  0.00  0.00     0.170 HD
ENDROOT
BRANCH   3  11
ATOM     11  C   UNL d   1       0.953   2.442  -0.431  0.00  0.00     0.036 A 
ATOM     12  C   UNL d   1       2.066   2.818   0.331  0.00  0.00     0.032 A 
ATOM     13  C   UNL d   1       2.519   4.140   0.334  0.00  0.00     0.044 A 
ATOM     14  C   UNL d   1       1.858   5.092  -0.428  0.00  0.00     0.116 A 
ATOM     15  C   UNL d   1       0.743   4.748  -1.180  0.00  0.00     0.044 A 
ATOM     16  F   UNL d   1       2.304   6.355  -0.441  0.00  0.00    -0.206 F 
ATOM     17  C   UNL d   1       0.289   3.425  -1.180  0.00  0.00     0.032 A 
ENDBRANCH   3  11
BRANCH   4  18
ATOM     18  C   UNL d   1      -1.109  -4.498  -0.340  0.00  0.00     0.311 C 
BRANCH  18  19
ATOM     19  C   UNL d   1      -0.712  -5.738   0.439  0.00  0.00    -0.030 A 
ATOM     20  C   UNL d   1      -1.154  -5.889   1.764  0.00  0.00     0.009 A 
ATOM     21  C   UNL d   1      -0.843  -7.037   2.495  0.00  0.00     0.001 A 
ATOM     22  C   UNL d   1      -0.086  -8.050   1.912  0.00  0.00     0.000 A 
ATOM     23  C   UNL d   1       0.351  -7.920   0.596  0.00  0.00     0.001 A 
ATOM     24  C   UNL d   1       0.029  -6.779  -0.141  0.00  0.00     0.009 A 
ENDBRANCH  18  19
ENDBRANCH   4  18
TORSDOF 3
