REMARK  3 active torsions:
REMARK  status: ('A' for Active; 'I' for Inactive)
REMARK    1  A    between atoms: C_2  and  C_1 
REMARK    2  A    between atoms: C_4  and  C_2 
REMARK    3  A    between atoms: C_7  and  C_4 
ROOT
ATOM      1  C   UNL d   1      -2.438  -1.715   0.441  0.00  0.00     0.076 A 
ATOM      2  N   UNL d   1      -3.268  -1.387  -0.585  0.00  0.00    -0.321 N 
ATOM      3  S   UNL d   1      -3.009  -1.068   1.937  0.00  0.00    -0.103 SA
ATOM      4  C   UNL d   1      -4.405  -0.668  -0.305  0.00  0.00     0.232 A 
ATOM      5  O   UNL d   1      -5.215  -0.307  -1.148  0.00  0.00    -0.272 OA
ATOM      6  C   UNL d   1      -4.536  -0.409   1.180  0.00  0.00     0.184 A 
ATOM      7  H   UNL d   1      -3.062  -1.680  -1.538  0.00  0.00     0.169 HD
ENDROOT
BRANCH   1   8
ATOM      8  C   UNL d   1      -1.319  -2.438   0.342  0.00  0.00     0.088 C 
BRANCH   8   9
ATOM      9  C   UNL d   1      -0.824  -3.007  -0.952  0.00  0.00     0.159 C 
ATOM     10  O   UNL d   1      -1.518  -2.907  -1.965  0.00  0.00    -0.292 OA
BRANCH   9  11
ATOM     11  C   UNL d   1       0.553  -3.702  -0.957  0.00  0.00     0.014 C 
ATOM     12  C   UNL d   1       0.503  -4.975  -0.100  0.00  0.00     0.023 C 
ATOM     13  C   UNL d   1       0.920  -4.096  -2.399  0.00  0.00     0.023 C 
ATOM     14  C   UNL d   1       1.632  -2.744  -0.428  0.00  0.00     0.023 C 
ENDBRANCH   9  11
ENDBRANCH   8   9
ENDBRANCH   1   8
TORSDOF 3
