REMARK  5 active torsions:
REMARK  status: ('A' for Active; 'I' for Inactive)
REMARK    1  A    between atoms: N_2  and  S_1 
REMARK    2  A    between atoms: C_10  and  S_1 
REMARK    3  A    between atoms: O_7  and  C_4 
REMARK    4  A    between atoms: C_6  and  O_7 
REMARK    5  A    between atoms: C_8  and  C_6 
ROOT
ATOM      1  N   UNL d   1       0.572   0.446   1.384  0.00  0.00    -0.271 N 
ATOM      2  C   UNL d   1       0.831  -0.312   2.593  0.00  0.00     0.059 A 
ATOM      3  C   UNL d   1       1.460   1.803   3.877  0.00  0.00     0.108 C 
ATOM      4  C   UNL d   1       1.248   0.332   3.795  0.00  0.00     0.027 A 
ATOM      5  C   UNL d   1       0.639   2.643   3.206  0.00  0.00     0.059 C 
ATOM      6  C   UNL d   1      -0.504   1.461   1.328  0.00  0.00     0.147 C 
ATOM      7  C   UNL d   1       1.079   3.941   2.813  0.00  0.00     0.098 C 
ATOM      8  C   UNL d   1       0.615  -1.695   2.586  0.00  0.00     0.055 A 
ATOM      9  N   UNL d   1       1.444   4.946   2.369  0.00  0.00    -0.192 NA
ATOM     10  C   UNL d   1       1.528  -0.458   4.922  0.00  0.00     0.018 A 
ATOM     11  C   UNL d   1      -0.692   2.171   2.662  0.00  0.00     0.074 C 
ATOM     12  C   UNL d   1       0.910  -2.455   3.713  0.00  0.00     0.036 A 
ATOM     13  C   UNL d   1       1.374  -1.846   4.875  0.00  0.00     0.025 A 
ATOM     14 CL   UNL d   1       0.710  -4.162   3.664  0.00  0.00    -0.084 Cl
ENDROOT
BRANCH   3  15
ATOM     15  O   UNL d   1       2.668   2.189   4.514  0.00  0.00    -0.273 OA
BRANCH  15  16
ATOM     16  C   UNL d   1       2.543   3.051   5.574  0.00  0.00     0.303 C 
ATOM     17  O   UNL d   1       1.485   3.432   6.060  0.00  0.00    -0.259 OA
BRANCH  16  18
ATOM     18  C   UNL d   1       3.866   3.422   6.142  0.00  0.00     0.100 A 
ATOM     19  C   UNL d   1       3.956   3.618   7.530  0.00  0.00     0.134 A 
ATOM     20  F   UNL d   1       2.902   3.398   8.328  0.00  0.00    -0.205 F 
ATOM     21  C   UNL d   1       5.145   4.026   8.143  0.00  0.00     0.043 A 
ATOM     22  C   UNL d   1       6.280   4.244   7.373  0.00  0.00     0.005 A 
ATOM     23  C   UNL d   1       6.216   4.053   5.994  0.00  0.00     0.025 A 
ATOM     24  C   UNL d   1       5.018   3.653   5.377  0.00  0.00     0.053 A 
ATOM     25 CL   UNL d   1       5.063   3.528   3.653  0.00  0.00    -0.083 Cl
ENDBRANCH  16  18
ENDBRANCH  15  16
ENDBRANCH   3  15
BRANCH   1  26
ATOM     26  S   UNL d   1       1.197  -0.079  -0.111  0.00  0.00     0.265 S 
ATOM     27  O   UNL d   1       0.103  -0.162  -1.046  0.00  0.00    -0.200 OA
ATOM     28  O   UNL d   1       2.116  -1.192   0.089  0.00  0.00    -0.200 OA
BRANCH  26  29
ATOM     29  C   UNL d   1       2.225   1.299  -0.579  0.00  0.00     0.080 A 
ATOM     30  C   UNL d   1       3.284   1.672   0.259  0.00  0.00     0.027 A 
ATOM     31  C   UNL d   1       4.093   2.751  -0.100  0.00  0.00     0.025 A 
ATOM     32  C   UNL d   1       3.849   3.438  -1.289  0.00  0.00     0.034 A 
ATOM     33  C   UNL d   1       2.805   3.051  -2.131  0.00  0.00     0.025 A 
ATOM     34 CL   UNL d   1       4.851   4.766  -1.725  0.00  0.00    -0.084 Cl
ATOM     35  C   UNL d   1       1.986   1.977  -1.777  0.00  0.00     0.027 A 
ENDBRANCH  26  29
ENDBRANCH   1  26
TORSDOF 5
