REMARK  3 active torsions:
REMARK  status: ('A' for Active; 'I' for Inactive)
REMARK    1  A    between atoms: C_6  and  C_1 
REMARK       I    between atoms: N_9  and  C_6 
REMARK       I    between atoms: C_8  and  N_10 
REMARK    2  A    between atoms: C_11  and  C_8 
REMARK    3  A    between atoms: N_10  and  N_9 
ROOT
ATOM      1  C   UNL d   1      -1.602  -2.285  -0.172  0.00  0.00     0.279 C 
ATOM      2  N   UNL d   1      -2.963  -2.508  -0.047  0.00  0.00    -0.262 N 
ATOM      3  O   UNL d   1      -1.078  -1.327   0.399  0.00  0.00    -0.265 OA
ATOM      4  H   UNL d   1      -3.444  -3.283  -0.501  0.00  0.00     0.190 HD
ENDROOT
BRANCH   2   5
ATOM      5  N   UNL d   1      -3.748  -1.615   0.687  0.00  0.00    -0.263 N 
ATOM      6  C   UNL d   1      -5.117  -1.792   0.670  0.00  0.00     0.270 C 
ATOM      7  O   UNL d   1      -5.662  -2.717   0.076  0.00  0.00    -0.266 OA
ATOM      8  H   UNL d   1      -3.288  -0.759   0.990  0.00  0.00     0.190 HD
BRANCH   6   9
ATOM      9  C   UNL d   1      -5.921  -0.771   1.399  0.00  0.00     0.033 A 
ATOM     10  C   UNL d   1      -7.248  -0.554   1.001  0.00  0.00     0.019 A 
ATOM     11  C   UNL d   1      -8.032   0.397   1.662  0.00  0.00     0.025 A 
ATOM     12  C   UNL d   1      -7.495   1.120   2.725  0.00  0.00     0.034 A 
ATOM     13  C   UNL d   1      -6.182   0.897   3.139  0.00  0.00     0.025 A 
ATOM     14 CL   UNL d   1      -8.458   2.290   3.540  0.00  0.00    -0.084 Cl
ATOM     15  C   UNL d   1      -5.395  -0.051   2.480  0.00  0.00     0.019 A 
ENDBRANCH   6   9
ENDBRANCH   2   5
BRANCH   1  16
ATOM     16  C   UNL d   1      -0.880  -3.231  -1.006  0.00  0.00     0.098 A 
ATOM     17  C   UNL d   1       0.484  -3.329  -1.249  0.00  0.00     0.028 A 
ATOM     18  N   UNL d   1       0.849  -4.342  -2.128  0.00  0.00    -0.357 N 
ATOM     19  C   UNL d   1       1.586  -2.502  -0.683  0.00  0.00     0.070 C 
ATOM     20  C   UNL d   1      -0.212  -4.988  -2.552  0.00  0.00     0.048 A 
ATOM     21  HN  UNL d   1       1.808  -4.554  -2.405  1.00  0.00     0.166 HD
ATOM     22  S   UNL d   1      -1.700  -4.454  -1.901  0.00  0.00    -0.070 SA
ATOM     23  C   UNL d   1      -0.168  -6.108  -3.531  0.00  0.00     0.076 C 
ENDBRANCH   1  16
TORSDOF 3
