REMARK  7 active torsions:
REMARK  status: ('A' for Active; 'I' for Inactive)
REMARK    1  A    between atoms: C_3  and  C_1 
REMARK    2  A    between atoms: C_4  and  C_1 
REMARK    3  A    between atoms: C_9  and  C_2 
REMARK    4  A    between atoms: O_16  and  C_3 
REMARK    5  A    between atoms: N_5  and  C_4 
REMARK    6  A    between atoms: O_17  and  C_11 
REMARK    7  A    between atoms: C_18  and  O_16 
ROOT
ATOM      1  C   UNL d   1       1.091  -0.023  -0.035  0.00  0.00     0.102 C 
ATOM      2  C   UNL d   1       0.412  -0.888  -0.815  0.00  0.00     0.039 C 
ENDROOT
BRANCH   1   3
ATOM      3  C   UNL d   1       0.367   1.000   0.745  0.00  0.00     0.302 C 
ATOM      4  O   UNL d   1      -0.846   1.143   0.735  0.00  0.00    -0.259 OA
BRANCH   3   5
ATOM      5  O   UNL d   1       1.262   1.799   1.375  0.00  0.00    -0.317 OA
BRANCH   5   6
ATOM      6  C   UNL d   1       0.769   3.073   1.807  0.00  0.00     0.174 C 
ATOM      7  C   UNL d   1       0.903   4.045   0.650  0.00  0.00     0.034 C 
ENDBRANCH   5   6
ENDBRANCH   3   5
ENDBRANCH   1   3
BRANCH   1   8
ATOM      8  C   UNL d   1       2.611  -0.023  -0.035  0.00  0.00    -0.031 C 
BRANCH   8   9
ATOM      9  N   UNL d   1       3.872  -0.023  -0.035  0.00  0.00    -0.365 N 
ATOM     10  HN2 UNL d   1       2.852  -0.023  -0.035  1.00  0.00     0.165 HD
ATOM     11  HN1 UNL d   1       4.892  -0.023  -0.035  1.00  0.00     0.165 HD
ENDBRANCH   8   9
ENDBRANCH   1   8
BRANCH   2  12
ATOM     12  C   UNL d   1       1.101  -1.855  -1.676  0.00  0.00    -0.033 A 
ATOM     13  C   UNL d   1       1.478  -3.105  -1.179  0.00  0.00     0.033 A 
ATOM     14  C   UNL d   1       2.258  -3.996  -1.944  0.00  0.00     0.045 A 
ATOM     15 BR   UNL d   1       2.650  -5.632  -1.056  0.00  0.00    -0.048 Br
ATOM     16  C   UNL d   1       2.669  -3.632  -3.233  0.00  0.00     0.085 A 
ATOM     17  C   UNL d   1       2.262  -2.377  -3.725  0.00  0.00     0.039 A 
ATOM     18  C   UNL d   1       1.490  -1.497  -2.964  0.00  0.00     0.014 A 
BRANCH  16  19
ATOM     19  O   UNL d   1       3.421  -4.288  -4.165  0.00  0.00    -0.355 OA
ATOM     20  C   UNL d   1       4.071  -5.508  -3.865  0.00  0.00     0.210 C 
ENDBRANCH  16  19
ENDBRANCH   2  12
TORSDOF 7
