REMARK  3 active torsions:
REMARK  status: ('A' for Active; 'I' for Inactive)
REMARK    1  A    between atoms: S_2  and  C_1 
REMARK    2  A    between atoms: C_4  and  C_3 
REMARK    3  A    between atoms: N_8  and  N_5 
ROOT
ATOM      1  C   UNL d   1       1.133  -0.366   0.521  0.00  0.00     0.141 C 
ATOM      2  C   UNL d   1       0.433  -0.819  -0.533  0.00  0.00     0.066 C 
ATOM      3  C   UNL d   1       0.574   0.026   1.764  0.00  0.00     0.111 C 
ATOM      4  N   UNL d   1       0.108   0.316   2.784  0.00  0.00    -0.191 NA
ENDROOT
BRANCH   1   5
ATOM      5  S   UNL d   1       2.861  -0.259   0.362  0.00  0.00     0.181 S 
ATOM      6  O   UNL d   1       3.222  -0.227  -1.046  0.00  0.00    -0.222 OA
ATOM      7  O   UNL d   1       3.381   0.759   1.256  0.00  0.00    -0.222 OA
ATOM      8  C   UNL d   1       3.391  -1.833   0.990  0.00  0.00     0.168 C 
ENDBRANCH   1   5
BRANCH   2   9
ATOM      9  C   UNL d   1      -0.976  -0.962  -0.518  0.00  0.00     0.053 A 
ATOM     10  N   UNL d   1      -1.816  -0.050  -1.139  0.00  0.00    -0.287 N 
ATOM     11  C   UNL d   1      -3.116  -0.445  -0.942  0.00  0.00     0.111 A 
ATOM     12  C   UNL d   1      -3.121  -1.639  -0.260  0.00  0.00     0.021 A 
ATOM     13  C   UNL d   1      -1.773  -1.972  -0.001  0.00  0.00     0.032 A 
BRANCH  10  14
ATOM     14  N   UNL d   1      -1.518   1.122  -1.905  0.00  0.00    -0.233 NA
ATOM     15  C   UNL d   1      -0.520   0.945  -2.947  0.00  0.00     0.136 C 
ATOM     16  C   UNL d   1      -1.298   2.307  -1.091  0.00  0.00     0.136 C 
ENDBRANCH  10  14
ENDBRANCH   2   9
TORSDOF 3
