REMARK  3 active torsions:
REMARK  status: ('A' for Active; 'I' for Inactive)
REMARK    1  A    between atoms: C_10  and  C_1 
REMARK    2  A    between atoms: C_9  and  C_5 
REMARK    3  A    between atoms: C_6  and  C_8 
ROOT
ATOM      1  C   UNL d   1      -1.137  -4.656  -1.041  0.00  0.00     0.048 A 
ATOM      2  C   UNL d   1      -0.268  -2.624   0.007  0.00  0.00    -0.007 A 
ATOM      3  C   UNL d   1      -0.985  -3.260  -1.019  0.00  0.00     0.030 A 
ATOM      4  C   UNL d   1      -0.558  -5.416  -0.014  0.00  0.00     0.016 A 
ATOM      5  C   UNL d   1       0.309  -3.406   1.016  0.00  0.00     0.014 A 
ATOM      6  C   UNL d   1       0.162  -4.795   1.007  0.00  0.00     0.002 A 
ENDROOT
BRANCH   2   7
ATOM      7  C   UNL d   1      -0.159  -1.167   0.035  0.00  0.00     0.068 A 
ATOM      8  C   UNL d   1       0.883  -0.367   0.572  0.00  0.00     0.075 A 
ATOM      9  C   UNL d   1       0.474   0.932   0.382  0.00  0.00     0.146 A 
ATOM     10  O   UNL d   1      -0.729   0.918  -0.250  0.00  0.00    -0.234 OA
ATOM     11  N   UNL d   1      -1.122  -0.383  -0.475  0.00  0.00    -0.260 N 
ATOM     12  HN  UNL d   1      -1.977  -0.690  -0.939  1.00  0.00     0.195 HD
BRANCH   9  13
ATOM     13  C   UNL d   1       1.087   2.188   0.730  0.00  0.00     0.181 C 
ATOM     14  O   UNL d   1       2.189   2.253   1.277  0.00  0.00    -0.291 OA
ATOM     15  C   UNL d   1       0.340   3.464   0.417  0.00  0.00     0.099 C 
ENDBRANCH   9  13
ENDBRANCH   2   7
BRANCH   1  16
ATOM     16  C   UNL d   1      -1.921  -5.337  -2.135  0.00  0.00     0.417 C 
ATOM     17  F   UNL d   1      -2.411  -4.480  -3.074  0.00  0.00    -0.166 F 
ATOM     18  F   UNL d   1      -1.174  -6.248  -2.818  0.00  0.00    -0.166 F 
ATOM     19  F   UNL d   1      -2.997  -6.020  -1.656  0.00  0.00    -0.166 F 
ENDBRANCH   1  16
TORSDOF 3
