REMARK  5 active torsions:
REMARK  status: ('A' for Active; 'I' for Inactive)
REMARK    1  A    between atoms: C_6  and  C_1 
REMARK    2  A    between atoms: C_2  and  N_5 
REMARK    3  A    between atoms: S_17  and  C_2 
REMARK    4  A    between atoms: C_3  and  C_7 
REMARK       I    between atoms: N_4  and  C_3 
REMARK    5  A    between atoms: N_5  and  N_4 
ROOT
ATOM      1  C   UNL d   1       0.561  -1.365   0.209  0.00  0.00     0.048 A 
ATOM      2  C   UNL d   1      -0.449  -3.979   0.621  0.00  0.00     0.033 A 
ATOM      3  C   UNL d   1       1.220  -2.476  -0.332  0.00  0.00     0.017 A 
ATOM      4  C   UNL d   1      -0.602  -1.576   0.966  0.00  0.00     0.017 A 
ATOM      5  C   UNL d   1      -1.103  -2.869   1.172  0.00  0.00     0.018 A 
ATOM      6  C   UNL d   1       0.720  -3.767  -0.128  0.00  0.00     0.018 A 
ENDROOT
BRANCH   2   7
ATOM      7  C   UNL d   1      -0.935  -5.388   0.769  0.00  0.00     0.270 C 
ATOM      8  N   UNL d   1      -2.091  -5.600   1.495  0.00  0.00    -0.264 N 
ATOM      9  H   UNL d   1      -2.643  -4.878   1.945  0.00  0.00     0.190 HD
ATOM     10  O   UNL d   1      -0.319  -6.317   0.248  0.00  0.00    -0.266 OA
BRANCH   8  11
ATOM     11  N   UNL d   1      -2.575  -6.912   1.596  0.00  0.00    -0.282 N 
ATOM     12  H   UNL d   1      -2.013  -7.639   1.150  0.00  0.00     0.188 HD
BRANCH  11  13
ATOM     13  C   UNL d   1      -3.739  -7.227   2.260  0.00  0.00     0.152 C 
ATOM     14  S   UNL d   1      -4.701  -6.112   3.054  0.00  0.00    -0.051 SA
BRANCH  13  15
ATOM     15  S   UNL d   1      -3.992  -8.960   2.171  0.00  0.00    -0.104 SA
ATOM     16  C   UNL d   1      -5.789  -9.119   2.258  0.00  0.00     0.098 C 
ENDBRANCH  13  15
ENDBRANCH  11  13
ENDBRANCH   8  11
ENDBRANCH   2   7
BRANCH   1  17
ATOM     17  C   UNL d   1       1.073   0.039  -0.017  0.00  0.00     0.417 C 
ATOM     18  F   UNL d   1       2.227   0.091  -0.738  0.00  0.00    -0.166 F 
ATOM     19  F   UNL d   1       1.331   0.692   1.150  0.00  0.00    -0.166 F 
ATOM     20  F   UNL d   1       0.177   0.814  -0.689  0.00  0.00    -0.166 F 
ENDBRANCH   1  17
TORSDOF 5
