REMARK  3 active torsions:
REMARK  status: ('A' for Active; 'I' for Inactive)
REMARK    1  A    between atoms: S_12  and  C_1 
REMARK    2  A    between atoms: C_13  and  N_7 
REMARK    3  A    between atoms: C_9  and  C_10 
ROOT
ATOM      1  C   UNL d   1      -0.251  -1.088   0.018  0.00  0.00     0.090 A 
ATOM      2  C   UNL d   1       0.521   0.079   0.029  0.00  0.00     0.078 A 
ATOM      3  N   UNL d   1      -1.607  -1.058  -0.018  0.00  0.00    -0.348 N 
ATOM      4  HN  UNL d   1      -2.155  -1.918  -0.024  1.00  0.00     0.166 HD
ATOM      5  C   UNL d   1       1.950   0.069   0.053  0.00  0.00     0.102 C 
ATOM      6  N   UNL d   1       3.111   0.129   0.066  0.00  0.00    -0.191 NA
ATOM      7  C   UNL d   1      -2.205   0.157  -0.047  0.00  0.00     0.048 A 
ATOM      8  C   UNL d   1      -0.135   1.317   0.010  0.00  0.00     0.028 A 
ATOM      9  C   UNL d   1      -1.522   1.361  -0.031  0.00  0.00     0.032 A 
ENDROOT
BRANCH   1  10
ATOM     10  S   UNL d   1       0.503  -2.714   0.051  0.00  0.00    -0.115 SA
ATOM     11  C   UNL d   1      -0.961  -3.787   0.045  0.00  0.00     0.097 C 
ENDBRANCH   1  10
BRANCH   7  12
ATOM     12  C   UNL d   1      -3.679   0.125  -0.096  0.00  0.00     0.117 C 
ATOM     13  N   UNL d   1      -4.376   1.211  -0.193  0.00  0.00    -0.364 N 
ATOM     14  HN  UNL d   1      -3.909   2.116  -0.246  1.00  0.00     0.165 HD
BRANCH  13  15
ATOM     15  C   UNL d   1      -5.778   1.141  -0.226  0.00  0.00     0.032 A 
ATOM     16  C   UNL d   1      -6.489   2.203   0.339  0.00  0.00     0.030 A 
ATOM     17  C   UNL d   1      -7.886   2.230   0.314  0.00  0.00     0.009 A 
ATOM     18  C   UNL d   1      -8.600   1.186  -0.282  0.00  0.00    -0.062 A 
ATOM     19  C   UNL d   1      -7.895   0.125  -0.858  0.00  0.00     0.009 A 
ATOM     20  C   UNL d   1     -10.098   1.224  -0.315  0.00  0.00     0.048 C 
ATOM     21  C   UNL d   1      -6.497   0.110  -0.840  0.00  0.00     0.030 A 
ENDBRANCH  13  15
ENDBRANCH   7  12
TORSDOF 3
