REMARK  0 active torsions:
REMARK  status: ('A' for Active; 'I' for Inactive)
ROOT
ATOM      1  C   UNL d   1      -0.114  -1.050  -0.003  0.00  0.00     0.134 A 
ATOM      2  C   UNL d   1      -0.365   0.313  -0.002  0.00  0.00     0.090 A 
ATOM      3  N   UNL d   1       0.646   1.220  -0.001  0.00  0.00    -0.351 N 
ATOM      4  HN  UNL d   1       0.487   2.228   0.000  1.00  0.00     0.166 HD
ATOM      5  C   UNL d   1      -1.775   0.491  -0.002  0.00  0.00     0.022 A 
ATOM      6  N   UNL d   1      -1.316  -1.697  -0.004  0.00  0.00    -0.340 N 
ATOM      7  N   UNL d   1       1.098  -1.635  -0.004  0.00  0.00    -0.339 N 
ATOM      8  HN  UNL d   1       1.243  -2.645  -0.005  1.00  0.00     0.167 HD
ATOM      9  C   UNL d   1      -2.350  -0.784  -0.003  0.00  0.00     0.046 A 
ATOM     10  C   UNL d   1       1.873   0.674  -0.001  0.00  0.00     0.059 A 
ATOM     11  C   UNL d   1       2.099  -0.732  -0.002  0.00  0.00     0.060 A 
ATOM     12  C   UNL d   1      -2.621   1.619  -0.001  0.00  0.00     0.023 A 
ATOM     13  C   UNL d   1      -3.735  -0.983  -0.004  0.00  0.00     0.031 A 
ATOM     14  C   UNL d   1      -4.014   1.446  -0.001  0.00  0.00    -0.061 A 
ATOM     15  C   UNL d   1      -4.552   0.154  -0.003  0.00  0.00     0.009 A 
ATOM     16  C   UNL d   1       2.967   1.530   0.001  0.00  0.00     0.032 A 
ATOM     17  C   UNL d   1       3.408  -1.198  -0.002  0.00  0.00     0.032 A 
ATOM     18  C   UNL d   1      -4.928   2.637  -0.000  0.00  0.00     0.048 C 
ATOM     19  C   UNL d   1       4.275   1.046   0.001  0.00  0.00     0.002 A 
ATOM     20  C   UNL d   1       4.497  -0.324  -0.000  0.00  0.00     0.002 A 
ATOM     21  H   UNL d   1      -1.415  -2.700  -0.005  0.00  0.00     0.167 HD
ENDROOT
TORSDOF 0
