REMARK  4 active torsions:
REMARK  status: ('A' for Active; 'I' for Inactive)
REMARK    1  A    between atoms: C_2  and  S_1 
REMARK    2  A    between atoms: N_3  and  S_1 
REMARK    3  A    between atoms: C_6  and  N_3 
REMARK    4  A    between atoms: C_13  and  C_10 
ROOT
ATOM      1  S   UNL d   1       0.649   0.101   0.147  0.00  0.00     0.264 S 
ATOM      2  O   UNL d   1      -0.103  -0.766   1.026  0.00  0.00    -0.200 OA
ATOM      3  O   UNL d   1       2.092   0.156   0.252  0.00  0.00    -0.200 OA
ENDROOT
BRANCH   1   4
ATOM      4  C   UNL d   1      -0.059   1.773   0.320  0.00  0.00     0.092 C 
ATOM      5  C   UNL d   1      -1.475   1.933   0.211  0.00  0.00    -0.032 C 
ATOM      6  C   UNL d   1      -2.032   3.244   0.237  0.00  0.00    -0.048 C 
ATOM      7  C   UNL d   1      -2.442   0.776   0.073  0.00  0.00     0.050 C 
ATOM      8  C   UNL d   1      -3.530   3.474   0.143  0.00  0.00     0.049 C 
ATOM      9  C   UNL d   1      -1.184   4.381   0.304  0.00  0.00    -0.049 C 
ATOM     10  C   UNL d   1       0.215   4.214   0.454  0.00  0.00    -0.048 C 
ATOM     11  C   UNL d   1      -1.808   5.759   0.208  0.00  0.00     0.049 C 
ATOM     12  C   UNL d   1       0.777   2.907   0.546  0.00  0.00    -0.032 C 
ATOM     13  C   UNL d   1       1.087   5.454   0.507  0.00  0.00     0.049 C 
ATOM     14  C   UNL d   1       2.252   2.798   0.862  0.00  0.00     0.050 C 
ENDBRANCH   1   4
BRANCH   1  15
ATOM     15  N   UNL d   1       0.281  -0.350  -1.444  0.00  0.00    -0.279 N 
ATOM     16  H   UNL d   1      -0.469  -1.020  -1.577  0.00  0.00     0.179 HD
BRANCH  15  17
ATOM     17  C   UNL d   1       1.173  -0.049  -2.519  0.00  0.00     0.055 C 
ATOM     18  C   UNL d   1       2.213  -0.940  -2.924  0.00  0.00    -0.023 C 
ATOM     19  C   UNL d   1       3.124  -0.444  -3.890  0.00  0.00     0.010 C 
ATOM     20  C   UNL d   1       2.987   0.809  -4.483  0.00  0.00     0.001 C 
ATOM     21  C   UNL d   1       1.903   1.603  -4.160  0.00  0.00     0.009 C 
ATOM     22  C   UNL d   1       0.974   1.175  -3.203  0.00  0.00    -0.034 C 
ATOM     23  C   UNL d   1      -0.222   2.064  -3.003  0.00  0.00     0.050 C 
BRANCH  18  24
ATOM     24  C   UNL d   1       2.384  -2.416  -2.447  0.00  0.00    -0.022 C 
ATOM     25  C   UNL d   1       1.104  -3.233  -2.731  0.00  0.00     0.019 C 
ATOM     26  C   UNL d   1       3.521  -3.183  -3.190  0.00  0.00     0.019 C 
ATOM     27  C   UNL d   1       2.732  -2.523  -0.953  0.00  0.00     0.019 C 
ENDBRANCH  18  24
ENDBRANCH  15  17
ENDBRANCH   1  15
TORSDOF 4
