REMARK  4 active torsions:
REMARK  status: ('A' for Active; 'I' for Inactive)
REMARK    1  A    between atoms: C_3  and  N_1 
REMARK    2  A    between atoms: C_4  and  C_2 
REMARK    3  A    between atoms: O_14  and  C_4 
REMARK    4  A    between atoms: N_16  and  C_12 
ROOT
ATOM      1  C   UNL d   1       0.987   3.635  -0.786  0.00  0.00     0.066 A 
ATOM      2  C   UNL d   1       1.232   2.243  -0.903  0.00  0.00     0.047 A 
ATOM      3  C   UNL d   1       2.173   1.873  -1.883  0.00  0.00     0.032 A 
ATOM      4  C   UNL d   1       1.662   4.572  -1.595  0.00  0.00     0.043 A 
ATOM      5  C   UNL d   1       2.579   4.172  -2.560  0.00  0.00     0.007 A 
ATOM      6  C   UNL d   1       2.853   2.814  -2.671  0.00  0.00     0.025 A 
ENDROOT
BRANCH   2   7
ATOM      7  N   UNL d   1       0.650   1.270  -0.086  0.00  0.00    -0.379 N 
ATOM      8  C   UNL d   1       1.394   0.057   0.300  0.00  0.00     0.127 C 
ATOM      9  C   UNL d   1       0.727  -1.214  -0.243  0.00  0.00    -0.000 C 
ATOM     10  C   UNL d   1       1.454  -2.464   0.252  0.00  0.00     0.011 C 
ATOM     11  C   UNL d   1      -0.745  -1.256   0.180  0.00  0.00     0.011 C 
ATOM     12  C   UNL d   1      -1.479  -0.011  -0.328  0.00  0.00    -0.000 C 
ATOM     13  C   UNL d   1      -0.802   1.269   0.172  0.00  0.00     0.127 C 
ATOM     14  C   UNL d   1      -2.939  -0.034   0.128  0.00  0.00     0.011 C 
ENDBRANCH   2   7
BRANCH   1  15
ATOM     15  C   UNL d   1       0.115   4.253   0.253  0.00  0.00     0.178 C 
ATOM     16  O   UNL d   1      -0.551   5.257   0.055  0.00  0.00    -0.646 OA
BRANCH  15  17
ATOM     17  O   UNL d   1       0.213   3.652   1.458  0.00  0.00    -0.773 OA
ATOM     18  H   UNL d   1       0.744   2.830   1.389  0.00  0.00     0.167 HD
ENDBRANCH  15  17
ENDBRANCH   1  15
BRANCH   5  19
ATOM     19  N   UNL d   1       3.384   5.113  -3.206  0.00  0.00    -0.303 NA
ATOM     20  H   UNL d   1       3.793   4.790  -4.077  0.00  0.00     0.124 HD
ATOM     21  H   UNL d   1       2.963   6.032  -3.294  0.00  0.00     0.124 HD
ENDBRANCH   5  19
TORSDOF 4
