REMARK  7 active torsions:
REMARK  status: ('A' for Active; 'I' for Inactive)
REMARK    1  A    between atoms: C_3  and  N_1 
REMARK    2  A    between atoms: S_18  and  C_2 
REMARK    3  A    between atoms: O_24  and  C_4 
REMARK    4  A    between atoms: C_13  and  C_5 
REMARK    5  A    between atoms: C_19  and  C_12 
REMARK    6  A    between atoms: C_17  and  C_20 
REMARK    7  A    between atoms: C_20  and  S_18 
ROOT
ATOM      1  N   UNL d   1       0.790   0.388  -0.193  0.00  0.00    -0.254 N 
ATOM      2  C   UNL d   1       1.111  -0.957  -0.088  0.00  0.00     0.169 A 
ATOM      3  C   UNL d   1      -0.557   0.362  -0.544  0.00  0.00     0.245 A 
ATOM      4  N   UNL d   1       0.086  -1.705  -0.428  0.00  0.00    -0.276 N 
ATOM      5  HN  UNL d   1       0.076  -2.724  -0.478  1.00  0.00     0.189 HD
ATOM      6  N   UNL d   1      -0.967  -0.874  -0.704  0.00  0.00    -0.263 N 
ATOM      7  HN  UNL d   1      -1.903  -1.164  -0.984  1.00  0.00     0.190 HD
ENDROOT
BRANCH   2   8
ATOM      8  S   UNL d   1       2.569  -1.589   0.600  0.00  0.00    -0.084 SA
BRANCH   8   9
ATOM      9  C   UNL d   1       2.635  -3.204  -0.256  0.00  0.00     0.168 C 
BRANCH   9  10
ATOM     10  C   UNL d   1       3.985  -3.827  -0.233  0.00  0.00     0.150 A 
ATOM     11  O   UNL d   1       5.083  -3.010  -0.158  0.00  0.00    -0.277 OA
ATOM     12  C   UNL d   1       6.117  -3.909  -0.203  0.00  0.00     0.174 A 
ATOM     13  N   UNL d   1       5.694  -5.151  -0.326  0.00  0.00    -0.277 N 
ATOM     14  N   UNL d   1       4.312  -5.098  -0.343  0.00  0.00    -0.281 N 
ATOM     15  HN  UNL d   1       6.272  -5.988  -0.394  1.00  0.00     0.189 HD
ATOM     16  HN  UNL d   1       3.672  -5.889  -0.426  1.00  0.00     0.189 HD
BRANCH  12  17
ATOM     17  C   UNL d   1       7.465  -3.366  -0.125  0.00  0.00     0.017 A 
ATOM     18  C   UNL d   1       7.694  -2.010   0.153  0.00  0.00     0.016 A 
ATOM     19  C   UNL d   1       8.995  -1.501   0.216  0.00  0.00     0.007 A 
ATOM     20  C   UNL d   1      10.095  -2.336  -0.000  0.00  0.00    -0.062 A 
ATOM     21  C   UNL d   1       9.875  -3.691  -0.270  0.00  0.00     0.007 A 
ATOM     22  C   UNL d   1      11.483  -1.769   0.052  0.00  0.00     0.048 C 
ATOM     23  C   UNL d   1       8.573  -4.201  -0.329  0.00  0.00     0.016 A 
ENDBRANCH  12  17
ENDBRANCH   9  10
ENDBRANCH   8   9
ENDBRANCH   2   8
BRANCH   1  24
ATOM     24  C   UNL d   1       1.571   1.545   0.094  0.00  0.00     0.060 A 
ATOM     25  C   UNL d   1       2.872   1.758  -0.412  0.00  0.00     0.075 A 
ATOM     26  C   UNL d   1       3.564   2.921   0.001  0.00  0.00     0.018 A 
ATOM     27  C   UNL d   1       2.971   3.871   0.832  0.00  0.00     0.001 A 
ATOM     28  C   UNL d   1       1.671   3.677   1.280  0.00  0.00     0.002 A 
ATOM     29  C   UNL d   1       0.978   2.521   0.924  0.00  0.00     0.031 A 
BRANCH  25  30
ATOM     30  C   UNL d   1       3.577   0.910  -1.452  0.00  0.00     0.419 C 
ATOM     31  F   UNL d   1       2.764   0.052  -2.118  0.00  0.00    -0.166 F 
ATOM     32  F   UNL d   1       4.152   1.678  -2.424  0.00  0.00    -0.166 F 
ATOM     33  F   UNL d   1       4.592   0.169  -0.932  0.00  0.00    -0.166 F 
ENDBRANCH  25  30
ENDBRANCH   1  24
BRANCH   3  34
ATOM     34  O   UNL d   1      -1.347   1.405  -0.764  0.00  0.00    -0.331 OA
ATOM     35  H   UNL d   1      -0.808   2.205  -0.861  0.00  0.00     0.221 HD
ENDBRANCH   3  34
TORSDOF 7
