REMARK  5 active torsions:
REMARK  status: ('A' for Active; 'I' for Inactive)
REMARK    1  A    between atoms: C_5  and  C_1 
REMARK    2  A    between atoms: O_16  and  C_1 
REMARK    3  A    between atoms: C_2  and  C_6 
REMARK    4  A    between atoms: O_15  and  C_2 
REMARK    5  A    between atoms: C_4  and  C_3 
ROOT
ATOM      1  C   UNL d   1       0.208   2.596   2.421  0.00  0.00     0.060 A 
ATOM      2  C   UNL d   1       0.090   0.293   3.096  0.00  0.00     0.041 A 
ATOM      3  C   UNL d   1       0.346   1.626   3.413  0.00  0.00     0.050 A 
ATOM      4  N   UNL d   1      -0.170   2.264   1.154  0.00  0.00    -0.364 N 
ATOM      5  HN  UNL d   1      -0.285   2.982   0.439  1.00  0.00     0.165 HD
ATOM      6  C   UNL d   1      -0.388   0.962   0.869  0.00  0.00     0.089 A 
ATOM      7  C   UNL d   1      -0.266  -0.054   1.794  0.00  0.00     0.035 A 
ENDROOT
BRANCH   1   8
ATOM      8  C   UNL d   1       0.506   4.024   2.671  0.00  0.00     0.060 A 
ATOM      9  C   UNL d   1       0.341   5.000   1.690  0.00  0.00     0.050 A 
ATOM     10  C   UNL d   1       0.717   6.313   1.975  0.00  0.00     0.041 A 
ATOM     11  C   UNL d   1       1.200   6.635   3.241  0.00  0.00     0.035 A 
ATOM     12  C   UNL d   1       1.308   5.620   4.168  0.00  0.00     0.089 A 
ATOM     13  N   UNL d   1       0.982   4.335   3.909  0.00  0.00    -0.364 N 
ATOM     14  HN  UNL d   1       1.089   3.615   4.623  1.00  0.00     0.165 HD
BRANCH  10  15
ATOM     15  C   UNL d   1       0.591   7.407   0.983  0.00  0.00     0.176 C 
ATOM     16  O   UNL d   1       0.416   8.568   1.312  0.00  0.00    -0.646 OA
BRANCH  15  17
ATOM     17  O   UNL d   1       0.736   7.019  -0.300  0.00  0.00    -0.773 OA
ATOM     18  H   UNL d   1       1.041   6.104  -0.441  0.00  0.00     0.167 HD
ENDBRANCH  15  17
ENDBRANCH  10  15
ENDBRANCH   1   8
BRANCH   2  19
ATOM     19  C   UNL d   1       0.248  -0.794   4.088  0.00  0.00     0.176 C 
ATOM     20  O   UNL d   1       0.600  -1.918   3.776  0.00  0.00    -0.646 OA
BRANCH  19  21
ATOM     21  O   UNL d   1      -0.078  -0.444   5.349  0.00  0.00    -0.773 OA
ATOM     22  H   UNL d   1      -0.498   0.429   5.456  0.00  0.00     0.167 HD
ENDBRANCH  19  21
ENDBRANCH   2  19
TORSDOF 5
