REMARK  3 active torsions:
REMARK  status: ('A' for Active; 'I' for Inactive)
REMARK    1  A    between atoms: O_9  and  N_4 
REMARK    2  A    between atoms: C_11  and  O_9 
REMARK    3  A    between atoms: C_10  and  C_11 
ROOT
ATOM      1  C   UNL d   1       0.764   1.258  -0.314  0.00  0.00     0.028 C 
ATOM      2  S   UNL d   1      -0.913   1.290   1.881  0.00  0.00    -0.148 SA
ATOM      3  S   UNL d   1       1.718  -0.155   1.841  0.00  0.00    -0.148 SA
ATOM      4  N   UNL d   1       1.238   2.261  -0.992  0.00  0.00    -0.273 N 
ATOM      5  HN  UNL d   1       0.707   3.096  -1.241  1.00  0.00     0.193 HD
ATOM      6  C   UNL d   1      -0.032  -0.241   2.322  0.00  0.00     0.105 C 
ATOM      7  C   UNL d   1      -0.698   1.298   0.082  0.00  0.00     0.130 C 
ATOM      8  C   UNL d   1       1.546   0.007   0.045  0.00  0.00     0.130 C 
ATOM      9  C   UNL d   1      -0.721  -1.498   1.802  0.00  0.00     0.033 C 
ENDROOT
BRANCH   4  10
ATOM     10  O   UNL d   1       2.577   2.039  -1.333  0.00  0.00    -0.276 OA
BRANCH  10  11
ATOM     11  C   UNL d   1       3.083   3.143  -2.081  0.00  0.00     0.239 C 
BRANCH  11  12
ATOM     12  C   UNL d   1       4.530   2.861  -2.395  0.00  0.00    -0.032 A 
ATOM     13  C   UNL d   1       4.975   2.763  -3.720  0.00  0.00     0.009 A 
ATOM     14  C   UNL d   1       6.320   2.506  -3.997  0.00  0.00     0.001 A 
ATOM     15  C   UNL d   1       7.231   2.344  -2.954  0.00  0.00     0.000 A 
ATOM     16  C   UNL d   1       6.798   2.430  -1.632  0.00  0.00     0.001 A 
ATOM     17  C   UNL d   1       5.456   2.687  -1.354  0.00  0.00     0.009 A 
ENDBRANCH  11  12
ENDBRANCH  10  11
ENDBRANCH   4  10
TORSDOF 3
