REMARK  8 active torsions:
REMARK  status: ('A' for Active; 'I' for Inactive)
REMARK    1  A    between atoms: C_8  and  C_1 
REMARK    2  A    between atoms: N_15  and  C_2 
REMARK    3  A    between atoms: C_7  and  C_3 
REMARK    4  A    between atoms: C_9  and  C_7 
REMARK    5  A    between atoms: O_19  and  C_8 
REMARK    6  A    between atoms: O_20  and  C_9 
REMARK    7  A    between atoms: C_24  and  O_19 
REMARK    8  A    between atoms: C_23  and  O_20 
ROOT
ATOM      1  C   UNL d   1      -1.197   2.148   1.253  0.00  0.00     0.205 C 
ATOM      2  C   UNL d   1      -0.076   3.099   1.363  0.00  0.00     0.075 C 
ATOM      3  N   UNL d   1       0.788   3.870   1.421  0.00  0.00    -0.196 NA
ENDROOT
BRANCH   1   4
ATOM      4  C   UNL d   1      -1.186   1.353  -0.082  0.00  0.00     0.092 C 
ATOM      5  C   UNL d   1      -2.452   0.516  -0.255  0.00  0.00     0.073 C 
ATOM      6  C   UNL d   1      -2.416  -0.829  -0.151  0.00  0.00     0.134 C 
ATOM      7  O   UNL d   1      -1.245  -1.499   0.178  0.00  0.00    -0.297 OA
ATOM      8  C   UNL d   1      -0.035  -0.893  -0.051  0.00  0.00     0.090 A 
ATOM      9  C   UNL d   1       0.054   0.489  -0.256  0.00  0.00    -0.011 A 
ATOM     10  C   UNL d   1       1.107  -1.708  -0.083  0.00  0.00    -0.026 A 
ATOM     11  C   UNL d   1       1.300   1.046  -0.586  0.00  0.00     0.034 A 
ATOM     12  C   UNL d   1       2.439   0.245  -0.614  0.00  0.00     0.035 A 
ATOM     13 CL   UNL d   1       3.967   0.946  -0.977  0.00  0.00    -0.084 Cl
ATOM     14  C   UNL d   1       2.351  -1.118  -0.344  0.00  0.00     0.033 A 
ATOM     15  C   UNL d   1       1.047  -3.190   0.157  0.00  0.00     0.051 C 
BRANCH   5  16
ATOM     16  C   UNL d   1      -3.687   1.292  -0.552  0.00  0.00     0.293 C 
ATOM     17  O   UNL d   1      -3.654   2.461  -0.908  0.00  0.00    -0.259 OA
BRANCH  16  18
ATOM     18  O   UNL d   1      -4.812   0.581  -0.285  0.00  0.00    -0.318 OA
BRANCH  18  19
ATOM     19  C   UNL d   1      -6.069   1.237  -0.518  0.00  0.00     0.174 C 
ATOM     20  C   UNL d   1      -6.493   1.053  -1.963  0.00  0.00     0.034 C 
ENDBRANCH  18  19
ENDBRANCH  16  18
ENDBRANCH   5  16
BRANCH   6  21
ATOM     21  N   UNL d   1      -3.478  -1.689  -0.294  0.00  0.00    -0.282 NA
ATOM     22  H   UNL d   1      -4.384  -1.246  -0.141  0.00  0.00     0.126 HD
ATOM     23  H   UNL d   1      -3.350  -2.543   0.243  0.00  0.00     0.126 HD
ENDBRANCH   6  21
ENDBRANCH   1   4
BRANCH   1  24
ATOM     24  C   UNL d   1      -1.202   1.240   2.466  0.00  0.00     0.277 C 
ATOM     25  O   UNL d   1      -0.215   0.839   3.067  0.00  0.00    -0.264 OA
BRANCH  24  26
ATOM     26  O   UNL d   1      -2.489   0.910   2.786  0.00  0.00    -0.321 OA
BRANCH  26  27
ATOM     27  C   UNL d   1      -2.659   0.047   3.922  0.00  0.00     0.174 C 
ATOM     28  C   UNL d   1      -2.453  -1.403   3.527  0.00  0.00     0.034 C 
ENDBRANCH  26  27
ENDBRANCH  24  26
ENDBRANCH   1  24
TORSDOF 8
