REMARK  5 active torsions:
REMARK  status: ('A' for Active; 'I' for Inactive)
REMARK    1  A    between atoms: N_2  and  S_1 
REMARK    2  A    between atoms: C_3  and  S_1 
REMARK    3  A    between atoms: C_15  and  N_5 
REMARK    4  A    between atoms: C_16  and  C_15 
REMARK    5  A    between atoms: C_17  and  C_16 
ROOT
ATOM      1  N   UNL d   1       0.504  -0.003   1.313  0.00  0.00    -0.203 NA
ATOM      2  N   UNL d   1       2.851  -0.601   3.073  0.00  0.00     0.091 N 
ATOM      3  C   UNL d   1       1.112   1.055   2.186  0.00  0.00     0.138 C 
ATOM      4  C   UNL d   1       0.709  -1.347   1.942  0.00  0.00     0.138 C 
ATOM      5  C   UNL d   1       2.206  -1.606   2.196  0.00  0.00     0.287 C 
ATOM      6  C   UNL d   1       2.595   0.752   2.522  0.00  0.00     0.287 C 
ENDROOT
BRANCH   1   7
ATOM      7  S   UNL d   1       0.914   0.054  -0.350  0.00  0.00     0.250 S 
ATOM      8  O   UNL d   1       0.659  -1.261  -0.910  0.00  0.00    -0.205 OA
ATOM      9  O   UNL d   1       2.194   0.696  -0.519  0.00  0.00    -0.205 OA
BRANCH   7  10
ATOM     10  C   UNL d   1      -0.240   1.087  -1.228  0.00  0.00     0.115 A 
ATOM     11  S   UNL d   1      -0.393   2.712  -0.727  0.00  0.00    -0.089 SA
ATOM     12  C   UNL d   1      -1.499   3.064  -1.985  0.00  0.00     0.051 A 
ATOM     13  C   UNL d   1      -1.754   1.964  -2.772  0.00  0.00     0.009 A 
ATOM     14  C   UNL d   1      -1.032   0.821  -2.330  0.00  0.00     0.033 A 
ENDBRANCH   7  10
ENDBRANCH   1   7
BRANCH   2  15
ATOM     15  C   UNL d   1       2.427  -0.691   4.483  0.00  0.00     0.277 C 
BRANCH  15  16
ATOM     16  C   UNL d   1       2.819  -2.026   5.138  0.00  0.00     0.068 C 
BRANCH  16  17
ATOM     17  C   UNL d   1       2.397  -2.106   6.582  0.00  0.00    -0.057 A 
ATOM     18  C   UNL d   1       1.114  -2.561   6.921  0.00  0.00     0.007 A 
ATOM     19  C   UNL d   1       0.737  -2.671   8.258  0.00  0.00     0.001 A 
ATOM     20  C   UNL d   1       1.635  -2.321   9.265  0.00  0.00     0.000 A 
ATOM     21  C   UNL d   1       2.907  -1.853   8.935  0.00  0.00     0.001 A 
ATOM     22  C   UNL d   1       3.286  -1.740   7.599  0.00  0.00     0.007 A 
ENDBRANCH  16  17
ENDBRANCH  15  16
ENDBRANCH   2  15
TORSDOF 5
