REMARK  2 active torsions:
REMARK  status: ('A' for Active; 'I' for Inactive)
REMARK    1  A    between atoms: C_6  and  C_1 
REMARK    2  A    between atoms: C_7  and  C_1 
ROOT
ATOM      1  C   UNL d   1       0.679  -1.869  -0.033  0.00  0.00     0.153 A 
ATOM      2  O   UNL d   1       1.825  -0.974  -0.130  0.00  0.00    -0.291 OA
ATOM      3  C   UNL d   1       1.476   0.345  -0.102  0.00  0.00     0.295 A 
ATOM      4  C   UNL d   1      -0.464  -0.892   0.026  0.00  0.00     0.002 A 
ATOM      5  C   UNL d   1       0.026   0.396  -0.018  0.00  0.00     0.049 A 
ATOM      6  O   UNL d   1       2.229   1.294  -0.144  0.00  0.00    -0.259 OA
ATOM      7  C   UNL d   1      -1.837  -1.106   0.079  0.00  0.00     0.012 A 
ATOM      8  C   UNL d   1      -0.796   1.510  -0.008  0.00  0.00     0.018 A 
ATOM      9  C   UNL d   1      -2.694  -0.002   0.092  0.00  0.00     0.001 A 
ATOM     10  C   UNL d   1      -2.176   1.301   0.048  0.00  0.00     0.001 A 
ENDROOT
BRANCH   1  11
ATOM     11  C   UNL d   1       0.713  -2.740  -1.304  0.00  0.00    -0.014 A 
ATOM     12  C   UNL d   1       1.473  -3.926  -1.342  0.00  0.00     0.011 A 
ATOM     13  C   UNL d   1       1.436  -4.774  -2.452  0.00  0.00     0.001 A 
ATOM     14  C   UNL d   1       0.669  -4.437  -3.563  0.00  0.00     0.000 A 
ATOM     15  C   UNL d   1      -0.029  -3.234  -3.581  0.00  0.00     0.001 A 
ATOM     16  C   UNL d   1       0.005  -2.388  -2.470  0.00  0.00     0.011 A 
ENDBRANCH   1  11
BRANCH   1  17
ATOM     17  C   UNL d   1       0.752  -2.687   1.276  0.00  0.00    -0.014 A 
ATOM     18  C   UNL d   1       1.760  -2.481   2.233  0.00  0.00     0.011 A 
ATOM     19  C   UNL d   1       1.780  -3.217   3.423  0.00  0.00     0.001 A 
ATOM     20  C   UNL d   1       0.794  -4.166   3.679  0.00  0.00     0.000 A 
ATOM     21  C   UNL d   1      -0.204  -4.399   2.739  0.00  0.00     0.001 A 
ATOM     22  C   UNL d   1      -0.218  -3.675   1.547  0.00  0.00     0.011 A 
ENDBRANCH   1  17
TORSDOF 2
