REMARK  5 active torsions:
REMARK  status: ('A' for Active; 'I' for Inactive)
REMARK    1  A    between atoms: O_8  and  C_1 
REMARK    2  A    between atoms: C_2  and  C_6 
REMARK       I    between atoms: N_5  and  C_2 
REMARK       I    between atoms: C_3  and  N_4 
REMARK    3  A    between atoms: C_7  and  C_3 
REMARK    4  A    between atoms: N_4  and  N_5 
REMARK    5  A    between atoms: C_18  and  O_8 
ROOT
ATOM      1  C   UNL d   1       1.947  -3.556  -5.476  0.00  0.00     0.270 C 
ATOM      2  N   UNL d   1       0.950  -4.119  -6.251  0.00  0.00    -0.263 N 
ATOM      3  O   UNL d   1       3.116  -3.493  -5.857  0.00  0.00    -0.266 OA
ATOM      4  H   UNL d   1       0.026  -4.372  -5.903  0.00  0.00     0.190 HD
ENDROOT
BRANCH   1   5
ATOM      5  C   UNL d   1       1.560  -3.016  -4.148  0.00  0.00     0.033 A 
ATOM      6  C   UNL d   1       2.523  -2.991  -3.130  0.00  0.00     0.020 A 
ATOM      7  C   UNL d   1       2.233  -2.422  -1.883  0.00  0.00     0.038 A 
ATOM      8  C   UNL d   1       0.968  -1.889  -1.638  0.00  0.00     0.078 A 
ATOM      9  C   UNL d   1       0.019  -1.884  -2.666  0.00  0.00     0.038 A 
ATOM     10  C   UNL d   1       0.303  -2.451  -3.914  0.00  0.00     0.020 A 
BRANCH   8  11
ATOM     11  O   UNL d   1       0.564  -1.281  -0.489  0.00  0.00    -0.255 OA
BRANCH  11  12
ATOM     12  C   UNL d   1       1.079  -1.720   0.760  0.00  0.00     0.530 C 
ATOM     13  F   UNL d   1       1.802  -2.857   0.693  0.00  0.00    -0.144 F 
ATOM     14  F   UNL d   1       0.038  -1.943   1.594  0.00  0.00    -0.144 F 
ATOM     15  F   UNL d   1       1.845  -0.746   1.297  0.00  0.00    -0.144 F 
ENDBRANCH  11  12
ENDBRANCH   8  11
ENDBRANCH   1   5
BRANCH   2  16
ATOM     16  N   UNL d   1       1.312  -4.615  -7.508  0.00  0.00    -0.263 N 
ATOM     17  C   UNL d   1       0.479  -5.521  -8.129  0.00  0.00     0.270 C 
ATOM     18  O   UNL d   1      -0.549  -5.934  -7.599  0.00  0.00    -0.266 OA
ATOM     19  H   UNL d   1       2.260  -4.399  -7.807  0.00  0.00     0.190 HD
BRANCH  17  20
ATOM     20  C   UNL d   1       0.860  -5.969  -9.505  0.00  0.00     0.033 A 
ATOM     21  C   UNL d   1       1.822  -5.308 -10.283  0.00  0.00     0.019 A 
ATOM     22  C   UNL d   1       2.066  -5.714 -11.601  0.00  0.00     0.025 A 
ATOM     23  C   UNL d   1       1.351  -6.779 -12.148  0.00  0.00     0.034 A 
ATOM     24  C   UNL d   1       0.405  -7.455 -11.383  0.00  0.00     0.025 A 
ATOM     25 CL   UNL d   1       1.623  -7.242 -13.781  0.00  0.00    -0.084 Cl
ATOM     26  C   UNL d   1       0.161  -7.051 -10.065  0.00  0.00     0.019 A 
ENDBRANCH  17  20
ENDBRANCH   2  16
TORSDOF 5
