REMARK  4 active torsions:
REMARK  status: ('A' for Active; 'I' for Inactive)
REMARK    1  A    between atoms: C_2  and  C_1 
REMARK       I    between atoms: N_4  and  C_2 
REMARK    2  A    between atoms: S_3  and  N_4 
REMARK    3  A    between atoms: C_12  and  S_3 
REMARK    4  A    between atoms: C_14  and  C_8 
ROOT
ATOM      1  C   UNL d   1      -0.266  -1.051   0.391  0.00  0.00     0.093 A 
ATOM      2  N   UNL d   1      -1.254   0.970   0.674  0.00  0.00    -0.259 N 
ATOM      3  HN  UNL d   1      -1.947   1.705   0.815  1.00  0.00     0.195 HD
ATOM      4  C   UNL d   1      -1.489  -0.358   0.678  0.00  0.00     0.083 A 
ATOM      5  O   UNL d   1       0.082   1.152   0.448  0.00  0.00    -0.241 OA
ATOM      6  C   UNL d   1       0.681  -0.049   0.302  0.00  0.00     0.090 A 
ATOM      7  C   UNL d   1       2.141  -0.028   0.090  0.00  0.00     0.080 C 
ENDROOT
BRANCH   1   8
ATOM      8  C   UNL d   1       0.069  -2.458   0.266  0.00  0.00     0.267 C 
ATOM      9  N   UNL d   1      -0.596  -3.336  -0.598  0.00  0.00    -0.279 N 
ATOM     10  HN  UNL d   1      -0.662  -4.314  -0.317  1.00  0.00     0.179 HD
ATOM     11  O   UNL d   1       1.017  -2.881   0.920  0.00  0.00    -0.267 OA
BRANCH   9  12
ATOM     12  S   UNL d   1      -1.230  -2.936  -1.933  0.00  0.00     0.055 S 
ATOM     13  O   UNL d   1      -2.029  -1.744  -2.138  0.00  0.00    -0.245 OA
ATOM     14  C   UNL d   1      -2.237  -4.295  -2.468  0.00  0.00     0.142 C 
BRANCH  12  15
ATOM     15  C   UNL d   1       0.081  -2.882  -3.144  0.00  0.00     0.038 A 
ATOM     16  C   UNL d   1       0.831  -4.029  -3.418  0.00  0.00     0.022 A 
ATOM     17  C   UNL d   1       1.786  -3.997  -4.438  0.00  0.00     0.001 A 
ATOM     18  C   UNL d   1       1.996  -2.825  -5.165  0.00  0.00     0.000 A 
ATOM     19  C   UNL d   1       1.262  -1.675  -4.870  0.00  0.00     0.001 A 
ATOM     20  C   UNL d   1       0.303  -1.699  -3.857  0.00  0.00     0.022 A 
ENDBRANCH  12  15
ENDBRANCH   9  12
ENDBRANCH   1   8
BRANCH   4  21
ATOM     21  C   UNL d   1      -2.847  -0.835   1.011  0.00  0.00    -0.006 A 
ATOM     22  C   UNL d   1      -3.906   0.093   1.085  0.00  0.00     0.014 A 
ATOM     23  C   UNL d   1      -5.196  -0.292   1.461  0.00  0.00     0.001 A 
ATOM     24  C   UNL d   1      -5.460  -1.623   1.760  0.00  0.00     0.000 A 
ATOM     25  C   UNL d   1      -4.434  -2.561   1.683  0.00  0.00     0.001 A 
ATOM     26  C   UNL d   1      -3.136  -2.170   1.321  0.00  0.00     0.014 A 
ENDBRANCH   4  21
TORSDOF 4
