REMARK  6 active torsions:
REMARK  status: ('A' for Active; 'I' for Inactive)
REMARK    1  A    between atoms: C_11  and  C_1 
REMARK       I    between atoms: C_4  and  N_2 
REMARK    2  A    between atoms: C_9  and  C_3 
REMARK       I    between atoms: N_7  and  C_4 
REMARK    3  A    between atoms: C_10  and  N_7 
REMARK    4  A    between atoms: O_16  and  C_9 
REMARK    5  A    between atoms: O_17  and  C_11 
REMARK    6  A    between atoms: O_18  and  C_11 
ROOT
ATOM      1  C   UNL d   1       1.001  -0.827  -0.207  0.00  0.00     0.111 C 
ATOM      2  N   UNL d   1       0.985   0.551  -0.334  0.00  0.00    -0.204 N 
ATOM      3  C   UNL d   1      -0.322  -1.229  -0.033  0.00  0.00     0.086 C 
ATOM      4  C   UNL d   1       2.078   1.435  -0.536  0.00  0.00     0.346 C 
ATOM      5  N   UNL d   1      -0.285   1.050  -0.254  0.00  0.00    -0.300 N 
ATOM      6  HN  UNL d   1      -0.577   2.027  -0.252  1.00  0.00     0.186 HD
ATOM      7  N   UNL d   1       1.949   2.564   0.251  0.00  0.00    -0.306 N 
ATOM      8  C   UNL d   1      -1.057  -0.036  -0.178  0.00  0.00     0.127 C 
ATOM      9  O   UNL d   1       3.006   1.101  -1.258  0.00  0.00    -0.245 OA
ATOM     10  H   UNL d   1       1.386   2.428   1.085  0.00  0.00     0.171 HD
ENDROOT
BRANCH   1  11
ATOM     11  C   UNL d   1       2.297  -1.546  -0.107  0.00  0.00     0.312 C 
BRANCH  11  12
ATOM     12  O   UNL d   1       2.563  -1.528   1.294  0.00  0.00    -0.360 OA
ATOM     13  C   UNL d   1       3.863  -2.002   1.603  0.00  0.00     0.205 C 
ENDBRANCH  11  12
BRANCH  11  14
ATOM     14  O   UNL d   1       2.172  -2.874  -0.597  0.00  0.00    -0.360 OA
ATOM     15  C   UNL d   1       1.897  -2.962  -1.986  0.00  0.00     0.205 C 
ENDBRANCH  11  14
ENDBRANCH   1  11
BRANCH   3  16
ATOM     16  C   UNL d   1      -0.832  -2.565   0.263  0.00  0.00     0.296 C 
ATOM     17  O   UNL d   1      -0.147  -3.525   0.576  0.00  0.00    -0.259 OA
BRANCH  16  18
ATOM     18  O   UNL d   1      -2.197  -2.620   0.158  0.00  0.00    -0.322 OA
ATOM     19  C   UNL d   1      -2.740  -3.919   0.430  0.00  0.00     0.213 C 
ENDBRANCH  16  18
ENDBRANCH   3  16
BRANCH   7  20
ATOM     20  C   UNL d   1       2.948   3.562   0.302  0.00  0.00     0.048 A 
ATOM     21  C   UNL d   1       3.177   4.397  -0.812  0.00  0.00    -0.035 A 
ATOM     22  C   UNL d   1       4.019   5.515  -0.665  0.00  0.00     0.009 A 
ATOM     23  C   UNL d   1       2.515   4.233  -2.153  0.00  0.00     0.050 C 
ATOM     24  C   UNL d   1       4.638   5.797   0.548  0.00  0.00     0.001 A 
ATOM     25  C   UNL d   1       4.456   4.939   1.626  0.00  0.00     0.009 A 
ATOM     26  C   UNL d   1       3.626   3.809   1.517  0.00  0.00    -0.035 A 
ATOM     27  C   UNL d   1       3.613   2.866   2.690  0.00  0.00     0.050 C 
ENDBRANCH   7  20
TORSDOF 6
