REMARK  3 active torsions:
REMARK  status: ('A' for Active; 'I' for Inactive)
REMARK    1  A    between atoms: C_2  and  C_1 
REMARK    2  A    between atoms: C_7  and  C_2 
REMARK    3  A    between atoms: C_9  and  C_5 
ROOT
ATOM      1  C   UNL d   1       0.563   1.053   0.118  0.00  0.00     0.081 C 
ATOM      2  N   UNL d   1       1.181  -0.091   0.156  0.00  0.00    -0.321 N 
ATOM      3  HN  UNL d   1       2.189  -0.246   0.132  1.00  0.00     0.180 HD
ATOM      4  C   UNL d   1      -0.934   1.003   0.091  0.00  0.00     0.088 C 
ATOM      5  N   UNL d   1       0.211  -1.035   0.235  0.00  0.00    -0.239 NA
ATOM      6  C   UNL d   1      -1.091  -0.502  -0.172  0.00  0.00     0.126 C 
ATOM      7  H   UNL d   1       0.460  -1.900  -0.245  0.00  0.00     0.146 HD
ENDROOT
BRANCH   1   8
ATOM      8  C   UNL d   1       1.288   2.368  -0.018  0.00  0.00     0.206 C 
ATOM      9  O   UNL d   1       0.724   3.280  -0.610  0.00  0.00    -0.285 OA
BRANCH   8  10
ATOM     10  C   UNL d   1       2.686   2.495   0.465  0.00  0.00     0.016 A 
ATOM     11  C   UNL d   1       3.564   3.328  -0.239  0.00  0.00     0.016 A 
ATOM     12  C   UNL d   1       4.916   3.375   0.115  0.00  0.00     0.007 A 
ATOM     13  C   UNL d   1       5.396   2.611   1.186  0.00  0.00    -0.062 A 
ATOM     14  C   UNL d   1       4.500   1.822   1.918  0.00  0.00     0.007 A 
ATOM     15  C   UNL d   1       6.865   2.577   1.489  0.00  0.00     0.048 C 
ATOM     16  C   UNL d   1       3.149   1.768   1.564  0.00  0.00     0.016 A 
ENDBRANCH   8  10
ENDBRANCH   1   8
BRANCH   4  17
ATOM     17  C   UNL d   1      -1.608   1.468   1.363  0.00  0.00    -0.047 A 
ATOM     18  C   UNL d   1      -2.506   2.545   1.315  0.00  0.00     0.008 A 
ATOM     19  C   UNL d   1      -3.233   2.917   2.447  0.00  0.00     0.001 A 
ATOM     20  C   UNL d   1      -3.064   2.227   3.645  0.00  0.00     0.000 A 
ATOM     21  C   UNL d   1      -2.149   1.180   3.719  0.00  0.00     0.001 A 
ATOM     22  C   UNL d   1      -1.419   0.809   2.589  0.00  0.00     0.008 A 
ENDBRANCH   4  17
TORSDOF 3
