REMARK  2 active torsions:
REMARK  status: ('A' for Active; 'I' for Inactive)
REMARK    1  A    between atoms: C_12  and  N_3 
REMARK    2  A    between atoms: N_9  and  C_13 
ROOT
ATOM      1  C   UNL d   1       0.196  -0.613  -0.050  0.00  0.00     0.186 A 
ATOM      2  C   UNL d   1       0.225   0.764   0.004  0.00  0.00     0.047 A 
ATOM      3  N   UNL d   1       1.497  -1.055   0.055  0.00  0.00    -0.233 N 
ATOM      4  N   UNL d   1       2.347  -0.015   0.246  0.00  0.00    -0.295 N 
ATOM      5  HN  UNL d   1       3.346  -0.064   0.443  1.00  0.00     0.187 HD
ATOM      6  C   UNL d   1       1.596   1.093   0.122  0.00  0.00     0.037 A 
ATOM      7  C   UNL d   1      -1.043   1.409  -0.059  0.00  0.00    -0.040 A 
ATOM      8  O   UNL d   1      -0.855  -1.419  -0.119  0.00  0.00    -0.255 OA
ATOM      9  C   UNL d   1      -2.079  -0.835  -0.140  0.00  0.00     0.290 A 
ATOM     10  C   UNL d   1      -2.152   0.646  -0.122  0.00  0.00     0.090 A 
ATOM     11  O   UNL d   1      -3.114  -1.493  -0.179  0.00  0.00    -0.260 OA
ATOM     12  C   UNL d   1      -1.171   2.895  -0.027  0.00  0.00     0.049 C 
ATOM     13  C   UNL d   1       2.325   2.387   0.139  0.00  0.00     0.070 C 
ENDROOT
BRANCH   3  14
ATOM     14  C   UNL d   1       1.990  -2.386  -0.013  0.00  0.00     0.059 A 
ATOM     15  C   UNL d   1       1.298  -3.373  -0.730  0.00  0.00     0.034 A 
ATOM     16  C   UNL d   1       1.800  -4.677  -0.794  0.00  0.00     0.038 A 
ATOM     17  C   UNL d   1       2.982  -4.999  -0.118  0.00  0.00     0.103 A 
ATOM     18  C   UNL d   1       3.680  -4.019   0.604  0.00  0.00     0.038 A 
ATOM     19  C   UNL d   1       3.193  -2.708   0.636  0.00  0.00     0.034 A 
BRANCH  17  20
ATOM     20  N   UNL d   1       3.497  -6.371  -0.168  0.00  0.00    -0.116 N 
ATOM     21  O   UNL d   1       2.889  -7.192  -0.872  0.00  0.00    -0.532 OA
ATOM     22  O   UNL d   1       4.509  -6.631   0.499  0.00  0.00    -0.532 OA
ENDBRANCH  17  20
ENDBRANCH   3  14
TORSDOF 2
