REMARK  4 active torsions:
REMARK  status: ('A' for Active; 'I' for Inactive)
REMARK    1  A    between atoms: S_8  and  C_2 
REMARK    2  A    between atoms: C_11  and  C_4 
REMARK    3  A    between atoms: O_18  and  C_11 
REMARK    4  A    between atoms: C_20  and  O_18 
ROOT
ATOM      1  C   UNL d   1      -0.787  -0.592  -0.072  0.00  0.00     0.034 A 
ATOM      2  C   UNL d   1      -1.579  -1.706   0.040  0.00  0.00     0.086 A 
ATOM      3  C   UNL d   1      -1.540   0.640  -0.132  0.00  0.00    -0.020 A 
ATOM      4  C   UNL d   1      -2.907   0.397  -0.075  0.00  0.00     0.088 A 
ATOM      5  S   UNL d   1      -3.227  -1.287   0.069  0.00  0.00    -0.073 SA
ATOM      6  C   UNL d   1       0.694  -0.506  -0.067  0.00  0.00     0.119 A 
ATOM      7  C   UNL d   1       1.313   0.717   0.075  0.00  0.00    -0.004 A 
ATOM      8  N   UNL d   1       2.892  -0.908  -0.122  0.00  0.00    -0.271 N 
ATOM      9  HN  UNL d   1       3.790  -1.385  -0.194  1.00  0.00     0.194 HD
ATOM     10  O   UNL d   1       1.627  -1.484  -0.161  0.00  0.00    -0.237 OA
ATOM     11  C   UNL d   1      -0.844   1.985  -0.267  0.00  0.00     0.046 C 
ATOM     12  C   UNL d   1       0.591   1.998   0.310  0.00  0.00     0.048 C 
ATOM     13  C   UNL d   1       2.682   0.404   0.031  0.00  0.00     0.124 A 
ENDROOT
BRANCH   4  14
ATOM     14  C   UNL d   1      -3.989   1.371  -0.062  0.00  0.00     0.300 C 
ATOM     15  O   UNL d   1      -3.838   2.590  -0.054  0.00  0.00    -0.259 OA
BRANCH  14  16
ATOM     16  O   UNL d   1      -5.204   0.758   0.029  0.00  0.00    -0.317 OA
BRANCH  16  17
ATOM     17  C   UNL d   1      -6.282   1.569   0.508  0.00  0.00     0.174 C 
ATOM     18  C   UNL d   1      -6.282   1.500   2.024  0.00  0.00     0.034 C 
ENDBRANCH  16  17
ENDBRANCH  14  16
ENDBRANCH   4  14
BRANCH   2  19
ATOM     19  S   UNL d   1      -1.014  -3.346   0.250  0.00  0.00     0.053 S 
ATOM     20  O   UNL d   1      -2.194  -4.171   0.674  0.00  0.00    -0.253 OA
ATOM     21  C   UNL d   1      -0.763  -3.725  -1.507  0.00  0.00     0.133 C 
ENDBRANCH   2  19
TORSDOF 4
