REMARK  6 active torsions:
REMARK  status: ('A' for Active; 'I' for Inactive)
REMARK    1  A    between atoms: C_6  and  C_1 
REMARK    2  A    between atoms: C_8  and  C_2 
REMARK    3  A    between atoms: C_9  and  N_3 
REMARK    4  A    between atoms: O_16  and  C_8 
REMARK    5  A    between atoms: N_10  and  O_16 
REMARK    6  A    between atoms: C_21  and  C_19 
ROOT
ATOM      1  C   UNL d   1       1.000  -0.872  -0.003  0.00  0.00     0.158 C 
ATOM      2  C   UNL d   1      -0.334  -1.258   0.029  0.00  0.00     0.091 C 
ATOM      3  N   UNL d   1       1.014   0.509   0.072  0.00  0.00    -0.251 N 
ATOM      4  N   UNL d   1      -0.236   0.990   0.322  0.00  0.00    -0.303 N 
ATOM      5  HN  UNL d   1      -0.498   1.951   0.542  1.00  0.00     0.186 HD
ATOM      6  C   UNL d   1      -1.041  -0.061   0.216  0.00  0.00     0.127 C 
ENDROOT
BRANCH   2   7
ATOM      7  C   UNL d   1      -0.887  -2.591  -0.111  0.00  0.00     0.318 C 
ATOM      8  O   UNL d   1      -0.316  -3.487  -0.720  0.00  0.00    -0.257 OA
BRANCH   7   9
ATOM      9  O   UNL d   1      -2.136  -2.679   0.461  0.00  0.00    -0.195 OA
BRANCH   9  10
ATOM     10  N   UNL d   1      -2.987  -3.364  -0.419  0.00  0.00    -0.268 N 
ATOM     11  C   UNL d   1      -4.143  -3.555   0.119  0.00  0.00     0.126 C 
ATOM     12  HN  UNL d   1      -2.726  -3.669  -1.357  1.00  0.00     0.194 HD
BRANCH  11  13
ATOM     13  C   UNL d   1      -5.249  -4.110  -0.681  0.00  0.00    -0.019 A 
ATOM     14  C   UNL d   1      -5.064  -4.325  -2.054  0.00  0.00     0.016 A 
ATOM     15  C   UNL d   1      -6.122  -4.791  -2.834  0.00  0.00     0.043 A 
ATOM     16  C   UNL d   1      -7.348  -5.041  -2.235  0.00  0.00     0.116 A 
ATOM     17  C   UNL d   1      -7.540  -4.833  -0.869  0.00  0.00     0.043 A 
ATOM     18  F   UNL d   1      -8.369  -5.481  -2.982  0.00  0.00    -0.206 F 
ATOM     19  C   UNL d   1      -6.486  -4.363  -0.083  0.00  0.00     0.016 A 
ENDBRANCH  11  13
ENDBRANCH   9  10
ENDBRANCH   7   9
ENDBRANCH   2   7
BRANCH   1  20
ATOM     20  C   UNL d   1       2.216  -1.700   0.011  0.00  0.00     0.435 C 
ATOM     21  F   UNL d   1       1.982  -2.960   0.453  0.00  0.00    -0.165 F 
ATOM     22  F   UNL d   1       2.779  -1.809  -1.215  0.00  0.00    -0.165 F 
ATOM     23  F   UNL d   1       3.160  -1.196   0.846  0.00  0.00    -0.165 F 
ENDBRANCH   1  20
BRANCH   3  24
ATOM     24  C   UNL d   1       2.076   1.454  -0.069  0.00  0.00     0.057 A 
ATOM     25  C   UNL d   1       3.226   1.185  -0.817  0.00  0.00     0.033 A 
ATOM     26  C   UNL d   1       4.242   2.142  -0.920  0.00  0.00     0.026 A 
ATOM     27  C   UNL d   1       4.109   3.376  -0.286  0.00  0.00     0.034 A 
ATOM     28  C   UNL d   1       2.958   3.668   0.438  0.00  0.00     0.026 A 
ATOM     29 CL   UNL d   1       5.364   4.543  -0.414  0.00  0.00    -0.084 Cl
ATOM     30  C   UNL d   1       1.938   2.716   0.537  0.00  0.00     0.033 A 
ENDBRANCH   3  24
TORSDOF 6
