REMARK  8 active torsions:
REMARK  status: ('A' for Active; 'I' for Inactive)
REMARK    1  A    between atoms: N_3  and  C_1 
REMARK       I    between atoms: C_2  and  N_4 
REMARK    2  A    between atoms: O_8  and  C_2 
REMARK    3  A    between atoms: N_4  and  N_3 
REMARK    4  A    between atoms: C_9  and  N_7 
REMARK    5  A    between atoms: C_10  and  O_8 
REMARK    6  A    between atoms: C_11  and  C_9 
REMARK    7  A    between atoms: C_13  and  C_11 
REMARK    8  A    between atoms: C_12  and  C_13 
ROOT
ATOM      1  C   UNL d   1       0.889  -0.143  -0.138  0.00  0.00     0.186 C 
ATOM      2  S   UNL d   1       0.062   1.288   0.118  0.00  0.00    -0.040 SA
ATOM      3  N   UNL d   1       2.251  -0.113  -0.108  0.00  0.00    -0.366 N 
ATOM      4  H   UNL d   1       2.628   0.811   0.070  0.00  0.00     0.161 HD
ENDROOT
BRANCH   1   5
ATOM      5  N   UNL d   1       0.308  -1.346  -0.428  0.00  0.00    -0.272 N 
ATOM      6  H   UNL d   1       0.818  -2.222  -0.361  0.00  0.00     0.189 HD
BRANCH   5   7
ATOM      7  N   UNL d   1      -1.069  -1.466  -0.658  0.00  0.00    -0.243 N 
ATOM      8  C   UNL d   1      -1.525  -2.659  -1.158  0.00  0.00     0.379 C 
ATOM      9  O   UNL d   1      -0.895  -3.707  -1.118  0.00  0.00    -0.237 OA
ATOM     10  H   UNL d   1      -1.565  -0.623  -0.928  0.00  0.00     0.192 HD
BRANCH   8  11
ATOM     11  O   UNL d   1      -2.722  -2.473  -1.768  0.00  0.00    -0.303 OA
BRANCH  11  12
ATOM     12  C   UNL d   1      -3.207  -3.597  -2.516  0.00  0.00     0.176 C 
ATOM     13  C   UNL d   1      -2.553  -3.622  -3.887  0.00  0.00     0.034 C 
ENDBRANCH  11  12
ENDBRANCH   8  11
ENDBRANCH   5   7
ENDBRANCH   1   5
BRANCH   3  14
ATOM     14  C   UNL d   1       3.182  -1.105  -0.625  0.00  0.00     0.122 C 
BRANCH  14  15
ATOM     15  C   UNL d   1       3.219  -1.101  -2.154  0.00  0.00     0.020 C 
BRANCH  15  16
ATOM     16  C   UNL d   1       4.298  -2.047  -2.680  0.00  0.00     0.001 C 
BRANCH  16  17
ATOM     17  C   UNL d   1       4.316  -2.096  -4.208  0.00  0.00    -0.004 C 
ATOM     18  C   UNL d   1       5.391  -3.045  -4.714  0.00  0.00     0.005 C 
ENDBRANCH  16  17
ENDBRANCH  15  16
ENDBRANCH  14  15
ENDBRANCH   3  14
TORSDOF 8
