REMARK  6 active torsions:
REMARK  status: ('A' for Active; 'I' for Inactive)
REMARK    1  A    between atoms: C_2  and  N_1 
REMARK       I    between atoms: C_3  and  N_1 
REMARK    2  A    between atoms: N_5  and  C_2 
REMARK    3  A    between atoms: C_10  and  C_3 
REMARK    4  A    between atoms: C_4  and  C_6 
REMARK    5  A    between atoms: O_13  and  C_4 
REMARK    6  A    between atoms: C_11  and  N_5 
ROOT
ATOM      1  C   UNL d   1       0.412  -0.613  -1.355  0.00  0.00     0.179 C 
ATOM      2  S   UNL d   1      -1.208  -1.038  -1.252  0.00  0.00    -0.040 SA
ENDROOT
BRANCH   1   3
ATOM      3  N   UNL d   1       1.018  -0.181  -0.224  0.00  0.00    -0.299 N 
ATOM      4  C   UNL d   1       1.906   0.881  -0.074  0.00  0.00     0.257 C 
ATOM      5  O   UNL d   1       2.397   1.520  -0.996  0.00  0.00    -0.267 OA
ATOM      6  H   UNL d   1       0.449  -0.386   0.580  0.00  0.00     0.171 HD
BRANCH   4   7
ATOM      7  C   UNL d   1       2.295   1.214   1.340  0.00  0.00     0.032 A 
ATOM      8  C   UNL d   1       3.502   1.904   1.539  0.00  0.00     0.017 A 
ATOM      9  C   UNL d   1       3.947   2.205   2.829  0.00  0.00     0.001 A 
ATOM     10  C   UNL d   1       3.189   1.827   3.934  0.00  0.00     0.000 A 
ATOM     11  C   UNL d   1       1.980   1.160   3.751  0.00  0.00     0.001 A 
ATOM     12  C   UNL d   1       1.530   0.858   2.460  0.00  0.00     0.017 A 
ENDBRANCH   4   7
ENDBRANCH   1   3
BRANCH   1  13
ATOM     13  N   UNL d   1       1.037  -0.778  -2.548  0.00  0.00    -0.333 N 
ATOM     14  H   UNL d   1       0.336  -0.978  -3.256  0.00  0.00     0.168 HD
BRANCH  13  15
ATOM     15  C   UNL d   1       2.225  -1.535  -2.752  0.00  0.00     0.035 A 
ATOM     16  C   UNL d   1       2.188  -2.518  -3.756  0.00  0.00     0.047 A 
ATOM     17  C   UNL d   1       3.297  -3.344  -3.992  0.00  0.00     0.041 A 
ATOM     18  C   UNL d   1       4.473  -3.145  -3.264  0.00  0.00     0.018 A 
ATOM     19  C   UNL d   1       4.527  -2.153  -2.290  0.00  0.00     0.003 A 
ATOM     20  C   UNL d   1       3.402  -1.364  -2.027  0.00  0.00     0.029 A 
BRANCH  17  21
ATOM     21  C   UNL d   1       3.274  -4.457  -4.978  0.00  0.00     0.293 C 
ATOM     22  O   UNL d   1       4.284  -4.999  -5.394  0.00  0.00    -0.259 OA
BRANCH  21  23
ATOM     23  O   UNL d   1       1.997  -4.803  -5.269  0.00  0.00    -0.323 OA
ATOM     24  C   UNL d   1       1.831  -5.950  -6.112  0.00  0.00     0.213 C 
ENDBRANCH  21  23
ENDBRANCH  17  21
ENDBRANCH  13  15
ENDBRANCH   1  13
TORSDOF 6
