REMARK  7 active torsions:
REMARK  status: ('A' for Active; 'I' for Inactive)
REMARK    1  A    between atoms: C_3  and  S_1 
REMARK    2  A    between atoms: C_6  and  S_1 
REMARK       I    between atoms: C_2  and  N_4 
REMARK       I    between atoms: N_5  and  C_2 
REMARK    3  A    between atoms: C_12  and  C_3 
REMARK    4  A    between atoms: N_4  and  C_12 
REMARK    5  A    between atoms: C_11  and  N_4 
REMARK    6  A    between atoms: C_19  and  N_5 
REMARK    7  A    between atoms: C_7  and  C_11 
ROOT
ATOM      1  C   UNL d   1      -1.014   2.722  -3.371  0.00  0.00     0.323 C 
ATOM      2  N   UNL d   1       0.023   3.081  -2.460  0.00  0.00    -0.328 N 
ATOM      3  N   UNL d   1      -1.309   3.706  -4.304  0.00  0.00    -0.309 N 
ATOM      4  O   UNL d   1      -1.566   1.629  -3.325  0.00  0.00    -0.247 OA
ATOM      5  H   UNL d   1      -0.861   4.590  -4.172  0.00  0.00     0.170 HD
ENDROOT
BRANCH   2   6
ATOM      6  C   UNL d   1       0.517   2.074  -1.478  0.00  0.00     0.143 C 
BRANCH   6   7
ATOM      7  C   UNL d   1       0.445   2.541  -0.017  0.00  0.00     0.165 C 
BRANCH   7   8
ATOM      8  S   UNL d   1       1.297   1.413   1.075  0.00  0.00     0.177 S 
ATOM      9  O   UNL d   1       2.715   1.491   0.789  0.00  0.00    -0.223 OA
ATOM     10  O   UNL d   1       0.599   0.141   1.058  0.00  0.00    -0.223 OA
BRANCH   8  11
ATOM     11  C   UNL d   1       1.058   2.118   2.706  0.00  0.00     0.059 A 
ATOM     12  C   UNL d   1      -0.060   1.744   3.462  0.00  0.00     0.025 A 
ATOM     13  C   UNL d   1      -0.239   2.276   4.745  0.00  0.00     0.025 A 
ATOM     14  C   UNL d   1       0.701   3.163   5.268  0.00  0.00     0.034 A 
ATOM     15  C   UNL d   1       1.833   3.505   4.532  0.00  0.00     0.025 A 
ATOM     16 CL   UNL d   1       0.475   3.816   6.845  0.00  0.00    -0.084 Cl
ATOM     17  C   UNL d   1       2.021   2.978   3.247  0.00  0.00     0.025 A 
ENDBRANCH   8  11
ENDBRANCH   7   8
ENDBRANCH   6   7
ENDBRANCH   2   6
BRANCH   2  18
ATOM     18  C   UNL d   1       0.842   4.298  -2.576  0.00  0.00     0.173 C 
BRANCH  18  19
ATOM     19  C   UNL d   1       1.940   4.180  -3.595  0.00  0.00     0.000 A 
ATOM     20  S   UNL d   1       3.129   5.426  -3.641  0.00  0.00    -0.105 SA
ATOM     21  C   UNL d   1       3.914   4.729  -4.986  0.00  0.00     0.050 A 
ATOM     22  C   UNL d   1       3.315   3.555  -5.380  0.00  0.00     0.008 A 
ATOM     23  C   UNL d   1       2.192   3.225  -4.563  0.00  0.00     0.017 A 
ENDBRANCH  18  19
ENDBRANCH   2  18
BRANCH   3  24
ATOM     24  C   UNL d   1      -2.118   3.684  -5.466  0.00  0.00     0.036 A 
ATOM     25  C   UNL d   1      -2.912   2.626  -5.901  0.00  0.00     0.029 A 
ATOM     26  C   UNL d   1      -3.611   2.727  -7.122  0.00  0.00     0.002 A 
ATOM     27  C   UNL d   1      -3.517   3.874  -7.912  0.00  0.00     0.000 A 
ATOM     28  C   UNL d   1      -2.746   4.942  -7.474  0.00  0.00     0.002 A 
ATOM     29  C   UNL d   1      -2.063   4.848  -6.259  0.00  0.00     0.029 A 
ENDBRANCH   3  24
TORSDOF 7
