REMARK  3 active torsions:
REMARK  status: ('A' for Active; 'I' for Inactive)
REMARK    1  A    between atoms: O_2  and  S_1 
REMARK    2  A    between atoms: C_4  and  S_1 
REMARK    3  A    between atoms: C_3  and  O_2 
ROOT
ATOM      1  C   UNL d   1       0.353  -0.681   1.432  0.00  0.00     0.086 A 
ATOM      2  N   UNL d   1      -1.419  -2.948   5.990  0.00  0.00    -0.191 NA
ATOM      3  C   UNL d   1      -1.054  -2.489   4.989  0.00  0.00     0.099 C 
ATOM      4  C   UNL d   1       1.171  -1.581   2.126  0.00  0.00     0.027 A 
ATOM      5  C   UNL d   1      -0.941  -0.404   1.884  0.00  0.00     0.027 A 
ATOM      6  C   UNL d   1      -0.593  -1.909   3.759  0.00  0.00     0.044 A 
ATOM      7  C   UNL d   1      -1.413  -1.023   3.047  0.00  0.00     0.024 A 
ATOM      8  C   UNL d   1       0.694  -2.196   3.288  0.00  0.00     0.024 A 
ENDROOT
BRANCH   1   9
ATOM      9  S   UNL d   1       1.056   0.278   0.097  0.00  0.00     0.303 S 
ATOM     10  O   UNL d   1       0.223   1.454  -0.065  0.00  0.00    -0.193 OA
ATOM     11  O   UNL d   1       2.468   0.411   0.408  0.00  0.00    -0.193 OA
BRANCH   9  12
ATOM     12  O   UNL d   1       0.892  -0.668  -1.222  0.00  0.00    -0.227 OA
BRANCH  12  13
ATOM     13  C   UNL d   1       1.226  -0.197  -2.474  0.00  0.00     0.111 A 
ATOM     14  C   UNL d   1       0.501  -0.678  -3.573  0.00  0.00     0.070 A 
ATOM     15  C   UNL d   1       0.813  -0.261  -4.873  0.00  0.00     0.050 A 
ATOM     16 CL   UNL d   1      -0.803  -1.790  -3.366  0.00  0.00    -0.081 Cl
ATOM     17  C   UNL d   1       1.859   0.634  -5.074  0.00  0.00     0.035 A 
ATOM     18  C   UNL d   1       2.595   1.112  -3.993  0.00  0.00     0.026 A 
ATOM     19 CL   UNL d   1       2.257   1.149  -6.667  0.00  0.00    -0.084 Cl
ATOM     20  C   UNL d   1       2.284   0.693  -2.696  0.00  0.00     0.041 A 
ENDBRANCH  12  13
ENDBRANCH   9  12
ENDBRANCH   1   9
TORSDOF 3
