REMARK  9 active torsions:
REMARK  status: ('A' for Active; 'I' for Inactive)
REMARK       I    between atoms: C_2  and  N_1 
REMARK    1  A    between atoms: C_5  and  N_1 
REMARK    2  A    between atoms: C_7  and  N_1 
REMARK    3  A    between atoms: C_16  and  C_2 
REMARK    4  A    between atoms: C_3  and  C_5 
REMARK    5  A    between atoms: C_6  and  C_17 
REMARK    6  A    between atoms: O_14  and  C_6 
REMARK    7  A    between atoms: C_15  and  C_7 
REMARK    8  A    between atoms: O_13  and  C_16 
REMARK    9  A    between atoms: C_17  and  O_13 
ROOT
ATOM      1  N   UNL d   1       0.960  -0.163   0.072  0.00  0.00    -0.341 N 
ATOM      2  C   UNL d   1       0.262  -0.508   1.234  0.00  0.00     0.244 C 
ATOM      3  O   UNL d   1      -0.868  -0.067   1.459  0.00  0.00    -0.271 OA
ENDROOT
BRANCH   1   4
ATOM      4  C   UNL d   1       0.260   0.748  -0.846  0.00  0.00     0.172 C 
BRANCH   4   5
ATOM      5  C   UNL d   1      -0.139   0.071  -2.124  0.00  0.00     0.000 A 
ATOM      6  S   UNL d   1      -0.162   0.995  -3.574  0.00  0.00    -0.105 SA
ATOM      7  C   UNL d   1      -0.838  -0.292  -4.467  0.00  0.00     0.050 A 
ATOM      8  C   UNL d   1      -1.006  -1.421  -3.700  0.00  0.00     0.008 A 
ATOM      9  C   UNL d   1      -0.606  -1.212  -2.345  0.00  0.00     0.017 A 
ENDBRANCH   4   5
ENDBRANCH   1   4
BRANCH   1  10
ATOM     10  C   UNL d   1       2.423  -0.094   0.042  0.00  0.00     0.164 C 
BRANCH  10  11
ATOM     11  C   UNL d   1       3.190  -1.364  -0.241  0.00  0.00    -0.040 A 
ATOM     12  C   UNL d   1       2.970  -2.113  -1.405  0.00  0.00     0.009 A 
ATOM     13  C   UNL d   1       3.846  -3.142  -1.767  0.00  0.00     0.001 A 
ATOM     14  C   UNL d   1       4.952  -3.436  -0.973  0.00  0.00     0.000 A 
ATOM     15  C   UNL d   1       5.171  -2.719   0.199  0.00  0.00     0.001 A 
ATOM     16  C   UNL d   1       4.296  -1.693   0.562  0.00  0.00     0.009 A 
ENDBRANCH  10  11
ENDBRANCH   1  10
BRANCH   2  17
ATOM     17  C   UNL d   1       0.916  -1.496   2.228  0.00  0.00     0.271 C 
BRANCH  17  18
ATOM     18  O   UNL d   1       0.229  -1.722   3.466  0.00  0.00    -0.372 OA
BRANCH  18  19
ATOM     19  C   UNL d   1      -1.052  -2.355   3.292  0.00  0.00     0.277 C 
BRANCH  19  20
ATOM     20  C   UNL d   1      -1.633  -2.737   4.652  0.00  0.00     0.164 C 
ATOM     21  O   UNL d   1      -2.699  -3.304   4.814  0.00  0.00    -0.648 OA
BRANCH  20  22
ATOM     22  O   UNL d   1      -0.818  -2.382   5.677  0.00  0.00    -0.775 OA
ATOM     23  H   UNL d   1      -0.034  -1.933   5.285  0.00  0.00     0.167 HD
ENDBRANCH  20  22
ENDBRANCH  19  20
ENDBRANCH  18  19
ENDBRANCH  17  18
ENDBRANCH   2  17
TORSDOF 9
