REMARK  2 active torsions:
REMARK  status: ('A' for Active; 'I' for Inactive)
REMARK       I    between atoms: N_3  and  C_1 
REMARK       I    between atoms: N_8  and  C_1 
REMARK    1  A    between atoms: C_2  and  C_6 
REMARK    2  A    between atoms: C_11  and  N_3 
ROOT
ATOM      1  C   UNL d   1       1.936   3.462  -3.901  0.00  0.00    -0.035 A 
ATOM      2  C   UNL d   1       2.385   2.139  -3.747  0.00  0.00     0.011 A 
ATOM      3  C   UNL d   1       0.899   3.903  -3.068  0.00  0.00     0.011 A 
ATOM      4  C   UNL d   1       0.818   1.760  -1.922  0.00  0.00     0.036 A 
ATOM      5  C   UNL d   1       0.348   3.063  -2.092  0.00  0.00     0.030 A 
ATOM      6  C   UNL d   1       1.835   1.303  -2.766  0.00  0.00     0.030 A 
ENDROOT
BRANCH   4   7
ATOM      7  N   UNL d   1       0.351   0.892  -0.910  0.00  0.00    -0.309 N 
ATOM      8  C   UNL d   1      -0.709   1.103  -0.072  0.00  0.00     0.320 C 
ATOM      9  O   UNL d   1      -1.528   2.012  -0.150  0.00  0.00    -0.247 OA
ATOM     10  N   UNL d   1      -0.871   0.218   0.949  0.00  0.00    -0.347 N 
ATOM     11  C   UNL d   1      -0.078  -0.904   1.388  0.00  0.00     0.151 C 
ATOM     12  H   UNL d   1      -1.680   0.458   1.506  0.00  0.00     0.163 HD
ATOM     13  H   UNL d   1       0.793  -0.010  -0.859  0.00  0.00     0.170 HD
ENDBRANCH   4   7
BRANCH   1  14
ATOM     14  C   UNL d   1       2.553   4.425  -4.894  0.00  0.00     0.141 C 
ATOM     15  S   UNL d   1       2.452   3.835  -6.615  0.00  0.00    -0.148 SA
ATOM     16  C   UNL d   1       4.117   4.346  -7.108  0.00  0.00     0.085 C 
ATOM     17  C   UNL d   1       5.040   4.084  -5.937  0.00  0.00     0.085 C 
ATOM     18  S   UNL d   1       4.285   4.821  -4.468  0.00  0.00    -0.148 SA
ENDBRANCH   1  14
TORSDOF 2
