REMARK  8 active torsions:
REMARK  status: ('A' for Active; 'I' for Inactive)
REMARK    1  A    between atoms: C_7  and  C_1 
REMARK    2  A    between atoms: C_3  and  C_2 
REMARK    3  A    between atoms: N_11  and  C_6 
REMARK    4  A    between atoms: O_12  and  C_7 
REMARK    5  A    between atoms: C_20  and  N_11 
REMARK    6  A    between atoms: C_21  and  O_12 
REMARK    7  A    between atoms: C_24  and  C_14 
REMARK    8  A    between atoms: C_23  and  C_21 
ROOT
ATOM      1  C   UNL d   1      -0.001  -1.459  -0.056  0.00  0.00     0.087 A 
ATOM      2  C   UNL d   1       1.231  -0.841  -0.022  0.00  0.00     0.150 A 
ATOM      3  N   UNL d   1       1.330   0.526  -0.022  0.00  0.00    -0.185 N 
ATOM      4  HN  UNL d   1       2.248   0.970   0.008  1.00  0.00     0.184 HD
ATOM      5  C   UNL d   1       0.221   1.282  -0.061  0.00  0.00     0.683 A 
ATOM      6  N   UNL d   1      -1.001   0.751  -0.114  0.00  0.00    -0.201 N 
ATOM      7  HN  UNL d   1      -1.834   1.337  -0.173  1.00  0.00     0.183 HD
ATOM      8  C   UNL d   1      -1.088  -0.601  -0.085  0.00  0.00     0.126 A 
ENDROOT
BRANCH   1   9
ATOM      9  C   UNL d   1      -0.292  -2.894   0.049  0.00  0.00     0.297 C 
ATOM     10  O   UNL d   1      -1.184  -3.304   0.783  0.00  0.00    -0.259 OA
BRANCH   9  11
ATOM     11  O   UNL d   1       0.470  -3.633  -0.778  0.00  0.00    -0.313 OA
BRANCH  11  12
ATOM     12  C   UNL d   1       0.322  -5.066  -0.652  0.00  0.00     0.217 C 
BRANCH  12  13
ATOM     13  C   UNL d   1       0.205  -5.718  -2.012  0.00  0.00    -0.034 A 
ATOM     14  C   UNL d   1       0.890  -5.206  -3.123  0.00  0.00     0.011 A 
ATOM     15  C   UNL d   1       0.764  -5.810  -4.376  0.00  0.00     0.024 A 
ATOM     16  C   UNL d   1      -0.029  -6.946  -4.523  0.00  0.00     0.034 A 
ATOM     17  C   UNL d   1      -0.680  -7.496  -3.421  0.00  0.00     0.024 A 
ATOM     18 CL   UNL d   1      -0.203  -7.673  -6.072  0.00  0.00    -0.084 Cl
ATOM     19  C   UNL d   1      -0.558  -6.888  -2.169  0.00  0.00     0.011 A 
ENDBRANCH  12  13
ENDBRANCH  11  12
ENDBRANCH   9  11
ENDBRANCH   1   9
BRANCH   2  20
ATOM     20  C   UNL d   1       2.557  -1.567   0.040  0.00  0.00     0.434 C 
ATOM     21  F   UNL d   1       2.496  -2.898   0.315  0.00  0.00    -0.165 F 
ATOM     22  F   UNL d   1       3.258  -1.462  -1.126  0.00  0.00    -0.165 F 
ATOM     23  F   UNL d   1       3.378  -1.061   1.009  0.00  0.00    -0.165 F 
ENDBRANCH   2  20
BRANCH   5  24
ATOM     24  N   UNL d   1       0.331   2.671  -0.091  0.00  0.00    -0.192 N 
ATOM     25  H   UNL d   1      -0.596   3.077  -0.123  0.00  0.00     0.184 HD
BRANCH  24  26
ATOM     26  C   UNL d   1       1.274   3.478   0.574  0.00  0.00     0.049 A 
ATOM     27  C   UNL d   1       1.568   4.746   0.062  0.00  0.00     0.030 A 
ATOM     28  C   UNL d   1       2.507   5.580   0.684  0.00  0.00     0.010 A 
ATOM     29  C   UNL d   1       3.160   5.176   1.857  0.00  0.00    -0.055 A 
ATOM     30  C   UNL d   1       2.844   3.919   2.387  0.00  0.00     0.010 A 
ATOM     31  C   UNL d   1       1.918   3.082   1.751  0.00  0.00     0.030 A 
BRANCH  29  32
ATOM     32  C   UNL d   1       4.189   6.055   2.548  0.00  0.00     0.010 C 
ATOM     33  C   UNL d   1       5.408   6.310   1.656  0.00  0.00     0.015 C 
ATOM     34  C   UNL d   1       3.583   7.377   3.025  0.00  0.00     0.015 C 
ENDBRANCH  29  32
ENDBRANCH  24  26
ENDBRANCH   5  24
TORSDOF 8
