REMARK  2 active torsions:
REMARK  status: ('A' for Active; 'I' for Inactive)
REMARK    1  A    between atoms: C_11  and  C_3 
REMARK    2  A    between atoms: S_18  and  C_14 
ROOT
ATOM      1  N   UNL d   1      -0.225  -0.687   0.071  0.00  0.00    -0.243 N 
ATOM      2  C   UNL d   1      -0.182   0.713   0.068  0.00  0.00     0.129 A 
ATOM      3  C   UNL d   1       2.147  -0.808   0.070  0.00  0.00     0.030 A 
ATOM      4  C   UNL d   1       0.958  -1.453   0.072  0.00  0.00     0.046 A 
ATOM      5  N   UNL d   1      -1.512  -1.135   0.043  0.00  0.00    -0.297 N 
ATOM      6  HN  UNL d   1      -1.831  -2.103   0.036  1.00  0.00     0.187 HD
ATOM      7  N   UNL d   1       0.991   1.411   0.095  0.00  0.00    -0.350 N 
ATOM      8  HN  UNL d   1       1.018   2.431   0.104  1.00  0.00     0.166 HD
ATOM      9  C   UNL d   1      -1.486   1.141   0.035  0.00  0.00     0.076 A 
ATOM     10  C   UNL d   1       2.068   0.688   0.107  0.00  0.00     0.105 A 
ATOM     11  C   UNL d   1      -2.266  -0.030   0.026  0.00  0.00     0.026 A 
ATOM     12  C   UNL d   1       0.789  -2.947   0.063  0.00  0.00     0.071 C 
ATOM     13  C   UNL d   1      -3.746  -0.118   0.002  0.00  0.00     0.070 C 
ENDROOT
BRANCH   3  14
ATOM     14  C   UNL d   1       3.466  -1.439  -0.014  0.00  0.00     0.049 A 
ATOM     15  N   UNL d   1       4.045  -1.792   1.150  0.00  0.00    -0.336 N 
ATOM     16  C   UNL d   1       5.274  -2.327   1.059  0.00  0.00     0.141 A 
ATOM     17  HN  UNL d   1       3.578  -1.661   2.047  1.00  0.00     0.168 HD
ATOM     18  N   UNL d   1       5.953  -2.517  -0.083  0.00  0.00    -0.347 N 
ATOM     19  C   UNL d   1       5.331  -2.153  -1.217  0.00  0.00     0.092 A 
ATOM     20  HN  UNL d   1       6.892  -2.916  -0.090  1.00  0.00     0.167 HD
ATOM     21  C   UNL d   1       4.072  -1.609  -1.243  0.00  0.00     0.047 A 
BRANCH  16  22
ATOM     22  S   UNL d   1       6.051  -2.835   2.562  0.00  0.00    -0.107 SA
ATOM     23  H   UNL d   1       4.979  -2.578   3.317  0.00  0.00     0.110 HD
ENDBRANCH  16  22
ENDBRANCH   3  14
TORSDOF 2
