REMARK  9 active torsions:
REMARK  status: ('A' for Active; 'I' for Inactive)
REMARK    1  A    between atoms: O_12  and  C_1 
REMARK    2  A    between atoms: O_13  and  C_2 
REMARK    3  A    between atoms: N_18  and  C_9 
REMARK    4  A    between atoms: C_10  and  O_12 
REMARK    5  A    between atoms: C_11  and  O_13 
REMARK    6  A    between atoms: C_31  and  N_18 
REMARK    7  A    between atoms: C_19  and  S_20 
REMARK    8  A    between atoms: S_20  and  C_35 
REMARK    9  A    between atoms: C_35  and  C_31 
ROOT
ATOM      1  C   UNL d   1       0.779  -0.948  -0.058  0.00  0.00     0.234 A 
ATOM      2  C   UNL d   1      -1.261  -0.077  -0.088  0.00  0.00     0.234 A 
ATOM      3  N   UNL d   1      -0.530  -1.182  -0.061  0.00  0.00    -0.287 N 
ATOM      4  HN  UNL d   1      -0.932  -2.119  -0.045  1.00  0.00     0.173 HD
ATOM      5  N   UNL d   1       1.365   0.248  -0.153  0.00  0.00    -0.298 N 
ATOM      6  HN  UNL d   1       2.378   0.361  -0.180  1.00  0.00     0.172 HD
ATOM      7  N   UNL d   1      -0.787   1.162  -0.156  0.00  0.00    -0.298 N 
ATOM      8  HN  UNL d   1      -1.401   1.977  -0.166  1.00  0.00     0.172 HD
ATOM      9  C   UNL d   1       0.534   1.274  -0.210  0.00  0.00     0.163 A 
ENDROOT
BRANCH   1  10
ATOM     10  O   UNL d   1       1.541  -2.069   0.243  0.00  0.00    -0.277 OA
BRANCH  10  11
ATOM     11  C   UNL d   1       2.785  -1.902   0.817  0.00  0.00     0.106 A 
ATOM     12  C   UNL d   1       3.844  -2.612   0.222  0.00  0.00     0.068 A 
ATOM     13 CL   UNL d   1       3.607  -3.547  -1.214  0.00  0.00    -0.081 Cl
ATOM     14  C   UNL d   1       5.122  -2.601   0.787  0.00  0.00     0.027 A 
ATOM     15  C   UNL d   1       5.359  -1.881   1.953  0.00  0.00     0.002 A 
ATOM     16  C   UNL d   1       4.316  -1.188   2.562  0.00  0.00     0.010 A 
ATOM     17  C   UNL d   1       3.015  -1.207   2.025  0.00  0.00    -0.026 A 
ATOM     18  C   UNL d   1       1.968  -0.458   2.796  0.00  0.00     0.051 C 
ENDBRANCH  10  11
ENDBRANCH   1  10
BRANCH   2  19
ATOM     19  O   UNL d   1      -2.637  -0.141   0.102  0.00  0.00    -0.277 OA
BRANCH  19  20
ATOM     20  C   UNL d   1      -3.202  -1.266   0.663  0.00  0.00     0.106 A 
ATOM     21  C   UNL d   1      -4.326  -1.799   0.009  0.00  0.00     0.068 A 
ATOM     22 CL   UNL d   1      -4.907  -1.129  -1.476  0.00  0.00    -0.081 Cl
ATOM     23  C   UNL d   1      -5.032  -2.877   0.554  0.00  0.00     0.027 A 
ATOM     24  C   UNL d   1      -4.619  -3.441   1.756  0.00  0.00     0.002 A 
ATOM     25  C   UNL d   1      -3.523  -2.907   2.427  0.00  0.00     0.010 A 
ATOM     26  C   UNL d   1      -2.828  -1.794   1.916  0.00  0.00    -0.026 A 
ATOM     27  C   UNL d   1      -1.704  -1.264   2.758  0.00  0.00     0.051 C 
ENDBRANCH  19  20
ENDBRANCH   2  19
BRANCH   9  28
ATOM     28  N   UNL d   1       1.117   2.525  -0.270  0.00  0.00    -0.263 NA
ATOM     29  H   UNL d   1       2.099   2.442  -0.015  0.00  0.00     0.130 HD
BRANCH  28  30
ATOM     30  C   UNL d   1       0.421   3.642   0.360  0.00  0.00     0.105 C 
BRANCH  30  31
ATOM     31  C   UNL d   1       0.688   3.735   1.876  0.00  0.00     0.089 C 
BRANCH  31  32
ATOM     32  S   UNL d   1       2.462   4.067   2.210  0.00  0.00    -0.159 SA
BRANCH  32  33
ATOM     33  C   UNL d   1       2.478   4.396   4.034  0.00  0.00    -0.003 C 
ATOM     34  C   UNL d   1       2.050   3.145   4.810  0.00  0.00     0.026 C 
ATOM     35  C   UNL d   1       3.934   4.739   4.396  0.00  0.00     0.026 C 
ATOM     36  C   UNL d   1       1.586   5.588   4.402  0.00  0.00     0.026 C 
ENDBRANCH  32  33
ENDBRANCH  31  32
ENDBRANCH  30  31
ENDBRANCH  28  30
ENDBRANCH   9  28
TORSDOF 9
