REMARK  5 active torsions:
REMARK  status: ('A' for Active; 'I' for Inactive)
REMARK    1  A    between atoms: S_9  and  C_1 
REMARK    2  A    between atoms: N_6  and  C_2 
REMARK    3  A    between atoms: C_18  and  N_3 
REMARK    4  A    between atoms: C_5  and  S_9 
REMARK    5  A    between atoms: O_19  and  C_10 
ROOT
ATOM      1  C   UNL d   1      -0.325  -1.384   0.665  0.00  0.00     0.171 A 
ATOM      2  N   UNL d   1       0.811  -0.642   0.403  0.00  0.00    -0.286 N 
ATOM      3  N   UNL d   1      -1.353  -0.570   0.775  0.00  0.00    -0.276 N 
ATOM      4  HN  UNL d   1      -2.322  -0.857   0.913  1.00  0.00     0.189 HD
ATOM      5  C   UNL d   1       0.384   0.671   0.524  0.00  0.00     0.240 A 
ATOM      6  N   UNL d   1      -0.915   0.717   0.676  0.00  0.00    -0.263 N 
ATOM      7  HN  UNL d   1      -1.492   1.557   0.713  1.00  0.00     0.190 HD
ENDROOT
BRANCH   1   8
ATOM      8  S   UNL d   1      -0.368  -3.080   0.975  0.00  0.00    -0.027 SA
BRANCH   8   9
ATOM      9  C   UNL d   1      -2.070  -3.509   0.862  0.00  0.00     0.121 A 
ATOM     10  S   UNL d   1      -3.409  -2.609   1.461  0.00  0.00    -0.039 SA
ATOM     11  C   UNL d   1      -4.459  -3.824   0.925  0.00  0.00     0.161 A 
ATOM     12  C   UNL d   1      -3.755  -4.893   0.427  0.00  0.00     0.133 A 
ATOM     13  N   UNL d   1      -2.382  -4.708   0.394  0.00  0.00    -0.352 N 
ATOM     14  HN  UNL d   1      -1.709  -5.397   0.058  1.00  0.00     0.166 HD
BRANCH  11  15
ATOM     15  N   UNL d   1      -5.878  -3.696   1.013  0.00  0.00    -0.107 N 
ATOM     16  O   UNL d   1      -6.542  -4.569   0.437  0.00  0.00    -0.531 OA
ATOM     17  O   UNL d   1      -6.344  -2.743   1.648  0.00  0.00    -0.531 OA
ENDBRANCH  11  15
ENDBRANCH   8   9
ENDBRANCH   1   8
BRANCH   2  18
ATOM     18  C   UNL d   1       2.139  -0.995  -0.092  0.00  0.00     0.095 C 
ATOM     19  C   UNL d   1       2.174  -1.526  -1.532  0.00  0.00     0.026 C 
ATOM     20  C   UNL d   1       2.092  -3.039  -1.649  0.00  0.00     0.002 C 
ATOM     21  C   UNL d   1       3.096  -3.749  -0.749  0.00  0.00     0.000 C 
ATOM     22  C   UNL d   1       3.077  -3.279   0.702  0.00  0.00     0.002 C 
ATOM     23  C   UNL d   1       3.069  -1.764   0.861  0.00  0.00     0.026 C 
ENDBRANCH   2  18
BRANCH   5  24
ATOM     24  O   UNL d   1       1.142   1.748   0.475  0.00  0.00    -0.331 OA
ATOM     25  H   UNL d   1       1.952   1.572   0.974  0.00  0.00     0.221 HD
ENDBRANCH   5  24
TORSDOF 5
