REMARK  5 active torsions:
REMARK  status: ('A' for Active; 'I' for Inactive)
REMARK    1  A    between atoms: S_9  and  C_1 
REMARK    2  A    between atoms: C_7  and  C_3 
REMARK    3  A    between atoms: O_16  and  C_7 
REMARK    4  A    between atoms: C_15  and  S_9 
REMARK    5  A    between atoms: C_19  and  O_16 
ROOT
ATOM      1  C   UNL d   1       1.299  -1.503  -0.044  0.00  0.00     0.038 A 
ATOM      2  C   UNL d   1       0.034  -0.825   0.038  0.00  0.00     0.051 A 
ATOM      3  C   UNL d   1       2.476  -0.742  -0.150  0.00  0.00     0.072 A 
ATOM      4  N   UNL d   1       1.208   1.292   0.081  0.00  0.00    -0.362 N 
ATOM      5  HN  UNL d   1       1.194   2.308   0.167  1.00  0.00     0.165 HD
ATOM      6  C   UNL d   1       0.062   0.590   0.090  0.00  0.00     0.086 A 
ATOM      7  C   UNL d   1       2.377   0.631  -0.044  0.00  0.00     0.107 A 
ATOM      8  C   UNL d   1      -1.253  -1.437   0.044  0.00  0.00     0.130 A 
ATOM      9  C   UNL d   1      -1.143   1.298   0.131  0.00  0.00     0.144 A 
ATOM     10  C   UNL d   1      -2.440  -0.705   0.076  0.00  0.00     0.046 A 
ATOM     11  C   UNL d   1      -2.385   0.675   0.117  0.00  0.00     0.048 A 
ATOM     12  F   UNL d   1      -1.388  -2.768  -0.013  0.00  0.00    -0.205 F 
ATOM     13  F   UNL d   1      -1.126   2.639   0.169  0.00  0.00    -0.204 F 
ENDROOT
BRANCH   1  14
ATOM     14  S   UNL d   1       1.389  -3.309  -0.039  0.00  0.00    -0.088 SA
BRANCH  14  15
ATOM     15  C   UNL d   1       1.417  -3.678   1.706  0.00  0.00     0.005 A 
ATOM     16  C   UNL d   1       0.368  -4.415   2.267  0.00  0.00     0.019 A 
ATOM     17  C   UNL d   1       0.386  -4.760   3.619  0.00  0.00     0.001 A 
ATOM     18  C   UNL d   1       1.459  -4.375   4.423  0.00  0.00     0.000 A 
ATOM     19  C   UNL d   1       2.515  -3.655   3.870  0.00  0.00     0.001 A 
ATOM     20  C   UNL d   1       2.499  -3.312   2.515  0.00  0.00     0.019 A 
ENDBRANCH  14  15
ENDBRANCH   1  14
BRANCH   3  21
ATOM     21  C   UNL d   1       3.838  -1.249  -0.398  0.00  0.00     0.296 C 
ATOM     22  O   UNL d   1       4.830  -0.767   0.124  0.00  0.00    -0.259 OA
BRANCH  21  23
ATOM     23  O   UNL d   1       3.815  -2.191  -1.365  0.00  0.00    -0.318 OA
BRANCH  23  24
ATOM     24  C   UNL d   1       5.085  -2.704  -1.796  0.00  0.00     0.174 C 
ATOM     25  C   UNL d   1       5.680  -3.653  -0.772  0.00  0.00     0.034 C 
ENDBRANCH  23  24
ENDBRANCH  21  23
ENDBRANCH   3  21
TORSDOF 5
