REMARK  3 active torsions:
REMARK  status: ('A' for Active; 'I' for Inactive)
REMARK    1  A    between atoms: C_2  and  C_5 
REMARK    2  A    between atoms: C_5  and  C_6 
REMARK    3  A    between atoms: N_14  and  C_8 
ROOT
ATOM      1  O   UNL d   1      -0.865   1.129  -0.173  0.00  0.00    -0.340 OA
ATOM      2  C   UNL d   1       0.385   0.579  -0.091  0.00  0.00     0.076 A 
ATOM      3  C   UNL d   1       0.628  -0.793  -0.023  0.00  0.00    -0.024 A 
ATOM      4  C   UNL d   1       3.034  -0.368   0.095  0.00  0.00     0.015 A 
ATOM      5  C   UNL d   1       1.949  -1.257   0.098  0.00  0.00     0.025 A 
ATOM      6  C   UNL d   1      -1.982   0.247   0.052  0.00  0.00     0.061 C 
ATOM      7  C   UNL d   1       1.453   1.474  -0.100  0.00  0.00     0.038 A 
ATOM      8  C   UNL d   1       2.768   1.005  -0.011  0.00  0.00     0.018 A 
ATOM      9  C   UNL d   1      -0.500  -1.782  -0.060  0.00  0.00     0.044 C 
ATOM     10  C   UNL d   1      -1.757  -1.123  -0.603  0.00  0.00     0.042 C 
ATOM     11  C   UNL d   1      -3.194   0.917  -0.612  0.00  0.00     0.046 C 
ATOM     12  C   UNL d   1      -2.251   0.145   1.562  0.00  0.00     0.046 C 
ENDROOT
BRANCH   4  13
ATOM     13  C   UNL d   1       4.467  -0.802   0.185  0.00  0.00     0.183 C 
ATOM     14  O   UNL d   1       5.359   0.041   0.213  0.00  0.00    -0.288 OA
BRANCH  13  15
ATOM     15  C   UNL d   1       4.781  -2.259   0.228  0.00  0.00     0.072 C 
ATOM     16  C   UNL d   1       6.046  -2.696   0.263  0.00  0.00     0.088 C 
BRANCH  16  17
ATOM     17  N   UNL d   1       6.525  -4.002   0.284  0.00  0.00    -0.398 N 
ATOM     18  C   UNL d   1       5.689  -5.201   0.248  0.00  0.00     0.148 C 
ATOM     19  C   UNL d   1       7.958  -4.285   0.386  0.00  0.00     0.148 C 
ENDBRANCH  16  17
ENDBRANCH  13  15
ENDBRANCH   4  13
TORSDOF 3
