REMARK  4 active torsions:
REMARK  status: ('A' for Active; 'I' for Inactive)
REMARK    1  A    between atoms: N_3  and  S_1 
REMARK    2  A    between atoms: C_4  and  S_1 
REMARK    3  A    between atoms: N_2  and  C_5 
REMARK    4  A    between atoms: C_7  and  N_6 
ROOT
ATOM      1  N   UNL d   1       0.442   0.483  -1.300  0.00  0.00    -0.203 NA
ATOM      2  N   UNL d   1      -1.688   2.406  -1.192  0.00  0.00    -0.365 N 
ATOM      3  C   UNL d   1       0.693   1.939  -1.584  0.00  0.00     0.127 C 
ATOM      4  C   UNL d   1      -0.996   0.116  -1.545  0.00  0.00     0.127 C 
ATOM      5  C   UNL d   1      -0.325   2.859  -0.864  0.00  0.00     0.140 C 
ATOM      6  C   UNL d   1      -1.961   1.028  -0.762  0.00  0.00     0.140 C 
ENDROOT
BRANCH   1   7
ATOM      7  S   UNL d   1       1.117  -0.129   0.133  0.00  0.00     0.243 S 
ATOM      8  O   UNL d   1       0.466  -1.373   0.468  0.00  0.00    -0.206 OA
ATOM      9  O   UNL d   1       1.228   0.955   1.086  0.00  0.00    -0.206 OA
BRANCH   7  10
ATOM     10  C   UNL d   1       2.760  -0.558  -0.402  0.00  0.00     0.076 A 
ATOM     11  C   UNL d   1       3.873   0.078   0.157  0.00  0.00     0.051 A 
ATOM     12  C   UNL d   1       5.150  -0.345  -0.212  0.00  0.00     0.074 A 
ATOM     13 CL   UNL d   1       6.526   0.416   0.487  0.00  0.00    -0.081 Cl
ATOM     14  C   UNL d   1       5.306  -1.388  -1.129  0.00  0.00     0.138 A 
ATOM     15  C   UNL d   1       4.196  -2.014  -1.691  0.00  0.00     0.045 A 
ATOM     16  F   UNL d   1       6.528  -1.813  -1.480  0.00  0.00    -0.204 F 
ATOM     17  C   UNL d   1       2.914  -1.602  -1.326  0.00  0.00     0.028 A 
ENDBRANCH   7  10
ENDBRANCH   1   7
BRANCH   2  18
ATOM     18  C   UNL d   1      -2.719   3.326  -1.140  0.00  0.00     0.103 A 
ATOM     19  N   UNL d   1      -3.813   3.086  -0.385  0.00  0.00    -0.350 N 
ATOM     20  C   UNL d   1      -4.846   3.970  -0.446  0.00  0.00     0.125 A 
ATOM     21  HN  UNL d   1      -3.864   2.263   0.216  1.00  0.00     0.166 HD
ATOM     22  C   UNL d   1      -4.846   5.084  -1.266  0.00  0.00     0.118 A 
ATOM     23  C   UNL d   1      -3.729   5.331  -2.055  0.00  0.00     0.041 A 
ATOM     24  C   UNL d   1      -2.658   4.445  -1.978  0.00  0.00     0.051 A 
BRANCH  22  25
ATOM     25  N   UNL d   1      -6.003   5.962  -1.319  0.00  0.00    -0.114 N 
ATOM     26  O   UNL d   1      -6.961   5.701  -0.578  0.00  0.00    -0.532 OA
ATOM     27  O   UNL d   1      -5.963   6.920  -2.104  0.00  0.00    -0.532 OA
ENDBRANCH  22  25
ENDBRANCH   2  18
TORSDOF 4
