REMARK  6 active torsions:
REMARK  status: ('A' for Active; 'I' for Inactive)
REMARK    1  A    between atoms: C_7  and  C_1 
REMARK    2  A    between atoms: S_2  and  N_8 
REMARK    3  A    between atoms: C_10  and  S_2 
REMARK    4  A    between atoms: S_15  and  C_4 
REMARK       I    between atoms: N_9  and  C_7 
REMARK    5  A    between atoms: N_8  and  N_9 
REMARK    6  A    between atoms: O_23  and  C_20 
ROOT
ATOM      1  C   UNL d   1      -2.668  -2.067   0.027  0.00  0.00     0.278 C 
ATOM      2  N   UNL d   1      -2.237  -3.365   0.256  0.00  0.00    -0.256 N 
ATOM      3  O   UNL d   1      -3.871  -1.825  -0.103  0.00  0.00    -0.265 OA
ATOM      4  H   UNL d   1      -1.253  -3.581   0.408  0.00  0.00     0.191 HD
ENDROOT
BRANCH   2   5
ATOM      5  N   UNL d   1      -3.201  -4.456   0.370  0.00  0.00    -0.220 N 
ATOM      6  H   UNL d   1      -4.199  -4.222   0.365  0.00  0.00     0.200 HD
BRANCH   5   7
ATOM      7  S   UNL d   1      -2.683  -5.917   1.044  0.00  0.00     0.276 S 
ATOM      8  O   UNL d   1      -1.567  -6.391   0.254  0.00  0.00    -0.199 OA
ATOM      9  O   UNL d   1      -2.551  -5.697   2.467  0.00  0.00    -0.199 OA
BRANCH   7  10
ATOM     10  C   UNL d   1      -4.054  -7.010   0.771  0.00  0.00     0.081 A 
ATOM     11  C   UNL d   1      -4.383  -7.383  -0.536  0.00  0.00     0.028 A 
ATOM     12  C   UNL d   1      -5.430  -8.286  -0.761  0.00  0.00     0.038 A 
ATOM     13  C   UNL d   1      -6.138  -8.822   0.317  0.00  0.00     0.068 A 
ATOM     14  C   UNL d   1      -5.780  -8.468   1.621  0.00  0.00     0.038 A 
ATOM     15  C   UNL d   1      -4.744  -7.557   1.855  0.00  0.00     0.028 A 
BRANCH  13  16
ATOM     16  O   UNL d   1      -7.155  -9.732   0.224  0.00  0.00    -0.356 OA
ATOM     17  C   UNL d   1      -7.894  -9.723  -0.993  0.00  0.00     0.210 C 
ENDBRANCH  13  16
ENDBRANCH   7  10
ENDBRANCH   5   7
ENDBRANCH   2   5
BRANCH   1  18
ATOM     18  C   UNL d   1      -1.623  -1.039  -0.029  0.00  0.00     0.082 A 
ATOM     19  S   UNL d   1       0.038  -1.468   0.065  0.00  0.00    -0.076 SA
ATOM     20  C   UNL d   1       0.569   0.156  -0.011  0.00  0.00     0.052 A 
ATOM     21  C   UNL d   1      -0.500   1.018  -0.136  0.00  0.00    -0.005 A 
ATOM     22  C   UNL d   1      -1.770   0.341  -0.147  0.00  0.00    -0.023 A 
ATOM     23  C   UNL d   1      -0.431   2.443  -0.216  0.00  0.00     0.010 A 
ATOM     24  C   UNL d   1      -3.071   1.099  -0.232  0.00  0.00     0.045 A 
ATOM     25  C   UNL d   1      -2.926   2.630  -0.378  0.00  0.00     0.032 A 
ATOM     26  C   UNL d   1      -1.534   3.197  -0.334  0.00  0.00    -0.025 A 
BRANCH  20  27
ATOM     27  S   UNL d   1       2.285   0.526   0.144  0.00  0.00    -0.126 SA
ATOM     28  C   UNL d   1       2.675   1.119  -1.516  0.00  0.00     0.096 C 
ENDBRANCH  20  27
ENDBRANCH   1  18
TORSDOF 6
