REMARK  5 active torsions:
REMARK  status: ('A' for Active; 'I' for Inactive)
REMARK       I    between atoms: C_2  and  N_1 
REMARK    1  A    between atoms: O_7  and  C_2 
REMARK    2  A    between atoms: C_10  and  C_3 
REMARK    3  A    between atoms: C_9  and  O_7 
REMARK    4  A    between atoms: C_11  and  C_9 
REMARK    5  A    between atoms: O_13  and  C_10 
ROOT
ATOM      1  N   UNL d   1       1.492   1.172   0.071  0.00  0.00    -0.286 N 
ATOM      2  C   UNL d   1       1.964   2.465  -0.043  0.00  0.00     0.368 C 
ATOM      3  C   UNL d   1       2.401   0.012   0.257  0.00  0.00     0.123 C 
ATOM      4  C   UNL d   1       0.167   0.700   0.021  0.00  0.00     0.046 A 
ATOM      5  C   UNL d   1       0.164  -0.698  -0.013  0.00  0.00    -0.029 A 
ATOM      6  C   UNL d   1       1.561  -1.236  -0.086  0.00  0.00     0.069 C 
ATOM      7  O   UNL d   1       3.144   2.753   0.134  0.00  0.00    -0.238 OA
ATOM      8  C   UNL d   1      -1.027   1.402   0.036  0.00  0.00     0.030 A 
ATOM      9  C   UNL d   1      -1.016  -1.420  -0.032  0.00  0.00     0.009 A 
ATOM     10  C   UNL d   1      -2.226   0.682   0.024  0.00  0.00     0.002 A 
ATOM     11  C   UNL d   1      -2.221  -0.718  -0.008  0.00  0.00     0.001 A 
ENDROOT
BRANCH   2  12
ATOM     12  O   UNL d   1       1.009   3.368  -0.387  0.00  0.00    -0.299 OA
BRANCH  12  13
ATOM     13  C   UNL d   1       1.397   4.747  -0.452  0.00  0.00     0.219 C 
BRANCH  13  14
ATOM     14  C   UNL d   1       0.796   5.465  -1.645  0.00  0.00    -0.034 A 
ATOM     15  C   UNL d   1       0.072   4.808  -2.650  0.00  0.00     0.009 A 
ATOM     16  C   UNL d   1      -0.446   5.522  -3.737  0.00  0.00     0.001 A 
ATOM     17  C   UNL d   1      -0.244   6.897  -3.835  0.00  0.00     0.000 A 
ATOM     18  C   UNL d   1       0.474   7.562  -2.846  0.00  0.00     0.001 A 
ATOM     19  C   UNL d   1       0.990   6.853  -1.760  0.00  0.00     0.009 A 
ENDBRANCH  13  14
ENDBRANCH  12  13
ENDBRANCH   2  12
BRANCH   3  20
ATOM     20  C   UNL d   1       2.985  -0.067   1.683  0.00  0.00     0.190 C 
BRANCH  20  21
ATOM     21  O   UNL d   1       1.991  -0.295   2.679  0.00  0.00    -0.399 OA
ATOM     22  H   UNL d   1       1.389   0.471   2.659  0.00  0.00     0.209 HD
ENDBRANCH  20  21
ENDBRANCH   3  20
TORSDOF 5
