REMARK  2 active torsions:
REMARK  status: ('A' for Active; 'I' for Inactive)
REMARK    1  A    between atoms: N_14  and  C_10 
REMARK    2  A    between atoms: C_16  and  N_14 
ROOT
ATOM      1  S   UNL d   1      -1.032  -1.436   0.046  0.00  0.00     0.270 S 
ATOM      2  C   UNL d   1      -1.726  -0.196   2.278  0.00  0.00     0.101 A 
ATOM      3  N   UNL d   1      -1.454  -1.474   1.678  0.00  0.00    -0.269 N 
ATOM      4  C   UNL d   1      -2.028   0.960   1.565  0.00  0.00     0.057 A 
ATOM      5  C   UNL d   1      -2.109  -0.268  -0.574  0.00  0.00     0.146 C 
ATOM      6  C   UNL d   1      -2.100   1.026   0.101  0.00  0.00     0.210 C 
ATOM      7  S   UNL d   1      -1.774   0.051   3.960  0.00  0.00    -0.075 SA
ATOM      8  C   UNL d   1      -2.340   2.064   2.469  0.00  0.00    -0.032 A 
ATOM      9  C   UNL d   1      -2.218   1.682   3.796  0.00  0.00    -0.012 A 
ATOM     10  C   UNL d   1      -3.041  -0.577  -1.488  0.00  0.00     0.118 C 
ATOM     11  O   UNL d   1      -1.345  -2.745  -0.503  0.00  0.00    -0.200 OA
ATOM     12  O   UNL d   1       0.327  -0.937  -0.039  0.00  0.00    -0.200 OA
ATOM     13  O   UNL d   1      -2.267   2.062  -0.538  0.00  0.00    -0.286 OA
ATOM     14  C   UNL d   1      -1.134  -2.703   2.411  0.00  0.00     0.170 C 
ATOM     15  C   UNL d   1      -2.780   3.445   2.074  0.00  0.00     0.050 C 
ATOM     16  C   UNL d   1      -2.457   2.516   5.013  0.00  0.00     0.057 C 
ENDROOT
BRANCH  10  17
ATOM     17  N   UNL d   1      -4.014   0.249  -1.997  0.00  0.00    -0.364 N 
ATOM     18  H   UNL d   1      -3.920   1.243  -1.777  0.00  0.00     0.165 HD
BRANCH  17  19
ATOM     19  C   UNL d   1      -5.177  -0.110  -2.696  0.00  0.00     0.032 A 
ATOM     20  C   UNL d   1      -5.671  -1.419  -2.745  0.00  0.00     0.031 A 
ATOM     21  C   UNL d   1      -6.794  -1.739  -3.514  0.00  0.00     0.026 A 
ATOM     22  C   UNL d   1      -7.426  -0.746  -4.258  0.00  0.00     0.034 A 
ATOM     23  C   UNL d   1      -6.950   0.561  -4.230  0.00  0.00     0.026 A 
ATOM     24 CL   UNL d   1      -8.791  -1.139  -5.227  0.00  0.00    -0.084 Cl
ATOM     25  C   UNL d   1      -5.832   0.876  -3.451  0.00  0.00     0.031 A 
ENDBRANCH  17  19
ENDBRANCH  10  17
TORSDOF 2
