REMARK  2 active torsions:
REMARK  status: ('A' for Active; 'I' for Inactive)
REMARK    1  A    between atoms: C_5  and  C_1 
REMARK    2  A    between atoms: O_8  and  C_5 
ROOT
ATOM      1  C   UNL d   1       0.952  -1.718  -0.034  0.00  0.00     0.055 A 
ATOM      2  C   UNL d   1       2.072  -0.908  -0.036  0.00  0.00     0.069 A 
ATOM      3  C   UNL d   1      -0.271  -0.930  -0.015  0.00  0.00    -0.002 A 
ATOM      4  S   UNL d   1       1.702   0.747   0.052  0.00  0.00    -0.100 SA
ATOM      5  C   UNL d   1       0.010   0.442   0.038  0.00  0.00     0.016 A 
ATOM      6  C   UNL d   1      -1.642  -1.306  -0.071  0.00  0.00     0.014 A 
ATOM      7  C   UNL d   1      -1.010   1.414   0.063  0.00  0.00     0.019 A 
ATOM      8  C   UNL d   1      -2.657  -0.343  -0.038  0.00  0.00     0.001 A 
ATOM      9  C   UNL d   1      -2.342   1.004   0.029  0.00  0.00     0.001 A 
ENDROOT
BRANCH   1  10
ATOM     10  C   UNL d   1       1.095  -3.169  -0.084  0.00  0.00     0.177 C 
ATOM     11  O   UNL d   1       2.026  -3.736  -0.636  0.00  0.00    -0.646 OA
BRANCH  10  12
ATOM     12  O   UNL d   1       0.138  -3.866   0.582  0.00  0.00    -0.773 OA
ATOM     13  H   UNL d   1      -0.420  -3.286   1.131  0.00  0.00     0.167 HD
ENDBRANCH  10  12
ENDBRANCH   1  10
TORSDOF 2
