REMARK  5 active torsions:
REMARK  status: ('A' for Active; 'I' for Inactive)
REMARK    1  A    between atoms: C_4  and  C_3 
REMARK    2  A    between atoms: C_19  and  C_5 
REMARK    3  A    between atoms: C_7  and  C_6 
REMARK    4  A    between atoms: C_15  and  C_21 
REMARK    5  A    between atoms: C_16  and  C_20 
ROOT
ATOM      1  N   UNL d   1       1.196   0.110   0.285  0.00  0.00    -0.317 N 
ATOM      2  HN  UNL d   1       2.164   0.224   0.585  1.00  0.00     0.169 HD
ATOM      3  C   UNL d   1       0.531  -1.006   0.059  0.00  0.00     0.200 A 
ATOM      4  C   UNL d   1       0.260   1.085   0.019  0.00  0.00     0.138 A 
ATOM      5  N   UNL d   1      -0.955   0.605  -0.285  0.00  0.00    -0.242 N 
ATOM      6  HN  UNL d   1      -1.809   1.128  -0.479  1.00  0.00     0.196 HD
ATOM      7  O   UNL d   1      -0.777  -0.774  -0.272  0.00  0.00    -0.215 OA
ENDROOT
BRANCH   4   8
ATOM      8  C   UNL d   1       0.601   2.505  -0.028  0.00  0.00     0.011 A 
ATOM      9  C   UNL d   1       1.895   2.938   0.293  0.00  0.00     0.031 A 
ATOM     10  C   UNL d   1       2.265   4.288   0.155  0.00  0.00     0.049 A 
ATOM     11  C   UNL d   1       1.311   5.212  -0.303  0.00  0.00     0.032 A 
ATOM     12  C   UNL d   1       0.007   4.804  -0.622  0.00  0.00     0.049 A 
ATOM     13  C   UNL d   1      -0.338   3.451  -0.469  0.00  0.00     0.031 A 
BRANCH  10  14
ATOM     14  C   UNL d   1       3.681   4.715   0.470  0.00  0.00     0.417 C 
ATOM     15  F   UNL d   1       3.914   6.035   0.229  0.00  0.00    -0.166 F 
ATOM     16  F   UNL d   1       4.010   4.507   1.773  0.00  0.00    -0.166 F 
ATOM     17  F   UNL d   1       4.602   4.033  -0.265  0.00  0.00    -0.166 F 
ENDBRANCH  10  14
BRANCH  12  18
ATOM     18  C   UNL d   1      -1.018   5.779  -1.153  0.00  0.00     0.417 C 
ATOM     19  F   UNL d   1      -0.534   7.042  -1.309  0.00  0.00    -0.166 F 
ATOM     20  F   UNL d   1      -1.497   5.410  -2.373  0.00  0.00    -0.166 F 
ATOM     21  F   UNL d   1      -2.102   5.889  -0.340  0.00  0.00    -0.166 F 
ENDBRANCH  12  18
ENDBRANCH   4   8
BRANCH   3  22
ATOM     22  C   UNL d   1       1.135  -2.369   0.103  0.00  0.00     0.111 A 
ATOM     23  C   UNL d   1       2.449  -2.683   0.504  0.00  0.00     0.077 A 
ATOM     24  C   UNL d   1       2.546  -4.044   0.331  0.00  0.00     0.128 A 
ATOM     25  O   UNL d   1       1.359  -4.510  -0.155  0.00  0.00    -0.235 OA
ATOM     26  N   UNL d   1       0.462  -3.463  -0.278  0.00  0.00    -0.256 N 
ATOM     27  HN  UNL d   1      -0.507  -3.513  -0.594  1.00  0.00     0.195 HD
BRANCH  24  28
ATOM     28  C   UNL d   1       3.732  -4.885   0.630  0.00  0.00     0.075 A 
ATOM     29  N   UNL d   1       4.859  -4.360   1.236  0.00  0.00    -0.352 N 
ATOM     30  C   UNL d   1       5.736  -5.321   1.440  0.00  0.00     0.047 A 
ATOM     31  HN  UNL d   1       4.990  -3.380   1.486  1.00  0.00     0.166 HD
ATOM     32  C   UNL d   1       7.043  -5.138   2.128  0.00  0.00     0.076 C 
ATOM     33  S   UNL d   1       5.284  -6.876   0.860  0.00  0.00    -0.087 SA
ATOM     34  C   UNL d   1       3.782  -6.233   0.344  0.00  0.00     0.084 A 
ENDBRANCH  24  28
ENDBRANCH   3  22
TORSDOF 5
