REMARK  4 active torsions:
REMARK  status: ('A' for Active; 'I' for Inactive)
REMARK    1  A    between atoms: C_2  and  S_1 
REMARK    2  A    between atoms: C_6  and  S_1 
REMARK    3  A    between atoms: N_12  and  C_3 
REMARK    4  A    between atoms: C_15  and  N_12 
ROOT
ATOM      1  C   UNL d   1       0.437  -0.572   1.640  0.00  0.00     0.159 C 
ATOM      2  C   UNL d   1      -0.360   0.241   2.356  0.00  0.00     0.123 C 
ATOM      3  C   UNL d   1       0.937  -0.225   0.366  0.00  0.00     0.113 C 
ATOM      4  N   UNL d   1       1.346   0.110  -0.667  0.00  0.00    -0.191 NA
ENDROOT
BRANCH   1   5
ATOM      5  S   UNL d   1       0.851  -2.137   2.252  0.00  0.00     0.218 S 
ATOM      6  O   UNL d   1       0.474  -3.151   1.283  0.00  0.00    -0.216 OA
ATOM      7  O   UNL d   1       0.427  -2.275   3.636  0.00  0.00    -0.216 OA
BRANCH   5   8
ATOM      8  C   UNL d   1       2.640  -2.104   2.285  0.00  0.00     0.065 A 
ATOM      9  C   UNL d   1       3.304  -1.739   3.461  0.00  0.00     0.025 A 
ATOM     10  C   UNL d   1       4.701  -1.750   3.493  0.00  0.00     0.025 A 
ATOM     11  C   UNL d   1       5.420  -2.131   2.359  0.00  0.00     0.034 A 
ATOM     12  C   UNL d   1       4.756  -2.511   1.192  0.00  0.00     0.025 A 
ATOM     13 CL   UNL d   1       7.140  -2.143   2.405  0.00  0.00    -0.084 Cl
ATOM     14  C   UNL d   1       3.360  -2.509   1.154  0.00  0.00     0.025 A 
ENDBRANCH   5   8
ENDBRANCH   1   5
BRANCH   2  15
ATOM     15  N   UNL d   1      -0.811   1.493   1.997  0.00  0.00    -0.364 N 
ATOM     16  H   UNL d   1      -0.543   1.827   1.073  0.00  0.00     0.165 HD
BRANCH  15  17
ATOM     17  C   UNL d   1      -1.619   2.400   2.709  0.00  0.00     0.034 A 
ATOM     18  C   UNL d   1      -2.054   2.203   4.025  0.00  0.00     0.069 A 
ATOM     19  C   UNL d   1      -2.864   3.154   4.658  0.00  0.00     0.104 A 
ATOM     20  O   UNL d   1      -3.247   2.875   5.947  0.00  0.00    -0.346 OA
ATOM     21  C   UNL d   1      -3.235   4.323   3.990  0.00  0.00     0.102 A 
ATOM     22  C   UNL d   1      -4.318   3.727   6.372  0.00  0.00     0.202 C 
ATOM     23  C   UNL d   1      -4.048   5.171   5.982  0.00  0.00     0.202 C 
ATOM     24  O   UNL d   1      -3.999   5.309   4.558  0.00  0.00    -0.346 OA
ATOM     25  C   UNL d   1      -2.830   4.526   2.678  0.00  0.00     0.042 A 
ATOM     26  C   UNL d   1      -2.027   3.573   2.047  0.00  0.00     0.032 A 
ENDBRANCH  15  17
ENDBRANCH   2  15
TORSDOF 4
