REMARK  7 active torsions:
REMARK  status: ('A' for Active; 'I' for Inactive)
REMARK    1  A    between atoms: C_6  and  C_1 
REMARK    2  A    between atoms: C_2  and  C_8 
REMARK    3  A    between atoms: N_20  and  C_5 
REMARK       I    between atoms: C_7  and  N_21 
REMARK    4  A    between atoms: C_9  and  C_7 
REMARK    5  A    between atoms: C_27  and  N_20 
REMARK    6  A    between atoms: N_21  and  C_28 
REMARK    7  A    between atoms: C_28  and  C_27 
ROOT
ATOM      1  C   UNL d   1       1.139   6.147   0.049  0.00  0.00     0.157 C 
ENDROOT
BRANCH   1   2
ATOM      2  N   UNL d   1       1.491   4.751  -0.094  0.00  0.00    -0.224 N 
ATOM      3  H   UNL d   1       2.306   4.391   0.385  0.00  0.00     0.177 HD
BRANCH   2   4
ATOM      4  C   UNL d   1       1.225   4.062  -1.249  0.00  0.00     0.678 A 
ATOM      5  N   UNL d   1       1.749   2.834  -1.330  0.00  0.00    -0.187 N 
ATOM      6  C   UNL d   1       1.439   2.073  -2.414  0.00  0.00     0.133 A 
ATOM      7  HN  UNL d   1       2.365   2.478  -0.599  1.00  0.00     0.184 HD
ATOM      8  C   UNL d   1       0.637   2.556  -3.433  0.00  0.00     0.052 A 
ATOM      9  C   UNL d   1       0.175   3.837  -3.273  0.00  0.00     0.108 A 
ATOM     10  N   UNL d   1       0.450   4.599  -2.200  0.00  0.00    -0.202 N 
ATOM     11  HN  UNL d   1       0.083   5.547  -2.114  1.00  0.00     0.183 HD
BRANCH   6  12
ATOM     12  C   UNL d   1       1.954   0.646  -2.507  0.00  0.00     0.433 C 
ATOM     13  F   UNL d   1       2.736   0.258  -1.462  0.00  0.00    -0.165 F 
ATOM     14  F   UNL d   1       2.702   0.439  -3.630  0.00  0.00    -0.165 F 
ATOM     15  F   UNL d   1       0.941  -0.267  -2.574  0.00  0.00    -0.165 F 
ENDBRANCH   6  12
ENDBRANCH   2   4
ENDBRANCH   1   2
BRANCH   1  16
ATOM     16  C   UNL d   1       2.156   7.097  -0.596  0.00  0.00     0.143 C 
BRANCH  16  17
ATOM     17  N   UNL d   1       1.739   8.489  -0.490  0.00  0.00    -0.355 N 
ATOM     18  C   UNL d   1       2.486   9.456   0.153  0.00  0.00     0.251 C 
ATOM     19  O   UNL d   1       3.531   9.234   0.748  0.00  0.00    -0.268 OA
ATOM     20  H   UNL d   1       0.836   8.732  -0.874  0.00  0.00     0.162 HD
BRANCH  18  21
ATOM     21  C   UNL d   1       1.915  10.834   0.127  0.00  0.00     0.032 A 
ATOM     22  C   UNL d   1       2.115  11.669   1.234  0.00  0.00     0.033 A 
ATOM     23  C   UNL d   1       1.541  12.952   1.273  0.00  0.00     0.048 A 
ATOM     24  C   UNL d   1       0.795  13.396   0.169  0.00  0.00     0.016 A 
ATOM     25  C   UNL d   1       0.626  12.581  -0.950  0.00  0.00     0.002 A 
ATOM     26  C   UNL d   1       1.184  11.302  -0.973  0.00  0.00     0.017 A 
BRANCH  23  27
ATOM     27  C   UNL d   1       1.684  13.841   2.485  0.00  0.00     0.417 C 
ATOM     28  F   UNL d   1       2.432  13.297   3.482  0.00  0.00    -0.166 F 
ATOM     29  F   UNL d   1       2.261  15.038   2.190  0.00  0.00    -0.166 F 
ATOM     30  F   UNL d   1       0.477  14.139   3.045  0.00  0.00    -0.166 F 
ENDBRANCH  23  27
ENDBRANCH  18  21
ENDBRANCH  16  17
ENDBRANCH   1  16
TORSDOF 7
