REMARK  3 active torsions:
REMARK  status: ('A' for Active; 'I' for Inactive)
REMARK    1  A    between atoms: N_6  and  C_1 
REMARK       I    between atoms: C_7  and  N_6 
REMARK    2  A    between atoms: C_8  and  C_7 
REMARK    3  A    between atoms: C_12  and  C_15 
ROOT
ATOM      1  N   UNL d   1       3.585  -1.178  -0.350  0.00  0.00    -0.303 N 
ATOM      2  C   UNL d   1       4.836  -0.576  -0.211  0.00  0.00     0.259 C 
ATOM      3  O   UNL d   1       5.906  -1.171  -0.204  0.00  0.00    -0.267 OA
ATOM      4  H   UNL d   1       2.764  -0.592  -0.326  0.00  0.00     0.171 HD
ENDROOT
BRANCH   1   5
ATOM      5  C   UNL d   1       3.253  -2.494  -0.625  0.00  0.00     0.155 C 
ATOM      6  S   UNL d   1       4.529  -3.643  -0.857  0.00  0.00    -0.011 SA
ATOM      7  C   UNL d   1       3.716  -4.621  -2.037  0.00  0.00     0.228 C 
ATOM      8  O   UNL d   1       4.302  -5.090  -3.005  0.00  0.00    -0.279 OA
ATOM      9  C   UNL d   1       2.321  -4.957  -1.750  0.00  0.00     0.048 A 
ATOM     10  C   UNL d   1       1.544  -4.050  -1.024  0.00  0.00     0.048 A 
ATOM     11  C   UNL d   1       1.810  -6.188  -2.183  0.00  0.00     0.018 A 
ATOM     12  N   UNL d   1       1.989  -2.757  -0.686  0.00  0.00    -0.336 N 
ATOM     13  C   UNL d   1       0.239  -4.427  -0.695  0.00  0.00     0.030 A 
ATOM     14  HN  UNL d   1       1.309  -2.023  -0.488  1.00  0.00     0.168 HD
ATOM     15  C   UNL d   1      -0.272  -5.671  -1.091  0.00  0.00     0.002 A 
ATOM     16  C   UNL d   1       0.508  -6.545  -1.847  0.00  0.00     0.001 A 
ENDBRANCH   1   5
BRANCH   2  17
ATOM     17  C   UNL d   1       4.861   0.896  -0.005  0.00  0.00     0.054 A 
ATOM     18  C   UNL d   1       5.914   1.678  -0.499  0.00  0.00     0.021 A 
ATOM     19  N   UNL d   1       6.020   3.009  -0.226  0.00  0.00    -0.355 N 
ATOM     20  C   UNL d   1       7.008   1.130  -1.373  0.00  0.00     0.069 C 
ATOM     21  C   UNL d   1       5.085   3.604   0.564  0.00  0.00     0.117 A 
ATOM     22  HN  UNL d   1       6.792   3.554  -0.611  1.00  0.00     0.166 HD
ATOM     23  C   UNL d   1       3.998   2.888   1.062  0.00  0.00     0.035 A 
ATOM     24  C   UNL d   1       3.887   1.526   0.779  0.00  0.00     0.021 A 
BRANCH  21  25
ATOM     25  C   UNL d   1       5.247   5.072   0.944  0.00  0.00     0.432 C 
ATOM     26  F   UNL d   1       6.356   5.673   0.430  0.00  0.00    -0.165 F 
ATOM     27  F   UNL d   1       4.187   5.832   0.539  0.00  0.00    -0.165 F 
ATOM     28  F   UNL d   1       5.322   5.248   2.297  0.00  0.00    -0.165 F 
ENDBRANCH  21  25
ENDBRANCH   2  17
TORSDOF 3
