REMARK  7 active torsions:
REMARK  status: ('A' for Active; 'I' for Inactive)
REMARK    1  A    between atoms: N_6  and  S_1 
REMARK    2  A    between atoms: C_12  and  S_1 
REMARK    3  A    between atoms: C_2  and  C_8 
REMARK    4  A    between atoms: C_10  and  N_6 
REMARK    5  A    between atoms: C_21  and  N_6 
REMARK    6  A    between atoms: C_18  and  C_11 
REMARK    7  A    between atoms: C_19  and  C_21 
ROOT
ATOM      1  C   UNL d   1      -1.538  -1.468   0.321  0.00  0.00     0.043 A 
ATOM      2  C   UNL d   1      -2.631  -1.602   1.194  0.00  0.00     0.060 A 
ATOM      3  C   UNL d   1      -0.761  -2.590  -0.021  0.00  0.00     0.018 A 
ATOM      4  C   UNL d   1      -2.983  -2.890   1.626  0.00  0.00     0.031 A 
ATOM      5  C   UNL d   1      -1.093  -3.854   0.459  0.00  0.00     0.001 A 
ATOM      6  C   UNL d   1      -2.219  -4.005   1.262  0.00  0.00     0.002 A 
ENDROOT
BRANCH   1   7
ATOM      7  C   UNL d   1      -1.280  -0.241  -0.435  0.00  0.00     0.165 C 
ATOM      8  N   UNL d   1      -0.899  -0.239  -1.671  0.00  0.00    -0.331 N 
ATOM      9  C   UNL d   1      -0.995   1.075  -2.017  0.00  0.00     0.111 C 
ATOM     10  HN  UNL d   1      -0.600  -1.027  -2.245  1.00  0.00     0.168 HD
ATOM     11  C   UNL d   1      -1.039   1.583  -3.255  0.00  0.00     0.047 C 
ATOM     12  C   UNL d   1      -1.279   1.899  -0.807  0.00  0.00     0.316 C 
ATOM     13  O   UNL d   1      -1.489   0.955   0.156  0.00  0.00    -0.255 OA
ATOM     14  O   UNL d   1      -1.347   3.106  -0.693  0.00  0.00    -0.257 OA
BRANCH  11  15
ATOM     15  C   UNL d   1      -0.929   0.861  -4.543  0.00  0.00    -0.034 A 
ATOM     16  C   UNL d   1      -0.569  -0.487  -4.672  0.00  0.00     0.012 A 
ATOM     17  C   UNL d   1      -0.407  -1.080  -5.930  0.00  0.00     0.007 A 
ATOM     18  C   UNL d   1      -0.604  -0.337  -7.095  0.00  0.00    -0.062 A 
ATOM     19  C   UNL d   1      -1.013   0.994  -6.980  0.00  0.00     0.007 A 
ATOM     20  C   UNL d   1      -0.280  -0.930  -8.434  0.00  0.00     0.048 C 
ATOM     21  C   UNL d   1      -1.174   1.582  -5.720  0.00  0.00     0.012 A 
ENDBRANCH  11  15
ENDBRANCH   1   7
BRANCH   2  22
ATOM     22  N   UNL d   1      -3.450  -0.463   1.572  0.00  0.00    -0.267 N 
BRANCH  22  23
ATOM     23  S   UNL d   1      -4.878  -0.263   0.643  0.00  0.00     0.265 S 
ATOM     24  O   UNL d   1      -6.021  -0.493   1.510  0.00  0.00    -0.200 OA
ATOM     25  O   UNL d   1      -4.729  -0.993  -0.595  0.00  0.00    -0.200 OA
BRANCH  23  26
ATOM     26  C   UNL d   1      -4.887   1.475   0.212  0.00  0.00     0.080 A 
ATOM     27  C   UNL d   1      -4.887   1.822  -1.144  0.00  0.00     0.026 A 
ATOM     28  C   UNL d   1      -5.025   3.158  -1.525  0.00  0.00     0.008 A 
ATOM     29  C   UNL d   1      -5.138   4.165  -0.562  0.00  0.00    -0.062 A 
ATOM     30  C   UNL d   1      -5.113   3.816   0.794  0.00  0.00     0.008 A 
ATOM     31  C   UNL d   1      -5.384   5.583  -0.988  0.00  0.00     0.048 C 
ATOM     32  C   UNL d   1      -5.004   2.474   1.182  0.00  0.00     0.026 A 
ENDBRANCH  23  26
ENDBRANCH  22  23
BRANCH  22  33
ATOM     33  C   UNL d   1      -3.635  -0.233   3.026  0.00  0.00     0.168 C 
BRANCH  33  34
ATOM     34  C   UNL d   1      -2.317   0.098   3.661  0.00  0.00    -0.016 C 
ATOM     35  C   UNL d   1      -1.765   1.319   3.664  0.00  0.00     0.008 C 
ENDBRANCH  33  34
ENDBRANCH  22  33
ENDBRANCH   2  22
TORSDOF 7
