REMARK  4 active torsions:
REMARK  status: ('A' for Active; 'I' for Inactive)
REMARK    1  A    between atoms: N_2  and  S_1 
REMARK    2  A    between atoms: C_4  and  S_1 
REMARK    3  A    between atoms: S_5  and  N_2 
REMARK    4  A    between atoms: C_13  and  S_5 
ROOT
ATOM      1  N   UNL d   1       0.521  -1.025   1.050  0.00  0.00    -0.235 N 
ATOM      2  HN  UNL d   1      -0.178  -0.671   1.703  1.00  0.00     0.189 HD
ENDROOT
BRANCH   1   3
ATOM      3  S   UNL d   1       1.256   0.074   0.006  0.00  0.00     0.286 S 
ATOM      4  O   UNL d   1       1.922   1.091   0.802  0.00  0.00    -0.198 OA
ATOM      5  O   UNL d   1       0.293   0.452  -1.013  0.00  0.00    -0.198 OA
BRANCH   3   6
ATOM      6  C   UNL d   1       2.557  -0.700  -0.868  0.00  0.00     0.166 A 
ATOM      7  N   UNL d   1       2.390  -1.359  -2.077  0.00  0.00    -0.340 N 
ATOM      8  C   UNL d   1       3.559  -1.903  -2.336  0.00  0.00     0.183 A 
ATOM      9  HN  UNL d   1       1.544  -1.411  -2.643  1.00  0.00     0.167 HD
ATOM     10  N   UNL d   1       4.464  -1.638  -1.349  0.00  0.00    -0.354 N 
ATOM     11  C   UNL d   1       3.858  -0.843  -0.421  0.00  0.00     0.135 A 
ATOM     12  C   UNL d   1       5.803  -2.165  -1.277  0.00  0.00     0.156 C 
ENDBRANCH   3   6
ENDBRANCH   1   3
BRANCH   1  13
ATOM     13  S   UNL d   1       0.864  -2.644   1.079  0.00  0.00     0.061 S 
ATOM     14  O   UNL d   1       2.267  -2.921   1.278  0.00  0.00    -0.244 OA
ATOM     15  C   UNL d   1      -0.076  -3.256   2.440  0.00  0.00     0.143 C 
BRANCH  13  16
ATOM     16  C   UNL d   1       0.254  -3.379  -0.384  0.00  0.00     0.039 A 
ATOM     17  C   UNL d   1       0.953  -4.460  -0.927  0.00  0.00     0.023 A 
ATOM     18  C   UNL d   1       0.523  -5.029  -2.127  0.00  0.00     0.025 A 
ATOM     19  C   UNL d   1      -0.593  -4.507  -2.780  0.00  0.00     0.034 A 
ATOM     20  C   UNL d   1      -1.293  -3.430  -2.233  0.00  0.00     0.025 A 
ATOM     21 CL   UNL d   1      -1.105  -5.192  -4.273  0.00  0.00    -0.084 Cl
ATOM     22  C   UNL d   1      -0.872  -2.862  -1.027  0.00  0.00     0.023 A 
ENDBRANCH  13  16
ENDBRANCH   1  13
TORSDOF 4
