REMARK  3 active torsions:
REMARK  status: ('A' for Active; 'I' for Inactive)
REMARK    1  A    between atoms: C_8  and  C_1 
REMARK    2  A    between atoms: C_7  and  C_3 
REMARK    3  A    between atoms: O_18  and  C_8 
ROOT
ATOM      1  C   UNL d   1       2.048  -1.337  -0.062  0.00  0.00     0.052 A 
ATOM      2  C   UNL d   1      -0.348  -0.460  -0.116  0.00  0.00     0.024 A 
ATOM      3  C   UNL d   1       0.552  -1.687  -0.168  0.00  0.00     0.101 A 
ATOM      4  C   UNL d   1       2.455  -0.046   0.040  0.00  0.00     0.018 A 
ATOM      5  C   UNL d   1       0.149   0.789  -0.018  0.00  0.00     0.020 A 
ATOM      6  N   UNL d   1       1.513   0.975   0.044  0.00  0.00    -0.362 N 
ATOM      7  C   UNL d   1      -1.826  -0.641  -0.176  0.00  0.00     0.158 C 
ATOM      8  O   UNL d   1      -2.325  -1.690  -0.567  0.00  0.00    -0.293 OA
ATOM      9  C   UNL d   1      -0.705   2.036   0.019  0.00  0.00     0.058 C 
ATOM     10  C   UNL d   1       3.879   0.449   0.140  0.00  0.00     0.069 C 
ATOM     11  C   UNL d   1      -2.678   0.516   0.295  0.00  0.00     0.084 C 
ATOM     12  C   UNL d   1      -2.165   1.790  -0.351  0.00  0.00     0.014 C 
ATOM     13  H   UNL d   1       1.859   1.929   0.104  0.00  0.00     0.165 HD
ENDROOT
BRANCH   3  14
ATOM     14  C   UNL d   1       0.145  -2.693   0.885  0.00  0.00    -0.011 A 
ATOM     15  C   UNL d   1       0.107  -2.570   2.260  0.00  0.00     0.116 A 
ATOM     16  N   UNL d   1      -0.368  -3.756   2.739  0.00  0.00    -0.312 N 
ATOM     17  N   UNL d   1      -0.611  -4.662   1.781  0.00  0.00    -0.312 N 
ATOM     18  H   UNL d   1      -0.552  -4.018   3.701  0.00  0.00     0.186 HD
ATOM     19  C   UNL d   1      -0.329  -4.009   0.652  0.00  0.00     0.116 A 
ATOM     20  HN  UNL d   1      -0.935  -5.624   1.889  1.00  0.00     0.186 HD
ENDBRANCH   3  14
BRANCH   1  21
ATOM     21  C   UNL d   1       3.008  -2.477  -0.055  0.00  0.00     0.291 C 
ATOM     22  O   UNL d   1       4.087  -2.481   0.517  0.00  0.00    -0.260 OA
BRANCH  21  23
ATOM     23  O   UNL d   1       2.497  -3.517  -0.763  0.00  0.00    -0.323 OA
ATOM     24  C   UNL d   1       3.243  -4.736  -0.689  0.00  0.00     0.213 C 
ENDBRANCH  21  23
ENDBRANCH   1  21
TORSDOF 3
