REMARK  8 active torsions:
REMARK  status: ('A' for Active; 'I' for Inactive)
REMARK    1  A    between atoms: N_4  and  C_1 
REMARK    2  A    between atoms: C_6  and  C_2 
REMARK       I    between atoms: C_8  and  N_4 
REMARK    3  A    between atoms: O_14  and  C_6 
REMARK    4  A    between atoms: C_21  and  C_7 
REMARK    5  A    between atoms: C_12  and  C_8 
REMARK    6  A    between atoms: S_10  and  C_12 
REMARK    7  A    between atoms: C_13  and  S_10 
REMARK    8  A    between atoms: C_22  and  O_14 
ROOT
ATOM      1  N   UNL d   1      -0.133   2.643   0.144  0.00  0.00    -0.320 N 
ATOM      2  C   UNL d   1       0.283   3.556  -0.815  0.00  0.00     0.232 C 
ATOM      3  O   UNL d   1       1.020   3.284  -1.763  0.00  0.00    -0.272 OA
ATOM      4  H   UNL d   1      -1.044   2.784   0.557  0.00  0.00     0.169 HD
ENDROOT
BRANCH   1   5
ATOM      5  C   UNL d   1       0.363   1.357   0.160  0.00  0.00     0.093 C 
ATOM      6  C   UNL d   1       1.611   0.802  -0.054  0.00  0.00     0.074 C 
ATOM      7  C   UNL d   1       1.495  -0.636  -0.092  0.00  0.00     0.035 C 
ATOM      8  C   UNL d   1       0.212  -1.091   0.127  0.00  0.00    -0.015 C 
ATOM      9  S   UNL d   1      -0.840   0.202   0.497  0.00  0.00    -0.076 SA
BRANCH   6  10
ATOM     10  C   UNL d   1       2.873   1.523  -0.209  0.00  0.00     0.296 C 
ATOM     11  O   UNL d   1       3.066   2.678   0.158  0.00  0.00    -0.259 OA
BRANCH  10  12
ATOM     12  O   UNL d   1       3.835   0.737  -0.780  0.00  0.00    -0.318 OA
BRANCH  12  13
ATOM     13  C   UNL d   1       5.036   1.386  -1.213  0.00  0.00     0.174 C 
ATOM     14  C   UNL d   1       6.124   1.299  -0.160  0.00  0.00     0.034 C 
ENDBRANCH  12  13
ENDBRANCH  10  12
ENDBRANCH   6  10
BRANCH   8  15
ATOM     15  C   UNL d   1      -0.278  -2.507   0.083  0.00  0.00     0.042 C 
ATOM     16  C   UNL d   1      -0.505  -2.967  -1.351  0.00  0.00     0.010 C 
ENDBRANCH   8  15
ENDBRANCH   1   5
BRANCH   2  17
ATOM     17  C   UNL d   1      -0.374   4.920  -0.708  0.00  0.00     0.182 C 
BRANCH  17  18
ATOM     18  S   UNL d   1      -0.048   5.743   0.882  0.00  0.00    -0.121 SA
BRANCH  18  19
ATOM     19  C   UNL d   1       1.715   6.056   0.875  0.00  0.00     0.001 A 
ATOM     20  C   UNL d   1       2.579   5.809  -0.196  0.00  0.00     0.020 A 
ATOM     21  C   UNL d   1       3.958   6.020  -0.071  0.00  0.00     0.025 A 
ATOM     22  C   UNL d   1       4.481   6.513   1.118  0.00  0.00     0.034 A 
ATOM     23  C   UNL d   1       3.635   6.810   2.181  0.00  0.00     0.025 A 
ATOM     24 CL   UNL d   1       6.176   6.753   1.275  0.00  0.00    -0.084 Cl
ATOM     25  C   UNL d   1       2.260   6.579   2.058  0.00  0.00     0.020 A 
ENDBRANCH  18  19
ENDBRANCH  17  18
ENDBRANCH   2  17
TORSDOF 8
