REMARK  1 active torsions:
REMARK  status: ('A' for Active; 'I' for Inactive)
REMARK    1  A    between atoms: C_11  and  N_4 
ROOT
ATOM      1  C   UNL d   1      -0.450   0.408   0.039  0.00  0.00     0.122 A 
ATOM      2  C   UNL d   1       0.547   1.478   0.074  0.00  0.00     0.295 A 
ATOM      3  C   UNL d   1      -0.052  -0.900  -0.023  0.00  0.00     0.062 A 
ATOM      4  N   UNL d   1       1.897   1.015  -0.020  0.00  0.00    -0.218 N 
ATOM      5  N   UNL d   1       2.247  -0.351  -0.056  0.00  0.00    -0.294 N 
ATOM      6  HN  UNL d   1       3.230  -0.621  -0.085  1.00  0.00     0.187 HD
ATOM      7  N   UNL d   1      -1.831   0.584   0.064  0.00  0.00    -0.349 N 
ATOM      8  HN  UNL d   1      -2.308   1.485   0.113  1.00  0.00     0.166 HD
ATOM      9  C   UNL d   1       1.325  -1.267  -0.053  0.00  0.00     0.042 A 
ATOM     10  S   UNL d   1      -1.378  -1.951  -0.054  0.00  0.00    -0.073 SA
ATOM     11  C   UNL d   1      -2.429  -0.589   0.014  0.00  0.00     0.048 A 
ATOM     12  O   UNL d   1       0.199   2.650   0.194  0.00  0.00    -0.264 OA
ATOM     13  C   UNL d   1       1.732  -2.716  -0.076  0.00  0.00     0.071 C 
ATOM     14  C   UNL d   1      -3.902  -0.802   0.013  0.00  0.00     0.076 C 
ENDROOT
BRANCH   4  15
ATOM     15  C   UNL d   1       3.048   1.889  -0.059  0.00  0.00     0.062 A 
ATOM     16  C   UNL d   1       2.950   3.283  -0.207  0.00  0.00     0.058 A 
ATOM     17  C   UNL d   1       4.094   4.093  -0.229  0.00  0.00     0.074 A 
ATOM     18 CL   UNL d   1       3.921   5.798  -0.408  0.00  0.00    -0.081 Cl
ATOM     19  C   UNL d   1       5.356   3.525  -0.113  0.00  0.00     0.138 A 
ATOM     20  C   UNL d   1       5.492   2.153   0.018  0.00  0.00     0.046 A 
ATOM     21  F   UNL d   1       6.461   4.286  -0.132  0.00  0.00    -0.204 F 
ATOM     22  C   UNL d   1       4.349   1.345   0.042  0.00  0.00     0.035 A 
ENDBRANCH   4  15
TORSDOF 1
