REMARK  3 active torsions:
REMARK  status: ('A' for Active; 'I' for Inactive)
REMARK    1  A    between atoms: C_2  and  S_1 
REMARK    2  A    between atoms: C_3  and  S_1 
REMARK    3  A    between atoms: C_17  and  C_7 
ROOT
ATOM      1  C   UNL d   1       0.505  -1.130  -1.107  0.00  0.00     0.147 C 
ATOM      2  C   UNL d   1      -0.312  -2.143  -0.753  0.00  0.00     0.046 C 
ATOM      3  C   UNL d   1       0.956  -0.142  -0.192  0.00  0.00     0.112 C 
ATOM      4  N   UNL d   1       1.276   0.638   0.605  0.00  0.00    -0.191 NA
ENDROOT
BRANCH   1   5
ATOM      5  S   UNL d   1       0.923  -0.990  -2.785  0.00  0.00     0.248 S 
ATOM      6  O   UNL d   1       1.103  -2.304  -3.378  0.00  0.00    -0.214 OA
ATOM      7  O   UNL d   1       0.056  -0.019  -3.431  0.00  0.00    -0.214 OA
BRANCH   5   8
ATOM      8  C   UNL d   1       2.543  -0.267  -2.881  0.00  0.00     0.210 A 
ATOM      9  N   UNL d   1       3.232   0.013  -4.039  0.00  0.00    -0.337 N 
ATOM     10  C   UNL d   1       4.408   0.625  -3.686  0.00  0.00     0.110 A 
ATOM     11  C   UNL d   1       2.850  -0.269  -5.401  0.00  0.00     0.158 C 
ATOM     12  C   UNL d   1       4.397   0.669  -2.316  0.00  0.00     0.107 A 
ATOM     13  N   UNL d   1       3.265   0.082  -1.828  0.00  0.00    -0.341 N 
ATOM     14  HN  UNL d   1       3.024  -0.060  -0.847  1.00  0.00     0.167 HD
ENDBRANCH   5   8
ENDBRANCH   1   5
BRANCH   2  15
ATOM     15  C   UNL d   1      -0.780  -2.378   0.617  0.00  0.00    -0.031 A 
ATOM     16  C   UNL d   1      -1.946  -1.754   1.081  0.00  0.00     0.051 A 
ATOM     17  C   UNL d   1      -2.334  -2.002   2.383  0.00  0.00     0.105 A 
ATOM     18  O   UNL d   1      -3.434  -1.487   2.995  0.00  0.00    -0.323 OA
ATOM     19  C   UNL d   1      -1.611  -2.826   3.212  0.00  0.00     0.105 A 
ATOM     20  C   UNL d   1      -3.335  -2.104   4.296  0.00  0.00     0.352 A 
ATOM     21  O   UNL d   1      -2.167  -2.938   4.448  0.00  0.00    -0.323 OA
ATOM     22  C   UNL d   1      -0.458  -3.450   2.788  0.00  0.00     0.040 A 
ATOM     23  C   UNL d   1      -0.041  -3.224   1.472  0.00  0.00     0.014 A 
ENDBRANCH   2  15
TORSDOF 3
