REMARK  6 active torsions:
REMARK  status: ('A' for Active; 'I' for Inactive)
REMARK    1  A    between atoms: C_3  and  S_1 
REMARK    2  A    between atoms: C_8  and  S_1 
REMARK    3  A    between atoms: C_2  and  C_4 
REMARK       I    between atoms: C_7  and  N_16 
REMARK    4  A    between atoms: C_12  and  C_7 
REMARK    5  A    between atoms: C_22  and  C_8 
REMARK    6  A    between atoms: N_16  and  C_22 
ROOT
ATOM      1  S   UNL d   1       0.821  -0.031   0.074  0.00  0.00     0.192 S 
ATOM      2  O   UNL d   1       2.216  -0.002  -0.335  0.00  0.00    -0.221 OA
ATOM      3  O   UNL d   1       0.420  -0.739   1.276  0.00  0.00    -0.221 OA
ENDROOT
BRANCH   1   4
ATOM      4  C   UNL d   1      -0.089  -0.749  -1.280  0.00  0.00     0.128 A 
ATOM      5  N   UNL d   1      -0.985   0.082  -1.869  0.00  0.00    -0.356 N 
ATOM      6  C   UNL d   1      -1.645  -0.417  -2.938  0.00  0.00     0.105 A 
ATOM      7  HN  UNL d   1      -1.151   1.028  -1.526  1.00  0.00     0.166 HD
ATOM      8  C   UNL d   1      -1.440  -1.693  -3.450  0.00  0.00     0.063 A 
ATOM      9  C   UNL d   1      -0.509  -2.520  -2.801  0.00  0.00     0.020 A 
ATOM     10  C   UNL d   1       0.184  -2.043  -1.690  0.00  0.00     0.042 A 
BRANCH   8  11
ATOM     11  C   UNL d   1      -2.180  -2.149  -4.673  0.00  0.00     0.418 C 
ATOM     12  F   UNL d   1      -3.054  -1.222  -5.155  0.00  0.00    -0.166 F 
ATOM     13  F   UNL d   1      -1.340  -2.438  -5.705  0.00  0.00    -0.166 F 
ATOM     14  F   UNL d   1      -2.910  -3.276  -4.456  0.00  0.00    -0.166 F 
ENDBRANCH   8  11
ENDBRANCH   1   4
BRANCH   1  15
ATOM     15  C   UNL d   1       0.250   1.650   0.178  0.00  0.00     0.167 C 
BRANCH  15  16
ATOM     16  C   UNL d   1       0.969   2.381   1.299  0.00  0.00     0.138 C 
BRANCH  16  17
ATOM     17  N   UNL d   1       0.606   3.790   1.410  0.00  0.00    -0.356 N 
ATOM     18  C   UNL d   1      -0.666   4.184   1.770  0.00  0.00     0.251 C 
ATOM     19  O   UNL d   1      -1.604   3.403   1.886  0.00  0.00    -0.268 OA
ATOM     20  H   UNL d   1       1.330   4.483   1.272  0.00  0.00     0.162 HD
BRANCH  18  21
ATOM     21  C   UNL d   1      -0.885   5.636   2.013  0.00  0.00     0.032 A 
ATOM     22  C   UNL d   1      -2.155   6.168   1.744  0.00  0.00     0.018 A 
ATOM     23  C   UNL d   1      -2.434   7.508   2.027  0.00  0.00     0.025 A 
ATOM     24  C   UNL d   1      -1.446   8.314   2.588  0.00  0.00     0.034 A 
ATOM     25  C   UNL d   1      -0.178   7.796   2.856  0.00  0.00     0.025 A 
ATOM     26 CL   UNL d   1      -1.798   9.953   2.975  0.00  0.00    -0.084 Cl
ATOM     27  C   UNL d   1       0.106   6.456   2.569  0.00  0.00     0.018 A 
ENDBRANCH  18  21
ENDBRANCH  16  17
ENDBRANCH  15  16
ENDBRANCH   1  15
TORSDOF 6
