REMARK  6 active torsions:
REMARK  status: ('A' for Active; 'I' for Inactive)
REMARK    1  A    between atoms: S_8  and  C_2 
REMARK    2  A    between atoms: C_6  and  C_4 
REMARK    3  A    between atoms: O_13  and  C_6 
REMARK    4  A    between atoms: C_12  and  S_8 
REMARK    5  A    between atoms: C_14  and  C_12 
REMARK    6  A    between atoms: C_17  and  O_13 
ROOT
ATOM      1  C   UNL d   1       0.527   0.656  -0.070  0.00  0.00     0.041 A 
ATOM      2  C   UNL d   1       1.898   0.873  -0.121  0.00  0.00     0.057 A 
ATOM      3  C   UNL d   1       0.199  -0.761  -0.048  0.00  0.00    -0.019 A 
ATOM      4  C   UNL d   1       1.329  -1.563  -0.022  0.00  0.00     0.088 A 
ATOM      5  S   UNL d   1       2.747  -0.612  -0.124  0.00  0.00    -0.076 SA
ATOM      6  C   UNL d   1      -0.533   1.676  -0.017  0.00  0.00     0.162 C 
ATOM      7  O   UNL d   1      -0.332   2.879  -0.153  0.00  0.00    -0.292 OA
ATOM      8  C   UNL d   1      -1.228  -1.244   0.016  0.00  0.00     0.042 C 
ATOM      9  C   UNL d   1      -1.934   1.167   0.291  0.00  0.00     0.084 C 
ATOM     10  C   UNL d   1      -2.214  -0.156  -0.416  0.00  0.00     0.012 C 
ENDROOT
BRANCH   2  11
ATOM     11  S   UNL d   1       2.747   2.430  -0.077  0.00  0.00    -0.117 SA
BRANCH  11  12
ATOM     12  C   UNL d   1       4.303   2.114  -0.959  0.00  0.00     0.118 C 
BRANCH  12  13
ATOM     13  C   UNL d   1       5.148   3.360  -1.116  0.00  0.00    -0.049 A 
ATOM     14  C   UNL d   1       6.124   3.692  -0.163  0.00  0.00     0.008 A 
ATOM     15  C   UNL d   1       6.927   4.823  -0.330  0.00  0.00     0.001 A 
ATOM     16  C   UNL d   1       6.759   5.642  -1.445  0.00  0.00     0.000 A 
ATOM     17  C   UNL d   1       5.785   5.333  -2.390  0.00  0.00     0.001 A 
ATOM     18  C   UNL d   1       4.979   4.202  -2.226  0.00  0.00     0.008 A 
ENDBRANCH  12  13
ENDBRANCH  11  12
ENDBRANCH   2  11
BRANCH   4  19
ATOM     19  C   UNL d   1       1.400  -3.010   0.143  0.00  0.00     0.300 C 
ATOM     20  O   UNL d   1       0.434  -3.747   0.322  0.00  0.00    -0.259 OA
BRANCH  19  21
ATOM     21  O   UNL d   1       2.697  -3.430   0.187  0.00  0.00    -0.317 OA
BRANCH  21  22
ATOM     22  C   UNL d   1       2.936  -4.673   0.858  0.00  0.00     0.174 C 
ATOM     23  C   UNL d   1       3.031  -4.393   2.349  0.00  0.00     0.034 C 
ENDBRANCH  21  22
ENDBRANCH  19  21
ENDBRANCH   4  19
TORSDOF 6
