REMARK  10 active torsions:
REMARK  status: ('A' for Active; 'I' for Inactive)
REMARK    1  A    between atoms: C_5  and  N_1 
REMARK    2  A    between atoms: N_2  and  O_6 
REMARK    3  A    between atoms: C_4  and  C_10 
REMARK    4  A    between atoms: O_6  and  C_4 
REMARK    5  A    between atoms: C_20  and  C_16 
REMARK    6  A    between atoms: C_21  and  C_20 
REMARK    7  A    between atoms: C_24  and  C_21 
REMARK    8  A    between atoms: C_22  and  C_23 
REMARK    9  A    between atoms: C_23  and  C_25 
REMARK   10  A    between atoms: C_25  and  C_24 
ROOT
ATOM      1  N   UNL d   1      -3.625   1.223  -3.837  0.00  0.00    -0.265 N 
ATOM      2  HN  UNL d   1      -4.607   1.297  -3.571  1.00  0.00     0.194 HD
ATOM      3  C   UNL d   1      -2.740   2.086  -3.453  0.00  0.00     0.015 C 
ATOM      4  C   UNL d   1      -1.240   2.131  -3.696  0.00  0.00     0.033 C 
ATOM      5  C   UNL d   1      -3.201   3.199  -2.541  0.00  0.00     0.055 C 
ATOM      6  C   UNL d   1      -1.915   3.568  -1.828  0.00  0.00     0.006 C 
ATOM      7  C   UNL d   1      -0.849   3.396  -2.893  0.00  0.00     0.011 C 
ENDROOT
BRANCH   1   8
ATOM      8  O   UNL d   1      -3.144   0.179  -4.642  0.00  0.00    -0.195 OA
BRANCH   8   9
ATOM      9  C   UNL d   1      -4.144  -0.765  -4.763  0.00  0.00     0.315 C 
ATOM     10  O   UNL d   1      -5.130  -0.891  -4.054  0.00  0.00    -0.257 OA
BRANCH   9  11
ATOM     11  C   UNL d   1      -3.946  -1.615  -5.977  0.00  0.00     0.041 A 
ATOM     12  C   UNL d   1      -2.787  -1.556  -6.763  0.00  0.00     0.020 A 
ATOM     13  C   UNL d   1      -2.716  -2.263  -7.971  0.00  0.00     0.037 A 
ATOM     14  C   UNL d   1      -3.801  -3.045  -8.391  0.00  0.00     0.102 A 
ATOM     15  C   UNL d   1      -4.941  -3.163  -7.587  0.00  0.00     0.037 A 
ATOM     16  C   UNL d   1      -5.006  -2.448  -6.384  0.00  0.00     0.020 A 
BRANCH  14  17
ATOM     17  N   UNL d   1      -3.756  -3.716  -9.698  0.00  0.00    -0.116 N 
ATOM     18  O   UNL d   1      -4.749  -4.369 -10.048  0.00  0.00    -0.532 OA
ATOM     19  O   UNL d   1      -2.730  -3.578 -10.380  0.00  0.00    -0.532 OA
ENDBRANCH  14  17
ENDBRANCH   9  11
ENDBRANCH   8   9
ENDBRANCH   1   8
BRANCH   4  20
ATOM     20  C   UNL d   1      -0.759   2.269  -5.146  0.00  0.00     0.010 C 
BRANCH  20  21
ATOM     21  C   UNL d   1       0.778   2.360  -5.185  0.00  0.00     0.001 C 
BRANCH  21  22
ATOM     22  C   UNL d   1       1.400   2.530  -6.568  0.00  0.00     0.000 C 
BRANCH  22  23
ATOM     23  C   UNL d   1       0.965   3.815  -7.272  0.00  0.00     0.000 C 
BRANCH  23  24
ATOM     24  C   UNL d   1       1.694   3.978  -8.604  0.00  0.00    -0.000 C 
BRANCH  24  25
ATOM     25  C   UNL d   1       1.237   5.235  -9.339  0.00  0.00    -0.005 C 
ATOM     26  C   UNL d   1       1.953   5.370 -10.672  0.00  0.00     0.005 C 
ENDBRANCH  24  25
ENDBRANCH  23  24
ENDBRANCH  22  23
ENDBRANCH  21  22
ENDBRANCH  20  21
ENDBRANCH   4  20
TORSDOF 10
