REMARK  4 active torsions:
REMARK  status: ('A' for Active; 'I' for Inactive)
REMARK    1  A    between atoms: N_4  and  C_1 
REMARK    2  A    between atoms: C_7  and  C_2 
REMARK    3  A    between atoms: S_3  and  N_5 
REMARK    4  A    between atoms: C_12  and  S_3 
REMARK       I    between atoms: N_5  and  C_7 
ROOT
ATOM      1  N   UNL d   1       3.921  -0.829  -0.180  0.00  0.00    -0.279 N 
ATOM      2  HN  UNL d   1       4.663  -1.471  -0.461  1.00  0.00     0.179 HD
ATOM      3  C   UNL d   1       2.662  -1.313   0.200  0.00  0.00     0.268 C 
ATOM      4  O   UNL d   1       1.631  -0.683  -0.011  0.00  0.00    -0.267 OA
ENDROOT
BRANCH   1   5
ATOM      5  S   UNL d   1       4.162   0.692  -0.165  0.00  0.00     0.055 S 
ATOM      6  O   UNL d   1       3.716   1.569   0.902  0.00  0.00    -0.245 OA
ATOM      7  C   UNL d   1       5.909   0.980  -0.314  0.00  0.00     0.142 C 
BRANCH   5   8
ATOM      8  C   UNL d   1       3.521   1.358  -1.696  0.00  0.00     0.038 A 
ATOM      9  C   UNL d   1       2.551   2.365  -1.658  0.00  0.00     0.023 A 
ATOM     10  C   UNL d   1       2.121   2.954  -2.850  0.00  0.00     0.025 A 
ATOM     11  C   UNL d   1       2.662   2.536  -4.066  0.00  0.00     0.034 A 
ATOM     12  C   UNL d   1       3.615   1.517  -4.105  0.00  0.00     0.025 A 
ATOM     13 CL   UNL d   1       2.158   3.288  -5.530  0.00  0.00    -0.084 Cl
ATOM     14  C   UNL d   1       4.044   0.919  -2.917  0.00  0.00     0.023 A 
ENDBRANCH   5   8
ENDBRANCH   1   5
BRANCH   3  15
ATOM     15  C   UNL d   1       2.558  -2.618   0.827  0.00  0.00     0.101 A 
ATOM     16  C   UNL d   1       3.407  -3.700   0.776  0.00  0.00     0.207 A 
ATOM     17  N   UNL d   1       2.852  -4.709   1.506  0.00  0.00    -0.276 N 
ATOM     18  N   UNL d   1       1.684  -4.333   2.079  0.00  0.00    -0.307 N 
ATOM     19  C   UNL d   1       3.259  -6.086   1.666  0.00  0.00     0.179 C 
ATOM     20  C   UNL d   1       1.508  -3.078   1.654  0.00  0.00     0.128 A 
ATOM     21  HN  UNL d   1       1.080  -4.880   2.692  1.00  0.00     0.186 HD
BRANCH  16  22
ATOM     22  N   UNL d   1       4.600  -3.882   0.046  0.00  0.00    -0.095 N 
ATOM     23  O   UNL d   1       4.517  -3.782  -1.180  0.00  0.00    -0.530 OA
ATOM     24  O   UNL d   1       5.604  -4.192   0.697  0.00  0.00    -0.530 OA
ENDBRANCH  16  22
ENDBRANCH   3  15
TORSDOF 4
