REMARK  3 active torsions:
REMARK  status: ('A' for Active; 'I' for Inactive)
REMARK    1  A    between atoms: C_6  and  C_1 
REMARK    2  A    between atoms: N_7  and  C_6 
REMARK    3  A    between atoms: C_9  and  N_7 
ROOT
ATOM      1  C   UNL d   1      -0.307  -0.994   1.177  0.00  0.00     0.139 C 
ATOM      2  C   UNL d   1       0.659   0.051   1.180  0.00  0.00     0.112 C 
ATOM      3  C   UNL d   1      -1.623  -0.708   1.637  0.00  0.00     0.112 C 
ATOM      4  N   UNL d   1       1.470   0.881   1.168  0.00  0.00    -0.191 NA
ATOM      5  N   UNL d   1      -2.697  -0.482   2.012  0.00  0.00    -0.191 NA
ENDROOT
BRANCH   1   6
ATOM      6  C   UNL d   1       0.011  -2.235   0.758  0.00  0.00     0.117 C 
BRANCH   6   7
ATOM      7  N   UNL d   1       1.224  -2.698   0.287  0.00  0.00    -0.392 N 
ATOM      8  H   UNL d   1       1.966  -2.002   0.186  0.00  0.00     0.159 HD
BRANCH   7   9
ATOM      9  C   UNL d   1       1.596  -4.029  -0.176  0.00  0.00     0.091 C 
ATOM     10  C   UNL d   1       1.283  -5.137   0.824  0.00  0.00     0.036 C 
ATOM     11  C   UNL d   1       1.735  -6.421   0.143  0.00  0.00     0.076 C 
ATOM     12  S   UNL d   1       1.210  -6.236  -1.589  0.00  0.00    -0.167 SA
ATOM     13  C   UNL d   1       0.924  -4.439  -1.485  0.00  0.00     0.098 C 
ENDBRANCH   7   9
ENDBRANCH   6   7
ENDBRANCH   1   6
TORSDOF 3
