REMARK  4 active torsions:
REMARK  status: ('A' for Active; 'I' for Inactive)
REMARK    1  A    between atoms: C_3  and  O_13 
REMARK    2  A    between atoms: C_8  and  C_3 
REMARK    3  A    between atoms: O_13  and  N_6 
REMARK    4  A    between atoms: C_16  and  C_17 
ROOT
ATOM      1  N   UNL d   1       4.910  -1.944   0.026  0.00  0.00    -0.268 N 
ATOM      2  HN  UNL d   1       4.244  -2.717   0.029  1.00  0.00     0.194 HD
ATOM      3  C   UNL d   1       4.576  -0.697   0.021  0.00  0.00     0.126 C 
ENDROOT
BRANCH   3   4
ATOM      4  C   UNL d   1       3.153  -0.279  -0.004  0.00  0.00    -0.018 A 
ATOM      5  C   UNL d   1       2.846   1.083  -0.020  0.00  0.00     0.015 A 
ATOM      6  C   UNL d   1       1.509   1.490  -0.057  0.00  0.00     0.038 A 
ATOM      7  C   UNL d   1       0.478   0.546  -0.078  0.00  0.00     0.076 A 
ATOM      8  O   UNL d   1      -0.790   1.057  -0.121  0.00  0.00    -0.340 OA
ATOM      9  C   UNL d   1       0.776  -0.819  -0.084  0.00  0.00    -0.024 A 
ATOM     10  C   UNL d   1      -1.883   0.137   0.063  0.00  0.00     0.061 C 
ATOM     11  C   UNL d   1      -1.616  -1.213  -0.622  0.00  0.00     0.042 C 
ATOM     12  C   UNL d   1      -3.104   0.797  -0.598  0.00  0.00     0.046 C 
ATOM     13  C   UNL d   1      -2.169  -0.006   1.565  0.00  0.00     0.046 C 
ATOM     14  C   UNL d   1      -0.322  -1.841  -0.120  0.00  0.00     0.044 C 
ATOM     15  C   UNL d   1       2.121  -1.227  -0.029  0.00  0.00     0.022 A 
ENDBRANCH   3   4
BRANCH   1  16
ATOM     16  O   UNL d   1       6.316  -2.104   0.029  0.00  0.00    -0.195 OA
BRANCH  16  17
ATOM     17  C   UNL d   1       6.605  -3.443   0.058  0.00  0.00     0.315 C 
ATOM     18  O   UNL d   1       5.798  -4.363   0.121  0.00  0.00    -0.257 OA
BRANCH  17  19
ATOM     19  C   UNL d   1       8.068  -3.716  -0.012  0.00  0.00     0.041 A 
ATOM     20  C   UNL d   1       8.470  -5.064  -0.053  0.00  0.00     0.019 A 
ATOM     21  C   UNL d   1       9.821  -5.413  -0.134  0.00  0.00     0.025 A 
ATOM     22  C   UNL d   1      10.785  -4.412  -0.172  0.00  0.00     0.034 A 
ATOM     23  C   UNL d   1      10.408  -3.068  -0.126  0.00  0.00     0.025 A 
ATOM     24 CL   UNL d   1      12.449  -4.836  -0.281  0.00  0.00    -0.084 Cl
ATOM     25  C   UNL d   1       9.051  -2.717  -0.045  0.00  0.00     0.019 A 
ENDBRANCH  17  19
ENDBRANCH  16  17
ENDBRANCH   1  16
TORSDOF 4
