REMARK  2 active torsions:
REMARK  status: ('A' for Active; 'I' for Inactive)
REMARK    1  A    between atoms: N_4  and  C_1 
REMARK       I    between atoms: C_7  and  N_4 
REMARK       I    between atoms: N_9  and  C_7 
REMARK    2  A    between atoms: C_13  and  N_9 
ROOT
ATOM      1  N   UNL d   1       2.703   1.977  -0.093  0.00  0.00    -0.288 N 
ATOM      2  C   UNL d   1       3.652   2.111  -1.141  0.00  0.00     0.328 C 
ATOM      3  N   UNL d   1       4.424   3.264  -1.086  0.00  0.00    -0.309 N 
ATOM      4  O   UNL d   1       3.759   1.272  -2.038  0.00  0.00    -0.246 OA
ATOM      5  C   UNL d   1       2.515   2.974   0.964  0.00  0.00     0.163 C 
ATOM      6  H   UNL d   1       4.342   3.844  -0.269  0.00  0.00     0.170 HD
ENDROOT
BRANCH   1   7
ATOM      7  C   UNL d   1       1.893   0.819  -0.094  0.00  0.00     0.136 A 
ATOM      8  N   UNL d   1       2.343  -0.492  -0.171  0.00  0.00    -0.280 N 
ATOM      9  N   UNL d   1       1.349  -1.409  -0.078  0.00  0.00    -0.301 N 
ATOM     10  C   UNL d   1       3.685  -1.022  -0.115  0.00  0.00     0.179 C 
ATOM     11  C   UNL d   1       0.244  -0.678  -0.014  0.00  0.00     0.036 A 
ATOM     12  HN  UNL d   1       1.432  -2.426  -0.061  1.00  0.00     0.187 HD
ATOM     13  C   UNL d   1       0.509   0.712   0.009  0.00  0.00     0.012 A 
ATOM     14  C   UNL d   1      -1.114  -1.283   0.032  0.00  0.00     0.059 C 
ATOM     15  C   UNL d   1      -0.586   1.724  -0.010  0.00  0.00     0.044 C 
ATOM     16  C   UNL d   1      -1.956   1.092   0.321  0.00  0.00     0.005 C 
ATOM     17  C   UNL d   1      -2.173  -0.252  -0.386  0.00  0.00     0.006 C 
ENDBRANCH   1   7
BRANCH   3  18
ATOM     18  C   UNL d   1       5.431   3.691  -1.993  0.00  0.00     0.036 A 
ATOM     19  C   UNL d   1       5.771   3.013  -3.165  0.00  0.00     0.029 A 
ATOM     20  C   UNL d   1       6.837   3.454  -3.960  0.00  0.00     0.002 A 
ATOM     21  C   UNL d   1       7.561   4.588  -3.603  0.00  0.00     0.000 A 
ATOM     22  C   UNL d   1       7.200   5.304  -2.466  0.00  0.00     0.002 A 
ATOM     23  C   UNL d   1       6.136   4.860  -1.671  0.00  0.00     0.029 A 
ENDBRANCH   3  18
TORSDOF 2
