REMARK  4 active torsions:
REMARK  status: ('A' for Active; 'I' for Inactive)
REMARK    1  A    between atoms: N_4  and  N_1 
REMARK    2  A    between atoms: O_17  and  C_8 
REMARK    3  A    between atoms: C_15  and  C_11 
REMARK    4  A    between atoms: O_18  and  C_12 
ROOT
ATOM      1  N   UNL d   1       3.298   0.013  -0.204  0.00  0.00    -0.299 N 
ATOM      2  HN  UNL d   1       3.751  -0.883  -0.380  1.00  0.00     0.186 HD
ATOM      3  C   UNL d   1       4.012   1.083  -0.082  0.00  0.00     0.119 C 
ENDROOT
BRANCH   1   4
ATOM      4  N   UNL d   1       1.935   0.080  -0.098  0.00  0.00    -0.182 N 
ATOM      5  C   UNL d   1       1.180  -1.069  -0.218  0.00  0.00     0.280 A 
ATOM      6  C   UNL d   1      -0.216  -0.647  -0.118  0.00  0.00     0.050 A 
ATOM      7  O   UNL d   1       1.508  -2.230  -0.388  0.00  0.00    -0.265 OA
ATOM      8  C   UNL d   1      -1.384  -1.382  -0.189  0.00  0.00     0.018 A 
ATOM      9  C   UNL d   1      -0.232   0.725   0.051  0.00  0.00     0.050 A 
ATOM     10  C   UNL d   1      -2.591  -0.680  -0.090  0.00  0.00     0.001 A 
ATOM     11  C   UNL d   1      -2.603   0.720   0.075  0.00  0.00     0.001 A 
ATOM     12  C   UNL d   1      -1.409   1.441   0.151  0.00  0.00     0.018 A 
ATOM     13  C   UNL d   1       1.147   1.200   0.074  0.00  0.00     0.280 A 
ATOM     14  O   UNL d   1       1.417   2.378   0.217  0.00  0.00    -0.265 OA
ENDBRANCH   1   4
BRANCH   3  15
ATOM     15  C   UNL d   1       5.483   1.037  -0.224  0.00  0.00    -0.017 A 
ATOM     16  C   UNL d   1       6.211   2.225  -0.086  0.00  0.00     0.052 A 
ATOM     17  C   UNL d   1       7.603   2.207  -0.211  0.00  0.00     0.102 A 
ATOM     18  C   UNL d   1       8.242   0.987  -0.485  0.00  0.00     0.099 A 
ATOM     19  C   UNL d   1       7.516  -0.196  -0.628  0.00  0.00     0.040 A 
ATOM     20  C   UNL d   1       6.130  -0.171  -0.495  0.00  0.00     0.016 A 
BRANCH  17  21
ATOM     21  O   UNL d   1       8.413   3.305  -0.085  0.00  0.00    -0.353 OA
ATOM     22  C   UNL d   1       7.788   4.549   0.200  0.00  0.00     0.210 C 
ENDBRANCH  17  21
BRANCH  18  23
ATOM     23  O   UNL d   1       9.605   0.959  -0.614  0.00  0.00    -0.358 OA
ATOM     24  H   UNL d   1       9.887   0.053  -0.815  0.00  0.00     0.217 HD
ENDBRANCH  18  23
ENDBRANCH   3  15
TORSDOF 4
