REMARK  5 active torsions:
REMARK  status: ('A' for Active; 'I' for Inactive)
REMARK    1  A    between atoms: N_3  and  S_1 
REMARK    2  A    between atoms: C_5  and  S_1 
REMARK    3  A    between atoms: C_2  and  C_6 
REMARK    4  A    between atoms: C_14  and  N_3 
REMARK    5  A    between atoms: C_13  and  C_14 
ROOT
ATOM      1  S   UNL d   1       0.924   0.039  -0.180  0.00  0.00     0.241 S 
ATOM      2  O   UNL d   1       2.339  -0.209  -0.352  0.00  0.00    -0.206 OA
ATOM      3  O   UNL d   1       0.400   1.356   0.094  0.00  0.00    -0.206 OA
ENDROOT
BRANCH   1   4
ATOM      4  N   UNL d   1       0.350  -0.991   1.040  0.00  0.00    -0.213 NA
ATOM      5  H   UNL d   1      -0.669  -0.929   1.126  0.00  0.00     0.140 HD
BRANCH   4   6
ATOM      6  C   UNL d   1       0.861  -2.380   1.009  0.00  0.00     0.139 C 
BRANCH   6   7
ATOM      7  C   UNL d   1       0.307  -3.193   2.191  0.00  0.00     0.167 C 
ATOM      8  O   UNL d   1      -1.131  -3.251   2.122  0.00  0.00    -0.340 OA
ATOM      9  C   UNL d   1      -1.580  -4.219   1.261  0.00  0.00     0.102 A 
ATOM     10  C   UNL d   1      -2.924  -4.157   0.903  0.00  0.00     0.039 A 
ATOM     11  C   UNL d   1      -0.756  -5.213   0.724  0.00  0.00     0.102 A 
ATOM     12  C   UNL d   1      -3.439  -5.067  -0.021  0.00  0.00     0.003 A 
ATOM     13  C   UNL d   1      -2.608  -6.039  -0.583  0.00  0.00     0.003 A 
ATOM     14  C   UNL d   1      -1.265  -6.112  -0.210  0.00  0.00     0.039 A 
ATOM     15  O   UNL d   1       0.573  -5.335   1.039  0.00  0.00    -0.346 OA
ATOM     16  C   UNL d   1       0.896  -4.603   2.227  0.00  0.00     0.209 C 
ENDBRANCH   6   7
ENDBRANCH   4   6
ENDBRANCH   1   4
BRANCH   1  17
ATOM     17  C   UNL d   1       0.077  -0.589  -1.616  0.00  0.00     0.075 A 
ATOM     18  C   UNL d   1       0.662  -1.598  -2.389  0.00  0.00     0.041 A 
ATOM     19  C   UNL d   1      -0.026  -2.122  -3.494  0.00  0.00     0.049 A 
ATOM     20  C   UNL d   1      -1.283  -1.587  -3.825  0.00  0.00     0.016 A 
ATOM     21  C   UNL d   1      -1.846  -0.556  -3.068  0.00  0.00     0.002 A 
ATOM     22  C   UNL d   1      -1.166  -0.053  -1.960  0.00  0.00     0.025 A 
BRANCH  19  23
ATOM     23  C   UNL d   1       0.553  -3.250  -4.316  0.00  0.00     0.417 C 
ATOM     24  F   UNL d   1       1.756  -3.693  -3.858  0.00  0.00    -0.166 F 
ATOM     25  F   UNL d   1      -0.261  -4.342  -4.340  0.00  0.00    -0.166 F 
ATOM     26  F   UNL d   1       0.750  -2.901  -5.616  0.00  0.00    -0.166 F 
ENDBRANCH  19  23
ENDBRANCH   1  17
TORSDOF 5
