REMARK  2 active torsions:
REMARK  status: ('A' for Active; 'I' for Inactive)
REMARK    1  A    between atoms: N_7  and  C_9 
REMARK    2  A    between atoms: C_15  and  C_8 
ROOT
ATOM      1  C   UNL d   1       1.178   0.089  -0.021  0.00  0.00     0.101 A 
ATOM      2  N   UNL d   1      -0.815  -1.266   0.005  0.00  0.00    -0.275 N 
ATOM      3  N   UNL d   1      -1.037   1.038  -0.006  0.00  0.00    -0.275 N 
ATOM      4  C   UNL d   1       0.550  -1.256  -0.005  0.00  0.00     0.265 A 
ATOM      5  C   UNL d   1       0.304   1.294  -0.071  0.00  0.00     0.265 A 
ATOM      6  C   UNL d   1      -1.636  -0.182  -0.000  0.00  0.00     0.329 A 
ATOM      7  C   UNL d   1       2.526   0.134   0.025  0.00  0.00     0.034 C 
ATOM      8  O   UNL d   1       0.705   2.446  -0.172  0.00  0.00    -0.267 OA
ATOM      9  O   UNL d   1       1.192  -2.304   0.000  0.00  0.00    -0.267 OA
ATOM     10  O   UNL d   1      -2.857  -0.299  -0.012  0.00  0.00    -0.246 OA
ATOM     11  H   UNL d   1      -1.264  -2.171   0.011  0.00  0.00     0.173 HD
ATOM     12  H   UNL d   1      -1.648   1.841  -0.040  0.00  0.00     0.173 HD
ENDROOT
BRANCH   7  13
ATOM     13  C   UNL d   1       3.329   1.357   0.055  0.00  0.00    -0.033 A 
ATOM     14  C   UNL d   1       3.627   1.962   1.281  0.00  0.00     0.047 A 
ATOM     15  C   UNL d   1       4.287   3.198   1.294  0.00  0.00     0.103 A 
ATOM     16  C   UNL d   1       4.680   3.814   0.099  0.00  0.00     0.036 A 
ATOM     17  C   UNL d   1       4.406   3.188  -1.118  0.00  0.00     0.003 A 
ATOM     18  C   UNL d   1       3.731   1.966  -1.140  0.00  0.00     0.011 A 
BRANCH  15  19
ATOM     19  N   UNL d   1       4.533   3.872   2.575  0.00  0.00    -0.116 N 
ATOM     20  O   UNL d   1       4.154   3.302   3.608  0.00  0.00    -0.532 OA
ATOM     21  O   UNL d   1       5.106   4.970   2.549  0.00  0.00    -0.532 OA
ENDBRANCH  15  19
ENDBRANCH   7  13
TORSDOF 2
