REMARK  3 active torsions:
REMARK  status: ('A' for Active; 'I' for Inactive)
REMARK    1  A    between atoms: C_2  and  C_1 
REMARK    2  A    between atoms: N_14  and  C_3 
REMARK    3  A    between atoms: C_13  and  C_9 
ROOT
ATOM      1  C   UNL d   1       0.491  -2.947  -0.077  0.00  0.00     0.090 A 
ATOM      2  N   UNL d   1       1.193  -3.647   0.794  0.00  0.00    -0.349 N 
ATOM      3  HN  UNL d   1       1.830  -3.249   1.484  1.00  0.00     0.166 HD
ATOM      4  C   UNL d   1       0.940  -5.003   0.637  0.00  0.00     0.050 A 
ATOM      5  S   UNL d   1      -0.436  -3.885  -1.184  0.00  0.00    -0.081 SA
ATOM      6  C   UNL d   1       0.108  -5.316  -0.421  0.00  0.00     0.082 A 
ENDROOT
BRANCH   1   7
ATOM      7  C   UNL d   1       0.499  -1.453  -0.100  0.00  0.00     0.060 A 
ATOM      8  C   UNL d   1       1.247  -0.618   0.707  0.00  0.00     0.130 A 
ATOM      9  N   UNL d   1       0.910   0.661   0.323  0.00  0.00    -0.281 N 
ATOM     10  C   UNL d   1       1.363   1.915   0.874  0.00  0.00     0.179 C 
ATOM     11  N   UNL d   1       0.007   0.700  -0.684  0.00  0.00    -0.307 N 
ATOM     12  C   UNL d   1      -0.240  -0.588  -0.931  0.00  0.00     0.125 A 
ATOM     13  HN  UNL d   1      -0.390   1.519  -1.144  1.00  0.00     0.186 HD
BRANCH   8  14
ATOM     14  N   UNL d   1       2.129  -0.907   1.692  0.00  0.00    -0.384 N 
ATOM     15  H   UNL d   1       2.380  -1.889   1.825  0.00  0.00     0.157 HD
ATOM     16  H   UNL d   1       2.843  -0.261   2.011  0.00  0.00     0.157 HD
ENDBRANCH   8  14
ENDBRANCH   1   7
BRANCH   4  17
ATOM     17  C   UNL d   1       1.527  -5.993   1.534  0.00  0.00    -0.009 A 
ATOM     18  C   UNL d   1       0.881  -7.210   1.808  0.00  0.00     0.015 A 
ATOM     19  C   UNL d   1       1.449  -8.136   2.689  0.00  0.00     0.024 A 
ATOM     20  C   UNL d   1       2.664  -7.850   3.307  0.00  0.00     0.034 A 
ATOM     21  C   UNL d   1       3.316  -6.646   3.050  0.00  0.00     0.024 A 
ATOM     22 CL   UNL d   1       3.358  -8.986   4.396  0.00  0.00    -0.084 Cl
ATOM     23  C   UNL d   1       2.747  -5.720   2.170  0.00  0.00     0.015 A 
ENDBRANCH   4  17
TORSDOF 3
