REMARK  6 active torsions:
REMARK  status: ('A' for Active; 'I' for Inactive)
REMARK    1  A    between atoms: N_3  and  S_1 
REMARK    2  A    between atoms: C_4  and  S_1 
REMARK    3  A    between atoms: C_2  and  N_3 
REMARK    4  A    between atoms: C_20  and  N_8 
REMARK    5  A    between atoms: C_19  and  C_11 
REMARK    6  A    between atoms: C_21  and  C_20 
ROOT
ATOM      1  N   UNL d   1       6.482   0.152  -3.993  0.00  0.00    -0.197 NA
ATOM      2  C   UNL d   1       5.696   0.879  -3.543  0.00  0.00     0.060 C 
ATOM      3  C   UNL d   1       4.669   1.762  -2.981  0.00  0.00     0.146 C 
ENDROOT
BRANCH   3   4
ATOM      4  C   UNL d   1       3.281   1.212  -3.293  0.00  0.00     0.165 C 
BRANCH   4   5
ATOM      5  N   UNL d   1       2.219   2.052  -2.768  0.00  0.00    -0.275 N 
ATOM      6  N   UNL d   1       2.157   3.332  -3.181  0.00  0.00    -0.296 N 
ATOM      7  C   UNL d   1       1.061   3.836  -2.591  0.00  0.00     0.062 A 
ATOM      8  HN  UNL d   1       2.802   3.814  -3.807  1.00  0.00     0.187 HD
ATOM      9  C   UNL d   1       0.381   2.824  -1.861  0.00  0.00     0.082 A 
ATOM     10  C   UNL d   1       1.150   1.696  -1.990  0.00  0.00     0.134 A 
BRANCH   7  11
ATOM     11  C   UNL d   1       0.676   5.240  -2.731  0.00  0.00    -0.008 A 
ATOM     12  C   UNL d   1       0.021   5.904  -1.684  0.00  0.00     0.014 A 
ATOM     13  C   UNL d   1      -0.360   7.242  -1.818  0.00  0.00     0.001 A 
ATOM     14  C   UNL d   1      -0.090   7.928  -3.000  0.00  0.00     0.000 A 
ATOM     15  C   UNL d   1       0.564   7.282  -4.046  0.00  0.00     0.001 A 
ATOM     16  C   UNL d   1       0.951   5.943  -3.912  0.00  0.00     0.014 A 
ENDBRANCH   7  11
BRANCH  10  17
ATOM     17  N   UNL d   1       0.826   0.465  -1.444  0.00  0.00    -0.264 N 
ATOM     18  H   UNL d   1      -0.093   0.108  -1.650  0.00  0.00     0.180 HD
BRANCH  17  19
ATOM     19  S   UNL d   1       1.330   0.110   0.084  0.00  0.00     0.265 S 
ATOM     20  O   UNL d   1       0.715   1.017   1.032  0.00  0.00    -0.200 OA
ATOM     21  O   UNL d   1       2.773  -0.029   0.117  0.00  0.00    -0.200 OA
BRANCH  19  22
ATOM     22  C   UNL d   1       0.584  -1.547   0.307  0.00  0.00     0.092 C 
ATOM     23  C   UNL d   1       1.316  -2.685  -0.131  0.00  0.00    -0.032 C 
ATOM     24  C   UNL d   1       0.889  -3.978   0.270  0.00  0.00    -0.048 C 
ATOM     25  C   UNL d   1       2.536  -2.584  -1.020  0.00  0.00     0.050 C 
ATOM     26  C   UNL d   1       1.699  -5.219  -0.066  0.00  0.00     0.049 C 
ATOM     27  C   UNL d   1      -0.305  -4.138   1.020  0.00  0.00    -0.049 C 
ATOM     28  C   UNL d   1      -1.103  -3.010   1.338  0.00  0.00    -0.048 C 
ATOM     29  C   UNL d   1      -0.699  -5.535   1.466  0.00  0.00     0.049 C 
ATOM     30  C   UNL d   1      -0.674  -1.702   0.962  0.00  0.00    -0.032 C 
ATOM     31  C   UNL d   1      -2.398  -3.238   2.098  0.00  0.00     0.049 C 
ATOM     32  C   UNL d   1      -1.597  -0.546   1.282  0.00  0.00     0.050 C 
ENDBRANCH  19  22
ENDBRANCH  17  19
ENDBRANCH  10  17
ENDBRANCH   4   5
ENDBRANCH   3   4
TORSDOF 6
