REMARK  5 active torsions:
REMARK  status: ('A' for Active; 'I' for Inactive)
REMARK    1  A    between atoms: C_5  and  N_1 
REMARK    2  A    between atoms: S_2  and  C_7 
REMARK    3  A    between atoms: N_11  and  S_2 
REMARK    4  A    between atoms: C_21  and  N_11 
REMARK    5  A    between atoms: C_22  and  N_11 
ROOT
ATOM      1  C   UNL d   1       2.817  -1.598   0.153  0.00  0.00     0.067 C 
ATOM      2  C   UNL d   1       5.014  -3.328   0.337  0.00  0.00     0.076 C 
ATOM      3  C   UNL d   1       3.076  -2.522  -0.869  0.00  0.00     0.062 C 
ATOM      4  C   UNL d   1       4.210  -3.330  -0.806  0.00  0.00     0.051 C 
ATOM      5  C   UNL d   1       3.696  -1.510   1.242  0.00  0.00     0.033 C 
ATOM      6  C   UNL d   1       4.772  -2.397   1.353  0.00  0.00     0.027 C 
ATOM      7 CL   UNL d   1       2.101  -2.632  -2.293  0.00  0.00    -0.082 Cl
ENDROOT
BRANCH   1   8
ATOM      8  N   UNL d   1       1.711  -0.732   0.095  0.00  0.00    -0.250 N 
ATOM      9  C   UNL d   1       1.823   0.630   0.011  0.00  0.00     0.232 C 
ATOM     10  C   UNL d   1       0.449   1.214  -0.156  0.00  0.00     0.123 C 
ATOM     11  O   UNL d   1       2.848   1.298   0.008  0.00  0.00    -0.273 OA
ATOM     12  C   UNL d   1      -0.494   0.034   0.090  0.00  0.00     0.050 C 
ATOM     13  C   UNL d   1       0.412  -1.176   0.137  0.00  0.00     0.240 C 
ATOM     14  C   UNL d   1      -1.585  -0.126  -0.965  0.00  0.00     0.020 C 
ATOM     15  C   UNL d   1      -1.291   0.185   1.389  0.00  0.00     0.020 C 
ATOM     16  O   UNL d   1       0.029  -2.326   0.279  0.00  0.00    -0.272 OA
ATOM     17  C   UNL d   1      -2.714   0.788  -0.508  0.00  0.00     0.001 C 
ATOM     18  C   UNL d   1      -2.535   0.977   0.996  0.00  0.00     0.001 C 
ENDBRANCH   1   8
BRANCH   2  19
ATOM     19  S   UNL d   1       6.485  -4.333   0.390  0.00  0.00     0.243 S 
ATOM     20  O   UNL d   1       7.178  -4.109  -0.859  0.00  0.00    -0.206 OA
ATOM     21  O   UNL d   1       7.123  -4.058   1.659  0.00  0.00    -0.206 OA
BRANCH  19  22
ATOM     22  N   UNL d   1       5.994  -6.028   0.402  0.00  0.00    -0.207 NA
BRANCH  22  23
ATOM     23  C   UNL d   1       5.053  -6.369  -0.724  0.00  0.00     0.103 C 
ATOM     24  C   UNL d   1       4.556  -7.805  -0.765  0.00  0.00     0.021 C 
ENDBRANCH  22  23
BRANCH  22  25
ATOM     25  C   UNL d   1       7.211  -6.933   0.351  0.00  0.00     0.103 C 
ATOM     26  C   UNL d   1       8.124  -6.853   1.561  0.00  0.00     0.021 C 
ENDBRANCH  22  25
ENDBRANCH  19  22
ENDBRANCH   2  19
TORSDOF 5
