REMARK  7 active torsions:
REMARK  status: ('A' for Active; 'I' for Inactive)
REMARK    1  A    between atoms: C_2  and  S_1 
REMARK    2  A    between atoms: C_11  and  S_1 
REMARK    3  A    between atoms: C_4  and  C_2 
REMARK    4  A    between atoms: C_3  and  C_14 
REMARK    5  A    between atoms: N_13  and  C_4 
REMARK    6  A    between atoms: O_12  and  N_7 
REMARK    7  A    between atoms: C_14  and  O_12 
ROOT
ATOM      1  C   UNL d   1       1.067   2.578  -0.859  0.00  0.00     0.089 C 
ATOM      2  N   UNL d   1       2.037   2.587   0.011  0.00  0.00    -0.259 N 
ATOM      3  HN  UNL d   1       2.693   3.355   0.149  1.00  0.00     0.195 HD
ENDROOT
BRANCH   2   4
ATOM      4  O   UNL d   1       2.045   1.376   0.735  0.00  0.00    -0.275 OA
BRANCH   4   5
ATOM      5  C   UNL d   1       3.354   1.126   1.255  0.00  0.00     0.243 C 
BRANCH   5   6
ATOM      6  C   UNL d   1       3.308  -0.079   2.169  0.00  0.00     0.011 A 
ATOM      7  C   UNL d   1       2.819  -1.320   1.710  0.00  0.00     0.044 A 
ATOM      8 CL   UNL d   1       2.298  -1.563   0.076  0.00  0.00    -0.084 Cl
ATOM      9  C   UNL d   1       2.750  -2.435   2.557  0.00  0.00     0.024 A 
ATOM     10  C   UNL d   1       3.186  -2.346   3.873  0.00  0.00     0.003 A 
ATOM     11  C   UNL d   1       3.703  -1.143   4.340  0.00  0.00     0.024 A 
ATOM     12  C   UNL d   1       3.766  -0.021   3.500  0.00  0.00     0.044 A 
ATOM     13 CL   UNL d   1       4.456   1.409   4.188  0.00  0.00    -0.084 Cl
ENDBRANCH   5   6
ENDBRANCH   4   5
ENDBRANCH   2   4
BRANCH   1  14
ATOM     14  C   UNL d   1       0.812   3.845  -1.642  0.00  0.00     0.212 C 
BRANCH  14  15
ATOM     15  S   UNL d   1       0.963   3.565  -3.390  0.00  0.00     0.154 S 
ATOM     16  O   UNL d   1       0.043   2.490  -3.734  0.00  0.00    -0.227 OA
ATOM     17  O   UNL d   1       2.366   3.460  -3.729  0.00  0.00    -0.227 OA
BRANCH  15  18
ATOM     18  C   UNL d   1       0.314   5.079  -4.136  0.00  0.00     0.100 C 
ATOM     19  C   UNL d   1       1.135   6.304  -3.751  0.00  0.00     0.026 C 
ATOM     20  C   UNL d   1       0.258   4.943  -5.657  0.00  0.00     0.026 C 
ENDBRANCH  15  18
ENDBRANCH  14  15
ENDBRANCH   1  14
BRANCH   1  21
ATOM     21  N   UNL d   1       0.239   1.494  -1.048  0.00  0.00    -0.290 NA
ATOM     22  H   UNL d   1      -0.063   1.334  -2.012  0.00  0.00     0.125 HD
ATOM     23  H   UNL d   1       0.640   0.653  -0.636  0.00  0.00     0.125 HD
ENDBRANCH   1  21
TORSDOF 7
