REMARK  6 active torsions:
REMARK  status: ('A' for Active; 'I' for Inactive)
REMARK    1  A    between atoms: C_12  and  C_3 
REMARK    2  A    between atoms: O_11  and  C_6 
REMARK    3  A    between atoms: C_18  and  C_12 
REMARK    4  A    between atoms: C_23  and  C_18 
REMARK    5  A    between atoms: C_21  and  C_22 
REMARK    6  A    between atoms: C_22  and  C_23 
ROOT
ATOM      1  N   UNL d   1       0.542   0.210   0.101  0.00  0.00    -0.280 N 
ATOM      2  C   UNL d   1       1.495   1.226   0.147  0.00  0.00     0.261 A 
ATOM      3  C   UNL d   1       2.925   0.757   0.191  0.00  0.00     0.044 A 
ATOM      4  C   UNL d   1       0.902  -1.123   0.061  0.00  0.00     0.066 A 
ATOM      5  C   UNL d   1      -0.828   0.283   0.047  0.00  0.00     0.027 A 
ATOM      6  C   UNL d   1       3.242  -0.563   0.166  0.00  0.00     0.089 A 
ATOM      7  C   UNL d   1       2.207  -1.613   0.070  0.00  0.00     0.026 A 
ATOM      8  C   UNL d   1      -1.339  -1.003   0.016  0.00  0.00    -0.022 A 
ATOM      9  C   UNL d   1      -0.242  -1.898  -0.049  0.00  0.00     0.000 A 
ATOM     10  O   UNL d   1       1.131   2.396   0.130  0.00  0.00    -0.267 OA
ATOM     11  C   UNL d   1       2.332  -3.003  -0.069  0.00  0.00     0.017 A 
ATOM     12  C   UNL d   1      -1.624   1.544   0.027  0.00  0.00     0.058 C 
ATOM     13  C   UNL d   1      -0.091  -3.284  -0.212  0.00  0.00     0.014 A 
ATOM     14  C   UNL d   1      -2.803  -1.278  -0.022  0.00  0.00     0.041 C 
ATOM     15  C   UNL d   1       1.204  -3.818  -0.241  0.00  0.00     0.002 A 
ATOM     16  C   UNL d   1      -3.081   1.228  -0.351  0.00  0.00     0.006 C 
ATOM     17  C   UNL d   1      -3.601  -0.022   0.379  0.00  0.00     0.005 C 
ENDROOT
BRANCH   3  18
ATOM     18  C   UNL d   1       3.930   1.894   0.161  0.00  0.00     0.047 C 
BRANCH  18  19
ATOM     19  C   UNL d   1       3.836   2.915   1.304  0.00  0.00     0.005 C 
BRANCH  19  20
ATOM     20  C   UNL d   1       4.098   2.328   2.689  0.00  0.00     0.000 C 
BRANCH  20  21
ATOM     21  C   UNL d   1       3.982   3.443   3.730  0.00  0.00    -0.000 C 
BRANCH  21  22
ATOM     22  C   UNL d   1       4.228   2.959   5.154  0.00  0.00    -0.005 C 
ATOM     23  C   UNL d   1       4.096   4.118   6.132  0.00  0.00     0.005 C 
ENDBRANCH  21  22
ENDBRANCH  20  21
ENDBRANCH  19  20
ENDBRANCH  18  19
ENDBRANCH   3  18
BRANCH   6  24
ATOM     24  O   UNL d   1       4.562  -0.970   0.173  0.00  0.00    -0.359 OA
ATOM     25  H   UNL d   1       4.607  -1.928   0.052  0.00  0.00     0.217 HD
ENDBRANCH   6  24
TORSDOF 6
