REMARK  5 active torsions:
REMARK  status: ('A' for Active; 'I' for Inactive)
REMARK    1  A    between atoms: C_3  and  C_1 
REMARK    2  A    between atoms: C_10  and  C_2 
REMARK    3  A    between atoms: N_9  and  C_14 
REMARK    4  A    between atoms: O_17  and  C_12 
REMARK    5  A    between atoms: C_22  and  O_17 
ROOT
ATOM      1  C   UNL d   1      -0.797   2.450   0.097  0.00  0.00     0.053 A 
ATOM      2  C   UNL d   1      -1.555   2.938   1.181  0.00  0.00     0.054 A 
ATOM      3  C   UNL d   1      -0.465   3.341  -0.947  0.00  0.00     0.090 A 
ATOM      4  C   UNL d   1      -1.914   4.293   1.247  0.00  0.00     0.104 A 
ATOM      5  C   UNL d   1      -0.762   4.711  -0.825  0.00  0.00     0.041 A 
ATOM      6  C   UNL d   1      -1.498   5.188   0.260  0.00  0.00     0.039 A 
ENDROOT
BRANCH   1   7
ATOM      7  C   UNL d   1      -0.314   1.071   0.121  0.00  0.00     0.177 A 
ATOM      8  O   UNL d   1      -1.033   0.161   0.859  0.00  0.00    -0.272 OA
ATOM      9  C   UNL d   1      -0.285  -0.980   0.719  0.00  0.00     0.176 A 
ATOM     10  N   UNL d   1       0.811  -0.772   0.015  0.00  0.00    -0.277 N 
ATOM     11  N   UNL d   1       0.780   0.546  -0.390  0.00  0.00    -0.277 N 
ATOM     12  HN  UNL d   1       1.540  -1.454  -0.190  1.00  0.00     0.189 HD
ATOM     13  HN  UNL d   1       1.471   1.021  -0.971  1.00  0.00     0.189 HD
BRANCH   9  14
ATOM     14  C   UNL d   1      -0.749  -2.225   1.329  0.00  0.00     0.038 A 
ATOM     15  C   UNL d   1      -2.096  -2.560   1.558  0.00  0.00     0.050 A 
ATOM     16  C   UNL d   1      -2.448  -3.843   2.009  0.00  0.00     0.048 A 
ATOM     17 CL   UNL d   1      -3.412  -1.476   1.259  0.00  0.00    -0.083 Cl
ATOM     18  C   UNL d   1      -1.464  -4.797   2.249  0.00  0.00     0.035 A 
ATOM     19  C   UNL d   1      -0.124  -4.476   2.077  0.00  0.00     0.025 A 
ATOM     20 CL   UNL d   1      -1.909  -6.386   2.731  0.00  0.00    -0.084 Cl
ATOM     21  C   UNL d   1       0.228  -3.201   1.623  0.00  0.00     0.019 A 
ENDBRANCH   9  14
ENDBRANCH   1   7
BRANCH   3  22
ATOM     22  O   UNL d   1       0.183   2.837  -2.065  0.00  0.00    -0.308 OA
BRANCH  22  23
ATOM     23  C   UNL d   1      -0.015   3.450  -3.284  0.00  0.00     0.093 A 
ATOM     24  C   UNL d   1      -1.256   3.893  -3.749  0.00  0.00     0.064 A 
ATOM     25  C   UNL d   1      -1.318   4.567  -4.965  0.00  0.00     0.052 A 
ATOM     26 CL   UNL d   1      -2.804   5.228  -5.519  0.00  0.00    -0.083 Cl
ATOM     27  C   UNL d   1      -0.153   4.726  -5.699  0.00  0.00     0.111 A 
ATOM     28  N   UNL d   1       1.053   4.250  -5.305  0.00  0.00    -0.371 N 
ATOM     29  C   UNL d   1       1.090   3.615  -4.108  0.00  0.00     0.124 A 
ATOM     30  HN  UNL d   1       1.888   4.364  -5.879  1.00  0.00     0.164 HD
ENDBRANCH  22  23
ENDBRANCH   3  22
BRANCH   4  31
ATOM     31  N   UNL d   1      -2.708   4.788   2.379  0.00  0.00    -0.116 N 
ATOM     32  O   UNL d   1      -3.014   3.976   3.264  0.00  0.00    -0.532 OA
ATOM     33  O   UNL d   1      -3.026   5.985   2.379  0.00  0.00    -0.532 OA
ENDBRANCH   4  31
TORSDOF 5
