REMARK  5 active torsions:
REMARK  status: ('A' for Active; 'I' for Inactive)
REMARK    1  A    between atoms: C_13  and  C_1 
REMARK    2  A    between atoms: C_3  and  C_2 
REMARK    3  A    between atoms: O_17  and  C_13 
REMARK    4  A    between atoms: C_16  and  N_14 
REMARK    5  A    between atoms: C_23  and  O_17 
ROOT
ATOM      1  C   UNL d   1      -1.520   2.206  -0.075  0.00  0.00     0.077 A 
ATOM      2  N   UNL d   1      -2.488   2.411   0.880  0.00  0.00    -0.334 N 
ATOM      3  HN  UNL d   1      -2.746   1.734   1.597  1.00  0.00     0.168 HD
ATOM      4  C   UNL d   1      -3.034   3.598   0.744  0.00  0.00     0.149 A 
ATOM      5  S   UNL d   1      -2.418   4.516  -0.583  0.00  0.00    -0.063 SA
ATOM      6  C   UNL d   1      -1.302   3.260  -0.933  0.00  0.00     0.085 A 
ATOM      7  N   UNL d   1      -4.014   4.093   1.534  0.00  0.00    -0.337 N 
ATOM      8  H   UNL d   1      -4.463   4.956   1.259  0.00  0.00     0.168 HD
ENDROOT
BRANCH   1   9
ATOM      9  C   UNL d   1      -0.788   0.919  -0.141  0.00  0.00     0.128 A 
ATOM     10  C   UNL d   1      -1.021  -0.174   0.658  0.00  0.00     0.079 A 
ATOM     11  C   UNL d   1      -0.084  -1.145   0.229  0.00  0.00     0.132 A 
ATOM     12  N   UNL d   1       0.667  -0.663  -0.778  0.00  0.00    -0.255 N 
ATOM     13  O   UNL d   1       0.219   0.625  -1.005  0.00  0.00    -0.235 OA
ATOM     14  HN  UNL d   1       1.415  -1.149  -1.272  1.00  0.00     0.195 HD
BRANCH  11  15
ATOM     15  C   UNL d   1       0.122  -2.470   0.804  0.00  0.00     0.311 C 
ATOM     16  O   UNL d   1      -0.538  -2.898   1.745  0.00  0.00    -0.258 OA
BRANCH  15  17
ATOM     17  O   UNL d   1       1.180  -3.129   0.244  0.00  0.00    -0.317 OA
BRANCH  17  18
ATOM     18  C   UNL d   1       1.732  -4.189   1.032  0.00  0.00     0.175 C 
ATOM     19  C   UNL d   1       2.719  -3.582   2.014  0.00  0.00     0.034 C 
ENDBRANCH  17  18
ENDBRANCH  15  17
ENDBRANCH  11  15
ENDBRANCH   1   9
BRANCH   7  20
ATOM     20  C   UNL d   1      -4.167   3.792   2.903  0.00  0.00     0.034 A 
ATOM     21  C   UNL d   1      -3.105   3.341   3.701  0.00  0.00     0.030 A 
ATOM     22  C   UNL d   1      -3.293   3.036   5.048  0.00  0.00     0.009 A 
ATOM     23  C   UNL d   1      -4.559   3.143   5.628  0.00  0.00    -0.062 A 
ATOM     24  C   UNL d   1      -5.631   3.568   4.836  0.00  0.00     0.009 A 
ATOM     25  C   UNL d   1      -4.742   2.809   7.077  0.00  0.00     0.048 C 
ATOM     26  C   UNL d   1      -5.434   3.893   3.489  0.00  0.00     0.030 A 
ENDBRANCH   7  20
TORSDOF 5
