REMARK  6 active torsions:
REMARK  status: ('A' for Active; 'I' for Inactive)
REMARK    1  A    between atoms: C_16  and  C_4 
REMARK    2  A    between atoms: S_17  and  C_5 
REMARK    3  A    between atoms: S_18  and  C_6 
REMARK    4  A    between atoms: C_11  and  C_15 
REMARK    5  A    between atoms: C_13  and  C_26 
REMARK    6  A    between atoms: C_26  and  S_17 
ROOT
ATOM      1  N   UNL d   1       1.302   5.650   0.110  0.00  0.00    -0.352 N 
ATOM      2  HN  UNL d   1       0.318   5.448   0.283  1.00  0.00     0.166 HD
ATOM      3  C   UNL d   1       1.812   6.865   0.019  0.00  0.00     0.084 A 
ATOM      4  S   UNL d   1       3.502   6.901  -0.328  0.00  0.00    -0.081 SA
ATOM      5  C   UNL d   1       2.288   4.681  -0.061  0.00  0.00     0.026 A 
ATOM      6  C   UNL d   1       3.544   5.194  -0.326  0.00  0.00     0.077 A 
ENDROOT
BRANCH   5   7
ATOM      7  C   UNL d   1       1.907   3.232   0.000  0.00  0.00     0.139 C 
BRANCH   7   8
ATOM      8  S   UNL d   1       2.833   2.347   1.294  0.00  0.00    -0.097 SA
BRANCH   8   9
ATOM      9  C   UNL d   1       2.248   0.720   1.041  0.00  0.00     0.129 A 
ATOM     10  S   UNL d   1       2.773  -0.613   1.984  0.00  0.00    -0.038 SA
ATOM     11  C   UNL d   1       1.727  -1.591   1.041  0.00  0.00     0.128 A 
ATOM     12  N   UNL d   1       1.070  -0.936   0.107  0.00  0.00    -0.287 N 
ATOM     13  N   UNL d   1       1.375   0.411   0.107  0.00  0.00    -0.287 N 
ATOM     14  HN  UNL d   1       0.413  -1.372  -0.540  1.00  0.00     0.188 HD
ATOM     15  HN  UNL d   1       0.970   1.087  -0.541  1.00  0.00     0.188 HD
BRANCH  11  16
ATOM     16  S   UNL d   1       1.552  -3.311   1.297  0.00  0.00    -0.108 SA
ATOM     17  C   UNL d   1       0.318  -3.717   0.041  0.00  0.00     0.097 C 
ENDBRANCH  11  16
ENDBRANCH   8   9
ENDBRANCH   7   8
ENDBRANCH   5   7
BRANCH   3  18
ATOM     18  C   UNL d   1       1.034   8.114   0.141  0.00  0.00    -0.002 A 
ATOM     19  C   UNL d   1       1.603   9.322   0.573  0.00  0.00     0.015 A 
ATOM     20  C   UNL d   1       0.837  10.491   0.671  0.00  0.00     0.017 A 
ATOM     21  C   UNL d   1      -0.524  10.482   0.343  0.00  0.00     0.048 A 
ATOM     22  C   UNL d   1      -1.104   9.278  -0.080  0.00  0.00     0.017 A 
ATOM     23  C   UNL d   1      -0.336   8.110  -0.174  0.00  0.00     0.015 A 
BRANCH  21  24
ATOM     24  C   UNL d   1      -1.358  11.738   0.441  0.00  0.00     0.417 C 
ATOM     25  F   UNL d   1      -0.657  12.823   0.875  0.00  0.00    -0.166 F 
ATOM     26  F   UNL d   1      -1.898  12.100  -0.755  0.00  0.00    -0.166 F 
ATOM     27  F   UNL d   1      -2.405  11.604   1.301  0.00  0.00    -0.166 F 
ENDBRANCH  21  24
ENDBRANCH   3  18
TORSDOF 6
