REMARK  11 active torsions:
REMARK  status: ('A' for Active; 'I' for Inactive)
REMARK    1  A    between atoms: C_10  and  N_2 
REMARK    2  A    between atoms: N_4  and  C_13 
REMARK    3  A    between atoms: C_6  and  N_4 
REMARK    4  A    between atoms: C_7  and  N_4 
REMARK    5  A    between atoms: C_8  and  C_6 
REMARK    6  A    between atoms: C_9  and  C_7 
REMARK    7  A    between atoms: C_11  and  C_8 
REMARK    8  A    between atoms: O_17  and  C_8 
REMARK    9  A    between atoms: C_12  and  C_9 
REMARK   10  A    between atoms: O_16  and  C_9 
REMARK   11  A    between atoms: C_13  and  C_10 
ROOT
ATOM      1  N   UNL d   1      -2.077  -3.858  -1.476  0.00  0.00     0.095 N 
ENDROOT
BRANCH   1   2
ATOM      2  C   UNL d   1      -1.604  -2.458  -1.624  0.00  0.00     0.292 C 
BRANCH   2   3
ATOM      3  C   UNL d   1      -0.080  -2.209  -1.622  0.00  0.00     0.158 C 
BRANCH   3   4
ATOM      4  N   UNL d   1       0.241  -0.802  -1.845  0.00  0.00    -0.331 N 
ATOM      5  C   UNL d   1       0.998  -0.020  -0.975  0.00  0.00     0.318 C 
ATOM      6  N   UNL d   1       1.210   1.205  -1.594  0.00  0.00    -0.341 N 
ATOM      7  O   UNL d   1       1.405  -0.319   0.129  0.00  0.00    -0.247 OA
ATOM      8  C   UNL d   1       0.423   1.317  -2.791  0.00  0.00     0.144 C 
ATOM      9  H   UNL d   1       1.602   1.971  -1.061  0.00  0.00     0.164 HD
ATOM     10  C   UNL d   1       0.081  -0.130  -3.121  0.00  0.00     0.147 C 
ENDBRANCH   3   4
ENDBRANCH   2   3
ENDBRANCH   1   2
BRANCH   1  11
ATOM     11  C   UNL d   1      -1.637  -4.456  -0.187  0.00  0.00     0.309 C 
BRANCH  11  12
ATOM     12  C   UNL d   1      -2.007  -5.952   0.102  0.00  0.00     0.179 C 
BRANCH  12  13
ATOM     13  C   UNL d   1      -1.550  -6.986  -0.915  0.00  0.00    -0.028 A 
ATOM     14  C   UNL d   1      -0.371  -6.839  -1.660  0.00  0.00     0.010 A 
ATOM     15  C   UNL d   1      -0.007  -7.791  -2.618  0.00  0.00     0.001 A 
ATOM     16  C   UNL d   1      -0.803  -8.914  -2.830  0.00  0.00     0.000 A 
ATOM     17  C   UNL d   1      -1.950  -9.102  -2.064  0.00  0.00     0.001 A 
ATOM     18  C   UNL d   1      -2.315  -8.150  -1.108  0.00  0.00     0.010 A 
ENDBRANCH  12  13
BRANCH  12  19
ATOM     19  O   UNL d   1      -1.464  -6.302   1.382  0.00  0.00    -0.389 OA
ATOM     20  H   UNL d   1      -0.607  -6.735   1.226  0.00  0.00     0.210 HD
ENDBRANCH  12  19
ENDBRANCH  11  12
ENDBRANCH   1  11
BRANCH   1  21
ATOM     21  C   UNL d   1      -3.563  -3.903  -1.581  0.00  0.00     0.309 C 
BRANCH  21  22
ATOM     22  C   UNL d   1      -4.235  -3.399  -2.897  0.00  0.00     0.179 C 
BRANCH  22  23
ATOM     23  C   UNL d   1      -3.876  -4.101  -4.196  0.00  0.00    -0.028 A 
ATOM     24  C   UNL d   1      -3.004  -5.194  -4.266  0.00  0.00     0.010 A 
ATOM     25  C   UNL d   1      -2.674  -5.776  -5.493  0.00  0.00     0.001 A 
ATOM     26  C   UNL d   1      -3.225  -5.283  -6.671  0.00  0.00     0.000 A 
ATOM     27  C   UNL d   1      -4.114  -4.213  -6.623  0.00  0.00     0.001 A 
ATOM     28  C   UNL d   1      -4.435  -3.626  -5.397  0.00  0.00     0.010 A 
ENDBRANCH  22  23
BRANCH  22  29
ATOM     29  O   UNL d   1      -5.658  -3.488  -2.701  0.00  0.00    -0.389 OA
ATOM     30  H   UNL d   1      -5.968  -4.269  -3.193  0.00  0.00     0.210 HD
ENDBRANCH  22  29
ENDBRANCH  21  22
ENDBRANCH   1  21
TORSDOF 11
