REMARK  8 active torsions:
REMARK  status: ('A' for Active; 'I' for Inactive)
REMARK    1  A    between atoms: C_2  and  C_1 
REMARK    2  A    between atoms: C_4  and  C_1 
REMARK    3  A    between atoms: C_5  and  C_1 
REMARK    4  A    between atoms: O_16  and  C_1 
REMARK       I    between atoms: C_3  and  N_7 
REMARK       I    between atoms: N_6  and  C_3 
REMARK    5  A    between atoms: O_22  and  C_4 
REMARK    6  A    between atoms: C_9  and  N_6 
REMARK    7  A    between atoms: N_7  and  C_21 
REMARK    8  A    between atoms: C_28  and  O_22 
ROOT
ATOM      1  C   UNL d   1       0.819  -1.002  -1.092  0.00  0.00    -0.005 A 
ATOM      2  C   UNL d   1       1.793  -2.006  -1.238  0.00  0.00     0.013 A 
ATOM      3  C   UNL d   1      -0.448  -1.249  -1.643  0.00  0.00     0.013 A 
ATOM      4  C   UNL d   1       0.212  -3.473  -2.363  0.00  0.00     0.036 A 
ATOM      5  C   UNL d   1      -0.744  -2.460  -2.280  0.00  0.00     0.030 A 
ATOM      6  C   UNL d   1       1.492  -3.222  -1.870  0.00  0.00     0.030 A 
ENDROOT
BRANCH   4   7
ATOM      7  N   UNL d   1      -0.058  -4.746  -2.917  0.00  0.00    -0.309 N 
ATOM      8  C   UNL d   1      -1.323  -5.277  -3.084  0.00  0.00     0.325 C 
ATOM      9  N   UNL d   1      -1.275  -6.508  -3.743  0.00  0.00    -0.309 N 
ATOM     10  O   UNL d   1      -2.361  -4.743  -2.718  0.00  0.00    -0.247 OA
ATOM     11  H   UNL d   1      -0.575  -6.553  -4.471  0.00  0.00     0.170 HD
ATOM     12  H   UNL d   1       0.697  -5.413  -2.921  0.00  0.00     0.170 HD
BRANCH   9  13
ATOM     13  C   UNL d   1      -2.472  -7.228  -3.973  0.00  0.00     0.037 C 
ATOM     14  C   UNL d   1      -3.458  -7.311  -2.985  0.00  0.00     0.042 C 
ATOM     15  C   UNL d   1      -4.741  -7.779  -3.288  0.00  0.00    -0.024 A 
ATOM     16  C   UNL d   1      -5.760  -7.773  -2.323  0.00  0.00     0.012 A 
ATOM     17  C   UNL d   1      -5.026  -8.202  -4.604  0.00  0.00    -0.026 A 
ATOM     18  C   UNL d   1      -7.066  -8.110  -2.669  0.00  0.00     0.001 A 
ATOM     19  C   UNL d   1      -7.364  -8.467  -3.982  0.00  0.00     0.001 A 
ATOM     20  C   UNL d   1      -6.348  -8.532  -4.938  0.00  0.00     0.012 A 
ATOM     21  C   UNL d   1      -3.982  -8.248  -5.548  0.00  0.00     0.014 C 
ATOM     22  C   UNL d   1      -2.702  -7.782  -5.230  0.00  0.00     0.030 C 
ENDBRANCH   9  13
ENDBRANCH   4   7
BRANCH   1  23
ATOM     23  C   UNL d   1       1.097   0.287  -0.298  0.00  0.00     0.271 C 
BRANCH  23  24
ATOM     24  C   UNL d   1       2.375   1.042  -0.724  0.00  0.00     0.432 C 
ATOM     25  F   UNL d   1       3.438   0.831   0.082  0.00  0.00    -0.167 F 
ATOM     26  F   UNL d   1       2.773   0.751  -1.986  0.00  0.00    -0.167 F 
ATOM     27  F   UNL d   1       2.146   2.388  -0.698  0.00  0.00    -0.167 F 
ENDBRANCH  23  24
BRANCH  23  28
ATOM     28  C   UNL d   1       1.297  -0.059   1.195  0.00  0.00     0.308 C 
ATOM     29  O   UNL d   1       2.030  -0.946   1.622  0.00  0.00    -0.261 OA
BRANCH  28  30
ATOM     30  O   UNL d   1       0.529   0.742   1.993  0.00  0.00    -0.319 OA
BRANCH  30  31
ATOM     31  C   UNL d   1       0.431   0.336   3.370  0.00  0.00     0.174 C 
ATOM     32  C   UNL d   1       1.419   1.106   4.220  0.00  0.00     0.034 C 
ENDBRANCH  30  31
ENDBRANCH  28  30
ENDBRANCH  23  28
BRANCH  23  33
ATOM     33  O   UNL d   1      -0.060   1.156  -0.458  0.00  0.00    -0.368 OA
ATOM     34  H   UNL d   1       0.122   1.962   0.062  0.00  0.00     0.212 HD
ENDBRANCH  23  33
ENDBRANCH   1  23
TORSDOF 8
