REMARK  4 active torsions:
REMARK  status: ('A' for Active; 'I' for Inactive)
REMARK    1  A    between atoms: C_13  and  N_2 
REMARK       I    between atoms: C_3  and  N_10 
REMARK       I    between atoms: N_4  and  C_3 
REMARK    2  A    between atoms: C_5  and  N_4 
REMARK    3  A    between atoms: N_10  and  C_15 
REMARK    4  A    between atoms: C_15  and  C_13 
ROOT
ATOM      1  C   UNL d   1      -3.704  -3.941  -1.273  0.00  0.00     0.320 C 
ATOM      2  N   UNL d   1      -4.487  -2.825  -1.481  0.00  0.00    -0.308 N 
ATOM      3  O   UNL d   1      -4.096  -5.102  -1.200  0.00  0.00    -0.247 OA
ATOM      4  N   UNL d   1      -2.370  -3.623  -1.212  0.00  0.00    -0.341 N 
ATOM      5  H   UNL d   1      -3.997  -2.061  -1.914  0.00  0.00     0.170 HD
ATOM      6  H   UNL d   1      -2.077  -2.660  -1.153  0.00  0.00     0.164 HD
ENDROOT
BRANCH   4   7
ATOM      7  C   UNL d   1      -1.350  -4.654  -1.108  0.00  0.00     0.144 C 
BRANCH   7   8
ATOM      8  C   UNL d   1      -1.065  -5.349  -2.450  0.00  0.00     0.147 C 
BRANCH   8   9
ATOM      9  N   UNL d   1      -0.671  -4.427  -3.505  0.00  0.00    -0.331 N 
ATOM     10  C   UNL d   1       0.454  -3.606  -3.438  0.00  0.00     0.318 C 
ATOM     11  N   UNL d   1       0.654  -3.073  -4.704  0.00  0.00    -0.341 N 
ATOM     12  O   UNL d   1       1.148  -3.369  -2.467  0.00  0.00    -0.247 OA
ATOM     13  C   UNL d   1      -0.433  -3.422  -5.577  0.00  0.00     0.144 C 
ATOM     14  H   UNL d   1       1.329  -2.333  -4.841  0.00  0.00     0.164 HD
ATOM     15  C   UNL d   1      -1.044  -4.634  -4.888  0.00  0.00     0.147 C 
ENDBRANCH   8   9
ENDBRANCH   7   8
ENDBRANCH   4   7
BRANCH   2  16
ATOM     16  C   UNL d   1      -5.899  -2.861  -1.627  0.00  0.00     0.047 A 
ATOM     17  C   UNL d   1      -6.556  -1.964  -2.522  0.00  0.00     0.001 A 
ATOM     18  C   UNL d   1      -7.951  -2.133  -2.733  0.00  0.00    -0.024 A 
ATOM     19  C   UNL d   1      -5.912  -0.936  -3.258  0.00  0.00     0.014 A 
ATOM     20  C   UNL d   1      -8.625  -1.341  -3.677  0.00  0.00     0.012 A 
ATOM     21  C   UNL d   1      -8.661  -3.105  -2.015  0.00  0.00     0.012 A 
ATOM     22  C   UNL d   1      -7.955  -0.359  -4.403  0.00  0.00     0.001 A 
ATOM     23  C   UNL d   1      -6.602  -0.145  -4.182  0.00  0.00     0.001 A 
ATOM     24  C   UNL d   1      -8.018  -3.920  -1.090  0.00  0.00     0.003 A 
ATOM     25  C   UNL d   1      -6.646  -3.802  -0.904  0.00  0.00     0.030 A 
ENDBRANCH   2  16
TORSDOF 4
