REMARK  5 active torsions:
REMARK  status: ('A' for Active; 'I' for Inactive)
REMARK    1  A    between atoms: N_2  and  C_1 
REMARK    2  A    between atoms: C_6  and  C_4 
REMARK    3  A    between atoms: C_5  and  C_7 
REMARK       I    between atoms: N_10  and  C_6 
REMARK    4  A    between atoms: C_11  and  N_10 
REMARK    5  A    between atoms: O_22  and  C_18 
ROOT
ATOM      1  C   UNL d   1      -3.948   0.624  -0.877  0.00  0.00     0.052 A 
ATOM      2  C   UNL d   1      -3.137  -1.543  -0.086  0.00  0.00     0.038 A 
ATOM      3  C   UNL d   1      -3.049  -0.447  -0.953  0.00  0.00     0.046 A 
ATOM      4  C   UNL d   1      -4.974   0.569   0.070  0.00  0.00     0.053 A 
ATOM      5  C   UNL d   1      -4.206  -1.601   0.820  0.00  0.00     0.066 A 
ATOM      6  C   UNL d   1      -5.113  -0.537   0.913  0.00  0.00     0.071 A 
ENDROOT
BRANCH   2   7
ATOM      7  N   UNL d   1      -2.165  -2.578  -0.071  0.00  0.00    -0.321 N 
ATOM      8  C   UNL d   1      -0.898  -2.494  -0.635  0.00  0.00     0.280 C 
ATOM      9  O   UNL d   1      -0.465  -1.510  -1.228  0.00  0.00    -0.265 OA
ATOM     10  H   UNL d   1      -2.346  -3.391   0.510  0.00  0.00     0.169 HD
BRANCH   8  11
ATOM     11  C   UNL d   1      -0.041  -3.652  -0.453  0.00  0.00     0.146 A 
ATOM     12  O   UNL d   1      -0.478  -4.784   0.183  0.00  0.00    -0.283 OA
ATOM     13  C   UNL d   1       0.577  -5.653   0.160  0.00  0.00     0.215 A 
ATOM     14  C   UNL d   1       1.676  -5.111  -0.457  0.00  0.00     0.066 A 
ATOM     15  C   UNL d   1       1.278  -3.817  -0.853  0.00  0.00     0.047 A 
BRANCH  13  16
ATOM     16  N   UNL d   1       0.380  -6.935   0.761  0.00  0.00    -0.090 N 
ATOM     17  O   UNL d   1       1.344  -7.710   0.737  0.00  0.00    -0.530 OA
ATOM     18  O   UNL d   1      -0.729  -7.171   1.260  0.00  0.00    -0.530 OA
ENDBRANCH  13  16
ENDBRANCH   8  11
ENDBRANCH   2   7
BRANCH   1  19
ATOM     19  C   UNL d   1      -3.790   1.830  -1.767  0.00  0.00     0.417 C 
ATOM     20  F   UNL d   1      -2.767   1.724  -2.661  0.00  0.00    -0.166 F 
ATOM     21  F   UNL d   1      -4.904   2.083  -2.508  0.00  0.00    -0.166 F 
ATOM     22  F   UNL d   1      -3.546   2.968  -1.058  0.00  0.00    -0.166 F 
ENDBRANCH   1  19
BRANCH   6  23
ATOM     23  O   UNL d   1      -6.155  -0.426   1.791  0.00  0.00    -0.356 OA
ATOM     24  C   UNL d   1      -6.354  -1.483   2.719  0.00  0.00     0.210 C 
ENDBRANCH   6  23
TORSDOF 5
