REMARK  7 active torsions:
REMARK  status: ('A' for Active; 'I' for Inactive)
REMARK    1  A    between atoms: C_11  and  C_1 
REMARK    2  A    between atoms: S_2  and  N_7 
REMARK    3  A    between atoms: C_8  and  S_2 
REMARK    4  A    between atoms: N_7  and  C_3 
REMARK    5  A    between atoms: C_19  and  C_6 
REMARK    6  A    between atoms: C_9  and  C_12 
REMARK    7  A    between atoms: C_10  and  C_13 
REMARK       I    between atoms: N_27  and  C_11 
ROOT
ATOM      1  N   UNL d   1       2.384   1.767  -0.003  0.00  0.00    -0.279 N 
ATOM      2  H   UNL d   1       2.946   1.813   0.849  0.00  0.00     0.179 HD
ENDROOT
BRANCH   1   3
ATOM      3  S   UNL d   1       3.398   1.952  -1.340  0.00  0.00     0.263 S 
ATOM      4  O   UNL d   1       4.576   2.646  -0.867  0.00  0.00    -0.200 OA
ATOM      5  O   UNL d   1       3.515   0.682  -2.028  0.00  0.00    -0.200 OA
BRANCH   3   6
ATOM      6  C   UNL d   1       2.498   3.076  -2.392  0.00  0.00     0.081 A 
ATOM      7  C   UNL d   1       2.602   4.457  -2.194  0.00  0.00     0.041 A 
ATOM      8  C   UNL d   1       1.980   5.343  -3.090  0.00  0.00     0.050 A 
ATOM      9  C   UNL d   1       1.261   4.816  -4.180  0.00  0.00     0.032 A 
ATOM     10  C   UNL d   1       1.164   3.429  -4.392  0.00  0.00     0.050 A 
ATOM     11  C   UNL d   1       1.790   2.562  -3.484  0.00  0.00     0.041 A 
BRANCH   8  12
ATOM     12  C   UNL d   1       2.096   6.842  -2.929  0.00  0.00     0.417 C 
ATOM     13  F   UNL d   1       2.834   7.225  -1.853  0.00  0.00    -0.166 F 
ATOM     14  F   UNL d   1       2.683   7.426  -4.011  0.00  0.00    -0.166 F 
ATOM     15  F   UNL d   1       0.885   7.448  -2.793  0.00  0.00    -0.166 F 
ENDBRANCH   8  12
BRANCH  10  16
ATOM     16  C   UNL d   1       0.421   2.898  -5.595  0.00  0.00     0.417 C 
ATOM     17  F   UNL d   1       0.478   1.543  -5.717  0.00  0.00    -0.166 F 
ATOM     18  F   UNL d   1      -0.903   3.216  -5.569  0.00  0.00    -0.166 F 
ATOM     19  F   UNL d   1       0.904   3.399  -6.765  0.00  0.00    -0.166 F 
ENDBRANCH  10  16
ENDBRANCH   3   6
ENDBRANCH   1   3
BRANCH   1  20
ATOM     20  C   UNL d   1       1.289   0.891  -0.017  0.00  0.00     0.066 A 
ATOM     21  C   UNL d   1      -0.038   1.282   0.022  0.00  0.00     0.100 A 
ATOM     22  S   UNL d   1      -1.081  -0.076   0.003  0.00  0.00    -0.082 SA
ATOM     23  C   UNL d   1       0.210  -1.200   0.034  0.00  0.00     0.018 A 
ATOM     24  C   UNL d   1       1.424  -0.534   0.009  0.00  0.00     0.051 A 
BRANCH  21  25
ATOM     25  C   UNL d   1      -0.581   2.631   0.073  0.00  0.00     0.258 C 
ATOM     26  O   UNL d   1       0.089   3.659   0.012  0.00  0.00    -0.267 OA
ATOM     27  N   UNL d   1      -1.938   2.745   0.210  0.00  0.00    -0.365 N 
ATOM     28  H   UNL d   1      -2.537   1.935   0.289  0.00  0.00     0.159 HD
ATOM     29  H   UNL d   1      -2.336   3.671   0.281  0.00  0.00     0.159 HD
ENDBRANCH  21  25
BRANCH  23  30
ATOM     30  C   UNL d   1      -0.070  -2.648   0.045  0.00  0.00    -0.019 A 
ATOM     31  C   UNL d   1       0.773  -3.539  -0.636  0.00  0.00     0.013 A 
ATOM     32  C   UNL d   1       0.504  -4.913  -0.649  0.00  0.00     0.001 A 
ATOM     33  C   UNL d   1      -0.610  -5.417   0.018  0.00  0.00     0.000 A 
ATOM     34  C   UNL d   1      -1.452  -4.550   0.707  0.00  0.00     0.001 A 
ATOM     35  C   UNL d   1      -1.180  -3.179   0.725  0.00  0.00     0.013 A 
ENDBRANCH  23  30
ENDBRANCH   1  20
TORSDOF 7
