REMARK  6 active torsions:
REMARK  status: ('A' for Active; 'I' for Inactive)
REMARK    1  A    between atoms: N_3  and  S_1 
REMARK    2  A    between atoms: C_6  and  S_1 
REMARK    3  A    between atoms: C_12  and  N_3 
REMARK    4  A    between atoms: C_4  and  O_10 
REMARK    5  A    between atoms: O_10  and  C_15 
REMARK    6  A    between atoms: C_17  and  C_12 
ROOT
ATOM      1  C   UNL d   1      -1.251  -0.997   7.502  0.00  0.00     0.100 A 
ATOM      2  C   UNL d   1      -1.266  -1.021   6.099  0.00  0.00     0.098 A 
ATOM      3  C   UNL d   1      -0.210  -1.669   8.223  0.00  0.00     0.104 C 
ATOM      4  N   UNL d   1       0.628  -2.220   8.809  0.00  0.00    -0.191 NA
ATOM      5  C   UNL d   1      -2.269  -0.308   8.179  0.00  0.00     0.057 A 
ATOM      6 CL   UNL d   1      -2.328  -0.215   9.905  0.00  0.00    -0.083 Cl
ATOM      7  C   UNL d   1      -2.331  -0.434   5.397  0.00  0.00     0.039 A 
ATOM      8  C   UNL d   1      -3.322   0.268   6.078  0.00  0.00     0.005 A 
ATOM      9  C   UNL d   1      -3.286   0.339   7.468  0.00  0.00     0.025 A 
ENDROOT
BRANCH   2  10
ATOM     10  O   UNL d   1      -0.232  -1.674   5.449  0.00  0.00    -0.309 OA
BRANCH  10  11
ATOM     11  C   UNL d   1       0.164  -1.204   4.215  0.00  0.00     0.076 A 
ATOM     12  C   UNL d   1       0.330   0.158   3.935  0.00  0.00     0.039 A 
ATOM     13  C   UNL d   1       0.664   0.571   2.644  0.00  0.00     0.028 A 
ATOM     14  C   UNL d   1       0.859  -0.385   1.643  0.00  0.00     0.079 A 
ATOM     15  C   UNL d   1       0.781  -1.750   1.942  0.00  0.00     0.028 A 
ATOM     16  C   UNL d   1       0.434  -2.158   3.233  0.00  0.00     0.039 A 
BRANCH  14  17
ATOM     17  S   UNL d   1       1.377   0.131   0.014  0.00  0.00     0.260 S 
ATOM     18  O   UNL d   1       1.978   1.436   0.145  0.00  0.00    -0.200 OA
ATOM     19  O   UNL d   1       2.130  -0.977  -0.541  0.00  0.00    -0.200 OA
BRANCH  17  20
ATOM     20  N   UNL d   1      -0.089   0.249  -0.840  0.00  0.00    -0.307 N 
ATOM     21  C   UNL d   1      -0.019  -0.150  -2.257  0.00  0.00     0.163 C 
BRANCH  20  22
ATOM     22  C   UNL d   1      -1.000   1.386  -0.565  0.00  0.00     0.173 C 
BRANCH  22  23
ATOM     23  C   UNL d   1      -0.588   2.741  -1.101  0.00  0.00    -0.040 A 
ATOM     24  C   UNL d   1      -0.752   3.076  -2.455  0.00  0.00     0.009 A 
ATOM     25  C   UNL d   1      -0.327   4.316  -2.940  0.00  0.00     0.001 A 
ATOM     26  C   UNL d   1       0.256   5.242  -2.078  0.00  0.00     0.000 A 
ATOM     27  C   UNL d   1       0.402   4.935  -0.731  0.00  0.00     0.001 A 
ATOM     28  C   UNL d   1      -0.021   3.696  -0.244  0.00  0.00     0.009 A 
ENDBRANCH  22  23
ENDBRANCH  20  22
ENDBRANCH  17  20
ENDBRANCH  14  17
ENDBRANCH  10  11
ENDBRANCH   2  10
TORSDOF 6
