REMARK  7 active torsions:
REMARK  status: ('A' for Active; 'I' for Inactive)
REMARK    1  A    between atoms: C_2  and  S_1 
REMARK    2  A    between atoms: N_5  and  S_1 
REMARK    3  A    between atoms: C_9  and  C_4 
REMARK    4  A    between atoms: C_14  and  N_8 
REMARK    5  A    between atoms: O_21  and  C_9 
REMARK    6  A    between atoms: C_18  and  C_14 
REMARK    7  A    between atoms: C_19  and  C_14 
ROOT
ATOM      1  N   UNL d   1       0.564  -0.711   1.200  0.00  0.00    -0.202 NA
ATOM      2  N   UNL d   1       1.157  -3.650   1.061  0.00  0.00     0.104 N 
ATOM      3  C   UNL d   1       1.622  -1.310   2.066  0.00  0.00     0.138 C 
ATOM      4  C   UNL d   1      -0.526  -1.713   1.017  0.00  0.00     0.138 C 
ATOM      5  C   UNL d   1       0.013  -3.001   0.366  0.00  0.00     0.289 C 
ATOM      6  C   UNL d   1       2.151  -2.644   1.491  0.00  0.00     0.289 C 
ENDROOT
BRANCH   1   7
ATOM      7  S   UNL d   1       1.099   0.054  -0.230  0.00  0.00     0.259 S 
ATOM      8  O   UNL d   1       2.411  -0.439  -0.596  0.00  0.00    -0.204 OA
ATOM      9  O   UNL d   1       0.010   0.117  -1.176  0.00  0.00    -0.204 OA
BRANCH   7  10
ATOM     10  C   UNL d   1       1.394   1.775   0.156  0.00  0.00     0.146 A 
ATOM     11  N   UNL d   1       1.794   2.707  -0.791  0.00  0.00    -0.336 N 
ATOM     12  C   UNL d   1       1.768   3.989  -0.253  0.00  0.00     0.109 A 
ATOM     13  C   UNL d   1       2.209   2.422  -2.155  0.00  0.00     0.157 C 
ATOM     14  C   UNL d   1       1.480   3.838   1.095  0.00  0.00     0.039 A 
ATOM     15  C   UNL d   1       1.254   2.467   1.347  0.00  0.00     0.046 A 
BRANCH  12  16
ATOM     16  C   UNL d   1       1.966   5.199  -1.032  0.00  0.00     0.193 C 
ATOM     17  O   UNL d   1       1.757   5.317  -2.229  0.00  0.00    -0.645 OA
BRANCH  16  18
ATOM     18  O   UNL d   1       2.446   6.219  -0.282  0.00  0.00    -0.772 OA
ATOM     19  H   UNL d   1       2.687   5.945   0.618  0.00  0.00     0.167 HD
ENDBRANCH  16  18
ENDBRANCH  12  16
ENDBRANCH   7  10
ENDBRANCH   1   7
BRANCH   2  20
ATOM     20  C   UNL d   1       0.748  -4.656   2.076  0.00  0.00     0.289 C 
BRANCH  20  21
ATOM     21  C   UNL d   1      -0.101  -5.764   1.421  0.00  0.00    -0.021 A 
ATOM     22  C   UNL d   1       0.402  -6.516   0.342  0.00  0.00     0.010 A 
ATOM     23  C   UNL d   1      -0.385  -7.474  -0.297  0.00  0.00     0.001 A 
ATOM     24  C   UNL d   1      -1.693  -7.689   0.126  0.00  0.00     0.000 A 
ATOM     25  C   UNL d   1      -2.208  -6.957   1.196  0.00  0.00     0.001 A 
ATOM     26  C   UNL d   1      -1.417  -6.006   1.847  0.00  0.00     0.010 A 
ENDBRANCH  20  21
BRANCH  20  27
ATOM     27  C   UNL d   1       1.900  -5.322   2.857  0.00  0.00    -0.021 A 
ATOM     28  C   UNL d   1       1.709  -5.682   4.203  0.00  0.00     0.010 A 
ATOM     29  C   UNL d   1       2.720  -6.326   4.925  0.00  0.00     0.001 A 
ATOM     30  C   UNL d   1       3.935  -6.622   4.316  0.00  0.00     0.000 A 
ATOM     31  C   UNL d   1       4.140  -6.290   2.979  0.00  0.00     0.001 A 
ATOM     32  C   UNL d   1       3.128  -5.655   2.254  0.00  0.00     0.010 A 
ENDBRANCH  20  27
ENDBRANCH   2  20
TORSDOF 7
