REMARK  7 active torsions:
REMARK  status: ('A' for Active; 'I' for Inactive)
REMARK    1  A    between atoms: S_2  and  C_1 
REMARK    2  A    between atoms: C_16  and  S_2 
REMARK    3  A    between atoms: S_13  and  C_5 
REMARK    4  A    between atoms: C_12  and  C_6 
REMARK    5  A    between atoms: O_21  and  C_12 
REMARK    6  A    between atoms: C_17  and  S_13 
REMARK    7  A    between atoms: C_28  and  O_21 
ROOT
ATOM      1  C   UNL d   1      -0.881   1.592   0.070  0.00  0.00     0.094 A 
ATOM      2  C   UNL d   1       0.317   0.822   0.078  0.00  0.00     0.073 A 
ATOM      3  C   UNL d   1       0.070  -0.558   0.046  0.00  0.00     0.051 A 
ATOM      4  C   UNL d   1       1.144  -1.491  -0.041  0.00  0.00     0.042 A 
ATOM      5  C   UNL d   1       2.435  -0.946  -0.130  0.00  0.00     0.073 A 
ATOM      6  S   UNL d   1      -1.640  -0.850   0.089  0.00  0.00    -0.097 SA
ATOM      7  C   UNL d   1      -2.012   0.808   0.066  0.00  0.00     0.076 A 
ATOM      8  N   UNL d   1       1.577   1.328   0.079  0.00  0.00    -0.362 N 
ATOM      9  HN  UNL d   1       1.755   2.329   0.151  1.00  0.00     0.165 HD
ATOM     10  C   UNL d   1       2.578   0.432  -0.022  0.00  0.00     0.107 A 
ENDROOT
BRANCH   4  11
ATOM     11  S   UNL d   1       0.763  -3.229  -0.004  0.00  0.00    -0.088 SA
BRANCH  11  12
ATOM     12  C   UNL d   1       0.451  -3.696  -1.698  0.00  0.00     0.007 A 
ATOM     13  C   UNL d   1       0.592  -2.840  -2.794  0.00  0.00     0.042 A 
ATOM     14  C   UNL d   1       0.301  -3.296  -4.081  0.00  0.00     0.035 A 
ATOM     15 CL   UNL d   1       0.465  -2.221  -5.416  0.00  0.00    -0.084 Cl
ATOM     16  C   UNL d   1      -0.124  -4.604  -4.298  0.00  0.00     0.024 A 
ATOM     17  C   UNL d   1      -0.254  -5.470  -3.216  0.00  0.00     0.003 A 
ATOM     18  C   UNL d   1       0.034  -5.017  -1.926  0.00  0.00     0.019 A 
ENDBRANCH  11  12
ENDBRANCH   4  11
BRANCH   5  19
ATOM     19  C   UNL d   1       3.684  -1.663  -0.481  0.00  0.00     0.296 C 
ATOM     20  O   UNL d   1       4.613  -1.085  -1.028  0.00  0.00    -0.259 OA
BRANCH  19  21
ATOM     21  O   UNL d   1       3.665  -2.973  -0.162  0.00  0.00    -0.318 OA
BRANCH  21  22
ATOM     22  C   UNL d   1       4.789  -3.742  -0.619  0.00  0.00     0.174 C 
ATOM     23  C   UNL d   1       5.952  -3.602   0.344  0.00  0.00     0.034 C 
ENDBRANCH  21  22
ENDBRANCH  19  21
ENDBRANCH   5  19
BRANCH   1  24
ATOM     24  S   UNL d   1      -0.935   3.319   0.069  0.00  0.00     0.181 S 
ATOM     25  O   UNL d   1      -2.330   3.632  -0.155  0.00  0.00    -0.222 OA
ATOM     26  O   UNL d   1      -0.270   3.694   1.303  0.00  0.00    -0.222 OA
BRANCH  24  27
ATOM     27  C   UNL d   1       0.020   3.887  -1.346  0.00  0.00     0.105 C 
ATOM     28  C   UNL d   1      -0.524   3.336  -2.662  0.00  0.00     0.026 C 
ATOM     29  C   UNL d   1       0.012   5.416  -1.385  0.00  0.00     0.026 C 
ENDBRANCH  24  27
ENDBRANCH   1  24
TORSDOF 7
