REMARK  5 active torsions:
REMARK  status: ('A' for Active; 'I' for Inactive)
REMARK    1  A    between atoms: C_7  and  C_1 
REMARK    2  A    between atoms: N_4  and  C_2 
REMARK       I    between atoms: C_6  and  N_4 
REMARK    3  A    between atoms: C_9  and  C_6 
REMARK    4  A    between atoms: O_18  and  C_7 
REMARK    5  A    between atoms: C_10  and  C_11 
ROOT
ATOM      1  N   UNL d   1       2.511   2.862   1.213  0.00  0.00    -0.321 N 
ATOM      2  C   UNL d   1       2.841   2.594  -0.107  0.00  0.00     0.256 C 
ATOM      3  O   UNL d   1       2.395   3.158  -1.097  0.00  0.00    -0.267 OA
ATOM      4  H   UNL d   1       2.592   2.058   1.834  0.00  0.00     0.169 HD
ENDROOT
BRANCH   1   5
ATOM      5  C   UNL d   1       1.656   3.869   1.686  0.00  0.00     0.064 C 
ATOM      6  C   UNL d   1       0.720   3.562   2.672  0.00  0.00     0.107 C 
ATOM      7  S   UNL d   1      -0.037   4.956   3.307  0.00  0.00    -0.093 SA
ATOM      8  C   UNL d   1       0.731   5.953   2.173  0.00  0.00     0.059 C 
ATOM      9  C   UNL d   1       1.570   5.263   1.309  0.00  0.00    -0.027 C 
ATOM     10  C   UNL d   1       2.296   5.998   0.231  0.00  0.00     0.051 C 
BRANCH   6  11
ATOM     11  C   UNL d   1       0.334   2.242   3.139  0.00  0.00     0.302 C 
ATOM     12  O   UNL d   1       1.045   1.248   3.087  0.00  0.00    -0.259 OA
BRANCH  11  13
ATOM     13  O   UNL d   1      -0.972   2.242   3.535  0.00  0.00    -0.322 OA
ATOM     14  C   UNL d   1      -1.534   0.963   3.816  0.00  0.00     0.213 C 
ENDBRANCH  11  13
ENDBRANCH   6  11
ENDBRANCH   1   5
BRANCH   2  15
ATOM     15  C   UNL d   1       3.705   1.378  -0.272  0.00  0.00     0.032 C 
ATOM     16  C   UNL d   1       3.472   0.496  -1.329  0.00  0.00     0.017 C 
ATOM     17  C   UNL d   1       4.145  -0.738  -1.385  0.00  0.00     0.009 C 
ATOM     18  C   UNL d   1       5.059  -1.125  -0.388  0.00  0.00    -0.051 C 
ATOM     19  C   UNL d   1       5.386  -0.156   0.579  0.00  0.00     0.009 C 
ATOM     20  C   UNL d   1       4.709   1.072   0.646  0.00  0.00     0.017 C 
BRANCH  18  21
ATOM     21  C   UNL d   1       5.633  -2.560  -0.309  0.00  0.00    -0.024 C 
ATOM     22  C   UNL d   1       5.844  -2.998   1.163  0.00  0.00     0.019 C 
ATOM     23  C   UNL d   1       4.675  -3.608  -0.926  0.00  0.00     0.019 C 
ATOM     24  C   UNL d   1       6.981  -2.660  -1.041  0.00  0.00     0.019 C 
ENDBRANCH  18  21
ENDBRANCH   2  15
TORSDOF 5
