REMARK  2 active torsions:
REMARK  status: ('A' for Active; 'I' for Inactive)
REMARK       I    between atoms: N_2  and  C_1 
REMARK    1  A    between atoms: C_4  and  C_1 
REMARK    2  A    between atoms: C_3  and  N_2 
ROOT
ATOM      1  C   UNL d   1       1.151  -0.132   0.100  0.00  0.00     0.257 C 
ATOM      2  N   UNL d   1       0.490  -0.059  -1.110  0.00  0.00    -0.308 N 
ATOM      3  O   UNL d   1       2.353  -0.297   0.280  0.00  0.00    -0.267 OA
ATOM      4  H   UNL d   1      -0.478   0.222  -1.117  0.00  0.00     0.170 HD
ENDROOT
BRANCH   2   5
ATOM      5  C   UNL d   1       1.115  -0.216  -2.361  0.00  0.00     0.123 A 
ATOM      6  N   UNL d   1       2.397  -0.614  -2.452  0.00  0.00    -0.350 N 
ATOM      7  C   UNL d   1       2.922  -0.711  -3.695  0.00  0.00     0.106 A 
ATOM      8  HN  UNL d   1       2.948  -0.832  -1.622  1.00  0.00     0.166 HD
ATOM      9  C   UNL d   1       2.189  -0.427  -4.831  0.00  0.00     0.104 A 
ATOM     10  N   UNL d   1       0.896  -0.044  -4.773  0.00  0.00    -0.371 N 
ATOM     11  C   UNL d   1       0.383   0.050  -3.518  0.00  0.00     0.136 A 
ATOM     12  HN  UNL d   1       0.345   0.159  -5.608  1.00  0.00     0.164 HD
ENDBRANCH   2   5
BRANCH   1  13
ATOM     13  C   UNL d   1       0.303   0.069   1.310  0.00  0.00     0.032 A 
ATOM     14  C   UNL d   1      -1.020  -0.386   1.386  0.00  0.00     0.018 A 
ATOM     15  C   UNL d   1      -1.751  -0.204   2.566  0.00  0.00     0.025 A 
ATOM     16  C   UNL d   1      -1.161   0.425   3.664  0.00  0.00     0.034 A 
ATOM     17  C   UNL d   1       0.155   0.874   3.598  0.00  0.00     0.025 A 
ATOM     18 CL   UNL d   1      -2.061   0.629   5.117  0.00  0.00    -0.084 Cl
ATOM     19  C   UNL d   1       0.887   0.692   2.423  0.00  0.00     0.018 A 
ENDBRANCH   1  13
TORSDOF 2
