REMARK  8 active torsions:
REMARK  status: ('A' for Active; 'I' for Inactive)
REMARK    1  A    between atoms: C_14  and  S_1 
REMARK    2  A    between atoms: C_15  and  S_1 
REMARK    3  A    between atoms: C_2  and  S_18 
REMARK    4  A    between atoms: C_3  and  S_19 
REMARK    5  A    between atoms: C_23  and  C_14 
REMARK    6  A    between atoms: C_22  and  C_15 
REMARK    7  A    between atoms: S_18  and  C_23 
REMARK    8  A    between atoms: S_19  and  C_22 
ROOT
ATOM      1  S   UNL d   1       1.177   0.036  -0.056  0.00  0.00     0.145 S 
ATOM      2  O   UNL d   1       0.581   1.203   0.565  0.00  0.00    -0.228 OA
ATOM      3  O   UNL d   1       2.616  -0.119  -0.115  0.00  0.00    -0.228 OA
ENDROOT
BRANCH   1   4
ATOM      4  C   UNL d   1       0.539  -0.081  -1.718  0.00  0.00     0.151 C 
BRANCH   4   5
ATOM      5  C   UNL d   1       0.987   1.095  -2.580  0.00  0.00     0.094 C 
BRANCH   5   6
ATOM      6  S   UNL d   1       0.258   0.860  -4.246  0.00  0.00    -0.129 SA
BRANCH   6   7
ATOM      7  C   UNL d   1       0.871   2.274  -5.172  0.00  0.00     0.007 A 
ATOM      8  C   UNL d   1       0.541   3.577  -4.758  0.00  0.00     0.027 A 
ATOM      9  C   UNL d   1       0.840   4.702  -5.553  0.00  0.00    -0.039 A 
ATOM     10  C   UNL d   1       0.389   6.067  -5.117  0.00  0.00     0.050 C 
ATOM     11  C   UNL d   1       1.490   4.506  -6.777  0.00  0.00     0.040 A 
ATOM     12  C   UNL d   1       1.840   3.218  -7.191  0.00  0.00     0.032 A 
ATOM     13 CL   UNL d   1       1.845   5.819  -7.840  0.00  0.00    -0.084 Cl
ATOM     14  C   UNL d   1       1.527   2.094  -6.407  0.00  0.00    -0.044 A 
ATOM     15  C   UNL d   1       1.875   0.732  -6.947  0.00  0.00     0.049 C 
ENDBRANCH   6   7
ENDBRANCH   5   6
ENDBRANCH   4   5
ENDBRANCH   1   4
BRANCH   1  16
ATOM     16  C   UNL d   1       0.498  -1.411   0.740  0.00  0.00     0.151 C 
BRANCH  16  17
ATOM     17  C   UNL d   1       0.932  -1.497   2.197  0.00  0.00     0.094 C 
BRANCH  17  18
ATOM     18  S   UNL d   1       0.164  -2.990   2.934  0.00  0.00    -0.129 SA
BRANCH  18  19
ATOM     19  C   UNL d   1       0.778  -3.080   4.627  0.00  0.00     0.007 A 
ATOM     20  C   UNL d   1       1.621  -2.105   5.187  0.00  0.00     0.027 A 
ATOM     21  C   UNL d   1       2.103  -2.207   6.509  0.00  0.00    -0.039 A 
ATOM     22  C   UNL d   1       3.045  -1.163   7.042  0.00  0.00     0.050 C 
ATOM     23  C   UNL d   1       1.719  -3.307   7.284  0.00  0.00     0.040 A 
ATOM     24  C   UNL d   1       0.874  -4.279   6.752  0.00  0.00     0.032 A 
ATOM     25 CL   UNL d   1       2.270  -3.514   8.908  0.00  0.00    -0.084 Cl
ATOM     26  C   UNL d   1       0.403  -4.185   5.430  0.00  0.00    -0.044 A 
ATOM     27  C   UNL d   1      -0.476  -5.300   4.920  0.00  0.00     0.049 C 
ENDBRANCH  18  19
ENDBRANCH  17  18
ENDBRANCH  16  17
ENDBRANCH   1  16
TORSDOF 8
