REMARK  3 active torsions:
REMARK  status: ('A' for Active; 'I' for Inactive)
REMARK    1  A    between atoms: C_11  and  C_1 
REMARK    2  A    between atoms: C_3  and  C_2 
REMARK    3  A    between atoms: O_17  and  C_11 
ROOT
ATOM      1  C   UNL d   1       2.073  -1.334  -0.109  0.00  0.00     0.052 A 
ATOM      2  C   UNL d   1       0.583  -1.703  -0.199  0.00  0.00     0.100 A 
ATOM      3  C   UNL d   1      -0.336  -0.493  -0.099  0.00  0.00     0.023 A 
ATOM      4  C   UNL d   1       2.467  -0.042   0.013  0.00  0.00     0.018 A 
ATOM      5  C   UNL d   1       0.150   0.763   0.008  0.00  0.00     0.020 A 
ATOM      6  N   UNL d   1       1.514   0.966   0.054  0.00  0.00    -0.362 N 
ATOM      7  C   UNL d   1      -1.813  -0.683  -0.157  0.00  0.00     0.158 C 
ATOM      8  O   UNL d   1      -2.312  -1.730  -0.564  0.00  0.00    -0.293 OA
ATOM      9  C   UNL d   1      -0.714   2.002   0.062  0.00  0.00     0.058 C 
ATOM     10  C   UNL d   1       3.889   0.459   0.106  0.00  0.00     0.069 C 
ATOM     11  C   UNL d   1      -2.675   0.466   0.313  0.00  0.00     0.084 C 
ATOM     12  C   UNL d   1      -2.169   1.747  -0.324  0.00  0.00     0.014 C 
ATOM     13  H   UNL d   1       1.848   1.923   0.136  0.00  0.00     0.165 HD
ENDROOT
BRANCH   2  14
ATOM     14  C   UNL d   1       0.213  -2.772   0.817  0.00  0.00    -0.017 A 
ATOM     15  C   UNL d   1      -0.273  -4.032   0.502  0.00  0.00     0.097 A 
ATOM     16  N   UNL d   1      -0.464  -4.728   1.660  0.00  0.00    -0.365 N 
ATOM     17  C   UNL d   1      -0.109  -3.956   2.739  0.00  0.00     0.042 A 
ATOM     18  H   UNL d   1      -0.817  -5.673   1.719  0.00  0.00     0.165 HD
ATOM     19  C   UNL d   1       0.304  -2.718   2.247  0.00  0.00    -0.001 A 
ATOM     20  C   UNL d   1      -0.126  -4.267   4.104  0.00  0.00     0.030 A 
ATOM     21  C   UNL d   1       0.710  -1.733   3.173  0.00  0.00     0.014 A 
ATOM     22  C   UNL d   1       0.693  -2.024   4.541  0.00  0.00     0.001 A 
ATOM     23  C   UNL d   1       0.284  -3.274   4.998  0.00  0.00     0.002 A 
ENDBRANCH   2  14
BRANCH   1  24
ATOM     24  C   UNL d   1       3.048  -2.459  -0.109  0.00  0.00     0.291 C 
ATOM     25  O   UNL d   1       4.101  -2.467   0.509  0.00  0.00    -0.260 OA
BRANCH  24  26
ATOM     26  O   UNL d   1       2.589  -3.475  -0.883  0.00  0.00    -0.323 OA
ATOM     27  C   UNL d   1       3.327  -4.697  -0.797  0.00  0.00     0.213 C 
ENDBRANCH  24  26
ENDBRANCH   1  24
TORSDOF 3
