REMARK  0 active torsions:
REMARK  status: ('A' for Active; 'I' for Inactive)
ROOT
ATOM      1  C   UNL d   1       0.630   1.194  -0.213  0.00  0.00     0.131 C 
ATOM      2  C   UNL d   1       1.369  -0.036   0.105  0.00  0.00     0.303 C 
ATOM      3  C   UNL d   1      -0.796   1.235   0.160  0.00  0.00     0.303 C 
ATOM      4  O   UNL d   1       0.645  -1.164  -0.042  0.00  0.00    -0.279 OA
ATOM      5  O   UNL d   1      -1.424   0.052  -0.020  0.00  0.00    -0.279 OA
ATOM      6  C   UNL d   1      -0.717  -1.119   0.373  0.00  0.00     0.175 C 
ATOM      7  C   UNL d   1       1.183   2.217  -0.918  0.00  0.00     0.008 C 
ATOM      8  N   UNL d   1       0.467   3.369  -1.275  0.00  0.00    -0.295 NA
ATOM      9  O   UNL d   1      -1.402   2.218   0.561  0.00  0.00    -0.259 OA
ATOM     10  O   UNL d   1       2.549  -0.078   0.426  0.00  0.00    -0.259 OA
ATOM     11  C   UNL d   1      -1.419  -2.305  -0.288  0.00  0.00     0.080 C 
ATOM     12  C   UNL d   1      -0.785  -1.268   1.896  0.00  0.00     0.080 C 
ATOM     13  C   UNL d   1       2.610   2.212  -1.456  0.00  0.00     0.052 C 
ATOM     14  C   UNL d   1       0.713   4.604  -0.521  0.00  0.00     0.092 C 
ATOM     15  C   UNL d   1       3.437   3.422  -0.994  0.00  0.00     0.006 C 
ATOM     16  C   UNL d   1       1.821   5.449  -1.151  0.00  0.00     0.015 C 
ATOM     17  C   UNL d   1       3.040   4.711  -1.715  0.00  0.00     0.001 C 
ATOM     18  H   UNL d   1       0.561   3.566  -2.272  0.00  0.00     0.127 HD
ENDROOT
TORSDOF 0
