REMARK  3 active torsions:
REMARK  status: ('A' for Active; 'I' for Inactive)
REMARK    1  A    between atoms: S_14  and  C_2 
REMARK    2  A    between atoms: C_6  and  C_3 
REMARK    3  A    between atoms: C_13  and  C_9 
ROOT
ATOM      1  C   UNL d   1       0.503   0.711   0.052  0.00  0.00     0.041 A 
ATOM      2  C   UNL d   1       1.868   0.930   0.013  0.00  0.00     0.056 A 
ATOM      3  C   UNL d   1       1.327  -1.503   0.016  0.00  0.00     0.047 A 
ATOM      4  C   UNL d   1       0.192  -0.708   0.077  0.00  0.00    -0.022 A 
ATOM      5  S   UNL d   1       2.744  -0.537   0.026  0.00  0.00    -0.079 SA
ATOM      6  C   UNL d   1      -0.557   1.729   0.054  0.00  0.00     0.162 C 
ATOM      7  O   UNL d   1      -0.349   2.931  -0.115  0.00  0.00    -0.292 OA
ATOM      8  C   UNL d   1      -1.233  -1.194   0.135  0.00  0.00     0.041 C 
ATOM      9  C   UNL d   1      -1.965   1.223   0.321  0.00  0.00     0.084 C 
ATOM     10  C   UNL d   1      -2.212  -0.123  -0.355  0.00  0.00     0.012 C 
ENDROOT
BRANCH   3  11
ATOM     11  C   UNL d   1       1.391  -2.949  -0.054  0.00  0.00     0.092 A 
ATOM     12  N   UNL d   1       0.452  -3.730   0.447  0.00  0.00    -0.352 N 
ATOM     13  C   UNL d   1       0.717  -5.070   0.166  0.00  0.00     0.024 A 
ATOM     14  HN  UNL d   1      -0.359  -3.398   0.968  1.00  0.00     0.166 HD
ATOM     15  C   UNL d   1       1.859  -5.265  -0.591  0.00  0.00     0.077 A 
ATOM     16  S   UNL d   1       2.644  -3.780  -0.894  0.00  0.00    -0.081 SA
BRANCH  13  17
ATOM     17  C   UNL d   1      -0.255  -6.144   0.642  0.00  0.00    -0.008 C 
ATOM     18  C   UNL d   1      -1.362  -6.340  -0.410  0.00  0.00     0.021 C 
ATOM     19  C   UNL d   1       0.462  -7.494   0.860  0.00  0.00     0.021 C 
ATOM     20  C   UNL d   1      -0.911  -5.745   1.980  0.00  0.00     0.021 C 
ENDBRANCH  13  17
ENDBRANCH   3  11
BRANCH   2  21
ATOM     21  S   UNL d   1       2.744   2.458   0.003  0.00  0.00    -0.126 SA
ATOM     22  C   UNL d   1       2.897   2.723  -1.780  0.00  0.00     0.096 C 
ENDBRANCH   2  21
TORSDOF 3
