REMARK  4 active torsions:
REMARK  status: ('A' for Active; 'I' for Inactive)
REMARK    1  A    between atoms: C_9  and  C_14 
REMARK    2  A    between atoms: O_16  and  C_9 
REMARK    3  A    between atoms: O_13  and  C_12 
REMARK    4  A    between atoms: C_14  and  O_13 
ROOT
ATOM      1  C   UNL d   1      -0.625   2.102   0.003  0.00  0.00     0.299 A 
ATOM      2  O   UNL d   1       0.761   1.996   0.005  0.00  0.00    -0.274 OA
ATOM      3  C   UNL d   1       1.441   0.758   0.003  0.00  0.00     0.093 A 
ATOM      4  C   UNL d   1       0.735  -0.443  -0.002  0.00  0.00     0.009 A 
ATOM      5  C   UNL d   1      -0.732  -0.410   0.000  0.00  0.00    -0.007 A 
ATOM      6  C   UNL d   1      -1.392   0.829   0.002  0.00  0.00     0.051 A 
ATOM      7  C   UNL d   1       2.841   0.812   0.003  0.00  0.00     0.075 A 
ATOM      8  C   UNL d   1       1.499  -1.620  -0.006  0.00  0.00     0.018 A 
ATOM      9  O   UNL d   1      -1.186   3.193   0.002  0.00  0.00    -0.259 OA
ATOM     10  C   UNL d   1       3.580  -0.369  -0.021  0.00  0.00     0.072 A 
ATOM     11  C   UNL d   1       2.902  -1.587  -0.015  0.00  0.00     0.038 A 
ATOM     12  C   UNL d   1      -1.530  -1.570  -0.000  0.00  0.00     0.013 A 
ATOM     13  C   UNL d   1      -2.797   0.900   0.002  0.00  0.00     0.018 A 
ATOM     14  C   UNL d   1      -2.926  -1.500   0.000  0.00  0.00     0.001 A 
ATOM     15  C   UNL d   1      -3.560  -0.265   0.001  0.00  0.00     0.001 A 
ENDROOT
BRANCH  10  16
ATOM     16  O   UNL d   1       4.942  -0.222   0.003  0.00  0.00    -0.341 OA
BRANCH  16  17
ATOM     17  C   UNL d   1       5.687  -1.269  -0.632  0.00  0.00     0.285 C 
BRANCH  17  18
ATOM     18  C   UNL d   1       7.179  -0.969  -0.557  0.00  0.00     0.164 C 
ATOM     19  O   UNL d   1       8.039  -1.703  -1.029  0.00  0.00    -0.648 OA
BRANCH  18  20
ATOM     20  O   UNL d   1       7.479   0.180   0.091  0.00  0.00    -0.775 OA
ATOM     21  H   UNL d   1       6.661   0.624   0.399  0.00  0.00     0.167 HD
ENDBRANCH  18  20
ENDBRANCH  17  18
ENDBRANCH  16  17
ENDBRANCH  10  16
TORSDOF 4
