REMARK  5 active torsions:
REMARK  status: ('A' for Active; 'I' for Inactive)
REMARK       I    between atoms: N_2  and  C_1 
REMARK    1  A    between atoms: O_4  and  C_1 
REMARK       I    between atoms: C_3  and  N_6 
REMARK       I    between atoms: N_5  and  C_3 
REMARK    2  A    between atoms: C_11  and  O_4 
REMARK    3  A    between atoms: C_12  and  N_5 
REMARK    4  A    between atoms: N_6  and  C_13 
REMARK    5  A    between atoms: C_13  and  C_16 
ROOT
ATOM      1  C   UNL d   1       0.858  -0.022   0.050  0.00  0.00     0.363 C 
ATOM      2  N   UNL d   1       0.242  -0.642  -1.022  0.00  0.00    -0.328 N 
ATOM      3  O   UNL d   1       1.735  -0.562   0.710  0.00  0.00    -0.238 OA
ATOM      4  C   UNL d   1       0.527  -2.042  -1.298  0.00  0.00     0.128 C 
ATOM      5  C   UNL d   1      -0.784  -0.049  -1.870  0.00  0.00     0.128 C 
ATOM      6  C   UNL d   1      -2.094  -0.828  -1.730  0.00  0.00     0.026 C 
ATOM      7  C   UNL d   1      -0.738  -2.879  -1.105  0.00  0.00     0.026 C 
ATOM      8  C   UNL d   1      -1.935  -2.354  -1.931  0.00  0.00     0.006 C 
ENDROOT
BRANCH   8   9
ATOM      9  C   UNL d   1      -1.794  -2.804  -3.399  0.00  0.00     0.129 C 
BRANCH   9  10
ATOM     10  N   UNL d   1      -2.946  -2.494  -4.229  0.00  0.00    -0.342 N 
ATOM     11  C   UNL d   1      -2.939  -1.403  -5.068  0.00  0.00     0.320 C 
ATOM     12  N   UNL d   1      -4.075  -1.334  -5.845  0.00  0.00    -0.309 N 
ATOM     13  O   UNL d   1      -2.006  -0.610  -5.069  0.00  0.00    -0.247 OA
ATOM     14  H   UNL d   1      -4.720  -2.104  -5.777  0.00  0.00     0.170 HD
ATOM     15  H   UNL d   1      -3.715  -3.146  -4.255  0.00  0.00     0.164 HD
BRANCH  12  16
ATOM     16  C   UNL d   1      -4.432  -0.287  -6.724  0.00  0.00     0.036 A 
ATOM     17  C   UNL d   1      -3.668   0.870  -6.903  0.00  0.00     0.029 A 
ATOM     18  C   UNL d   1      -4.118   1.907  -7.727  0.00  0.00     0.002 A 
ATOM     19  C   UNL d   1      -5.333   1.792  -8.393  0.00  0.00     0.000 A 
ATOM     20  C   UNL d   1      -6.088   0.631  -8.254  0.00  0.00     0.002 A 
ATOM     21  C   UNL d   1      -5.639  -0.405  -7.426  0.00  0.00     0.029 A 
ENDBRANCH  12  16
ENDBRANCH   9  10
ENDBRANCH   8   9
BRANCH   1  22
ATOM     22  O   UNL d   1       0.390   1.238   0.301  0.00  0.00    -0.294 OA
BRANCH  22  23
ATOM     23  C   UNL d   1       0.985   2.037   1.365  0.00  0.00     0.061 C 
ATOM     24  C   UNL d   1       2.439   2.395   1.029  0.00  0.00     0.046 C 
ATOM     25  C   UNL d   1       0.170   3.341   1.415  0.00  0.00     0.046 C 
ATOM     26  C   UNL d   1       0.870   1.366   2.742  0.00  0.00     0.046 C 
ENDBRANCH  22  23
ENDBRANCH   1  22
TORSDOF 5
