REMARK  6 active torsions:
REMARK  status: ('A' for Active; 'I' for Inactive)
REMARK    1  A    between atoms: C_3  and  C_1 
REMARK    2  A    between atoms: C_2  and  C_10 
REMARK       I    between atoms: N_8  and  C_3 
REMARK    3  A    between atoms: O_15  and  C_4 
REMARK       I    between atoms: C_6  and  N_9 
REMARK    4  A    between atoms: C_13  and  C_6 
REMARK    5  A    between atoms: N_9  and  N_8 
REMARK    6  A    between atoms: C_12  and  O_15 
ROOT
ATOM      1  C   UNL d   1      -0.680   2.559   0.088  0.00  0.00     0.293 C 
ATOM      2  N   UNL d   1      -2.055   2.681   0.124  0.00  0.00    -0.261 N 
ATOM      3  O   UNL d   1       0.041   3.556   0.184  0.00  0.00    -0.264 OA
ATOM      4  H   UNL d   1      -2.691   1.899  -0.027  0.00  0.00     0.190 HD
ENDROOT
BRANCH   1   5
ATOM      5  C   UNL d   1      -0.158   1.218  -0.039  0.00  0.00     0.147 A 
ATOM      6  O   UNL d   1      -0.985   0.126   0.042  0.00  0.00    -0.282 OA
ATOM      7  C   UNL d   1      -0.189  -0.984  -0.011  0.00  0.00     0.191 A 
ATOM      8  C   UNL d   1       1.127  -0.617  -0.199  0.00  0.00     0.067 A 
ATOM      9  C   UNL d   1       1.150   0.794  -0.194  0.00  0.00     0.048 A 
BRANCH   7  10
ATOM     10  O   UNL d   1      -0.842  -2.137   0.140  0.00  0.00    -0.288 OA
BRANCH  10  11
ATOM     11  C   UNL d   1      -0.180  -3.254   0.600  0.00  0.00     0.081 A 
ATOM     12  C   UNL d   1       0.704  -3.207   1.682  0.00  0.00     0.061 A 
ATOM     13  C   UNL d   1       1.329  -4.375   2.117  0.00  0.00     0.038 A 
ATOM     14 CL   UNL d   1       2.447  -4.304   3.423  0.00  0.00    -0.084 Cl
ATOM     15  C   UNL d   1       1.057  -5.596   1.506  0.00  0.00     0.048 A 
ATOM     16  C   UNL d   1       0.145  -5.640   0.451  0.00  0.00     0.038 A 
ATOM     17  C   UNL d   1      -0.478  -4.476  -0.004  0.00  0.00     0.061 A 
ATOM     18 CL   UNL d   1      -0.215  -7.149  -0.292  0.00  0.00    -0.084 Cl
ENDBRANCH  10  11
ENDBRANCH   7  10
ENDBRANCH   1   5
BRANCH   2  19
ATOM     19  N   UNL d   1      -2.600   3.960   0.326  0.00  0.00    -0.263 N 
ATOM     20  C   UNL d   1      -3.830   4.265  -0.221  0.00  0.00     0.270 C 
ATOM     21  O   UNL d   1      -4.538   3.450  -0.801  0.00  0.00    -0.266 OA
ATOM     22  H   UNL d   1      -1.916   4.692   0.523  0.00  0.00     0.190 HD
BRANCH  20  23
ATOM     23  C   UNL d   1      -4.259   5.687  -0.081  0.00  0.00     0.034 A 
ATOM     24  C   UNL d   1      -5.076   6.253  -1.070  0.00  0.00     0.033 A 
ATOM     25  C   UNL d   1      -5.506   7.588  -0.963  0.00  0.00     0.048 A 
ATOM     26  C   UNL d   1      -5.119   8.339   0.158  0.00  0.00     0.016 A 
ATOM     27  C   UNL d   1      -4.319   7.774   1.152  0.00  0.00     0.002 A 
ATOM     28  C   UNL d   1      -3.889   6.452   1.034  0.00  0.00     0.017 A 
BRANCH  25  29
ATOM     29  C   UNL d   1      -6.372   8.224  -2.025  0.00  0.00     0.417 C 
ATOM     30  F   UNL d   1      -6.649   7.402  -3.072  0.00  0.00    -0.166 F 
ATOM     31  F   UNL d   1      -7.575   8.632  -1.536  0.00  0.00    -0.166 F 
ATOM     32  F   UNL d   1      -5.793   9.333  -2.564  0.00  0.00    -0.166 F 
ENDBRANCH  25  29
ENDBRANCH  20  23
ENDBRANCH   2  19
TORSDOF 6
