REMARK  3 active torsions:
REMARK  status: ('A' for Active; 'I' for Inactive)
REMARK    1  A    between atoms: C_9  and  C_1 
REMARK    2  A    between atoms: C_3  and  C_2 
REMARK    3  A    between atoms: O_17  and  C_14 
ROOT
ATOM      1  C   UNL d   1       1.004   0.041   0.023  0.00  0.00     0.055 C 
ATOM      2  C   UNL d   1       2.188  -0.138   0.657  0.00  0.00     0.038 C 
ATOM      3  C   UNL d   1       0.349  -1.062  -0.617  0.00  0.00     0.100 C 
ATOM      4  N   UNL d   1      -0.202  -1.946  -1.131  0.00  0.00    -0.191 NA
ENDROOT
BRANCH   1   5
ATOM      5  C   UNL d   1       0.309   1.361   0.033  0.00  0.00    -0.015 A 
ATOM      6  C   UNL d   1       1.011   2.580   0.064  0.00  0.00     0.015 A 
ATOM      7  C   UNL d   1       0.338   3.813   0.056  0.00  0.00     0.037 A 
ATOM      8  C   UNL d   1      -1.052   3.854  -0.001  0.00  0.00     0.068 A 
ATOM      9  C   UNL d   1      -1.762   2.659  -0.068  0.00  0.00     0.037 A 
ATOM     10  C   UNL d   1      -1.093   1.429  -0.040  0.00  0.00     0.015 A 
BRANCH   8  11
ATOM     11  O   UNL d   1      -1.815   4.987  -0.046  0.00  0.00    -0.356 OA
ATOM     12  C   UNL d   1      -1.252   6.145   0.555  0.00  0.00     0.210 C 
ENDBRANCH   8  11
ENDBRANCH   1   5
BRANCH   2  13
ATOM     13  C   UNL d   1       2.970  -1.331   0.752  0.00  0.00    -0.001 A 
ATOM     14  C   UNL d   1       3.078  -2.355  -0.162  0.00  0.00     0.120 A 
ATOM     15  N   UNL d   1       3.909  -3.282   0.400  0.00  0.00    -0.311 N 
ATOM     16  N   UNL d   1       4.416  -2.894   1.583  0.00  0.00    -0.311 N 
ATOM     17  H   UNL d   1       4.177  -4.188   0.031  0.00  0.00     0.186 HD
ATOM     18  C   UNL d   1       3.844  -1.705   1.796  0.00  0.00     0.120 A 
ATOM     19  HN  UNL d   1       5.080  -3.390   2.178  1.00  0.00     0.186 HD
ENDBRANCH   2  13
TORSDOF 3
