REMARK  3 active torsions:
REMARK  status: ('A' for Active; 'I' for Inactive)
REMARK    1  A    between atoms: C_2  and  C_1 
REMARK    2  A    between atoms: O_4  and  C_1 
REMARK    3  A    between atoms: C_11  and  O_4 
ROOT
ATOM      1  C   UNL d   1       0.222   0.620  -1.056  0.00  0.00     0.040 A 
ATOM      2  C   UNL d   1      -0.953   1.361  -0.847  0.00  0.00     0.027 A 
ATOM      3  C   UNL d   1      -1.665   1.785  -1.960  0.00  0.00    -0.022 A 
ATOM      4  C   UNL d   1      -1.217   1.514  -3.244  0.00  0.00     0.075 A 
ATOM      5  O   UNL d   1      -2.036   2.000  -4.229  0.00  0.00    -0.350 OA
ATOM      6  C   UNL d   1       0.671   0.367  -2.374  0.00  0.00     0.020 A 
ATOM      7  C   UNL d   1      -0.049   0.824  -3.481  0.00  0.00     0.038 A 
ATOM      8  C   UNL d   1      -3.248   2.345  -3.517  0.00  0.00     0.180 C 
ATOM      9  C   UNL d   1      -2.908   2.586  -2.045  0.00  0.00     0.068 C 
ENDROOT
BRANCH   1  10
ATOM     10  C   UNL d   1       1.019   0.029   0.056  0.00  0.00     0.298 C 
ATOM     11  O   UNL d   1       2.028  -0.630  -0.144  0.00  0.00    -0.259 OA
BRANCH  10  12
ATOM     12  O   UNL d   1       0.416   0.292   1.278  0.00  0.00    -0.275 OA
BRANCH  12  13
ATOM     13  C   UNL d   1       0.878  -0.320   2.464  0.00  0.00     0.079 A 
ATOM     14  C   UNL d   1       2.216  -0.618   2.716  0.00  0.00     0.037 A 
ATOM     15  C   UNL d   1       2.567  -1.250   3.911  0.00  0.00     0.003 A 
ATOM     16  C   UNL d   1       1.589  -1.554   4.859  0.00  0.00     0.000 A 
ATOM     17  C   UNL d   1       0.257  -1.218   4.619  0.00  0.00     0.003 A 
ATOM     18  C   UNL d   1      -0.101  -0.596   3.421  0.00  0.00     0.037 A 
ENDBRANCH  12  13
ENDBRANCH  10  12
ENDBRANCH   1  10
TORSDOF 3
