REMARK  3 active torsions:
REMARK  status: ('A' for Active; 'I' for Inactive)
REMARK    1  A    between atoms: C_2  and  N_1 
REMARK    2  A    between atoms: C_13  and  C_11 
REMARK    3  A    between atoms: O_12  and  C_13 
ROOT
ATOM      1  C   UNL d   1      -0.691  -2.473   0.009  0.00  0.00     0.038 A 
ATOM      2  C   UNL d   1      -1.576  -2.951  -0.967  0.00  0.00     0.030 A 
ATOM      3  C   UNL d   1      -0.189  -3.375   0.958  0.00  0.00     0.030 A 
ATOM      4  C   UNL d   1      -0.567  -4.724   0.929  0.00  0.00     0.011 A 
ATOM      5  C   UNL d   1      -1.948  -4.301  -0.992  0.00  0.00     0.011 A 
ATOM      6  C   UNL d   1      -1.458  -5.201  -0.038  0.00  0.00    -0.035 A 
ENDROOT
BRANCH   1   7
ATOM      7  N   UNL d   1      -0.297  -1.098   0.031  0.00  0.00    -0.333 N 
ATOM      8  C   UNL d   1      -0.742  -0.094  -0.812  0.00  0.00     0.096 A 
ATOM      9  C   UNL d   1      -0.118   1.091  -0.489  0.00  0.00     0.019 A 
ATOM     10  C   UNL d   1       0.741   0.826   0.593  0.00  0.00     0.019 A 
ATOM     11  C   UNL d   1       0.610  -0.511   0.898  0.00  0.00     0.096 A 
ENDBRANCH   1   7
BRANCH   6  12
ATOM     12  C   UNL d   1      -1.810  -6.664  -0.076  0.00  0.00     0.202 C 
BRANCH  12  13
ATOM     13  O   UNL d   1      -3.114  -6.865  -0.605  0.00  0.00    -0.396 OA
ATOM     14  H   UNL d   1      -3.298  -7.817  -0.535  0.00  0.00     0.209 HD
ENDBRANCH  12  13
ENDBRANCH   6  12
TORSDOF 3
