REMARK  3 active torsions:
REMARK  status: ('A' for Active; 'I' for Inactive)
REMARK    1  A    between atoms: C_5  and  C_1 
REMARK    2  A    between atoms: S_7  and  C_2 
REMARK    3  A    between atoms: N_8  and  C_2 
ROOT
ATOM      1  C   UNL d   1       0.096   0.472   0.034  0.00  0.00     0.117 C 
ATOM      2  C   UNL d   1       1.060  -0.479  -0.085  0.00  0.00     0.067 C 
ATOM      3  C   UNL d   1      -1.286   0.165   0.175  0.00  0.00     0.105 C 
ATOM      4  N   UNL d   1      -2.426  -0.036   0.276  0.00  0.00    -0.191 NA
ENDROOT
BRANCH   1   5
ATOM      5  C   UNL d   1       0.482   1.924   0.018  0.00  0.00     0.168 C 
ATOM      6  O   UNL d   1       1.624   2.280   0.328  0.00  0.00    -0.292 OA
ATOM      7  C   UNL d   1      -0.537   2.968  -0.384  0.00  0.00     0.097 C 
ENDBRANCH   1   5
BRANCH   2   8
ATOM      8  S   UNL d   1       0.600  -2.188   0.011  0.00  0.00    -0.121 SA
ATOM      9  C   UNL d   1       1.172  -2.758  -1.609  0.00  0.00     0.097 C 
ENDBRANCH   2   8
BRANCH   2  10
ATOM     10  N   UNL d   1       2.413  -0.209  -0.242  0.00  0.00    -0.296 NA
ATOM     11  H   UNL d   1       2.660   0.739   0.071  0.00  0.00     0.124 HD
ATOM     12  H   UNL d   1       2.983  -0.914   0.218  0.00  0.00     0.124 HD
ENDBRANCH   2  10
TORSDOF 3
