REMARK  2 active torsions:
REMARK  status: ('A' for Active; 'I' for Inactive)
REMARK    1  A    between atoms: C_6  and  C_2 
REMARK    2  A    between atoms: C_9  and  C_3 
ROOT
ATOM      1  O   UNL d   1      -0.962   0.101   0.021  0.00  0.00    -0.306 OA
ATOM      2  C   UNL d   1      -0.075   1.140  -0.012  0.00  0.00     0.086 A 
ATOM      3  C   UNL d   1      -0.247  -1.064   0.042  0.00  0.00     0.121 A 
ATOM      4  C   UNL d   1       1.212   0.641   0.013  0.00  0.00     0.041 A 
ATOM      5  C   UNL d   1       1.102  -0.771   0.038  0.00  0.00     0.044 A 
ENDROOT
BRANCH   2   6
ATOM      6  C   UNL d   1      -0.651   2.480  -0.110  0.00  0.00    -0.001 A 
ATOM      7  C   UNL d   1       0.182   3.610  -0.142  0.00  0.00     0.041 A 
ATOM      8  C   UNL d   1      -0.358   4.886  -0.326  0.00  0.00     0.073 A 
ATOM      9 CL   UNL d   1       0.697   6.245  -0.398  0.00  0.00    -0.081 Cl
ATOM     10  C   UNL d   1      -1.733   5.047  -0.466  0.00  0.00     0.138 A 
ATOM     11  C   UNL d   1      -2.578   3.946  -0.408  0.00  0.00     0.045 A 
ATOM     12  F   UNL d   1      -2.266   6.260  -0.669  0.00  0.00    -0.204 F 
ATOM     13  C   UNL d   1      -2.039   2.669  -0.228  0.00  0.00     0.017 A 
ENDBRANCH   2   6
BRANCH   3  14
ATOM     14  C   UNL d   1      -0.934  -2.338   0.047  0.00  0.00     0.179 C 
ATOM     15  O   UNL d   1      -0.332  -3.413   0.035  0.00  0.00    -0.291 OA
ATOM     16  C   UNL d   1      -2.444  -2.335   0.060  0.00  0.00     0.099 C 
ENDBRANCH   3  14
TORSDOF 2
