REMARK  6 active torsions:
REMARK  status: ('A' for Active; 'I' for Inactive)
REMARK    1  A    between atoms: C_13  and  C_1 
REMARK    2  A    between atoms: C_8  and  C_11 
REMARK    3  A    between atoms: O_17  and  C_8 
REMARK    4  A    between atoms: O_10  and  C_12 
REMARK    5  A    between atoms: C_11  and  O_10 
REMARK    6  A    between atoms: C_21  and  O_17 
ROOT
ATOM      1  C   UNL d   1      -0.481  -1.834  -0.059  0.00  0.00    -0.007 C 
ATOM      2  C   UNL d   1       0.302   0.496  -0.307  0.00  0.00     0.093 A 
ATOM      3  C   UNL d   1       0.608  -0.848  -0.111  0.00  0.00     0.009 A 
ATOM      4  O   UNL d   1      -1.032   0.932  -0.397  0.00  0.00    -0.275 OA
ATOM      5  C   UNL d   1      -2.073   0.058  -0.130  0.00  0.00     0.289 C 
ATOM      6  C   UNL d   1      -1.742  -1.374  -0.044  0.00  0.00     0.095 C 
ATOM      7  C   UNL d   1       1.287   1.484  -0.362  0.00  0.00     0.075 A 
ATOM      8  C   UNL d   1       1.954  -1.200   0.036  0.00  0.00     0.018 A 
ATOM      9  C   UNL d   1       2.614   1.130  -0.131  0.00  0.00     0.072 A 
ATOM     10  O   UNL d   1      -3.231   0.442  -0.013  0.00  0.00    -0.260 OA
ATOM     11  C   UNL d   1       2.946  -0.216   0.036  0.00  0.00     0.038 A 
ENDROOT
BRANCH   9  12
ATOM     12  O   UNL d   1       3.664   2.001  -0.031  0.00  0.00    -0.336 OA
BRANCH  12  13
ATOM     13  C   UNL d   1       3.362   3.319   0.436  0.00  0.00     0.224 C 
ATOM     14  C   UNL d   1       4.681   4.079   0.486  0.00  0.00     0.051 C 
BRANCH  13  15
ATOM     15  C   UNL d   1       2.700   3.390   1.825  0.00  0.00     0.288 C 
ATOM     16  O   UNL d   1       2.770   2.541   2.696  0.00  0.00    -0.262 OA
BRANCH  15  17
ATOM     17  O   UNL d   1       1.938   4.526   1.891  0.00  0.00    -0.320 OA
BRANCH  17  18
ATOM     18  C   UNL d   1       0.907   4.519   2.889  0.00  0.00     0.174 C 
ATOM     19  C   UNL d   1      -0.321   3.852   2.295  0.00  0.00     0.034 C 
ENDBRANCH  17  18
ENDBRANCH  15  17
ENDBRANCH  13  15
ENDBRANCH  12  13
ENDBRANCH   9  12
BRANCH   1  20
ATOM     20  C   UNL d   1      -0.285  -3.296  -0.065  0.00  0.00    -0.025 A 
ATOM     21  C   UNL d   1      -0.223  -3.971  -1.291  0.00  0.00     0.012 A 
ATOM     22  C   UNL d   1       0.092  -5.329  -1.332  0.00  0.00     0.001 A 
ATOM     23  C   UNL d   1       0.346  -6.019  -0.148  0.00  0.00     0.000 A 
ATOM     24  C   UNL d   1       0.261  -5.359   1.078  0.00  0.00     0.001 A 
ATOM     25  C   UNL d   1      -0.060  -4.001   1.123  0.00  0.00     0.012 A 
ENDBRANCH   1  20
TORSDOF 6
