REMARK  3 active torsions:
REMARK  status: ('A' for Active; 'I' for Inactive)
REMARK    1  A    between atoms: N_7  and  N_1 
REMARK    2  A    between atoms: C_8  and  C_3 
REMARK       I    between atoms: C_6  and  N_7 
REMARK    3  A    between atoms: C_9  and  C_6 
ROOT
ATOM      1  N   UNL d   1      -2.347   1.613  -2.929  0.00  0.00    -0.197 NA
ATOM      2  C   UNL d   1      -1.202   1.707  -3.089  0.00  0.00     0.068 C 
ATOM      3  C   UNL d   1       0.255   1.774  -3.204  0.00  0.00     0.228 C 
ENDROOT
BRANCH   3   4
ATOM      4  C   UNL d   1       1.007   1.100  -2.057  0.00  0.00     0.249 C 
ATOM      5  N   UNL d   1       0.247   0.510  -1.054  0.00  0.00    -0.269 N 
ATOM      6  H   UNL d   1      -0.763   0.539  -1.102  0.00  0.00     0.190 HD
ATOM      7  O   UNL d   1       2.240   1.106  -2.067  0.00  0.00    -0.271 OA
BRANCH   5   8
ATOM      8  N   UNL d   1       0.842  -0.119   0.018  0.00  0.00    -0.299 N 
ATOM      9  C   UNL d   1       0.092  -0.659   0.938  0.00  0.00     0.067 C 
ATOM     10  C   UNL d   1      -1.420  -0.677   0.968  0.00  0.00     0.074 C 
ATOM     11  HN  UNL d   1       1.858  -0.162   0.090  1.00  0.00     0.186 HD
BRANCH   9  12
ATOM     12  C   UNL d   1       0.716  -1.374   2.153  0.00  0.00     0.169 C 
ATOM     13  O   UNL d   1      -0.051  -1.859   2.981  0.00  0.00    -0.292 OA
ATOM     14  C   UNL d   1       2.199  -1.472   2.320  0.00  0.00     0.098 C 
ENDBRANCH   9  12
ENDBRANCH   5   8
ENDBRANCH   3   4
TORSDOF 3
