REMARK  6 active torsions:
REMARK  status: ('A' for Active; 'I' for Inactive)
REMARK    1  A    between atoms: C_4  and  N_1 
REMARK    2  A    between atoms: C_2  and  C_3 
REMARK    3  A    between atoms: C_5  and  C_2 
REMARK    4  A    between atoms: C_3  and  C_6 
REMARK    5  A    between atoms: O_12  and  C_5 
REMARK    6  A    between atoms: C_16  and  O_12 
ROOT
ATOM      1  C   UNL d   1       0.429  -0.961   0.910  0.00  0.00     0.103 A 
ATOM      2  C   UNL d   1      -0.144  -1.549   3.196  0.00  0.00     0.013 A 
ATOM      3  C   UNL d   1       0.776  -1.042   2.265  0.00  0.00     0.051 A 
ATOM      4  C   UNL d   1      -0.834  -1.376   0.471  0.00  0.00     0.036 A 
ATOM      5  C   UNL d   1      -1.395  -1.993   2.745  0.00  0.00     0.015 A 
ATOM      6  C   UNL d   1      -1.741  -1.895   1.393  0.00  0.00     0.003 A 
ENDROOT
BRANCH   2   7
ATOM      7  C   UNL d   1       0.267  -1.588   4.638  0.00  0.00     0.168 C 
ATOM      8  O   UNL d   1       1.391  -1.187   4.942  0.00  0.00    -0.292 OA
BRANCH   7   9
ATOM      9  C   UNL d   1      -0.636  -2.182   5.687  0.00  0.00     0.195 C 
BRANCH   9  10
ATOM     10  C   UNL d   1      -1.909  -1.431   5.941  0.00  0.00     0.266 C 
ATOM     11  O   UNL d   1      -2.308  -0.468   5.302  0.00  0.00    -0.265 OA
BRANCH  10  12
ATOM     12  O   UNL d   1      -2.595  -2.038   6.952  0.00  0.00    -0.322 OA
BRANCH  12  13
ATOM     13  C   UNL d   1      -3.905  -1.521   7.231  0.00  0.00     0.174 C 
ATOM     14  C   UNL d   1      -3.829  -0.292   8.117  0.00  0.00     0.034 C 
ENDBRANCH  12  13
ENDBRANCH  10  12
ENDBRANCH   9  10
ENDBRANCH   7   9
ENDBRANCH   2   7
BRANCH   1  15
ATOM     15  N   UNL d   1       1.398  -0.438  -0.062  0.00  0.00    -0.116 N 
ATOM     16  O   UNL d   1       2.541  -0.185   0.340  0.00  0.00    -0.532 OA
ATOM     17  O   UNL d   1       1.015  -0.292  -1.232  0.00  0.00    -0.532 OA
ENDBRANCH   1  15
TORSDOF 6
