REMARK  7 active torsions:
REMARK  status: ('A' for Active; 'I' for Inactive)
REMARK    1  A    between atoms: C_3  and  S_1 
REMARK    2  A    between atoms: N_10  and  S_1 
REMARK    3  A    between atoms: C_11  and  C_2 
REMARK    4  A    between atoms: C_8  and  C_12 
REMARK    5  A    between atoms: C_25  and  N_15 
REMARK    6  A    between atoms: C_27  and  C_25 
REMARK    7  A    between atoms: C_28  and  C_27 
ROOT
ATOM      1  S   UNL d   1       1.335  -0.090   0.241  0.00  0.00     0.250 S 
ATOM      2  O   UNL d   1       1.307   1.017   1.170  0.00  0.00    -0.205 OA
ATOM      3  O   UNL d   1       0.890  -1.415   0.622  0.00  0.00    -0.205 OA
ENDROOT
BRANCH   1   4
ATOM      4  C   UNL d   1       3.061  -0.286  -0.154  0.00  0.00     0.116 A 
ATOM      5  S   UNL d   1       3.419  -1.431  -1.371  0.00  0.00    -0.075 SA
ATOM      6  C   UNL d   1       5.085  -1.046  -1.348  0.00  0.00     0.034 A 
ATOM      7  C   UNL d   1       5.378  -0.115  -0.372  0.00  0.00     0.023 A 
ATOM      8  C   UNL d   1       4.209   0.316   0.327  0.00  0.00     0.034 A 
BRANCH   6   9
ATOM      9  C   UNL d   1       6.085  -1.638  -2.296  0.00  0.00     0.067 A 
ATOM     10  C   UNL d   1       5.814  -2.614  -3.279  0.00  0.00     0.068 A 
ATOM     11  C   UNL d   1       7.005  -2.814  -3.947  0.00  0.00     0.136 A 
ATOM     12  N   UNL d   1       7.912  -2.005  -3.322  0.00  0.00    -0.292 N 
ATOM     13  N   UNL d   1       7.373  -1.270  -2.325  0.00  0.00    -0.297 N 
ATOM     14  C   UNL d   1       9.332  -1.893  -3.580  0.00  0.00     0.178 C 
ATOM     15  HN  UNL d   1       7.841  -0.587  -1.728  1.00  0.00     0.187 HD
BRANCH  11  16
ATOM     16  C   UNL d   1       7.311  -3.699  -5.085  0.00  0.00     0.434 C 
ATOM     17  F   UNL d   1       8.592  -3.604  -5.519  0.00  0.00    -0.165 F 
ATOM     18  F   UNL d   1       7.102  -5.001  -4.768  0.00  0.00    -0.165 F 
ATOM     19  F   UNL d   1       6.518  -3.423  -6.151  0.00  0.00    -0.165 F 
ENDBRANCH  11  16
ENDBRANCH   6   9
ENDBRANCH   1   4
BRANCH   1  20
ATOM     20  N   UNL d   1       0.550   0.372  -1.205  0.00  0.00    -0.203 NA
ATOM     21  C   UNL d   1       0.480   1.839  -1.477  0.00  0.00     0.138 C 
ATOM     22  C   UNL d   1      -0.701   2.497  -0.719  0.00  0.00     0.287 C 
ATOM     23  N   UNL d   1      -2.022   1.851  -0.924  0.00  0.00     0.091 N 
ATOM     24  C   UNL d   1      -1.889   0.395  -0.684  0.00  0.00     0.287 C 
ATOM     25  C   UNL d   1      -0.759  -0.282  -1.479  0.00  0.00     0.138 C 
BRANCH  23  26
ATOM     26  C   UNL d   1      -2.589   2.192  -2.242  0.00  0.00     0.277 C 
BRANCH  26  27
ATOM     27  C   UNL d   1      -4.040   1.709  -2.421  0.00  0.00     0.068 C 
BRANCH  27  28
ATOM     28  C   UNL d   1      -4.618   2.116  -3.755  0.00  0.00    -0.057 A 
ATOM     29  C   UNL d   1      -4.462   1.290  -4.878  0.00  0.00     0.007 A 
ATOM     30  C   UNL d   1      -5.013   1.663  -6.105  0.00  0.00     0.001 A 
ATOM     31  C   UNL d   1      -5.718   2.859  -6.221  0.00  0.00     0.000 A 
ATOM     32  C   UNL d   1      -5.866   3.690  -5.109  0.00  0.00     0.001 A 
ATOM     33  C   UNL d   1      -5.318   3.321  -3.883  0.00  0.00     0.007 A 
ENDBRANCH  27  28
ENDBRANCH  26  27
ENDBRANCH  23  26
ENDBRANCH   1  20
TORSDOF 7
