REMARK  6 active torsions:
REMARK  status: ('A' for Active; 'I' for Inactive)
REMARK    1  A    between atoms: C_8  and  N_1 
REMARK    2  A    between atoms: S_7  and  C_2 
REMARK    3  A    between atoms: C_11  and  S_7 
REMARK    4  A    between atoms: C_9  and  C_11 
REMARK    5  A    between atoms: C_18  and  C_9 
REMARK    6  A    between atoms: N_12  and  C_10 
ROOT
ATOM      1  N   UNL d   1      -0.070  -1.375  -0.043  0.00  0.00    -0.219 N 
ATOM      2  C   UNL d   1       1.143  -0.746   0.191  0.00  0.00     0.177 C 
ATOM      3  N   UNL d   1       0.976   0.557   0.124  0.00  0.00    -0.264 N 
ATOM      4  HN  UNL d   1       1.678   1.277   0.294  1.00  0.00     0.186 HD
ATOM      5  N   UNL d   1      -0.336   0.747  -0.224  0.00  0.00    -0.006 NA
ATOM      6  N   UNL d   1      -0.960  -0.410  -0.397  0.00  0.00     0.001 NA
ENDROOT
BRANCH   2   7
ATOM      7  S   UNL d   1       2.685  -1.543   0.227  0.00  0.00    -0.084 SA
BRANCH   7   8
ATOM      8  C   UNL d   1       3.658  -0.394   1.230  0.00  0.00     0.166 C 
BRANCH   8   9
ATOM      9  C   UNL d   1       3.244  -0.389   2.692  0.00  0.00     0.169 C 
ATOM     10  O   UNL d   1       2.279  -1.017   3.130  0.00  0.00    -0.291 OA
BRANCH   9  11
ATOM     11  C   UNL d   1       4.076   0.417   3.643  0.00  0.00     0.010 A 
ATOM     12  C   UNL d   1       5.261   1.056   3.250  0.00  0.00     0.015 A 
ATOM     13  C   UNL d   1       6.017   1.774   4.182  0.00  0.00     0.001 A 
ATOM     14  C   UNL d   1       5.595   1.866   5.505  0.00  0.00     0.000 A 
ATOM     15  C   UNL d   1       4.414   1.242   5.904  0.00  0.00     0.001 A 
ATOM     16  C   UNL d   1       3.658   0.519   4.977  0.00  0.00     0.015 A 
ENDBRANCH   9  11
ENDBRANCH   8   9
ENDBRANCH   7   8
ENDBRANCH   2   7
BRANCH   1  17
ATOM     17  C   UNL d   1      -0.442  -2.740   0.003  0.00  0.00     0.057 A 
ATOM     18  C   UNL d   1       0.216  -3.637   0.843  0.00  0.00     0.033 A 
ATOM     19  C   UNL d   1      -0.137  -4.992   0.835  0.00  0.00     0.031 A 
ATOM     20  C   UNL d   1      -1.131  -5.507  -0.013  0.00  0.00     0.029 A 
ATOM     21  C   UNL d   1      -1.820  -4.571  -0.801  0.00  0.00     0.031 A 
ATOM     22  C   UNL d   1      -1.496  -3.203  -0.788  0.00  0.00     0.033 A 
BRANCH  20  23
ATOM     23  N   UNL d   1      -1.438  -6.867   0.008  0.00  0.00    -0.390 N 
ATOM     24  C   UNL d   1      -0.327  -7.824   0.031  0.00  0.00     0.149 C 
ATOM     25  C   UNL d   1      -2.637  -7.359  -0.665  0.00  0.00     0.149 C 
ENDBRANCH  20  23
ENDBRANCH   1  17
TORSDOF 6
