REMARK  3 active torsions:
REMARK  status: ('A' for Active; 'I' for Inactive)
REMARK    1  A    between atoms: C_6  and  C_1 
REMARK    2  A    between atoms: C_8  and  C_2 
REMARK    3  A    between atoms: O_15  and  C_8 
ROOT
ATOM      1  C   UNL d   1      -1.301  -0.894  -0.043  0.00  0.00     0.152 A 
ATOM      2  C   UNL d   1       0.011  -1.345  -0.026  0.00  0.00     0.102 A 
ATOM      3  O   UNL d   1      -1.277   0.471  -0.132  0.00  0.00    -0.234 OA
ATOM      4  N   UNL d   1       0.019   0.932  -0.112  0.00  0.00    -0.264 N 
ATOM      5  HN  UNL d   1       0.327   1.903  -0.150  1.00  0.00     0.194 HD
ATOM      6  C   UNL d   1       0.793  -0.156  -0.033  0.00  0.00     0.048 A 
ATOM      7  C   UNL d   1       2.266   0.014  -0.004  0.00  0.00     0.071 C 
ENDROOT
BRANCH   1   8
ATOM      8  C   UNL d   1      -2.538  -1.609   0.043  0.00  0.00     0.137 A 
ATOM      9  O   UNL d   1      -2.675  -2.804   0.701  0.00  0.00    -0.235 OA
ATOM     10  N   UNL d   1      -3.983  -3.245   0.621  0.00  0.00    -0.272 N 
ATOM     11  C   UNL d   1      -4.628  -2.307  -0.072  0.00  0.00     0.117 A 
ATOM     12  HN  UNL d   1      -4.372  -4.105   1.009  1.00  0.00     0.194 HD
ATOM     13  C   UNL d   1      -3.776  -1.256  -0.450  0.00  0.00     0.061 A 
ENDBRANCH   1   8
BRANCH   2  14
ATOM     14  C   UNL d   1       0.472  -2.716  -0.007  0.00  0.00     0.297 C 
ATOM     15  O   UNL d   1       1.548  -3.055   0.467  0.00  0.00    -0.259 OA
BRANCH  14  16
ATOM     16  O   UNL d   1      -0.395  -3.567  -0.624  0.00  0.00    -0.322 OA
ATOM     17  C   UNL d   1      -0.018  -4.942  -0.590  0.00  0.00     0.213 C 
ENDBRANCH  14  16
ENDBRANCH   2  14
TORSDOF 3
