REMARK  4 active torsions:
REMARK  status: ('A' for Active; 'I' for Inactive)
REMARK    1  A    between atoms: C_8  and  C_1 
REMARK    2  A    between atoms: C_9  and  N_4 
REMARK    3  A    between atoms: O_13  and  C_6 
REMARK    4  A    between atoms: O_15  and  C_8 
ROOT
ATOM      1  C   UNL d   1      -0.708   1.193  -0.049  0.00  0.00     0.177 A 
ATOM      2  N   UNL d   1      -1.380   0.071  -0.058  0.00  0.00    -0.285 N 
ATOM      3  HN  UNL d   1      -2.400   0.070  -0.074  1.00  0.00     0.188 HD
ATOM      4  N   UNL d   1      -0.671  -1.106  -0.047  0.00  0.00    -0.264 N 
ATOM      5  C   UNL d   1       0.798   1.230  -0.070  0.00  0.00     0.240 A 
ATOM      6  C   UNL d   1       1.518  -0.064  -0.017  0.00  0.00     0.138 A 
ATOM      7  C   UNL d   1       0.711  -1.133  -0.023  0.00  0.00     0.157 A 
ATOM      8  O   UNL d   1       1.380   2.304  -0.169  0.00  0.00    -0.283 OA
ENDROOT
BRANCH   4   9
ATOM      9  C   UNL d   1      -1.466  -2.296   0.037  0.00  0.00     0.057 A 
ATOM     10  C   UNL d   1      -1.004  -3.451   0.696  0.00  0.00     0.055 A 
ATOM     11  C   UNL d   1      -1.782  -4.610   0.750  0.00  0.00     0.036 A 
ATOM     12 CL   UNL d   1      -1.178  -6.000   1.568  0.00  0.00    -0.084 Cl
ATOM     13  C   UNL d   1      -3.038  -4.649   0.153  0.00  0.00     0.024 A 
ATOM     14  C   UNL d   1      -3.522  -3.515  -0.493  0.00  0.00     0.004 A 
ATOM     15  C   UNL d   1      -2.747  -2.350  -0.542  0.00  0.00     0.031 A 
ENDBRANCH   4   9
BRANCH   1  16
ATOM     16  C   UNL d   1      -1.491   2.492   0.028  0.00  0.00     0.315 C 
ATOM     17  O   UNL d   1      -1.173   3.400   0.774  0.00  0.00    -0.257 OA
BRANCH  16  18
ATOM     18  O   UNL d   1      -2.559   2.465  -0.799  0.00  0.00    -0.321 OA
ATOM     19  C   UNL d   1      -3.349   3.655  -0.741  0.00  0.00     0.213 C 
ENDBRANCH  16  18
ENDBRANCH   1  16
BRANCH   6  20
ATOM     20  O   UNL d   1       2.893  -0.042   0.001  0.00  0.00    -0.351 OA
ATOM     21  C   UNL d   1       3.572  -1.290   0.049  0.00  0.00     0.210 C 
ENDBRANCH   6  20
TORSDOF 4
