REMARK  6 active torsions:
REMARK  status: ('A' for Active; 'I' for Inactive)
REMARK    1  A    between atoms: C_3  and  C_1 
REMARK    2  A    between atoms: C_6  and  C_1 
REMARK    3  A    between atoms: C_2  and  C_9 
REMARK    4  A    between atoms: O_10  and  C_2 
REMARK    5  A    between atoms: C_9  and  C_6 
REMARK    6  A    between atoms: C_14  and  C_13 
ROOT
ATOM      1  C   UNL d   1       0.243  -0.917  -0.953  0.00  0.00     0.010 A 
ATOM      2  C   UNL d   1       0.621  -2.256  -0.794  0.00  0.00     0.015 A 
ATOM      3  C   UNL d   1      -0.777  -0.598  -1.854  0.00  0.00     0.015 A 
ATOM      4  C   UNL d   1      -0.010  -3.263  -1.535  0.00  0.00     0.008 A 
ATOM      5  C   UNL d   1      -1.404  -1.604  -2.595  0.00  0.00     0.008 A 
ATOM      6  C   UNL d   1      -1.022  -2.943  -2.449  0.00  0.00    -0.059 A 
ENDROOT
BRANCH   1   7
ATOM      7  C   UNL d   1       0.988   0.139  -0.205  0.00  0.00     0.160 C 
ATOM      8  O   UNL d   1       2.170  -0.035   0.091  0.00  0.00    -0.292 OA
BRANCH   7   9
ATOM      9  C   UNL d   1       0.269   1.417   0.198  0.00  0.00     0.094 C 
BRANCH   9  10
ATOM     10  C   UNL d   1       1.243   2.582   0.293  0.00  0.00     0.117 C 
BRANCH  10  11
ATOM     11  C   UNL d   1       1.851   2.881  -1.054  0.00  0.00     0.139 C 
ATOM     12  O   UNL d   1       1.327   3.608  -1.885  0.00  0.00    -0.650 OA
BRANCH  11  13
ATOM     13  O   UNL d   1       3.005   2.220  -1.286  0.00  0.00    -0.776 OA
ATOM     14  H   UNL d   1       3.212   1.542  -0.601  0.00  0.00     0.167 HD
ENDBRANCH  11  13
ENDBRANCH  10  11
ENDBRANCH   9  10
ENDBRANCH   7   9
ENDBRANCH   1   7
BRANCH   6  15
ATOM     15  C   UNL d   1      -1.651  -4.004  -3.317  0.00  0.00     0.034 C 
ATOM     16  C   UNL d   1      -0.914  -4.155  -4.640  0.00  0.00     0.010 C 
ENDBRANCH   6  15
TORSDOF 6
