REMARK  5 active torsions:
REMARK  status: ('A' for Active; 'I' for Inactive)
REMARK    1  A    between atoms: C_2  and  C_1 
REMARK       I    between atoms: N_4  and  C_2 
REMARK    2  A    between atoms: N_3  and  C_7 
REMARK       I    between atoms: C_6  and  N_4 
REMARK    3  A    between atoms: C_5  and  N_12 
REMARK       I    between atoms: N_12  and  C_6 
REMARK    4  A    between atoms: O_27  and  C_8 
REMARK    5  A    between atoms: O_26  and  C_9 
ROOT
ATOM      1  C   UNL d   1       0.019  -3.479  -1.028  0.00  0.00     0.244 C 
ATOM      2  N   UNL d   1       1.351  -3.716  -1.439  0.00  0.00    -0.175 NA
ATOM      3  C   UNL d   1       2.695  -3.500  -1.146  0.00  0.00     0.305 C 
ATOM      4  N   UNL d   1       3.141  -2.234  -0.926  0.00  0.00    -0.310 N 
ATOM      5  O   UNL d   1      -0.569  -4.542  -0.782  0.00  0.00    -0.273 OA
ATOM      6  O   UNL d   1       3.387  -4.515  -1.068  0.00  0.00    -0.253 OA
ATOM      7  H   UNL d   1       1.345  -4.739  -1.431  0.00  0.00     0.141 HD
ATOM      8  H   UNL d   1       2.411  -1.539  -0.808  0.00  0.00     0.170 HD
ENDROOT
BRANCH   1   9
ATOM      9  C   UNL d   1      -0.736  -2.187  -0.812  0.00  0.00     0.096 C 
ATOM     10  C   UNL d   1      -0.168  -0.914  -0.733  0.00  0.00     0.108 C 
ATOM     11  C   UNL d   1      -0.842   0.102  -0.022  0.00  0.00     0.070 C 
ATOM     12 CL   UNL d   1      -0.127   1.638   0.326  0.00  0.00    -0.081 Cl
ATOM     13  C   UNL d   1      -2.128  -0.104   0.460  0.00  0.00     0.053 C 
ATOM     14  C   UNL d   1      -2.809  -1.273   0.136  0.00  0.00     0.070 C 
ATOM     15  C   UNL d   1      -2.146  -2.293  -0.570  0.00  0.00     0.108 C 
ATOM     16 CL   UNL d   1      -4.421  -1.378   0.749  0.00  0.00    -0.081 Cl
BRANCH  10  17
ATOM     17  O   UNL d   1       0.994  -0.668  -1.413  0.00  0.00    -0.353 OA
ATOM     18  C   UNL d   1       0.833   0.357  -2.409  0.00  0.00     0.210 C 
ENDBRANCH  10  17
BRANCH  15  19
ATOM     19  O   UNL d   1      -2.734  -3.404  -1.117  0.00  0.00    -0.353 OA
ATOM     20  C   UNL d   1      -4.123  -3.492  -1.391  0.00  0.00     0.210 C 
ENDBRANCH  15  19
ENDBRANCH   1   9
BRANCH   4  21
ATOM     21  C   UNL d   1       4.406  -1.927  -0.315  0.00  0.00     0.079 C 
ATOM     22  C   UNL d   1       5.615  -2.644  -0.477  0.00  0.00     0.065 C 
ATOM     23  C   UNL d   1       6.699  -2.451   0.399  0.00  0.00     0.062 C 
ATOM     24 CL   UNL d   1       5.968  -3.624  -1.865  0.00  0.00    -0.082 Cl
ATOM     25  C   UNL d   1       6.600  -1.490   1.412  0.00  0.00     0.106 C 
ATOM     26  C   UNL d   1       5.494  -0.658   1.480  0.00  0.00     0.062 C 
ATOM     27  C   UNL d   1       4.422  -0.863   0.609  0.00  0.00     0.065 C 
ATOM     28 CL   UNL d   1       3.096   0.232   0.752  0.00  0.00    -0.082 Cl
BRANCH  25  29
ATOM     29  N   UNL d   1       7.709  -1.296   2.355  0.00  0.00    -0.116 N 
ATOM     30  O   UNL d   1       8.820  -1.688   2.019  0.00  0.00    -0.532 OA
ATOM     31  O   UNL d   1       7.421  -0.749   3.441  0.00  0.00    -0.532 OA
ENDBRANCH  25  29
ENDBRANCH   4  21
TORSDOF 5
