REMARK  4 active torsions:
REMARK  status: ('A' for Active; 'I' for Inactive)
REMARK    1  A    between atoms: N_5  and  N_1 
REMARK       I    between atoms: C_3  and  N_5 
REMARK    2  A    between atoms: C_9  and  C_3 
REMARK    3  A    between atoms: C_4  and  C_6 
REMARK    4  A    between atoms: O_10  and  C_7 
ROOT
ATOM      1  N   UNL d   1       1.004  -0.123  -0.074  0.00  0.00    -0.301 N 
ATOM      2  HN  UNL d   1       0.522   0.200   0.765  1.00  0.00     0.186 HD
ATOM      3  C   UNL d   1       2.304  -0.098  -0.136  0.00  0.00     0.035 C 
ATOM      4  C   UNL d   1       3.099  -0.601  -1.325  0.00  0.00     0.070 C 
ENDROOT
BRANCH   1   5
ATOM      5  N   UNL d   1       0.295  -0.586  -1.142  0.00  0.00    -0.266 N 
ATOM      6  C   UNL d   1      -1.091  -0.624  -1.080  0.00  0.00     0.270 C 
ATOM      7  O   UNL d   1      -1.760  -0.242  -0.125  0.00  0.00    -0.266 OA
ATOM      8  H   UNL d   1       0.774  -0.797  -2.006  0.00  0.00     0.190 HD
BRANCH   6   9
ATOM      9  C   UNL d   1      -1.778  -1.162  -2.292  0.00  0.00     0.033 A 
ATOM     10  C   UNL d   1      -1.176  -2.111  -3.132  0.00  0.00     0.017 A 
ATOM     11  C   UNL d   1      -1.869  -2.606  -4.240  0.00  0.00     0.001 A 
ATOM     12  C   UNL d   1      -3.165  -2.167  -4.510  0.00  0.00     0.000 A 
ATOM     13  C   UNL d   1      -3.773  -1.232  -3.673  0.00  0.00     0.001 A 
ATOM     14  C   UNL d   1      -3.084  -0.733  -2.565  0.00  0.00     0.017 A 
ENDBRANCH   6   9
ENDBRANCH   1   5
BRANCH   3  15
ATOM     15  C   UNL d   1       3.052   0.403   1.059  0.00  0.00     0.021 A 
ATOM     16  C   UNL d   1       2.514   0.247   2.346  0.00  0.00     0.077 A 
ATOM     17  C   UNL d   1       3.238   0.642   3.470  0.00  0.00     0.037 A 
ATOM     18  C   UNL d   1       4.495   1.227   3.320  0.00  0.00     0.003 A 
ATOM     19  C   UNL d   1       5.021   1.427   2.045  0.00  0.00     0.001 A 
ATOM     20  C   UNL d   1       4.302   1.020   0.917  0.00  0.00     0.016 A 
BRANCH  16  21
ATOM     21  O   UNL d   1       1.280  -0.296   2.583  0.00  0.00    -0.360 OA
ATOM     22  H   UNL d   1       0.780  -0.296   1.733  0.00  0.00     0.217 HD
ENDBRANCH  16  21
ENDBRANCH   3  15
TORSDOF 4
