REMARK  6 active torsions:
REMARK  status: ('A' for Active; 'I' for Inactive)
REMARK    1  A    between atoms: C_2  and  S_1 
REMARK    2  A    between atoms: C_7  and  S_1 
REMARK    3  A    between atoms: C_9  and  C_3 
REMARK    4  A    between atoms: C_4  and  C_8 
REMARK    5  A    between atoms: C_8  and  O_12 
REMARK    6  A    between atoms: O_12  and  C_15 
ROOT
ATOM      1  C   UNL d   1      -1.114   0.627   2.827  0.00  0.00     0.144 C 
ATOM      2  C   UNL d   1      -0.589   1.123   1.690  0.00  0.00     0.049 C 
ATOM      3  C   UNL d   1      -0.374  -0.305   3.591  0.00  0.00     0.112 C 
ATOM      4  N   UNL d   1       0.258  -1.046   4.222  0.00  0.00    -0.191 NA
ENDROOT
BRANCH   1   5
ATOM      5  S   UNL d   1      -2.680   1.108   3.392  0.00  0.00     0.216 S 
ATOM      6  O   UNL d   1      -3.715   0.482   2.587  0.00  0.00    -0.216 OA
ATOM      7  O   UNL d   1      -2.700   2.546   3.609  0.00  0.00    -0.216 OA
BRANCH   5   8
ATOM      8  C   UNL d   1      -2.855   0.384   5.029  0.00  0.00     0.065 A 
ATOM      9  C   UNL d   1      -2.721   1.193   6.164  0.00  0.00     0.025 A 
ATOM     10  C   UNL d   1      -2.891   0.633   7.433  0.00  0.00     0.025 A 
ATOM     11  C   UNL d   1      -3.196  -0.723   7.560  0.00  0.00     0.034 A 
ATOM     12  C   UNL d   1      -3.344  -1.525   6.428  0.00  0.00     0.025 A 
ATOM     13 CL   UNL d   1      -3.402  -1.407   9.126  0.00  0.00    -0.084 Cl
ATOM     14  C   UNL d   1      -3.188  -0.970   5.154  0.00  0.00     0.025 A 
ENDBRANCH   5   8
ENDBRANCH   1   5
BRANCH   2  15
ATOM     15  C   UNL d   1      -1.147   2.156   0.806  0.00  0.00    -0.001 A 
ATOM     16  C   UNL d   1      -1.862   1.848  -0.366  0.00  0.00     0.079 A 
ATOM     17  C   UNL d   1      -2.275   2.900  -1.199  0.00  0.00     0.037 A 
ATOM     18  C   UNL d   1      -1.996   4.229  -0.871  0.00  0.00     0.003 A 
ATOM     19  C   UNL d   1      -1.299   4.529   0.291  0.00  0.00     0.001 A 
ATOM     20  C   UNL d   1      -0.873   3.497   1.125  0.00  0.00     0.014 A 
BRANCH  16  21
ATOM     21  O   UNL d   1      -2.103   0.515  -0.618  0.00  0.00    -0.346 OA
BRANCH  21  22
ATOM     22  C   UNL d   1      -2.787   0.224  -1.837  0.00  0.00     0.217 C 
BRANCH  22  23
ATOM     23  C   UNL d   1      -3.231  -1.208  -2.088  0.00  0.00     0.009 A 
ATOM     24  C   UNL d   1      -3.997  -1.449  -3.259  0.00  0.00     0.044 A 
ATOM     25 CL   UNL d   1      -4.357  -0.186  -4.394  0.00  0.00    -0.084 Cl
ATOM     26  C   UNL d   1      -4.499  -2.716  -3.567  0.00  0.00     0.024 A 
ATOM     27  C   UNL d   1      -4.246  -3.787  -2.723  0.00  0.00     0.003 A 
ATOM     28  C   UNL d   1      -3.477  -3.583  -1.581  0.00  0.00     0.024 A 
ATOM     29  C   UNL d   1      -2.968  -2.312  -1.260  0.00  0.00     0.044 A 
ATOM     30 CL   UNL d   1      -2.011  -2.232   0.177  0.00  0.00    -0.084 Cl
ENDBRANCH  22  23
ENDBRANCH  21  22
ENDBRANCH  16  21
ENDBRANCH   2  15
TORSDOF 6
