REMARK  7 active torsions:
REMARK  status: ('A' for Active; 'I' for Inactive)
REMARK    1  A    between atoms: C_7  and  C_1 
REMARK    2  A    between atoms: C_13  and  C_6 
REMARK    3  A    between atoms: O_18  and  C_7 
REMARK    4  A    between atoms: C_8  and  C_11 
REMARK    5  A    between atoms: O_16  and  C_13 
REMARK    6  A    between atoms: C_17  and  O_16 
REMARK    7  A    between atoms: C_24  and  O_18 
ROOT
ATOM      1  C   UNL d   1       1.416   2.499   0.014  0.00  0.00     0.240 C 
ENDROOT
BRANCH   1   2
ATOM      2  C   UNL d   1       0.633   1.219  -0.045  0.00  0.00     0.076 A 
ATOM      3  S   UNL d   1       0.858  -0.028   1.105  0.00  0.00    -0.067 SA
ATOM      4  C   UNL d   1      -0.380  -0.967   0.347  0.00  0.00     0.104 A 
ATOM      5  C   UNL d   1      -0.910  -0.245  -0.718  0.00  0.00     0.029 A 
ATOM      6  N   UNL d   1      -0.323   0.998  -0.921  0.00  0.00    -0.354 N 
ATOM      7  C   UNL d   1      -1.990  -0.597  -1.682  0.00  0.00     0.070 C 
ATOM      8  HN  UNL d   1      -0.597   1.652  -1.654  1.00  0.00     0.166 HD
BRANCH   4   9
ATOM      9  C   UNL d   1      -0.647  -2.295   0.858  0.00  0.00     0.302 C 
ATOM     10  O   UNL d   1      -0.051  -2.853   1.772  0.00  0.00    -0.259 OA
BRANCH   9  11
ATOM     11  O   UNL d   1      -1.622  -2.893   0.118  0.00  0.00    -0.317 OA
BRANCH  11  12
ATOM     12  C   UNL d   1      -1.690  -4.322   0.190  0.00  0.00     0.174 C 
ATOM     13  C   UNL d   1      -0.740  -4.883  -0.852  0.00  0.00     0.034 C 
ENDBRANCH  11  12
ENDBRANCH   9  11
ENDBRANCH   4   9
ENDBRANCH   1   2
BRANCH   1  14
ATOM     14  O   UNL d   1       2.811   2.209  -0.141  0.00  0.00    -0.345 OA
BRANCH  14  15
ATOM     15  C   UNL d   1       3.632   3.304  -0.050  0.00  0.00     0.069 A 
ATOM     16  C   UNL d   1       4.917   3.064   0.436  0.00  0.00     0.037 A 
ATOM     17  C   UNL d   1       5.827   4.116   0.595  0.00  0.00     0.012 A 
ATOM     18  C   UNL d   1       5.472   5.433   0.257  0.00  0.00    -0.035 A 
ATOM     19  C   UNL d   1       4.193   5.653  -0.276  0.00  0.00     0.012 A 
ATOM     20  C   UNL d   1       3.283   4.601  -0.429  0.00  0.00     0.037 A 
BRANCH  18  21
ATOM     21  C   UNL d   1       6.451   6.567   0.487  0.00  0.00     0.141 C 
ATOM     22  S   UNL d   1       5.801   7.825   1.634  0.00  0.00    -0.148 SA
ATOM     23  C   UNL d   1       6.733   9.204   0.935  0.00  0.00     0.085 C 
ATOM     24  C   UNL d   1       6.651   9.085  -0.574  0.00  0.00     0.085 C 
ATOM     25  S   UNL d   1       6.992   7.369  -1.060  0.00  0.00    -0.148 SA
ENDBRANCH  18  21
ENDBRANCH  14  15
ENDBRANCH   1  14
TORSDOF 7
