REMARK  4 active torsions:
REMARK  status: ('A' for Active; 'I' for Inactive)
REMARK    1  A    between atoms: C_3  and  C_1 
REMARK    2  A    between atoms: O_4  and  C_2 
REMARK    3  A    between atoms: O_11  and  C_3 
REMARK    4  A    between atoms: C_5  and  O_4 
ROOT
ATOM      1  C   UNL d   1       1.677   1.161  -0.282  0.00  0.00     0.073 A 
ATOM      2  C   UNL d   1       2.307  -0.080  -0.430  0.00  0.00     0.096 A 
ATOM      3  C   UNL d   1       0.314   1.212   0.042  0.00  0.00     0.045 A 
ATOM      4  C   UNL d   1       1.577  -1.266  -0.306  0.00  0.00     0.040 A 
ATOM      5  C   UNL d   1      -0.406   0.023   0.176  0.00  0.00     0.035 A 
ATOM      6  C   UNL d   1       0.218  -1.213   0.003  0.00  0.00     0.026 A 
ATOM      7 CL   UNL d   1      -2.085   0.084   0.545  0.00  0.00    -0.084 Cl
ENDROOT
BRANCH   1   8
ATOM      8  C   UNL d   1       2.450   2.413  -0.433  0.00  0.00     0.179 C 
ATOM      9  O   UNL d   1       3.562   2.578   0.033  0.00  0.00    -0.646 OA
BRANCH   8  10
ATOM     10  O   UNL d   1       1.804   3.345  -1.167  0.00  0.00    -0.773 OA
ATOM     11  H   UNL d   1       0.986   3.044  -1.606  0.00  0.00     0.167 HD
ENDBRANCH   8  10
ENDBRANCH   1   8
BRANCH   2  12
ATOM     12  O   UNL d   1       3.650  -0.140  -0.823  0.00  0.00    -0.278 OA
BRANCH  12  13
ATOM     13  C   UNL d   1       4.505  -0.764   0.082  0.00  0.00     0.260 C 
ATOM     14  O   UNL d   1       4.198  -1.240   1.166  0.00  0.00    -0.265 OA
ATOM     15  C   UNL d   1       5.885  -0.806  -0.504  0.00  0.00     0.126 C 
ENDBRANCH  12  13
ENDBRANCH   2  12
TORSDOF 4
