REMARK  4 active torsions:
REMARK  status: ('A' for Active; 'I' for Inactive)
REMARK    1  A    between atoms: N_8  and  C_3 
REMARK    2  A    between atoms: C_12  and  C_4 
REMARK    3  A    between atoms: C_9  and  C_13 
REMARK    4  A    between atoms: O_17  and  C_14 
ROOT
ATOM      1  N   UNL d   1      -0.266  -2.473   0.417  0.00  0.00    -0.360 N 
ATOM      2  C   UNL d   1      -0.379  -3.382  -0.734  0.00  0.00     0.125 C 
ATOM      3  C   UNL d   1       0.557  -2.915   1.550  0.00  0.00     0.125 C 
ATOM      4  C   UNL d   1       0.375  -5.348   0.818  0.00  0.00     0.024 C 
ATOM      5  C   UNL d   1      -0.451  -4.870  -0.385  0.00  0.00     0.029 C 
ATOM      6  C   UNL d   1       0.228  -4.344   1.965  0.00  0.00     0.029 C 
ENDROOT
BRANCH   1   7
ATOM      7  C   UNL d   1      -0.179  -1.121   0.136  0.00  0.00     0.164 A 
ATOM      8  N   UNL d   1       0.520  -0.238   0.826  0.00  0.00    -0.321 N 
ATOM      9  C   UNL d   1       0.425   1.034   0.243  0.00  0.00     0.123 A 
ATOM     10  HN  UNL d   1       1.055  -0.452   1.668  1.00  0.00     0.169 HD
ATOM     11  N   UNL d   1      -0.341   1.166  -0.848  0.00  0.00    -0.309 N 
ATOM     12  S   UNL d   1      -0.984  -0.325  -1.185  0.00  0.00     0.024 SA
ATOM     13  HN  UNL d   1      -0.500   2.025  -1.374  1.00  0.00     0.176 HD
BRANCH   9  14
ATOM     14  C   UNL d   1       1.163   2.177   0.801  0.00  0.00     0.009 A 
ATOM     15  C   UNL d   1       1.971   2.022   1.940  0.00  0.00     0.015 A 
ATOM     16  C   UNL d   1       2.688   3.106   2.462  0.00  0.00     0.001 A 
ATOM     17  C   UNL d   1       2.609   4.357   1.855  0.00  0.00     0.000 A 
ATOM     18  C   UNL d   1       1.808   4.532   0.727  0.00  0.00     0.001 A 
ATOM     19  C   UNL d   1       1.093   3.450   0.206  0.00  0.00     0.015 A 
ENDBRANCH   9  14
ENDBRANCH   1   7
BRANCH   4  20
ATOM     20  C   UNL d   1       1.829  -5.737   0.539  0.00  0.00    -0.021 A 
ATOM     21  C   UNL d   1       2.398  -6.904   1.106  0.00  0.00     0.074 A 
ATOM     22  C   UNL d   1       3.753  -7.205   0.893  0.00  0.00     0.037 A 
ATOM     23  C   UNL d   1       4.542  -6.397   0.080  0.00  0.00     0.003 A 
ATOM     24  C   UNL d   1       3.989  -5.272  -0.513  0.00  0.00     0.001 A 
ATOM     25  C   UNL d   1       2.652  -4.941  -0.276  0.00  0.00     0.010 A 
BRANCH  21  26
ATOM     26  O   UNL d   1       1.583  -7.696   1.878  0.00  0.00    -0.355 OA
ATOM     27  C   UNL d   1       1.978  -9.063   2.000  0.00  0.00     0.210 C 
ENDBRANCH  21  26
ENDBRANCH   4  20
TORSDOF 4
