REMARK  4 active torsions:
REMARK  status: ('A' for Active; 'I' for Inactive)
REMARK    1  A    between atoms: C_2  and  C_1 
REMARK    2  A    between atoms: O_3  and  C_1 
REMARK    3  A    between atoms: C_5  and  O_3 
REMARK    4  A    between atoms: N_4  and  C_6 
ROOT
ATOM      1  C   UNL d   1      -0.986  -0.225   1.110  0.00  0.00     0.106 A 
ATOM      2  C   UNL d   1      -1.651  -1.106   0.230  0.00  0.00     0.064 A 
ATOM      3  C   UNL d   1      -1.688   0.517   2.074  0.00  0.00     0.040 A 
ATOM      4  C   UNL d   1      -3.048  -1.214   0.392  0.00  0.00     0.032 A 
ATOM      5  C   UNL d   1      -3.064   0.363   2.212  0.00  0.00     0.003 A 
ATOM      6  C   UNL d   1      -3.747  -0.502   1.367  0.00  0.00     0.002 A 
ENDROOT
BRANCH   1   7
ATOM      7  O   UNL d   1       0.405  -0.003   0.923  0.00  0.00    -0.272 OA
BRANCH   7   8
ATOM      8  C   UNL d   1       1.281   0.187   1.997  0.00  0.00     0.305 C 
ATOM      9  O   UNL d   1       0.958   0.176   3.179  0.00  0.00    -0.258 OA
BRANCH   8  10
ATOM     10  C   UNL d   1       2.652   0.381   1.537  0.00  0.00     0.080 A 
ATOM     11  S   UNL d   1       3.106   0.304  -0.114  0.00  0.00    -0.096 SA
ATOM     12  C   UNL d   1       4.758   0.540   0.248  0.00  0.00     0.050 A 
ATOM     13  C   UNL d   1       4.970   0.722   1.594  0.00  0.00     0.009 A 
ATOM     14  C   UNL d   1       3.755   0.634   2.336  0.00  0.00     0.025 A 
ENDBRANCH   8  10
ENDBRANCH   7   8
ENDBRANCH   1   7
BRANCH   2  15
ATOM     15  N   UNL d   1      -1.052  -1.917  -0.725  0.00  0.00    -0.375 N 
ATOM     16  C   UNL d   1       0.341  -2.364  -0.621  0.00  0.00     0.149 C 
ATOM     17  C   UNL d   1       0.487  -3.701  -1.367  0.00  0.00     0.187 C 
ATOM     18  O   UNL d   1       0.076  -3.590  -2.742  0.00  0.00    -0.388 OA
ATOM     19  C   UNL d   1      -1.295  -3.160  -2.821  0.00  0.00     0.187 C 
ATOM     20  C   UNL d   1      -1.504  -1.804  -2.126  0.00  0.00     0.149 C 
ENDBRANCH   2  15
TORSDOF 4
