REMARK  5 active torsions:
REMARK  status: ('A' for Active; 'I' for Inactive)
REMARK    1  A    between atoms: C_6  and  S_1 
REMARK    2  A    between atoms: C_10  and  S_1 
REMARK    3  A    between atoms: C_7  and  C_2 
REMARK    4  A    between atoms: C_5  and  C_6 
REMARK       I    between atoms: N_16  and  C_7 
REMARK    5  A    between atoms: N_17  and  N_16 
ROOT
ATOM      1  C   UNL d   1       0.796  -2.656  -3.935  0.00  0.00     0.109 A 
ATOM      2  N   UNL d   1       0.126  -2.031  -2.875  0.00  0.00    -0.348 N 
ATOM      3  HN  UNL d   1      -0.772  -1.553  -2.954  1.00  0.00     0.166 HD
ATOM      4  C   UNL d   1       0.823  -2.148  -1.761  0.00  0.00     0.065 A 
ATOM      5  C   UNL d   1       1.985  -3.263  -3.576  0.00  0.00     0.086 A 
ATOM      6  S   UNL d   1       2.281  -3.056  -1.907  0.00  0.00    -0.085 SA
ENDROOT
BRANCH   4   7
ATOM      7  C   UNL d   1       0.391  -1.633  -0.431  0.00  0.00     0.212 C 
BRANCH   7   8
ATOM      8  S   UNL d   1       1.039  -0.003  -0.176  0.00  0.00     0.196 S 
ATOM      9  O   UNL d   1       2.484  -0.037  -0.371  0.00  0.00    -0.221 OA
ATOM     10  O   UNL d   1       0.515   0.500   1.084  0.00  0.00    -0.221 OA
BRANCH   8  11
ATOM     11  C   UNL d   1       0.341   0.988  -1.478  0.00  0.00     0.128 A 
ATOM     12  N   UNL d   1      -1.019   0.985  -1.502  0.00  0.00    -0.357 N 
ATOM     13  C   UNL d   1      -1.587   1.757  -2.453  0.00  0.00     0.089 A 
ATOM     14  HN  UNL d   1      -1.573   0.436  -0.846  1.00  0.00     0.166 HD
ATOM     15  C   UNL d   1      -0.865   2.496  -3.381  0.00  0.00     0.017 A 
ATOM     16  C   UNL d   1       0.527   2.458  -3.330  0.00  0.00     0.004 A 
ATOM     17  C   UNL d   1       1.153   1.692  -2.353  0.00  0.00     0.042 A 
ENDBRANCH   8  11
ENDBRANCH   7   8
ENDBRANCH   4   7
BRANCH   1  18
ATOM     18  C   UNL d   1       0.276  -2.645  -5.304  0.00  0.00     0.282 C 
ATOM     19  O   UNL d   1       0.879  -3.133  -6.260  0.00  0.00    -0.265 OA
ATOM     20  N   UNL d   1      -0.954  -2.013  -5.428  0.00  0.00    -0.288 N 
ATOM     21  H   UNL d   1      -1.433  -1.721  -4.575  0.00  0.00     0.183 HD
BRANCH  20  22
ATOM     22  N   UNL d   1      -1.596  -1.930  -6.686  0.00  0.00    -0.247 NA
ATOM     23  H   UNL d   1      -1.050  -2.511  -7.340  0.00  0.00     0.143 HD
ATOM     24  H   UNL d   1      -1.471  -0.979  -7.040  0.00  0.00     0.143 HD
ENDBRANCH  20  22
ENDBRANCH   1  18
TORSDOF 5
