REMARK  4 active torsions:
REMARK  status: ('A' for Active; 'I' for Inactive)
REMARK    1  A    between atoms: C_3  and  N_1 
REMARK    2  A    between atoms: C_10  and  C_2 
REMARK    3  A    between atoms: O_18  and  C_10 
REMARK    4  A    between atoms: C_20  and  O_18 
ROOT
ATOM      1  N   UNL d   1       1.056  -0.565   0.033  0.00  0.00    -0.257 N 
ATOM      2  C   UNL d   1      -0.244   1.233   0.188  0.00  0.00     0.080 A 
ATOM      3  C   UNL d   1       1.058   0.821  -0.067  0.00  0.00     0.048 A 
ATOM      4  N   UNL d   1      -0.198  -1.047   0.207  0.00  0.00    -0.304 N 
ATOM      5  HN  UNL d   1      -0.490  -2.024   0.245  1.00  0.00     0.186 HD
ATOM      6  C   UNL d   1      -0.966   0.033   0.318  0.00  0.00     0.127 A 
ATOM      7  C   UNL d   1       2.242   1.645  -0.440  0.00  0.00     0.071 C 
ENDROOT
BRANCH   1   8
ATOM      8  C   UNL d   1       2.147  -1.467  -0.003  0.00  0.00     0.100 A 
ATOM      9  C   UNL d   1       3.263  -1.286   0.834  0.00  0.00     0.066 A 
ATOM     10  C   UNL d   1       4.350  -2.163   0.761  0.00  0.00     0.050 A 
ATOM     11 CL   UNL d   1       3.336  -0.106   2.100  0.00  0.00    -0.082 Cl
ATOM     12  C   UNL d   1       4.311  -3.247  -0.109  0.00  0.00     0.037 A 
ATOM     13  C   UNL d   1       3.193  -3.472  -0.902  0.00  0.00     0.050 A 
ATOM     14 CL   UNL d   1       5.652  -4.321  -0.194  0.00  0.00    -0.084 Cl
ATOM     15  C   UNL d   1       2.110  -2.587  -0.856  0.00  0.00     0.066 A 
ATOM     16 CL   UNL d   1       0.832  -2.908  -1.981  0.00  0.00    -0.082 Cl
ENDBRANCH   1   8
BRANCH   2  17
ATOM     17  C   UNL d   1      -0.739   2.594   0.293  0.00  0.00     0.296 C 
ATOM     18  O   UNL d   1      -0.016   3.581   0.274  0.00  0.00    -0.259 OA
BRANCH  17  19
ATOM     19  O   UNL d   1      -2.091   2.624   0.472  0.00  0.00    -0.318 OA
BRANCH  19  20
ATOM     20  C   UNL d   1      -2.650   3.894   0.831  0.00  0.00     0.174 C 
ATOM     21  C   UNL d   1      -2.697   3.988   2.345  0.00  0.00     0.034 C 
ENDBRANCH  19  20
ENDBRANCH  17  19
ENDBRANCH   2  17
TORSDOF 4
