REMARK  3 active torsions:
REMARK  status: ('A' for Active; 'I' for Inactive)
REMARK    1  A    between atoms: N_3  and  C_1 
REMARK       I    between atoms: C_2  and  N_4 
REMARK    2  A    between atoms: C_8  and  C_2 
REMARK    3  A    between atoms: N_4  and  N_3 
ROOT
ATOM      1  N   UNL d   1       1.549  -2.392  -0.334  0.00  0.00    -0.202 NA
ATOM      2  H   UNL d   1       1.103  -3.319  -0.324  0.00  0.00     0.153 HD
ENDROOT
BRANCH   1   3
ATOM      3  C   UNL d   1       0.733  -1.401   0.283  0.00  0.00     0.051 A 
ATOM      4  C   UNL d   1      -0.630  -1.707   0.464  0.00  0.00     0.050 A 
ATOM      5  C   UNL d   1      -1.520  -0.762   0.979  0.00  0.00     0.035 A 
ATOM      6 CL   UNL d   1      -3.177  -1.175   1.194  0.00  0.00    -0.084 Cl
ATOM      7  C   UNL d   1      -1.083   0.517   1.308  0.00  0.00     0.026 A 
ATOM      8  C   UNL d   1       0.254   0.855   1.109  0.00  0.00     0.027 A 
ATOM      9  C   UNL d   1       1.154  -0.086   0.589  0.00  0.00     0.057 A 
ATOM     10 CL   UNL d   1       2.770   0.478   0.304  0.00  0.00    -0.082 Cl
ENDBRANCH   1   3
BRANCH   1  11
ATOM     11  N   UNL d   1       2.834  -2.500   0.224  0.00  0.00    -0.287 N 
ATOM     12  C   UNL d   1       3.373  -3.773   0.339  0.00  0.00     0.236 C 
ATOM     13  O   UNL d   1       2.679  -4.779   0.162  0.00  0.00    -0.272 OA
ATOM     14  H   UNL d   1       3.426  -1.675   0.161  0.00  0.00     0.184 HD
BRANCH  12  15
ATOM     15  C   UNL d   1       4.884  -3.771   0.695  0.00  0.00     0.079 C 
ATOM     16  C   UNL d   1       5.457  -5.033   1.395  0.00  0.00     0.014 C 
ATOM     17  C   UNL d   1       6.342  -4.099   2.239  0.00  0.00     0.002 C 
ATOM     18  C   UNL d   1       5.323  -2.982   1.960  0.00  0.00     0.014 C 
ENDBRANCH  12  15
ENDBRANCH   1  11
TORSDOF 3
