REMARK  2 active torsions:
REMARK  status: ('A' for Active; 'I' for Inactive)
REMARK    1  A    between atoms: N_4  and  C_8 
REMARK    2  A    between atoms: C_12  and  C_7 
ROOT
ATOM      1  C   UNL d   1      -1.134  -0.843   0.030  0.00  0.00     0.045 A 
ATOM      2  C   UNL d   1       0.368  -0.968  -0.022  0.00  0.00     0.257 A 
ATOM      3  N   UNL d   1       0.828   0.330  -0.177  0.00  0.00    -0.322 N 
ATOM      4  C   UNL d   1      -1.454   0.584  -0.053  0.00  0.00     0.006 A 
ATOM      5  C   UNL d   1      -0.226   1.241  -0.198  0.00  0.00     0.046 A 
ATOM      6  C   UNL d   1      -1.896  -1.945   0.078  0.00  0.00     0.029 C 
ATOM      7  O   UNL d   1       1.030  -1.985   0.043  0.00  0.00    -0.267 OA
ATOM      8  C   UNL d   1      -2.628   1.313   0.001  0.00  0.00     0.015 A 
ATOM      9  C   UNL d   1      -0.124   2.612  -0.328  0.00  0.00     0.030 A 
ATOM     10  C   UNL d   1      -2.549   2.705  -0.120  0.00  0.00     0.001 A 
ATOM     11  C   UNL d   1      -1.310   3.348  -0.292  0.00  0.00     0.002 A 
ATOM     12  H   UNL d   1       1.806   0.556  -0.253  0.00  0.00     0.169 HD
ENDROOT
BRANCH   6  13
ATOM     13  C   UNL d   1      -3.356  -1.975   0.018  0.00  0.00    -0.035 A 
ATOM     14  C   UNL d   1      -3.993  -2.092  -1.225  0.00  0.00     0.014 A 
ATOM     15  C   UNL d   1      -5.388  -2.145  -1.303  0.00  0.00     0.037 A 
ATOM     16  C   UNL d   1      -6.145  -2.082  -0.127  0.00  0.00     0.102 A 
ATOM     17  C   UNL d   1      -5.517  -1.953   1.120  0.00  0.00     0.037 A 
ATOM     18  C   UNL d   1      -4.121  -1.900   1.187  0.00  0.00     0.014 A 
BRANCH  16  19
ATOM     19  N   UNL d   1      -7.610  -2.159  -0.200  0.00  0.00    -0.116 N 
ATOM     20  O   UNL d   1      -8.126  -2.277  -1.320  0.00  0.00    -0.532 OA
ATOM     21  O   UNL d   1      -8.244  -2.102   0.864  0.00  0.00    -0.532 OA
ENDBRANCH  16  19
ENDBRANCH   6  13
TORSDOF 2
