REMARK  4 active torsions:
REMARK  status: ('A' for Active; 'I' for Inactive)
REMARK    1  A    between atoms: C_2  and  S_1 
REMARK    2  A    between atoms: N_4  and  S_1 
REMARK    3  A    between atoms: C_8  and  N_4 
REMARK    4  A    between atoms: C_11  and  C_5 
ROOT
ATOM      1  C   UNL d   1       0.552  -1.477  -0.780  0.00  0.00     0.116 A 
ATOM      2  S   UNL d   1      -0.479  -1.601  -2.139  0.00  0.00    -0.075 SA
ATOM      3  C   UNL d   1      -0.347  -3.312  -2.192  0.00  0.00     0.033 A 
ATOM      4  C   UNL d   1       1.018  -2.718  -0.389  0.00  0.00     0.034 A 
ATOM      5  C   UNL d   1       0.521  -3.765  -1.214  0.00  0.00     0.023 A 
ENDROOT
BRANCH   1   6
ATOM      6  S   UNL d   1       0.853   0.150  -0.128  0.00  0.00     0.252 S 
ATOM      7  O   UNL d   1       0.689   1.096  -1.208  0.00  0.00    -0.205 OA
ATOM      8  O   UNL d   1       2.126   0.033   0.559  0.00  0.00    -0.205 OA
BRANCH   6   9
ATOM      9  N   UNL d   1      -0.280   0.506   1.087  0.00  0.00    -0.179 NA
ATOM     10  H   UNL d   1       0.100   1.273   1.642  0.00  0.00     0.146 HD
BRANCH   9  11
ATOM     11  C   UNL d   1      -1.636   0.725   0.666  0.00  0.00     0.044 A 
ATOM     12  C   UNL d   1      -2.594  -0.297   0.726  0.00  0.00     0.056 A 
ATOM     13 CL   UNL d   1      -2.227  -1.851   1.385  0.00  0.00    -0.082 Cl
ATOM     14  C   UNL d   1      -3.901  -0.060   0.292  0.00  0.00     0.026 A 
ATOM     15  C   UNL d   1      -4.258   1.196  -0.198  0.00  0.00     0.002 A 
ATOM     16  C   UNL d   1      -3.309   2.217  -0.257  0.00  0.00     0.002 A 
ATOM     17  C   UNL d   1      -2.000   1.982   0.169  0.00  0.00     0.026 A 
ENDBRANCH   9  11
ENDBRANCH   6   9
ENDBRANCH   1   6
BRANCH   3  18
ATOM     18  C   UNL d   1      -1.089  -4.117  -3.172  0.00  0.00     0.049 A 
ATOM     19  N   UNL d   1      -0.466  -5.266  -3.535  0.00  0.00    -0.365 N 
ATOM     20  C   UNL d   1      -1.136  -6.104  -4.357  0.00  0.00     0.088 A 
ATOM     21  HN  UNL d   1       0.471  -5.489  -3.201  1.00  0.00     0.165 HD
ATOM     22  C   UNL d   1      -2.417  -5.864  -4.824  0.00  0.00     0.017 A 
ATOM     23  C   UNL d   1      -3.040  -4.681  -4.447  0.00  0.00     0.004 A 
ATOM     24  C   UNL d   1      -2.367  -3.788  -3.616  0.00  0.00     0.031 A 
ENDBRANCH   3  18
TORSDOF 4
