REMARK  5 active torsions:
REMARK  status: ('A' for Active; 'I' for Inactive)
REMARK    1  A    between atoms: C_9  and  C_1 
REMARK    2  A    between atoms: C_8  and  C_4 
REMARK    3  A    between atoms: O_25  and  C_9 
REMARK    4  A    between atoms: C_17  and  C_13 
REMARK    5  A    between atoms: N_19  and  C_15 
ROOT
ATOM      1  C   UNL d   1       2.148  -1.278  -0.008  0.00  0.00     0.052 A 
ATOM      2  C   UNL d   1      -0.288  -0.470   0.012  0.00  0.00     0.024 A 
ATOM      3  C   UNL d   1       0.185   0.791   0.082  0.00  0.00     0.021 A 
ATOM      4  C   UNL d   1       0.653  -1.672  -0.070  0.00  0.00     0.100 A 
ATOM      5  C   UNL d   1       2.515   0.024   0.082  0.00  0.00     0.018 A 
ATOM      6  N   UNL d   1       1.544   1.016   0.112  0.00  0.00    -0.362 N 
ATOM      7  C   UNL d   1      -1.767  -0.681  -0.004  0.00  0.00     0.159 C 
ATOM      8  C   UNL d   1      -0.701   2.020   0.083  0.00  0.00     0.067 C 
ATOM      9  C   UNL d   1      -2.122   1.744  -0.448  0.00  0.00     0.031 C 
ATOM     10  C   UNL d   1      -2.647   0.510   0.294  0.00  0.00     0.093 C 
ATOM     11  O   UNL d   1      -2.257  -1.789  -0.209  0.00  0.00    -0.293 OA
ATOM     12  C   UNL d   1       3.922   0.575   0.113  0.00  0.00     0.069 C 
ATOM     13  H   UNL d   1       1.864   1.979   0.168  0.00  0.00     0.165 HD
ENDROOT
BRANCH   4  14
ATOM     14  C   UNL d   1       0.300  -2.785   0.925  0.00  0.00    -0.023 A 
ATOM     15  C   UNL d   1       0.294  -2.643   2.315  0.00  0.00     0.043 A 
ATOM     16  C   UNL d   1      -0.056  -3.726   3.140  0.00  0.00     0.053 A 
ATOM     17 CL   UNL d   1       0.696  -1.157   3.103  0.00  0.00    -0.084 Cl
ATOM     18  C   UNL d   1      -0.397  -4.990   2.639  0.00  0.00     0.031 A 
ATOM     19  C   UNL d   1      -0.388  -5.114   1.246  0.00  0.00     0.030 A 
ATOM     20  C   UNL d   1      -0.055  -4.045   0.408  0.00  0.00     0.012 A 
BRANCH  18  21
ATOM     21  N   UNL d   1      -0.757  -6.030   3.483  0.00  0.00    -0.390 N 
ATOM     22  C   UNL d   1      -0.123  -6.183   4.792  0.00  0.00     0.149 C 
ATOM     23  C   UNL d   1      -1.493  -7.197   3.013  0.00  0.00     0.149 C 
ENDBRANCH  18  21
ENDBRANCH   4  14
BRANCH   1  24
ATOM     24  C   UNL d   1       3.080  -2.426  -0.144  0.00  0.00     0.291 C 
ATOM     25  O   UNL d   1       2.832  -3.411  -0.824  0.00  0.00    -0.260 OA
BRANCH  24  26
ATOM     26  O   UNL d   1       4.199  -2.257   0.607  0.00  0.00    -0.323 OA
ATOM     27  C   UNL d   1       5.184  -3.286   0.500  0.00  0.00     0.213 C 
ENDBRANCH  24  26
ENDBRANCH   1  24
BRANCH   9  28
ATOM     28  C   UNL d   1      -2.264   1.614  -1.969  0.00  0.00    -0.053 A 
ATOM     29  C   UNL d   1      -1.174   1.709  -2.854  0.00  0.00     0.010 A 
ATOM     30  C   UNL d   1      -1.354   1.588  -4.234  0.00  0.00     0.043 A 
ATOM     31  C   UNL d   1      -2.623   1.372  -4.747  0.00  0.00     0.116 A 
ATOM     32  C   UNL d   1      -3.720   1.276  -3.903  0.00  0.00     0.043 A 
ATOM     33  F   UNL d   1      -2.792   1.258  -6.071  0.00  0.00    -0.206 F 
ATOM     34  C   UNL d   1      -3.542   1.404  -2.523  0.00  0.00     0.010 A 
ENDBRANCH   9  28
TORSDOF 5
