REMARK  7 active torsions:
REMARK  status: ('A' for Active; 'I' for Inactive)
REMARK    1  A    between atoms: C_15  and  C_4 
REMARK    2  A    between atoms: S_16  and  C_5 
REMARK    3  A    between atoms: S_18  and  C_6 
REMARK    4  A    between atoms: C_14  and  C_21 
REMARK    5  A    between atoms: C_21  and  S_16 
REMARK    6  A    between atoms: C_17  and  C_24 
REMARK    7  A    between atoms: C_24  and  S_18 
ROOT
ATOM      1  N   UNL d   1       2.745   6.818  -0.531  0.00  0.00    -0.277 N 
ATOM      2  HN  UNL d   1       3.161   7.646  -0.956  1.00  0.00     0.189 HD
ATOM      3  C   UNL d   1       2.006   6.779   0.560  0.00  0.00     0.174 A 
ATOM      4  O   UNL d   1       1.619   5.505   0.884  0.00  0.00    -0.277 OA
ATOM      5  N   UNL d   1       2.846   5.519  -0.986  0.00  0.00    -0.281 N 
ATOM      6  HN  UNL d   1       3.356   5.197  -1.808  1.00  0.00     0.189 HD
ATOM      7  C   UNL d   1       2.153   4.778  -0.149  0.00  0.00     0.150 A 
ENDROOT
BRANCH   7   8
ATOM      8  C   UNL d   1       1.879   3.321  -0.177  0.00  0.00     0.167 C 
BRANCH   8   9
ATOM      9  S   UNL d   1       0.098   2.939  -0.095  0.00  0.00    -0.095 SA
BRANCH   9  10
ATOM     10  C   UNL d   1      -0.456   3.589  -1.621  0.00  0.00     0.129 A 
ATOM     11  S   UNL d   1      -2.046   4.186  -1.863  0.00  0.00    -0.038 SA
ATOM     12  C   UNL d   1      -1.606   4.469  -3.495  0.00  0.00     0.129 A 
ATOM     13  N   UNL d   1      -0.364   4.139  -3.783  0.00  0.00    -0.287 N 
ATOM     14  N   UNL d   1       0.306   3.624  -2.690  0.00  0.00    -0.287 N 
ATOM     15  HN  UNL d   1       0.055   4.251  -4.706  1.00  0.00     0.188 HD
ATOM     16  HN  UNL d   1       1.276   3.309  -2.711  1.00  0.00     0.188 HD
BRANCH  12  17
ATOM     17  S   UNL d   1      -2.700   5.131  -4.694  0.00  0.00    -0.103 SA
BRANCH  17  18
ATOM     18  C   UNL d   1      -1.976   4.410  -6.189  0.00  0.00     0.086 C 
BRANCH  18  19
ATOM     19  C   UNL d   1      -2.651   4.920  -7.425  0.00  0.00    -0.005 A 
ATOM     20  C   UNL d   1      -4.054   4.535  -7.830  0.00  0.00     0.006 A 
ATOM     21  C   UNL d   1      -2.881   3.957  -8.568  0.00  0.00     0.006 A 
ENDBRANCH  18  19
ENDBRANCH  17  18
ENDBRANCH  12  17
ENDBRANCH   9  10
ENDBRANCH   8   9
ENDBRANCH   7   8
BRANCH   3  22
ATOM     22  C   UNL d   1       1.505   7.861   1.396  0.00  0.00     0.017 A 
ATOM     23  C   UNL d   1       0.769   7.612   2.567  0.00  0.00     0.017 A 
ATOM     24  C   UNL d   1       0.256   8.669   3.325  0.00  0.00     0.025 A 
ATOM     25  C   UNL d   1       0.475   9.984   2.921  0.00  0.00     0.034 A 
ATOM     26  C   UNL d   1       1.213  10.252   1.770  0.00  0.00     0.025 A 
ATOM     27 CL   UNL d   1      -0.178  11.282   3.840  0.00  0.00    -0.084 Cl
ATOM     28  C   UNL d   1       1.727   9.193   1.014  0.00  0.00     0.017 A 
ENDBRANCH   3  22
TORSDOF 7
