REMARK  9 active torsions:
REMARK  status: ('A' for Active; 'I' for Inactive)
REMARK    1  A    between atoms: C_2  and  S_1 
REMARK    2  A    between atoms: C_5  and  S_1 
REMARK    3  A    between atoms: N_7  and  C_6 
REMARK    4  A    between atoms: C_12  and  N_7 
REMARK    5  A    between atoms: C_13  and  N_7 
REMARK    6  A    between atoms: C_16  and  C_12 
REMARK    7  A    between atoms: C_17  and  C_13 
REMARK    8  A    between atoms: C_19  and  C_16 
REMARK    9  A    between atoms: C_18  and  C_17 
ROOT
ATOM      1  C   UNL d   1       0.491  -0.786  -1.325  0.00  0.00     0.064 A 
ATOM      2  C   UNL d   1      -0.306  -2.063  -3.740  0.00  0.00     0.030 A 
ATOM      3  C   UNL d   1       1.220  -1.864  -1.815  0.00  0.00     0.026 A 
ATOM      4  C   UNL d   1      -0.617  -0.321  -2.028  0.00  0.00     0.026 A 
ATOM      5  C   UNL d   1       0.823  -2.478  -3.009  0.00  0.00     0.031 A 
ATOM      6  C   UNL d   1      -1.009  -0.965  -3.212  0.00  0.00     0.031 A 
ENDROOT
BRANCH   1   7
ATOM      7  S   UNL d   1       1.040   0.062   0.137  0.00  0.00     0.206 S 
ATOM      8  O   UNL d   1       0.758   1.471  -0.060  0.00  0.00    -0.217 OA
ATOM      9  O   UNL d   1       2.399  -0.374   0.411  0.00  0.00    -0.217 OA
BRANCH   7  10
ATOM     10  C   UNL d   1       0.029  -0.505   1.487  0.00  0.00     0.064 A 
ATOM     11  C   UNL d   1       0.432  -1.615   2.237  0.00  0.00     0.024 A 
ATOM     12  C   UNL d   1      -0.333  -2.015   3.334  0.00  0.00     0.002 A 
ATOM     13  C   UNL d   1      -1.484  -1.307   3.681  0.00  0.00     0.000 A 
ATOM     14  C   UNL d   1      -1.874  -0.193   2.936  0.00  0.00     0.002 A 
ATOM     15  C   UNL d   1      -1.115   0.215   1.838  0.00  0.00     0.024 A 
ENDBRANCH   7  10
ENDBRANCH   1   7
BRANCH   2  16
ATOM     16  N   UNL d   1      -0.704  -2.709  -4.907  0.00  0.00    -0.381 N 
BRANCH  16  17
ATOM     17  C   UNL d   1      -1.538  -2.038  -5.921  0.00  0.00     0.123 C 
BRANCH  17  18
ATOM     18  C   UNL d   1      -0.877  -0.811  -6.567  0.00  0.00     0.019 C 
BRANCH  18  19
ATOM     19  C   UNL d   1       0.435  -1.103  -7.299  0.00  0.00    -0.003 C 
ATOM     20  C   UNL d   1       0.967   0.153  -7.979  0.00  0.00     0.005 C 
ENDBRANCH  18  19
ENDBRANCH  17  18
ENDBRANCH  16  17
BRANCH  16  21
ATOM     21  C   UNL d   1      -0.236  -4.068  -5.235  0.00  0.00     0.123 C 
BRANCH  21  22
ATOM     22  C   UNL d   1      -0.635  -5.132  -4.199  0.00  0.00     0.019 C 
BRANCH  22  23
ATOM     23  C   UNL d   1      -2.144  -5.309  -4.026  0.00  0.00    -0.003 C 
ATOM     24  C   UNL d   1      -2.444  -6.378  -2.982  0.00  0.00     0.005 C 
ENDBRANCH  22  23
ENDBRANCH  21  22
ENDBRANCH  16  21
ENDBRANCH   2  16
TORSDOF 9
