REMARK  2 active torsions:
REMARK  status: ('A' for Active; 'I' for Inactive)
REMARK    1  A    between atoms: C_4  and  C_3 
REMARK    2  A    between atoms: C_10  and  C_8 
ROOT
ATOM      1  N   UNL d   1       1.406  -0.657  -0.088  0.00  0.00    -0.347 N 
ATOM      2  HN  UNL d   1       2.281  -1.178  -0.153  1.00  0.00     0.167 HD
ATOM      3  C   UNL d   1       1.306   0.723  -0.026  0.00  0.00     0.074 A 
ATOM      4  C   UNL d   1       0.203  -1.198  -0.052  0.00  0.00     0.091 A 
ATOM      5  S   UNL d   1      -1.525  -3.383  -0.025  0.00  0.00    -0.085 SA
ATOM      6  C   UNL d   1       0.017  -2.633  -0.050  0.00  0.00     0.039 A 
ATOM      7  C   UNL d   1      -0.870  -4.962  -0.000  0.00  0.00     0.041 A 
ATOM      8  S   UNL d   1      -1.098  -0.065   0.013  0.00  0.00    -0.081 SA
ATOM      9  C   UNL d   1       0.024   1.223   0.037  0.00  0.00     0.084 A 
ATOM     10  C   UNL d   1       1.017  -3.590  -0.055  0.00  0.00     0.023 A 
ATOM     11  C   UNL d   1       0.509  -4.925  -0.024  0.00  0.00     0.023 A 
ENDROOT
BRANCH   3  12
ATOM     12  C   UNL d   1       2.501   1.611  -0.028  0.00  0.00     0.104 A 
ATOM     13  O   UNL d   1       2.455   2.974   0.094  0.00  0.00    -0.308 OA
ATOM     14  C   UNL d   1       3.736   3.428   0.036  0.00  0.00     0.086 A 
ATOM     15  C   UNL d   1       4.126   4.762   0.126  0.00  0.00     0.038 A 
ATOM     16  C   UNL d   1       4.617   2.368  -0.133  0.00  0.00     0.001 A 
ATOM     17  C   UNL d   1       5.496   5.020   0.018  0.00  0.00     0.003 A 
ATOM     18  C   UNL d   1       6.414   3.982  -0.167  0.00  0.00     0.001 A 
ATOM     19  C   UNL d   1       5.991   2.647  -0.240  0.00  0.00     0.014 A 
ATOM     20  C   UNL d   1       3.813   1.199  -0.154  0.00  0.00     0.054 A 
ENDBRANCH   3  12
BRANCH   7  21
ATOM     21  C   UNL d   1      -1.705  -6.132   0.039  0.00  0.00     0.117 A 
ATOM     22  O   UNL d   1      -1.190  -7.405   0.051  0.00  0.00    -0.237 OA
ATOM     23  N   UNL d   1      -2.214  -8.336   0.090  0.00  0.00    -0.272 N 
ATOM     24  C   UNL d   1      -3.339  -7.622   0.103  0.00  0.00     0.117 A 
ATOM     25  HN  UNL d   1      -2.126  -9.352   0.105  1.00  0.00     0.194 HD
ATOM     26  C   UNL d   1      -3.082  -6.243   0.074  0.00  0.00     0.059 A 
ENDBRANCH   7  21
TORSDOF 2
