REMARK  6 active torsions:
REMARK  status: ('A' for Active; 'I' for Inactive)
REMARK    1  A    between atoms: C_5  and  C_1 
REMARK    2  A    between atoms: N_8  and  N_2 
REMARK    3  A    between atoms: C_4  and  O_10 
REMARK    4  A    between atoms: C_9  and  C_5 
REMARK    5  A    between atoms: C_17  and  N_8 
REMARK    6  A    between atoms: O_10  and  C_18 
ROOT
ATOM      1  C   UNL d   1       1.111  -0.046  -0.032  0.00  0.00     0.179 C 
ATOM      2  N   UNL d   1       2.348  -0.381   0.209  0.00  0.00    -0.287 N 
ATOM      3  HN  UNL d   1       2.777  -0.112   1.094  1.00  0.00     0.188 HD
ATOM      4  C   UNL d   1       0.502  -0.442  -1.276  0.00  0.00     0.123 C 
ATOM      5  N   UNL d   1       0.075  -0.760  -2.312  0.00  0.00    -0.190 NA
ENDROOT
BRANCH   1   6
ATOM      6  C   UNL d   1       0.356   0.733   1.005  0.00  0.00     0.220 C 
ATOM      7  O   UNL d   1      -0.833   0.479   1.158  0.00  0.00    -0.284 OA
BRANCH   6   8
ATOM      8  C   UNL d   1       1.038   1.758   1.835  0.00  0.00     0.017 A 
ATOM      9  C   UNL d   1       2.211   2.407   1.430  0.00  0.00     0.018 A 
ATOM     10  C   UNL d   1       2.818   3.361   2.259  0.00  0.00     0.038 A 
ATOM     11  C   UNL d   1       2.237   3.701   3.480  0.00  0.00     0.078 A 
ATOM     12  C   UNL d   1       1.079   3.035   3.892  0.00  0.00     0.038 A 
ATOM     13  C   UNL d   1       0.474   2.079   3.074  0.00  0.00     0.018 A 
BRANCH  11  14
ATOM     14  O   UNL d   1       2.700   4.620   4.370  0.00  0.00    -0.255 OA
BRANCH  14  15
ATOM     15  C   UNL d   1       3.478   5.714   3.908  0.00  0.00     0.530 C 
ATOM     16  F   UNL d   1       3.353   5.949   2.585  0.00  0.00    -0.144 F 
ATOM     17  F   UNL d   1       3.076   6.826   4.563  0.00  0.00    -0.144 F 
ATOM     18  F   UNL d   1       4.779   5.500   4.198  0.00  0.00    -0.144 F 
ENDBRANCH  14  15
ENDBRANCH  11  14
ENDBRANCH   6   8
ENDBRANCH   1   6
BRANCH   2  19
ATOM     19  N   UNL d   1       3.074  -1.083  -0.700  0.00  0.00    -0.300 N 
ATOM     20  H   UNL d   1       2.813  -1.161  -1.685  0.00  0.00     0.187 HD
BRANCH  19  21
ATOM     21  C   UNL d   1       4.441  -1.302  -0.434  0.00  0.00     0.048 A 
ATOM     22  C   UNL d   1       5.024  -0.983   0.804  0.00  0.00     0.034 A 
ATOM     23  C   UNL d   1       6.367  -1.268   1.063  0.00  0.00     0.044 A 
ATOM     24  C   UNL d   1       7.131  -1.892   0.088  0.00  0.00     0.116 A 
ATOM     25  C   UNL d   1       6.578  -2.236  -1.138  0.00  0.00     0.044 A 
ATOM     26  F   UNL d   1       8.415  -2.178   0.337  0.00  0.00    -0.206 F 
ATOM     27  C   UNL d   1       5.234  -1.947  -1.395  0.00  0.00     0.034 A 
ENDBRANCH  19  21
ENDBRANCH   2  19
TORSDOF 6
