REMARK  7 active torsions:
REMARK  status: ('A' for Active; 'I' for Inactive)
REMARK    1  A    between atoms: C_2  and  C_1 
REMARK    2  A    between atoms: C_15  and  N_3 
REMARK    3  A    between atoms: C_16  and  N_6 
REMARK    4  A    between atoms: S_14  and  C_7 
REMARK    5  A    between atoms: C_17  and  C_15 
REMARK    6  A    between atoms: C_20  and  C_17 
REMARK    7  A    between atoms: O_18  and  C_20 
ROOT
ATOM      1  C   UNL d   1      -0.198  -1.212   0.281  0.00  0.00     0.153 A 
ATOM      2  N   UNL d   1       1.065  -0.659   0.210  0.00  0.00    -0.310 N 
ATOM      3  N   UNL d   1      -1.065  -0.254   0.537  0.00  0.00    -0.281 N 
ATOM      4  HN  UNL d   1      -2.071  -0.378   0.651  1.00  0.00     0.188 HD
ATOM      5  C   UNL d   1       0.881   0.684   0.435  0.00  0.00     0.160 A 
ATOM      6  N   UNL d   1      -0.392   0.934   0.625  0.00  0.00    -0.278 N 
ATOM      7  HN  UNL d   1      -0.806   1.849   0.805  1.00  0.00     0.189 HD
ENDROOT
BRANCH   1   8
ATOM      8  C   UNL d   1      -0.580  -2.579   0.125  0.00  0.00     0.098 A 
ATOM      9  N   UNL d   1      -1.601  -3.180   0.829  0.00  0.00    -0.289 N 
ATOM     10  N   UNL d   1      -1.804  -4.470   0.480  0.00  0.00    -0.303 N 
ATOM     11  C   UNL d   1      -0.925  -4.690  -0.500  0.00  0.00     0.024 A 
ATOM     12  HN  UNL d   1      -2.477  -5.127   0.876  1.00  0.00     0.186 HD
ATOM     13  C   UNL d   1      -0.124  -3.551  -0.744  0.00  0.00     0.061 A 
ATOM     14  C   UNL d   1      -0.893  -6.003  -1.186  0.00  0.00     0.070 C 
BRANCH   9  15
ATOM     15  C   UNL d   1      -2.407  -2.630   1.906  0.00  0.00     0.145 C 
ATOM     16  C   UNL d   1      -3.729  -2.064   1.416  0.00  0.00     0.028 C 
ENDBRANCH   9  15
ENDBRANCH   1   8
BRANCH   2  17
ATOM     17  C   UNL d   1       2.324  -1.362   0.060  0.00  0.00     0.135 C 
BRANCH  17  18
ATOM     18  C   UNL d   1       2.941  -1.199  -1.332  0.00  0.00     0.046 C 
BRANCH  18  19
ATOM     19  C   UNL d   1       4.292  -1.896  -1.428  0.00  0.00     0.168 C 
BRANCH  19  20
ATOM     20  O   UNL d   1       4.094  -3.299  -1.287  0.00  0.00    -0.396 OA
ATOM     21  C   UNL d   1       5.316  -4.017  -1.423  0.00  0.00     0.201 C 
ENDBRANCH  19  20
ENDBRANCH  18  19
ENDBRANCH  17  18
ENDBRANCH   2  17
BRANCH   5  22
ATOM     22  S   UNL d   1       2.112   1.898   0.479  0.00  0.00    -0.105 SA
ATOM     23  H   UNL d   1       3.212   1.145   0.396  0.00  0.00     0.110 HD
ENDBRANCH   5  22
TORSDOF 7
