REMARK  4 active torsions:
REMARK  status: ('A' for Active; 'I' for Inactive)
REMARK    1  A    between atoms: C_3  and  C_1 
REMARK    2  A    between atoms: C_5  and  C_1 
REMARK    3  A    between atoms: C_4  and  C_3 
REMARK    4  A    between atoms: N_6  and  C_5 
ROOT
ATOM      1  C   UNL d   1       0.968  -0.061   0.073  0.00  0.00     0.102 C 
ATOM      2  C   UNL d   1       0.273  -0.704  -0.888  0.00  0.00     0.060 C 
ATOM      3  S   UNL d   1      -1.472  -0.733  -0.964  0.00  0.00    -0.121 SA
ATOM      4  S   UNL d   1       1.095  -1.548  -2.189  0.00  0.00    -0.121 SA
ATOM      5  C   UNL d   1      -1.053  -3.297  -2.001  0.00  0.00     0.021 C 
ATOM      6  C   UNL d   1      -1.772  -2.519  -0.903  0.00  0.00     0.081 C 
ATOM      7  C   UNL d   1       0.467  -3.223  -1.901  0.00  0.00     0.081 C 
ENDROOT
BRANCH   1   8
ATOM      8  C   UNL d   1       0.362   0.745   1.191  0.00  0.00     0.226 C 
ATOM      9  O   UNL d   1      -0.626   1.451   0.988  0.00  0.00    -0.284 OA
BRANCH   8  10
ATOM     10  C   UNL d   1       1.034   0.742   2.481  0.00  0.00     0.126 A 
ATOM     11  O   UNL d   1       1.926  -0.251   2.788  0.00  0.00    -0.319 OA
ATOM     12  C   UNL d   1       2.454   0.038   4.006  0.00  0.00     0.142 A 
ATOM     13  C   UNL d   1       1.883   1.180   4.515  0.00  0.00     0.027 A 
ATOM     14  C   UNL d   1       0.950   1.620   3.545  0.00  0.00     0.043 A 
ENDBRANCH   8  10
ENDBRANCH   1   8
BRANCH   1  15
ATOM     15  C   UNL d   1       2.488  -0.061   0.073  0.00  0.00    -0.031 C 
BRANCH  15  16
ATOM     16  N   UNL d   1       3.749  -0.061   0.073  0.00  0.00    -0.365 N 
ATOM     17  HN2 UNL d   1       2.729  -0.061   0.073  1.00  0.00     0.165 HD
ATOM     18  HN1 UNL d   1       4.769  -0.061   0.073  1.00  0.00     0.165 HD
ENDBRANCH  15  16
ENDBRANCH   1  15
TORSDOF 4
