REMARK  6 active torsions:
REMARK  status: ('A' for Active; 'I' for Inactive)
REMARK    1  A    between atoms: C_2  and  S_1 
REMARK    2  A    between atoms: N_5  and  S_1 
REMARK    3  A    between atoms: C_9  and  C_4 
REMARK    4  A    between atoms: C_8  and  C_15 
REMARK    5  A    between atoms: O_23  and  C_9 
REMARK    6  A    between atoms: C_15  and  N_13 
ROOT
ATOM      1  N   UNL d   1       0.295  -0.510  -1.271  0.00  0.00    -0.203 NA
ATOM      2  N   UNL d   1       0.671  -0.619  -4.479  0.00  0.00     0.093 N 
ATOM      3  C   UNL d   1       0.512   0.616  -2.235  0.00  0.00     0.138 C 
ATOM      4  C   UNL d   1      -0.035   0.352  -3.639  0.00  0.00     0.288 C 
ATOM      5  C   UNL d   1       0.381  -2.574  -2.784  0.00  0.00     0.046 C 
ATOM      6  C   UNL d   1       1.014  -1.772  -1.656  0.00  0.00     0.109 C 
ATOM      7  C   UNL d   1       0.237  -1.982  -4.192  0.00  0.00     0.274 C 
ENDROOT
BRANCH   1   8
ATOM      8  S   UNL d   1       0.812  -0.053   0.327  0.00  0.00     0.259 S 
ATOM      9  O   UNL d   1       0.189  -0.938   1.284  0.00  0.00    -0.204 OA
ATOM     10  O   UNL d   1       2.249   0.122   0.276  0.00  0.00    -0.204 OA
BRANCH   8  11
ATOM     11  C   UNL d   1       0.191   1.577   0.698  0.00  0.00     0.146 A 
ATOM     12  N   UNL d   1      -1.147   1.901   0.866  0.00  0.00    -0.336 N 
ATOM     13  C   UNL d   1      -1.278   3.251   1.174  0.00  0.00     0.111 A 
ATOM     14  C   UNL d   1      -2.265   0.989   0.734  0.00  0.00     0.157 C 
ATOM     15  C   UNL d   1       0.001   3.789   1.147  0.00  0.00     0.039 A 
ATOM     16  C   UNL d   1       0.905   2.755   0.855  0.00  0.00     0.046 A 
BRANCH  13  17
ATOM     17  C   UNL d   1      -2.519   3.940   1.467  0.00  0.00     0.309 C 
ATOM     18  O   UNL d   1      -3.636   3.435   1.476  0.00  0.00    -0.258 OA
BRANCH  17  19
ATOM     19  O   UNL d   1      -2.266   5.253   1.740  0.00  0.00    -0.321 OA
ATOM     20  C   UNL d   1      -3.411   6.032   2.070  0.00  0.00     0.213 C 
ENDBRANCH  17  19
ENDBRANCH  13  17
ENDBRANCH   8  11
ENDBRANCH   1   8
BRANCH   2  21
ATOM     21  C   UNL d   1       2.133  -0.479  -4.556  0.00  0.00     0.314 C 
BRANCH  21  22
ATOM     22  C   UNL d   1       2.640   0.851  -5.069  0.00  0.00     0.010 A 
ATOM     23  C   UNL d   1       3.817   1.393  -4.530  0.00  0.00     0.141 A 
ATOM     24  C   UNL d   1       4.354   2.582  -5.022  0.00  0.00     0.050 A 
ATOM     25  F   UNL d   1       4.434   0.746  -3.529  0.00  0.00    -0.204 F 
ATOM     26 BR   UNL d   1       5.947   3.293  -4.291  0.00  0.00    -0.048 Br
ATOM     27  C   UNL d   1       3.725   3.250  -6.071  0.00  0.00     0.022 A 
ATOM     28  C   UNL d   1       2.560   2.719  -6.626  0.00  0.00     0.002 A 
ATOM     29  C   UNL d   1       2.027   1.522  -6.137  0.00  0.00     0.012 A 
ENDBRANCH  21  22
ENDBRANCH   2  21
TORSDOF 6
