REMARK  3 active torsions:
REMARK  status: ('A' for Active; 'I' for Inactive)
REMARK    1  A    between atoms: S_4  and  C_5 
REMARK    2  A    between atoms: C_6  and  S_4 
REMARK    3  A    between atoms: C_7  and  C_6 
ROOT
ATOM      1  N   UNL d   1      -3.028  -0.554  -0.494  0.00  0.00    -0.191 NA
ATOM      2  C   UNL d   1      -1.897  -0.346  -0.342  0.00  0.00     0.101 C 
ATOM      3  C   UNL d   1      -0.493  -0.142  -0.153  0.00  0.00     0.061 A 
ATOM      4  C   UNL d   1       0.123   1.114   0.007  0.00  0.00     0.021 A 
ATOM      5  C   UNL d   1       0.284  -1.321  -0.132  0.00  0.00     0.024 A 
ATOM      6  C   UNL d   1       1.525   1.127   0.188  0.00  0.00     0.020 A 
ATOM      7  C   UNL d   1       1.663  -1.275   0.049  0.00  0.00     0.002 A 
ATOM      8  C   UNL d   1       2.285  -0.047   0.211  0.00  0.00     0.001 A 
ENDROOT
BRANCH   4   9
ATOM      9  S   UNL d   1      -0.579   2.779   0.014  0.00  0.00    -0.124 SA
BRANCH   9  10
ATOM     10  C   UNL d   1      -2.377   2.592  -0.170  0.00  0.00     0.117 C 
BRANCH  10  11
ATOM     11  C   UNL d   1      -3.101   3.917  -0.221  0.00  0.00    -0.049 A 
ATOM     12  C   UNL d   1      -3.298   4.570  -1.448  0.00  0.00     0.008 A 
ATOM     13  C   UNL d   1      -4.044   5.747  -1.515  0.00  0.00     0.001 A 
ATOM     14  C   UNL d   1      -4.593   6.292  -0.356  0.00  0.00     0.000 A 
ATOM     15  C   UNL d   1      -4.379   5.671   0.873  0.00  0.00     0.001 A 
ATOM     16  C   UNL d   1      -3.632   4.493   0.943  0.00  0.00     0.008 A 
ENDBRANCH  10  11
ENDBRANCH   9  10
ENDBRANCH   4   9
TORSDOF 3
