REMARK  4 active torsions:
REMARK  status: ('A' for Active; 'I' for Inactive)
REMARK    1  A    between atoms: S_8  and  C_4 
REMARK    2  A    between atoms: C_13  and  S_8 
REMARK    3  A    between atoms: C_10  and  C_13 
REMARK    4  A    between atoms: C_12  and  C_10 
ROOT
ATOM      1  N   UNL d   1       5.171  -1.205   2.647  0.00  0.00    -0.303 N 
ATOM      2  C   UNL d   1       4.620  -2.826   4.302  0.00  0.00     0.043 A 
ATOM      3  C   UNL d   1       5.494  -1.742   3.862  0.00  0.00     0.256 A 
ATOM      4  C   UNL d   1       4.125  -1.667   1.899  0.00  0.00     0.147 A 
ATOM      5  N   UNL d   1       3.326  -2.607   2.298  0.00  0.00    -0.339 N 
ATOM      6  HN  UNL d   1       2.533  -2.910   1.733  1.00  0.00     0.168 HD
ATOM      7  C   UNL d   1       3.600  -3.174   3.515  0.00  0.00     0.033 A 
ATOM      8  S   UNL d   1       3.526  -4.835   5.591  0.00  0.00    -0.158 SA
ATOM      9  O   UNL d   1       6.446  -1.366   4.534  0.00  0.00    -0.267 OA
ATOM     10  C   UNL d   1       4.852  -3.579   5.552  0.00  0.00     0.120 A 
ATOM     11  C   UNL d   1       2.759  -4.307   4.017  0.00  0.00     0.132 A 
ATOM     12  H   UNL d   1       5.834  -0.520   2.309  0.00  0.00     0.171 HD
ENDROOT
BRANCH   4  13
ATOM     13  S   UNL d   1       3.818  -1.004   0.315  0.00  0.00    -0.086 SA
BRANCH  13  14
ATOM     14  C   UNL d   1       5.023   0.293   0.021  0.00  0.00     0.166 C 
BRANCH  14  15
ATOM     15  C   UNL d   1       6.433  -0.244   0.007  0.00  0.00     0.169 C 
ATOM     16  O   UNL d   1       7.104  -0.187   1.041  0.00  0.00    -0.291 OA
BRANCH  15  17
ATOM     17  C   UNL d   1       7.014  -0.885  -1.212  0.00  0.00     0.011 A 
ATOM     18  C   UNL d   1       6.318  -0.999  -2.423  0.00  0.00     0.017 A 
ATOM     19  C   UNL d   1       6.918  -1.632  -3.519  0.00  0.00     0.025 A 
ATOM     20  C   UNL d   1       8.206  -2.153  -3.410  0.00  0.00     0.034 A 
ATOM     21  C   UNL d   1       8.908  -2.043  -2.213  0.00  0.00     0.025 A 
ATOM     22 CL   UNL d   1       8.929  -2.939  -4.757  0.00  0.00    -0.084 Cl
ATOM     23  C   UNL d   1       8.313  -1.412  -1.118  0.00  0.00     0.017 A 
ENDBRANCH  15  17
ENDBRANCH  14  15
ENDBRANCH  13  14
ENDBRANCH   4  13
TORSDOF 4
