REMARK  5 active torsions:
REMARK  status: ('A' for Active; 'I' for Inactive)
REMARK    1  A    between atoms: C_5  and  C_1 
REMARK    2  A    between atoms: N_12  and  C_2 
REMARK       I    between atoms: C_6  and  N_7 
REMARK    3  A    between atoms: C_10  and  C_6 
REMARK       I    between atoms: N_7  and  C_8 
REMARK       I    between atoms: C_8  and  N_12 
REMARK    4  A    between atoms: O_14  and  C_13 
REMARK    5  A    between atoms: C_15  and  O_14 
ROOT
ATOM      1  C   UNL d   1       2.680  -1.263  -0.464  0.00  0.00     0.262 C 
ATOM      2  N   UNL d   1       2.366  -2.628  -0.581  0.00  0.00    -0.275 N 
ATOM      3  C   UNL d   1       1.176  -3.349  -0.752  0.00  0.00     0.327 C 
ATOM      4  N   UNL d   1       1.448  -4.706  -0.928  0.00  0.00    -0.304 N 
ATOM      5  O   UNL d   1       3.845  -0.943  -0.653  0.00  0.00    -0.267 OA
ATOM      6  O   UNL d   1       0.048  -2.878  -0.744  0.00  0.00    -0.247 OA
ATOM      7  H   UNL d   1       3.210  -3.154  -0.734  0.00  0.00     0.173 HD
ATOM      8  H   UNL d   1       2.185  -4.866  -1.601  0.00  0.00     0.171 HD
ENDROOT
BRANCH   1   9
ATOM      9  C   UNL d   1       1.643  -0.244  -0.136  0.00  0.00     0.066 A 
ATOM     10  C   UNL d   1       1.723   1.090  -0.576  0.00  0.00     0.091 A 
ATOM     11  C   UNL d   1       0.720   2.012  -0.223  0.00  0.00     0.038 A 
ATOM     12  C   UNL d   1      -0.346   1.626   0.586  0.00  0.00     0.003 A 
ATOM     13  C   UNL d   1      -0.395   0.332   1.086  0.00  0.00     0.001 A 
ATOM     14  C   UNL d   1       0.602  -0.586   0.744  0.00  0.00     0.020 A 
BRANCH  10  15
ATOM     15  O   UNL d   1       2.853   1.677  -1.093  0.00  0.00    -0.308 OA
BRANCH  15  16
ATOM     16  C   UNL d   1       3.282   1.472  -2.382  0.00  0.00     0.098 A 
ATOM     17  C   UNL d   1       4.505   2.088  -2.717  0.00  0.00     0.069 A 
ATOM     18  C   UNL d   1       5.081   1.910  -3.975  0.00  0.00     0.050 A 
ATOM     19 CL   UNL d   1       5.339   3.104  -1.589  0.00  0.00    -0.081 Cl
ATOM     20  C   UNL d   1       4.429   1.118  -4.912  0.00  0.00     0.035 A 
ATOM     21  C   UNL d   1       3.199   0.531  -4.609  0.00  0.00     0.026 A 
ATOM     22 CL   UNL d   1       5.147   0.864  -6.456  0.00  0.00    -0.084 Cl
ATOM     23  C   UNL d   1       2.618   0.714  -3.347  0.00  0.00     0.041 A 
ENDBRANCH  15  16
ENDBRANCH  10  15
ENDBRANCH   1   9
BRANCH   4  24
ATOM     24  C   UNL d   1       0.408  -5.636  -0.996  0.00  0.00     0.097 C 
ATOM     25  C   UNL d   1       0.085  -6.553  -2.055  0.00  0.00     0.097 C 
ATOM     26  N   UNL d   1      -0.963  -7.313  -1.693  0.00  0.00    -0.258 N 
ATOM     27  O   UNL d   1      -1.273  -6.976  -0.404  0.00  0.00    -0.240 OA
ATOM     28  HN  UNL d   1      -1.436  -8.008  -2.270  1.00  0.00     0.195 HD
ATOM     29  C   UNL d   1      -0.401  -6.037   0.045  0.00  0.00     0.101 C 
ATOM     30  C   UNL d   1      -0.430  -5.843   1.508  0.00  0.00     0.081 C 
BRANCH  25  31
ATOM     31  C   UNL d   1       0.735  -6.812  -3.346  0.00  0.00     0.038 A 
ATOM     32  C   UNL d   1       2.125  -7.039  -3.439  0.00  0.00     0.048 A 
ATOM     33 CL   UNL d   1       3.225  -6.882  -2.109  0.00  0.00    -0.083 Cl
ATOM     34  C   UNL d   1       2.710  -7.468  -4.637  0.00  0.00     0.025 A 
ATOM     35  C   UNL d   1       1.927  -7.713  -5.758  0.00  0.00     0.003 A 
ATOM     36  C   UNL d   1       0.560  -7.473  -5.701  0.00  0.00     0.025 A 
ATOM     37  C   UNL d   1      -0.032  -7.003  -4.519  0.00  0.00     0.048 A 
ATOM     38 CL   UNL d   1      -1.729  -6.658  -4.617  0.00  0.00    -0.083 Cl
ENDBRANCH  25  31
ENDBRANCH   4  24
TORSDOF 5
