REMARK  2 active torsions:
REMARK  status: ('A' for Active; 'I' for Inactive)
REMARK    1  A    between atoms: C_7  and  C_1 
REMARK    2  A    between atoms: N_8  and  C_7 
ROOT
ATOM      1  C   UNL d   1      -0.999   1.046   0.038  0.00  0.00    -0.017 A 
ATOM      2  C   UNL d   1       0.290   1.641   0.129  0.00  0.00    -0.047 A 
ATOM      3  C   UNL d   1      -1.088  -0.387  -0.008  0.00  0.00    -0.047 A 
ATOM      4  C   UNL d   1       1.461   0.838   0.010  0.00  0.00    -0.049 A 
ATOM      5  C   UNL d   1       0.089  -1.190  -0.047  0.00  0.00    -0.049 A 
ATOM      6  C   UNL d   1       1.363  -0.576  -0.056  0.00  0.00    -0.049 A 
ATOM      7  C   UNL d   1      -2.420  -1.119   0.027  0.00  0.00     0.049 C 
ATOM      8  C   UNL d   1       0.469   3.127   0.364  0.00  0.00     0.049 C 
ATOM      9  C   UNL d   1       0.009  -2.705  -0.048  0.00  0.00     0.049 C 
ATOM     10  C   UNL d   1       2.633  -1.401  -0.089  0.00  0.00     0.049 C 
ATOM     11  C   UNL d   1       2.847   1.457  -0.016  0.00  0.00     0.049 C 
ENDROOT
BRANCH   1  12
ATOM     12  C   UNL d   1      -2.296   1.855   0.158  0.00  0.00     0.312 C 
BRANCH  12  13
ATOM     13  N   UNL d   1      -2.418   3.212  -0.440  0.00  0.00     0.094 N 
ATOM     14  C   UNL d   1      -2.335   3.142  -1.917  0.00  0.00     0.283 C 
ATOM     15  C   UNL d   1      -2.587   4.470  -2.651  0.00  0.00     0.104 C 
ATOM     16  S   UNL d   1      -4.254   5.117  -2.338  0.00  0.00    -0.166 SA
ATOM     17  C   UNL d   1      -4.123   5.140  -0.531  0.00  0.00     0.104 C 
ATOM     18  C   UNL d   1      -3.717   3.770   0.020  0.00  0.00     0.283 C 
ENDBRANCH  12  13
ENDBRANCH   1  12
TORSDOF 2
