REMARK  9 active torsions:
REMARK  status: ('A' for Active; 'I' for Inactive)
REMARK    1  A    between atoms: C_11  and  C_1 
REMARK    2  A    between atoms: C_9  and  C_2 
REMARK    3  A    between atoms: C_10  and  C_2 
REMARK    4  A    between atoms: C_8  and  N_12 
REMARK    5  A    between atoms: O_19  and  C_9 
REMARK    6  A    between atoms: O_18  and  C_10 
REMARK    7  A    between atoms: N_12  and  C_17 
REMARK    8  A    between atoms: C_25  and  O_18 
REMARK    9  A    between atoms: C_24  and  O_19 
ROOT
ATOM      1  C   UNL d   1       1.926  -2.058   0.460  0.00  0.00    -0.004 A 
ATOM      2  C   UNL d   1       2.122  -2.828  -0.701  0.00  0.00     0.043 A 
ATOM      3  C   UNL d   1       3.406  -3.073  -1.206  0.00  0.00     0.032 A 
ATOM      4  C   UNL d   1       3.045  -1.526   1.113  0.00  0.00     0.014 A 
ATOM      5  C   UNL d   1       4.326  -1.740   0.610  0.00  0.00     0.003 A 
ATOM      6  C   UNL d   1       4.502  -2.509  -0.538  0.00  0.00     0.029 A 
ENDROOT
BRANCH   3   7
ATOM      7  N   UNL d   1       3.653  -3.787  -2.387  0.00  0.00    -0.365 N 
ATOM      8  H   UNL d   1       4.599  -4.155  -2.480  0.00  0.00     0.165 HD
BRANCH   7   9
ATOM      9  C   UNL d   1       2.811  -4.058  -3.438  0.00  0.00     0.112 C 
ATOM     10  C   UNL d   1       3.026  -4.847  -4.511  0.00  0.00     0.129 C 
BRANCH  10  11
ATOM     11  C   UNL d   1       4.233  -5.697  -4.655  0.00  0.00     0.300 C 
ATOM     12  O   UNL d   1       4.266  -6.737  -5.298  0.00  0.00    -0.259 OA
BRANCH  11  13
ATOM     13  O   UNL d   1       5.260  -5.243  -3.881  0.00  0.00    -0.318 OA
BRANCH  13  14
ATOM     14  C   UNL d   1       6.262  -6.218  -3.555  0.00  0.00     0.174 C 
ATOM     15  C   UNL d   1       5.785  -7.010  -2.349  0.00  0.00     0.034 C 
ENDBRANCH  13  14
ENDBRANCH  11  13
ENDBRANCH  10  11
BRANCH  10  16
ATOM     16  C   UNL d   1       1.896  -4.980  -5.455  0.00  0.00     0.300 C 
ATOM     17  O   UNL d   1       0.728  -4.746  -5.166  0.00  0.00    -0.259 OA
BRANCH  16  18
ATOM     18  O   UNL d   1       2.327  -5.423  -6.661  0.00  0.00    -0.318 OA
BRANCH  18  19
ATOM     19  C   UNL d   1       1.317  -6.006  -7.495  0.00  0.00     0.174 C 
ATOM     20  C   UNL d   1       1.156  -7.465  -7.105  0.00  0.00     0.034 C 
ENDBRANCH  18  19
ENDBRANCH  16  18
ENDBRANCH  10  16
ENDBRANCH   7   9
ENDBRANCH   3   7
BRANCH   1  21
ATOM     21  C   UNL d   1       0.573  -1.863   0.988  0.00  0.00     0.077 A 
ATOM     22  C   UNL d   1      -0.028  -0.728   1.602  0.00  0.00     0.057 A 
ATOM     23  C   UNL d   1      -1.306  -1.094   1.935  0.00  0.00     0.131 A 
ATOM     24 BR   UNL d   1       0.711   0.970   1.887  0.00  0.00    -0.047 Br
ATOM     25  N   UNL d   1      -1.435  -2.377   1.501  0.00  0.00    -0.306 N 
ATOM     26  N   UNL d   1      -0.325  -2.866   0.924  0.00  0.00    -0.297 N 
ATOM     27  C   UNL d   1      -2.616  -3.196   1.607  0.00  0.00     0.177 C 
ATOM     28  HN  UNL d   1      -0.191  -3.795   0.525  1.00  0.00     0.187 HD
ENDBRANCH   1  21
TORSDOF 9
