REMARK  3 active torsions:
REMARK  status: ('A' for Active; 'I' for Inactive)
REMARK    1  A    between atoms: C_6  and  C_1 
REMARK    2  A    between atoms: C_7  and  C_3 
REMARK    3  A    between atoms: N_9  and  C_4 
REMARK       I    between atoms: N_10  and  C_6 
ROOT
ATOM      1  C   UNL d   1      -0.267   1.044  -0.046  0.00  0.00     0.099 A 
ATOM      2  S   UNL d   1       1.317   0.379  -0.032  0.00  0.00    -0.086 SA
ATOM      3  C   UNL d   1       0.751  -1.241  -0.014  0.00  0.00    -0.007 A 
ATOM      4  C   UNL d   1      -1.210   0.037  -0.004  0.00  0.00     0.049 A 
ATOM      5  C   UNL d   1      -0.632  -1.258   0.039  0.00  0.00     0.045 A 
ENDROOT
BRANCH   1   6
ATOM      6  C   UNL d   1      -0.471   2.484  -0.089  0.00  0.00     0.258 C 
ATOM      7  O   UNL d   1      -1.572   3.037  -0.052  0.00  0.00    -0.267 OA
ATOM      8  N   UNL d   1       0.649   3.264  -0.198  0.00  0.00    -0.365 N 
ATOM      9  H   UNL d   1       1.569   2.849  -0.287  0.00  0.00     0.159 HD
ATOM     10  H   UNL d   1       0.539   4.263  -0.257  0.00  0.00     0.159 HD
ENDBRANCH   1   6
BRANCH   4  11
ATOM     11  N   UNL d   1      -2.545   0.219  -0.004  0.00  0.00    -0.398 N 
ATOM     12  H   UNL d   1      -2.953   1.147  -0.127  0.00  0.00     0.156 HD
ATOM     13  H   UNL d   1      -3.210  -0.544  -0.054  0.00  0.00     0.156 HD
ENDBRANCH   4  11
BRANCH   3  14
ATOM     14  C   UNL d   1       1.711  -2.435   0.006  0.00  0.00    -0.018 C 
ATOM     15  C   UNL d   1       2.047  -2.785   1.467  0.00  0.00     0.020 C 
ATOM     16  C   UNL d   1       1.047  -3.658  -0.663  0.00  0.00     0.020 C 
ATOM     17  C   UNL d   1       3.022  -2.160  -0.759  0.00  0.00     0.020 C 
ENDBRANCH   3  14
TORSDOF 3
