REMARK  3 active torsions:
REMARK  status: ('A' for Active; 'I' for Inactive)
REMARK       I    between atoms: C_2  and  N_1 
REMARK    1  A    between atoms: C_7  and  C_2 
REMARK    2  A    between atoms: C_9  and  C_5 
REMARK    3  A    between atoms: C_10  and  C_9 
ROOT
ATOM      1  N   UNL d   1      -0.316  -1.090   0.147  0.00  0.00    -0.224 N 
ATOM      2  C   UNL d   1      -0.668  -2.453   0.298  0.00  0.00     0.280 C 
ATOM      3  N   UNL d   1       0.993  -0.753   0.155  0.00  0.00    -0.295 N 
ATOM      4  HN  UNL d   1       1.794  -1.383   0.166  1.00  0.00     0.187 HD
ATOM      5  C   UNL d   1      -0.302   1.152   0.075  0.00  0.00    -0.006 C 
ATOM      6  C   UNL d   1      -1.124   0.028  -0.009  0.00  0.00     0.042 C 
ATOM      7  C   UNL d   1       1.012   0.584   0.145  0.00  0.00     0.031 C 
ATOM      8  O   UNL d   1      -1.843  -2.784   0.135  0.00  0.00    -0.265 OA
ATOM      9  C   UNL d   1      -2.592  -0.116  -0.191  0.00  0.00     0.071 C 
ATOM     10  C   UNL d   1       2.341   1.242   0.181  0.00  0.00     0.070 C 
ENDROOT
BRANCH   2  11
ATOM     11  C   UNL d   1       0.284  -3.503   0.715  0.00  0.00     0.077 A 
ATOM     12  C   UNL d   1       0.920  -3.413   1.967  0.00  0.00     0.051 A 
ATOM     13 CL   UNL d   1       0.660  -2.108   3.072  0.00  0.00    -0.083 Cl
ATOM     14  C   UNL d   1       1.749  -4.450   2.406  0.00  0.00     0.025 A 
ATOM     15  C   UNL d   1       1.913  -5.600   1.637  0.00  0.00     0.003 A 
ATOM     16  C   UNL d   1       1.265  -5.705   0.411  0.00  0.00     0.025 A 
ATOM     17  C   UNL d   1       0.461  -4.659  -0.059  0.00  0.00     0.051 A 
ATOM     18 CL   UNL d   1      -0.270  -4.865  -1.613  0.00  0.00    -0.083 Cl
ENDBRANCH   2  11
BRANCH   5  19
ATOM     19  C   UNL d   1      -0.693   2.607  -0.033  0.00  0.00     0.084 C 
BRANCH  19  20
ATOM     20  C   UNL d   1      -0.886   3.186   1.365  0.00  0.00    -0.010 C 
ATOM     21  C   UNL d   1       0.156   3.838   2.050  0.00  0.00     0.042 C 
ATOM     22 CL   UNL d   1       1.627   4.325   1.270  0.00  0.00    -0.084 Cl
ATOM     23  C   UNL d   1       0.020   4.264   3.383  0.00  0.00     0.024 C 
ATOM     24  C   UNL d   1      -1.188   4.107   4.049  0.00  0.00     0.003 C 
ATOM     25  C   UNL d   1      -2.270   3.583   3.364  0.00  0.00     0.024 C 
ATOM     26  C   UNL d   1      -2.129   3.151   2.032  0.00  0.00     0.042 C 
ATOM     27 CL   UNL d   1      -3.614   2.746   1.248  0.00  0.00    -0.084 Cl
ENDBRANCH  19  20
ENDBRANCH   5  19
TORSDOF 3
