REMARK  4 active torsions:
REMARK  status: ('A' for Active; 'I' for Inactive)
REMARK    1  A    between atoms: N_4  and  C_1 
REMARK    2  A    between atoms: S_5  and  C_1 
REMARK    3  A    between atoms: C_6  and  N_2 
REMARK    4  A    between atoms: C_7  and  N_4 
ROOT
ATOM      1  C   UNL d   1       0.977   0.135  -0.114  0.00  0.00     0.144 C 
ATOM      2  N   UNL d   1       0.494   1.271  -0.501  0.00  0.00    -0.337 N 
ATOM      3  HN  UNL d   1      -0.474   1.264  -0.823  1.00  0.00     0.168 HD
ENDROOT
BRANCH   1   4
ATOM      4  N   UNL d   1       0.260  -1.035  -0.025  0.00  0.00    -0.337 N 
ATOM      5  H   UNL d   1       0.713  -1.768   0.500  0.00  0.00     0.168 HD
BRANCH   4   6
ATOM      6  C   UNL d   1      -1.051  -1.316  -0.440  0.00  0.00     0.034 A 
ATOM      7  C   UNL d   1      -1.800  -0.476  -1.274  0.00  0.00     0.029 A 
ATOM      8  C   UNL d   1      -3.104  -0.805  -1.653  0.00  0.00     0.002 A 
ATOM      9  C   UNL d   1      -3.687  -1.984  -1.202  0.00  0.00     0.000 A 
ATOM     10  C   UNL d   1      -2.962  -2.834  -0.372  0.00  0.00     0.002 A 
ATOM     11  C   UNL d   1      -1.658  -2.500   0.004  0.00  0.00     0.029 A 
ENDBRANCH   4   6
ENDBRANCH   1   4
BRANCH   1  12
ATOM     12  S   UNL d   1       2.644  -0.122   0.411  0.00  0.00    -0.098 SA
ATOM     13  C   UNL d   1       3.173  -1.169  -0.973  0.00  0.00     0.099 C 
ENDBRANCH   1  12
BRANCH   2  14
ATOM     14  C   UNL d   1       1.146   2.506  -0.528  0.00  0.00     0.034 A 
ATOM     15  C   UNL d   1       2.351   2.755  -1.190  0.00  0.00     0.029 A 
ATOM     16  C   UNL d   1       2.880   4.051  -1.249  0.00  0.00     0.002 A 
ATOM     17  C   UNL d   1       2.186   5.119  -0.685  0.00  0.00     0.000 A 
ATOM     18  C   UNL d   1       0.966   4.893  -0.054  0.00  0.00     0.002 A 
ATOM     19  C   UNL d   1       0.457   3.595   0.023  0.00  0.00     0.029 A 
ENDBRANCH   2  14
TORSDOF 4
