REMARK  2 active torsions:
REMARK  status: ('A' for Active; 'I' for Inactive)
REMARK    1  A    between atoms: C_4  and  C_1 
REMARK    2  A    between atoms: C_3  and  C_2 
REMARK       I    between atoms: N_10  and  C_4 
ROOT
ATOM      1  C   UNL d   1      -0.908   1.405   0.203  0.00  0.00     0.112 C 
ATOM      2  C   UNL d   1       0.278   1.098   0.762  0.00  0.00     0.043 C 
ATOM      3  C   UNL d   1      -1.614   2.599   0.511  0.00  0.00     0.105 C 
ATOM      4  N   UNL d   1      -2.211   3.565   0.743  0.00  0.00    -0.191 NA
ENDROOT
BRANCH   1   5
ATOM      5  C   UNL d   1      -1.475   0.429  -0.776  0.00  0.00     0.260 C 
ATOM      6  O   UNL d   1      -0.921  -0.629  -1.059  0.00  0.00    -0.267 OA
ATOM      7  N   UNL d   1      -2.660   0.753  -1.365  0.00  0.00    -0.365 N 
ATOM      8  H   UNL d   1      -3.187   1.600  -1.197  0.00  0.00     0.159 HD
ATOM      9  H   UNL d   1      -3.041   0.090  -2.029  0.00  0.00     0.159 HD
ENDBRANCH   1   5
BRANCH   2  10
ATOM     10  C   UNL d   1       0.995   1.933   1.748  0.00  0.00     0.009 A 
ATOM     11  C   UNL d   1       0.711   1.841   3.123  0.00  0.00     0.046 A 
ATOM     12 CL   UNL d   1      -0.526   0.794   3.731  0.00  0.00    -0.083 Cl
ATOM     13  C   UNL d   1       1.427   2.600   4.056  0.00  0.00     0.025 A 
ATOM     14  C   UNL d   1       2.438   3.460   3.633  0.00  0.00     0.003 A 
ATOM     15  C   UNL d   1       2.718   3.581   2.274  0.00  0.00     0.025 A 
ATOM     16  C   UNL d   1       1.998   2.830   1.337  0.00  0.00     0.046 A 
ATOM     17 CL   UNL d   1       2.386   3.059  -0.335  0.00  0.00    -0.083 Cl
ENDBRANCH   2  10
TORSDOF 2
