REMARK  6 active torsions:
REMARK  status: ('A' for Active; 'I' for Inactive)
REMARK    1  A    between atoms: C_8  and  N_1 
REMARK    2  A    between atoms: S_7  and  C_2 
REMARK    3  A    between atoms: C_11  and  S_7 
REMARK    4  A    between atoms: C_9  and  C_11 
REMARK    5  A    between atoms: O_12  and  C_9 
REMARK    6  A    between atoms: C_15  and  O_12 
ROOT
ATOM      1  N   UNL d   1      -0.048  -1.383  -0.031  0.00  0.00    -0.219 N 
ATOM      2  C   UNL d   1       1.188  -0.788   0.163  0.00  0.00     0.177 C 
ATOM      3  N   UNL d   1       1.050   0.518   0.127  0.00  0.00    -0.264 N 
ATOM      4  HN  UNL d   1       1.775   1.218   0.286  1.00  0.00     0.186 HD
ATOM      5  N   UNL d   1      -0.269   0.746  -0.167  0.00  0.00    -0.006 NA
ATOM      6  N   UNL d   1      -0.927  -0.393  -0.335  0.00  0.00     0.001 NA
ENDROOT
BRANCH   2   7
ATOM      7  S   UNL d   1       2.710  -1.628   0.162  0.00  0.00    -0.081 SA
BRANCH   7   8
ATOM      8  C   UNL d   1       3.717  -0.527   1.184  0.00  0.00     0.193 C 
BRANCH   8   9
ATOM      9  C   UNL d   1       3.199  -0.406   2.599  0.00  0.00     0.268 C 
ATOM     10  O   UNL d   1       2.188  -0.928   3.054  0.00  0.00    -0.264 OA
BRANCH   9  11
ATOM     11  O   UNL d   1       4.029   0.428   3.290  0.00  0.00    -0.321 OA
BRANCH  11  12
ATOM     12  C   UNL d   1       3.514   0.936   4.528  0.00  0.00     0.174 C 
ATOM     13  C   UNL d   1       2.776   2.228   4.229  0.00  0.00     0.034 C 
ENDBRANCH  11  12
ENDBRANCH   9  11
ENDBRANCH   8   9
ENDBRANCH   7   8
ENDBRANCH   2   7
BRANCH   1  14
ATOM     14  C   UNL d   1      -0.452  -2.740   0.018  0.00  0.00     0.056 A 
ATOM     15  C   UNL d   1       0.207  -3.659   0.844  0.00  0.00     0.031 A 
ATOM     16  C   UNL d   1      -0.175  -5.003   0.840  0.00  0.00     0.002 A 
ATOM     17  C   UNL d   1      -1.211  -5.430   0.015  0.00  0.00     0.000 A 
ATOM     18  C   UNL d   1      -1.896  -4.512  -0.781  0.00  0.00     0.002 A 
ATOM     19  C   UNL d   1      -1.532  -3.163  -0.767  0.00  0.00     0.031 A 
ENDBRANCH   1  14
TORSDOF 6
