REMARK  4 active torsions:
REMARK  status: ('A' for Active; 'I' for Inactive)
REMARK    1  A    between atoms: N_6  and  C_2 
REMARK    2  A    between atoms: C_8  and  C_3 
REMARK    3  A    between atoms: C_13  and  C_4 
REMARK       I    between atoms: C_7  and  N_6 
REMARK    4  A    between atoms: C_14  and  C_7 
ROOT
ATOM      1  C   UNL d   1      -0.416   0.133   0.127  0.00  0.00     0.095 A 
ATOM      2  C   UNL d   1       1.732   0.750   0.011  0.00  0.00     0.163 A 
ATOM      3  C   UNL d   1       0.371  -1.006   0.051  0.00  0.00     0.116 A 
ATOM      4  C   UNL d   1       0.452   1.275   0.092  0.00  0.00     0.049 A 
ATOM      5  O   UNL d   1       1.681  -0.605   0.018  0.00  0.00    -0.290 OA
ATOM      6  C   UNL d   1      -1.838   0.142   0.252  0.00  0.00     0.103 C 
ATOM      7  N   UNL d   1      -2.995   0.192   0.333  0.00  0.00    -0.191 NA
ENDROOT
BRANCH   3   8
ATOM      8  C   UNL d   1       0.018  -2.402   0.025  0.00  0.00     0.040 A 
ATOM      9  S   UNL d   1      -1.361  -2.990  -0.807  0.00  0.00    -0.099 SA
ATOM     10  C   UNL d   1      -1.035  -4.605  -0.356  0.00  0.00     0.050 A 
ATOM     11  C   UNL d   1       0.116  -4.707   0.392  0.00  0.00     0.008 A 
ATOM     12  C   UNL d   1       0.734  -3.437   0.595  0.00  0.00     0.022 A 
ENDBRANCH   3   8
BRANCH   4  13
ATOM     13  C   UNL d   1       0.109   2.695   0.154  0.00  0.00    -0.020 A 
ATOM     14  C   UNL d   1      -1.025   3.177  -0.517  0.00  0.00     0.014 A 
ATOM     15  C   UNL d   1      -1.418   4.516  -0.400  0.00  0.00     0.023 A 
ATOM     16  C   UNL d   1      -0.663   5.403   0.368  0.00  0.00     0.044 A 
ATOM     17  C   UNL d   1      -1.068   6.772   0.496  0.00  0.00     0.099 C 
ATOM     18  C   UNL d   1       0.482   4.942   1.022  0.00  0.00     0.023 A 
ATOM     19  N   UNL d   1      -1.394   7.881   0.601  0.00  0.00    -0.191 NA
ATOM     20  C   UNL d   1       0.855   3.595   0.930  0.00  0.00     0.014 A 
ENDBRANCH   4  13
BRANCH   2  21
ATOM     21  N   UNL d   1       2.960   1.361  -0.104  0.00  0.00    -0.304 N 
ATOM     22  C   UNL d   1       4.172   0.685  -0.076  0.00  0.00     0.256 C 
ATOM     23  O   UNL d   1       4.293  -0.530   0.088  0.00  0.00    -0.270 OA
ATOM     24  H   UNL d   1       2.977   2.370  -0.207  0.00  0.00     0.171 HD
BRANCH  22  25
ATOM     25  C   UNL d   1       5.411   1.567  -0.300  0.00  0.00     0.270 C 
ATOM     26 CL   UNL d   1       5.009   3.307  -0.366  0.00  0.00    -0.098 Cl
ATOM     27 CL   UNL d   1       6.583   1.292   1.008  0.00  0.00    -0.098 Cl
ENDBRANCH  22  25
ENDBRANCH   2  21
TORSDOF 4
