REMARK  3 active torsions:
REMARK  status: ('A' for Active; 'I' for Inactive)
REMARK    1  A    between atoms: N_2  and  S_1 
REMARK    2  A    between atoms: C_12  and  S_1 
REMARK    3  A    between atoms: C_8  and  C_3 
ROOT
ATOM      1  N   UNL d   1       0.481  -1.579   0.208  0.00  0.00    -0.257 N 
ATOM      2  C   UNL d   1      -0.746  -3.392   0.600  0.00  0.00     0.010 A 
ATOM      3  C   UNL d   1      -0.784  -2.008   0.524  0.00  0.00     0.122 A 
ATOM      4  C   UNL d   1       1.309  -2.645  -0.023  0.00  0.00     0.110 A 
ATOM      5  C   UNL d   1       0.580  -3.785   0.236  0.00  0.00     0.033 A 
ENDROOT
BRANCH   2   6
ATOM      6  C   UNL d   1      -1.867  -4.231   1.000  0.00  0.00     0.060 A 
ATOM      7  N   UNL d   1      -3.119  -3.802   0.713  0.00  0.00    -0.353 N 
ATOM      8  C   UNL d   1      -4.133  -4.639   1.034  0.00  0.00     0.059 A 
ATOM      9  HN  UNL d   1      -3.289  -2.896   0.277  1.00  0.00     0.166 HD
ATOM     10  C   UNL d   1      -5.447  -4.287   0.744  0.00  0.00     0.032 A 
ATOM     11  C   UNL d   1      -3.894  -5.894   1.655  0.00  0.00     0.059 A 
ATOM     12  C   UNL d   1      -6.516  -5.139   1.038  0.00  0.00     0.002 A 
ATOM     13  C   UNL d   1      -6.273  -6.367   1.639  0.00  0.00     0.002 A 
ATOM     14  C   UNL d   1      -4.963  -6.731   1.946  0.00  0.00     0.032 A 
ATOM     15  N   UNL d   1      -2.650  -6.300   1.960  0.00  0.00    -0.362 N 
ATOM     16  C   UNL d   1      -1.650  -5.454   1.622  0.00  0.00     0.119 A 
ATOM     17  HN  UNL d   1      -2.470  -7.193   2.418  1.00  0.00     0.165 HD
ENDBRANCH   2   6
BRANCH   1  18
ATOM     18  S   UNL d   1       0.966   0.046   0.074  0.00  0.00     0.268 S 
ATOM     19  O   UNL d   1       2.365   0.047   0.461  0.00  0.00    -0.200 OA
ATOM     20  O   UNL d   1      -0.037   0.822   0.778  0.00  0.00    -0.200 OA
BRANCH  18  21
ATOM     21  C   UNL d   1       0.878   0.485  -1.641  0.00  0.00     0.080 A 
ATOM     22  C   UNL d   1      -0.071  -0.077  -2.499  0.00  0.00     0.027 A 
ATOM     23  C   UNL d   1      -0.129   0.351  -3.831  0.00  0.00     0.025 A 
ATOM     24  C   UNL d   1       0.751   1.333  -4.292  0.00  0.00     0.034 A 
ATOM     25  C   UNL d   1       1.700   1.889  -3.436  0.00  0.00     0.025 A 
ATOM     26 CL   UNL d   1       0.654   1.870  -5.923  0.00  0.00    -0.084 Cl
ATOM     27  C   UNL d   1       1.766   1.465  -2.107  0.00  0.00     0.027 A 
ENDBRANCH  18  21
ENDBRANCH   1  18
TORSDOF 3
