REMARK  4 active torsions:
REMARK  status: ('A' for Active; 'I' for Inactive)
REMARK    1  A    between atoms: N_9  and  C_3 
REMARK    2  A    between atoms: C_10  and  C_4 
REMARK       I    between atoms: C_7  and  N_8 
REMARK    3  A    between atoms: C_11  and  C_7 
REMARK    4  A    between atoms: N_8  and  N_9 
ROOT
ATOM      1  N   UNL d   1       0.082  -2.601   0.113  0.00  0.00    -0.277 N 
ATOM      2  H   UNL d   1      -0.834  -3.035  -0.004  0.00  0.00     0.189 HD
ENDROOT
BRANCH   1   3
ATOM      3  N   UNL d   1       1.169  -3.477   0.065  0.00  0.00    -0.264 N 
ATOM      4  C   UNL d   1       0.921  -4.838   0.123  0.00  0.00     0.270 C 
ATOM      5  O   UNL d   1      -0.206  -5.315   0.173  0.00  0.00    -0.266 OA
ATOM      6  H   UNL d   1       2.072  -3.051   0.260  0.00  0.00     0.190 HD
BRANCH   4   7
ATOM      7  C   UNL d   1       2.125  -5.718   0.133  0.00  0.00     0.033 A 
ATOM      8  C   UNL d   1       2.039  -6.980   0.737  0.00  0.00     0.019 A 
ATOM      9  C   UNL d   1       3.134  -7.853   0.709  0.00  0.00     0.025 A 
ATOM     10  C   UNL d   1       4.309  -7.469   0.066  0.00  0.00     0.034 A 
ATOM     11  C   UNL d   1       4.405  -6.216  -0.537  0.00  0.00     0.025 A 
ATOM     12 CL   UNL d   1       5.643  -8.555  -0.004  0.00  0.00    -0.084 Cl
ATOM     13  C   UNL d   1       3.316  -5.339  -0.504  0.00  0.00     0.019 A 
ENDBRANCH   4   7
ENDBRANCH   1   3
BRANCH   1  14
ATOM     14  C   UNL d   1       0.243  -1.259   0.054  0.00  0.00     0.163 A 
ATOM     15  N   UNL d   1       1.411  -0.650   0.038  0.00  0.00    -0.338 N 
ATOM     16  C   UNL d   1       1.258   0.733  -0.001  0.00  0.00     0.025 A 
ATOM     17  HN  UNL d   1       2.311  -1.130   0.052  1.00  0.00     0.168 HD
ATOM     18  C   UNL d   1      -0.063   1.147  -0.003  0.00  0.00     0.079 A 
ATOM     19  S   UNL d   1      -1.114  -0.204   0.012  0.00  0.00    -0.062 SA
BRANCH  16  20
ATOM     20  C   UNL d   1       2.493   1.627  -0.025  0.00  0.00    -0.008 C 
ATOM     21  C   UNL d   1       3.787   0.786  -0.045  0.00  0.00     0.021 C 
ATOM     22  C   UNL d   1       2.486   2.523  -1.280  0.00  0.00     0.021 C 
ATOM     23  C   UNL d   1       2.527   2.529   1.225  0.00  0.00     0.021 C 
ENDBRANCH  16  20
ENDBRANCH   1  14
TORSDOF 4
