REMARK  6 active torsions:
REMARK  status: ('A' for Active; 'I' for Inactive)
REMARK    1  A    between atoms: N_2  and  S_1 
REMARK    2  A    between atoms: C_4  and  S_1 
REMARK    3  A    between atoms: C_3  and  N_7 
REMARK    4  A    between atoms: N_8  and  C_3 
REMARK    5  A    between atoms: N_7  and  C_12 
REMARK    6  A    between atoms: C_15  and  N_8 
ROOT
ATOM      1  C   UNL d   1       0.517   1.053  -1.173  0.00  0.00     0.074 A 
ATOM      2  C   UNL d   1      -0.619   0.493  -1.756  0.00  0.00     0.027 A 
ATOM      3  C   UNL d   1       1.051   2.249  -1.669  0.00  0.00     0.027 A 
ATOM      4  C   UNL d   1      -0.614   2.249  -3.436  0.00  0.00     0.034 A 
ATOM      5  C   UNL d   1      -1.182   1.098  -2.878  0.00  0.00     0.031 A 
ATOM      6  C   UNL d   1       0.473   2.857  -2.795  0.00  0.00     0.031 A 
ENDROOT
BRANCH   4   7
ATOM      7  N   UNL d   1      -1.139   2.796  -4.636  0.00  0.00    -0.333 N 
ATOM      8  H   UNL d   1      -0.843   3.737  -4.864  0.00  0.00     0.168 HD
BRANCH   7   9
ATOM      9  C   UNL d   1      -1.425   2.060  -5.756  0.00  0.00     0.172 C 
ATOM     10  S   UNL d   1      -0.839   0.533  -6.138  0.00  0.00    -0.041 SA
BRANCH   9  11
ATOM     11  N   UNL d   1      -2.160   2.647  -6.732  0.00  0.00    -0.362 N 
ATOM     12  H   UNL d   1      -2.185   2.024  -7.534  0.00  0.00     0.162 HD
BRANCH  11  13
ATOM     13  C   UNL d   1      -3.278   3.600  -6.756  0.00  0.00     0.083 C 
ATOM     14  C   UNL d   1      -2.985   4.731  -7.749  0.00  0.00     0.025 C 
ATOM     15  C   UNL d   1      -2.273   5.909  -7.099  0.00  0.00     0.002 C 
ATOM     16  C   UNL d   1      -3.091   6.444  -5.931  0.00  0.00     0.000 C 
ATOM     17  C   UNL d   1      -3.295   5.371  -4.867  0.00  0.00     0.002 C 
ATOM     18  C   UNL d   1      -3.886   4.081  -5.433  0.00  0.00     0.025 C 
ENDBRANCH  11  13
ENDBRANCH   9  11
ENDBRANCH   7   9
ENDBRANCH   4   7
BRANCH   1  19
ATOM     19  S   UNL d   1       1.242   0.270   0.248  0.00  0.00     0.243 S 
ATOM     20  O   UNL d   1       1.314   1.275   1.283  0.00  0.00    -0.206 OA
ATOM     21  O   UNL d   1       0.565  -0.989   0.478  0.00  0.00    -0.206 OA
BRANCH  19  22
ATOM     22  N   UNL d   1       2.845  -0.106  -0.245  0.00  0.00    -0.206 NA
ATOM     23  C   UNL d   1       2.945  -1.115  -1.342  0.00  0.00     0.107 C 
ATOM     24  C   UNL d   1       4.393  -1.194  -1.829  0.00  0.00     0.015 C 
ATOM     25  C   UNL d   1       5.356  -1.518  -0.689  0.00  0.00     0.002 C 
ATOM     26  C   UNL d   1       5.162  -0.549   0.472  0.00  0.00     0.015 C 
ATOM     27  C   UNL d   1       3.703  -0.503   0.913  0.00  0.00     0.107 C 
ENDBRANCH  19  22
ENDBRANCH   1  19
TORSDOF 6
