REMARK  5 active torsions:
REMARK  status: ('A' for Active; 'I' for Inactive)
REMARK    1  A    between atoms: N_7  and  C_1 
REMARK    2  A    between atoms: C_2  and  C_3 
REMARK    3  A    between atoms: C_6  and  C_13 
REMARK       I    between atoms: C_8  and  N_14 
REMARK       I    between atoms: N_12  and  C_8 
REMARK    4  A    between atoms: C_29  and  N_12 
REMARK    5  A    between atoms: N_14  and  C_28 
ROOT
ATOM      1  N   UNL d   1       0.735   1.996  -0.039  0.00  0.00    -0.366 N 
ATOM      2  C   UNL d   1       1.481   2.779  -1.010  0.00  0.00     0.126 C 
ATOM      3  C   UNL d   1       0.634   2.527   1.314  0.00  0.00     0.126 C 
ATOM      4  C   UNL d   1      -0.045   3.882   1.254  0.00  0.00     0.045 C 
ATOM      5  C   UNL d   1       1.003   4.241  -1.012  0.00  0.00     0.045 C 
ATOM      6  C   UNL d   1       0.779   4.841   0.389  0.00  0.00     0.089 C 
ENDROOT
BRANCH   6   7
ATOM      7  N   UNL d   1       2.044   5.215   1.028  0.00  0.00    -0.338 N 
ATOM      8  C   UNL d   1       2.293   5.958   2.148  0.00  0.00     0.321 C 
ATOM      9  N   UNL d   1       1.193   6.456   2.787  0.00  0.00    -0.309 N 
ATOM     10  O   UNL d   1       3.466   6.099   2.485  0.00  0.00    -0.247 OA
ATOM     11  H   UNL d   1       0.304   6.256   2.363  0.00  0.00     0.170 HD
ATOM     12  H   UNL d   1       2.906   4.860   0.630  0.00  0.00     0.164 HD
BRANCH   9  13
ATOM     13  C   UNL d   1       1.144   7.272   3.934  0.00  0.00     0.036 A 
ATOM     14  C   UNL d   1       2.270   7.761   4.595  0.00  0.00     0.030 A 
ATOM     15  C   UNL d   1       2.133   8.662   5.658  0.00  0.00     0.018 A 
ATOM     16  C   UNL d   1       0.865   9.078   6.086  0.00  0.00     0.048 A 
ATOM     17  C   UNL d   1      -0.266   8.532   5.465  0.00  0.00     0.018 A 
ATOM     18  C   UNL d   1      -0.126   7.638   4.399  0.00  0.00     0.030 A 
BRANCH  16  19
ATOM     19  C   UNL d   1       0.703  10.125   7.159  0.00  0.00     0.417 C 
ATOM     20  F   UNL d   1       1.882  10.553   7.692  0.00  0.00    -0.166 F 
ATOM     21  F   UNL d   1       0.078  11.244   6.696  0.00  0.00    -0.166 F 
ATOM     22  F   UNL d   1      -0.046   9.689   8.210  0.00  0.00    -0.166 F 
ENDBRANCH  16  19
ENDBRANCH   9  13
ENDBRANCH   6   7
BRANCH   1  23
ATOM     23  C   UNL d   1       0.097   0.802  -0.281  0.00  0.00     0.125 A 
ATOM     24  N   UNL d   1      -1.110   0.660   0.332  0.00  0.00    -0.350 N 
ATOM     25  C   UNL d   1      -1.757  -0.523   0.279  0.00  0.00     0.106 A 
ATOM     26  HN  UNL d   1      -1.526   1.448   0.829  1.00  0.00     0.166 HD
ATOM     27  C   UNL d   1      -1.268  -1.634  -0.376  0.00  0.00     0.065 A 
ATOM     28  C   UNL d   1      -0.059  -1.487  -1.057  0.00  0.00     0.045 A 
ATOM     29  C   UNL d   1       0.633  -0.268  -1.017  0.00  0.00     0.078 A 
ATOM     30 CL   UNL d   1       2.186  -0.238  -1.773  0.00  0.00    -0.080 Cl
BRANCH  27  31
ATOM     31  C   UNL d   1      -2.011  -2.928  -0.284  0.00  0.00     0.418 C 
ATOM     32  F   UNL d   1      -1.414  -3.947  -0.959  0.00  0.00    -0.166 F 
ATOM     33  F   UNL d   1      -2.140  -3.359   1.001  0.00  0.00    -0.166 F 
ATOM     34  F   UNL d   1      -3.277  -2.841  -0.776  0.00  0.00    -0.166 F 
ENDBRANCH  27  31
ENDBRANCH   1  23
TORSDOF 5
