REMARK  6 active torsions:
REMARK  status: ('A' for Active; 'I' for Inactive)
REMARK    1  A    between atoms: C_2  and  S_1 
REMARK    2  A    between atoms: C_7  and  S_1 
REMARK    3  A    between atoms: C_4  and  C_3 
REMARK    4  A    between atoms: C_5  and  C_8 
REMARK    5  A    between atoms: O_17  and  C_6 
REMARK    6  A    between atoms: C_25  and  O_17 
ROOT
ATOM      1  C   UNL d   1       0.511  -0.829  -1.441  0.00  0.00     0.146 C 
ATOM      2  C   UNL d   1      -0.537  -1.672  -1.341  0.00  0.00     0.057 C 
ATOM      3  C   UNL d   1       1.067  -0.140  -0.326  0.00  0.00     0.112 C 
ATOM      4  N   UNL d   1       1.488   0.409   0.603  0.00  0.00    -0.191 NA
ENDROOT
BRANCH   1   5
ATOM      5  S   UNL d   1       1.315  -0.499  -2.941  0.00  0.00     0.232 S 
ATOM      6  O   UNL d   1       2.747  -0.651  -2.719  0.00  0.00    -0.215 OA
ATOM      7  O   UNL d   1       0.814   0.744  -3.504  0.00  0.00    -0.215 OA
BRANCH   5   8
ATOM      8  C   UNL d   1       0.884  -1.807  -4.096  0.00  0.00     0.134 A 
ATOM      9  N   UNL d   1      -0.420  -1.820  -4.479  0.00  0.00    -0.356 N 
ATOM     10  C   UNL d   1      -0.775  -2.764  -5.382  0.00  0.00     0.105 A 
ATOM     11  HN  UNL d   1      -1.096  -1.153  -4.105  1.00  0.00     0.166 HD
ATOM     12  C   UNL d   1       0.104  -3.699  -5.914  0.00  0.00     0.063 A 
ATOM     13  C   UNL d   1       1.442  -3.645  -5.499  0.00  0.00     0.020 A 
ATOM     14  C   UNL d   1       1.848  -2.681  -4.577  0.00  0.00     0.043 A 
BRANCH  12  15
ATOM     15  C   UNL d   1      -0.371  -4.726  -6.899  0.00  0.00     0.418 C 
ATOM     16  F   UNL d   1      -1.701  -4.642  -7.174  0.00  0.00    -0.166 F 
ATOM     17  F   UNL d   1       0.268  -4.636  -8.096  0.00  0.00    -0.166 F 
ATOM     18  F   UNL d   1      -0.162  -5.997  -6.457  0.00  0.00    -0.166 F 
ENDBRANCH  12  15
ENDBRANCH   5   8
ENDBRANCH   1   5
BRANCH   2  19
ATOM     19  C   UNL d   1      -1.034  -2.064  -0.063  0.00  0.00     0.040 C 
ATOM     20  C   UNL d   1      -2.200  -1.741   0.611  0.00  0.00     0.093 C 
ATOM     21  C   UNL d   1      -2.159  -2.179   1.975  0.00  0.00     0.046 C 
ATOM     22  C   UNL d   1      -1.094  -3.009   2.228  0.00  0.00     0.053 C 
ATOM     23  S   UNL d   1      -0.104  -3.200   0.858  0.00  0.00    -0.099 SA
BRANCH  20  24
ATOM     24  O   UNL d   1      -3.192  -1.013   0.025  0.00  0.00    -0.309 OA
BRANCH  24  25
ATOM     25  C   UNL d   1      -4.467  -1.023   0.557  0.00  0.00     0.076 A 
ATOM     26  C   UNL d   1      -5.154   0.189   0.629  0.00  0.00     0.037 A 
ATOM     27  C   UNL d   1      -6.404   0.241   1.252  0.00  0.00     0.003 A 
ATOM     28  C   UNL d   1      -6.967  -0.915   1.796  0.00  0.00     0.000 A 
ATOM     29  C   UNL d   1      -6.308  -2.135   1.671  0.00  0.00     0.003 A 
ATOM     30  C   UNL d   1      -5.075  -2.195   1.023  0.00  0.00     0.037 A 
ENDBRANCH  24  25
ENDBRANCH  20  24
ENDBRANCH   2  19
TORSDOF 6
