REMARK  7 active torsions:
REMARK  status: ('A' for Active; 'I' for Inactive)
REMARK    1  A    between atoms: C_2  and  N_1 
REMARK    2  A    between atoms: N_3  and  C_6 
REMARK    3  A    between atoms: C_6  and  C_10 
REMARK    4  A    between atoms: O_9  and  C_11 
REMARK    5  A    between atoms: C_12  and  O_9 
REMARK    6  A    between atoms: C_10  and  C_12 
REMARK    7  A    between atoms: O_15  and  C_10 
ROOT
ATOM      1  C   UNL d   1      -1.583   5.752   0.763  0.00  0.00     0.209 C 
ENDROOT
BRANCH   1   2
ATOM      2  C   UNL d   1      -2.570   6.707   1.464  0.00  0.00     0.170 C 
BRANCH   2   3
ATOM      3  C   UNL d   1      -2.624   6.512   3.005  0.00  0.00     0.306 C 
BRANCH   3   4
ATOM      4  N   UNL d   1      -3.530   7.443   3.744  0.00  0.00     0.091 N 
ATOM      5  C   UNL d   1      -4.935   7.241   3.344  0.00  0.00     0.272 C 
ATOM      6  C   UNL d   1      -5.926   8.057   4.180  0.00  0.00     0.030 C 
ATOM      7  C   UNL d   1      -5.777   7.732   5.657  0.00  0.00     0.003 C 
ATOM      8  C   UNL d   1      -4.342   8.004   6.081  0.00  0.00     0.030 C 
ATOM      9  C   UNL d   1      -3.339   7.255   5.197  0.00  0.00     0.272 C 
ENDBRANCH   3   4
ENDBRANCH   2   3
BRANCH   2  10
ATOM     10  O   UNL d   1      -2.180   8.046   1.125  0.00  0.00    -0.392 OA
ATOM     11  H   UNL d   1      -1.593   8.367   1.833  0.00  0.00     0.210 HD
ENDBRANCH   2  10
ENDBRANCH   1   2
BRANCH   1  12
ATOM     12  O   UNL d   1      -1.907   4.381   1.008  0.00  0.00    -0.349 OA
BRANCH  12  13
ATOM     13  C   UNL d   1      -1.076   3.460   0.421  0.00  0.00     0.069 A 
ATOM     14  C   UNL d   1      -0.981   2.233   1.083  0.00  0.00     0.039 A 
ATOM     15  C   UNL d   1      -0.174   1.207   0.579  0.00  0.00     0.039 A 
ATOM     16  C   UNL d   1       0.534   1.410  -0.614  0.00  0.00     0.103 A 
ATOM     17  C   UNL d   1       0.426   2.627  -1.301  0.00  0.00     0.039 A 
ATOM     18  C   UNL d   1      -0.380   3.646  -0.780  0.00  0.00     0.039 A 
BRANCH  16  19
ATOM     19  N   UNL d   1       1.382   0.340  -1.148  0.00  0.00    -0.116 N 
ATOM     20  O   UNL d   1       1.954   0.544  -2.235  0.00  0.00    -0.532 OA
ATOM     21  O   UNL d   1       1.483  -0.703  -0.490  0.00  0.00    -0.532 OA
ENDBRANCH  16  19
ENDBRANCH  12  13
ENDBRANCH   1  12
TORSDOF 7
