REMARK  4 active torsions:
REMARK  status: ('A' for Active; 'I' for Inactive)
REMARK    1  A    between atoms: C_6  and  N_2 
REMARK    2  A    between atoms: C_8  and  C_6 
REMARK    3  A    between atoms: C_7  and  C_8 
REMARK       I    between atoms: N_10  and  C_7 
REMARK    4  A    between atoms: C_12  and  N_10 
ROOT
ATOM      1  C   UNL d   1       3.696  -2.474   0.264  0.00  0.00     0.123 C 
ENDROOT
BRANCH   1   2
ATOM      2  C   UNL d   1       3.920  -3.930  -0.066  0.00  0.00     0.223 C 
ATOM      3  N   UNL d   1       4.578  -4.618   0.936  0.00  0.00    -0.327 N 
ATOM      4  H   UNL d   1       4.721  -4.132   1.814  0.00  0.00     0.169 HD
ATOM      5  O   UNL d   1       3.533  -4.389  -1.136  0.00  0.00    -0.273 OA
BRANCH   3   6
ATOM      6  C   UNL d   1       4.956  -5.975   0.918  0.00  0.00     0.034 A 
ATOM      7  C   UNL d   1       4.929  -6.773  -0.229  0.00  0.00     0.031 A 
ATOM      8  C   UNL d   1       5.287  -8.123  -0.162  0.00  0.00     0.026 A 
ATOM      9  C   UNL d   1       5.674  -8.680   1.053  0.00  0.00     0.034 A 
ATOM     10  C   UNL d   1       5.728  -7.891   2.199  0.00  0.00     0.026 A 
ATOM     11 CL   UNL d   1       6.080 -10.348   1.141  0.00  0.00    -0.084 Cl
ATOM     12  C   UNL d   1       5.380  -6.539   2.128  0.00  0.00     0.031 A 
ENDBRANCH   3   6
ENDBRANCH   1   2
BRANCH   1  13
ATOM     13  C   UNL d   1       2.215  -2.135   0.132  0.00  0.00     0.144 C 
BRANCH  13  14
ATOM     14  N   UNL d   1       1.995  -0.712   0.237  0.00  0.00    -0.290 N 
ATOM     15  C   UNL d   1       1.759  -0.009   1.401  0.00  0.00     0.372 A 
ATOM     16  O   UNL d   1       1.771   1.373   1.165  0.00  0.00    -0.259 OA
ATOM     17  O   UNL d   1       1.595  -0.498   2.513  0.00  0.00    -0.237 OA
ATOM     18  C   UNL d   1       2.102   1.444  -0.178  0.00  0.00     0.107 A 
ATOM     19  C   UNL d   1       2.330   2.600  -0.891  0.00  0.00     0.040 A 
ATOM     20  C   UNL d   1       2.238   0.201  -0.760  0.00  0.00     0.073 A 
ATOM     21  C   UNL d   1       2.707   2.466  -2.232  0.00  0.00     0.003 A 
ATOM     22  C   UNL d   1       2.838   1.194  -2.823  0.00  0.00     0.002 A 
ATOM     23  C   UNL d   1       2.600   0.035  -2.080  0.00  0.00     0.033 A 
ENDBRANCH  13  14
ENDBRANCH   1  13
TORSDOF 4
