REMARK  7 active torsions:
REMARK  status: ('A' for Active; 'I' for Inactive)
REMARK    1  A    between atoms: C_10  and  C_3 
REMARK    2  A    between atoms: C_16  and  C_4 
REMARK    3  A    between atoms: S_15  and  C_9 
REMARK    4  A    between atoms: C_11  and  C_21 
REMARK       I    between atoms: N_14  and  C_11 
REMARK    5  A    between atoms: C_22  and  N_14 
REMARK    6  A    between atoms: C_21  and  S_15 
REMARK    7  A    between atoms: C_25  and  C_17 
ROOT
ATOM      1  N   UNL d   1       2.280   7.582   1.406  0.00  0.00    -0.335 N 
ATOM      2  HN  UNL d   1       1.644   7.088   2.032  1.00  0.00     0.168 HD
ATOM      3  C   UNL d   1       3.282   6.956   0.778  0.00  0.00     0.145 A 
ATOM      4  C   UNL d   1       2.159   8.904   1.164  0.00  0.00     0.062 A 
ATOM      5  N   UNL d   1       4.160   7.529  -0.055  0.00  0.00    -0.347 N 
ATOM      6  HN  UNL d   1       4.905   6.998  -0.504  1.00  0.00     0.167 HD
ATOM      7  C   UNL d   1       3.014   9.593   0.329  0.00  0.00     0.049 A 
ATOM      8  C   UNL d   1       4.000   8.849  -0.263  0.00  0.00     0.092 A 
ENDROOT
BRANCH   3   9
ATOM      9  S   UNL d   1       3.570   5.288   1.300  0.00  0.00    -0.085 SA
BRANCH   9  10
ATOM     10  C   UNL d   1       5.320   5.446   1.734  0.00  0.00     0.185 C 
BRANCH  10  11
ATOM     11  C   UNL d   1       5.661   6.387   2.885  0.00  0.00     0.231 C 
ATOM     12  N   UNL d   1       4.613   6.972   3.571  0.00  0.00    -0.327 N 
ATOM     13  H   UNL d   1       3.678   6.643   3.348  0.00  0.00     0.169 HD
ATOM     14  O   UNL d   1       6.854   6.555   3.155  0.00  0.00    -0.272 OA
BRANCH  12  15
ATOM     15  C   UNL d   1       4.692   8.032   4.504  0.00  0.00     0.034 A 
ATOM     16  C   UNL d   1       5.875   8.709   4.797  0.00  0.00     0.030 A 
ATOM     17  C   UNL d   1       5.879   9.805   5.666  0.00  0.00     0.010 A 
ATOM     18  C   UNL d   1       4.699  10.257   6.266  0.00  0.00    -0.055 A 
ATOM     19  C   UNL d   1       3.515   9.558   5.998  0.00  0.00     0.010 A 
ATOM     20  C   UNL d   1       3.512   8.461   5.122  0.00  0.00     0.030 A 
BRANCH  18  21
ATOM     21  C   UNL d   1       4.693  11.500   7.141  0.00  0.00     0.010 C 
ATOM     22  C   UNL d   1       5.605  11.357   8.362  0.00  0.00     0.015 C 
ATOM     23  C   UNL d   1       5.084  12.739   6.324  0.00  0.00     0.015 C 
ENDBRANCH  18  21
ENDBRANCH  12  15
ENDBRANCH  10  11
ENDBRANCH   9  10
ENDBRANCH   3   9
BRANCH   4  24
ATOM     24  C   UNL d   1       1.095   9.603   1.875  0.00  0.00     0.066 A 
ATOM     25  N   UNL d   1       0.884  10.966   1.721  0.00  0.00    -0.348 N 
ATOM     26  C   UNL d   1      -0.091  11.374   2.511  0.00  0.00     0.084 A 
ATOM     27  HN  UNL d   1       1.409  11.568   1.086  1.00  0.00     0.166 HD
ATOM     28  S   UNL d   1      -0.838  10.124   3.437  0.00  0.00    -0.081 SA
ATOM     29  C   UNL d   1       0.233   8.980   2.755  0.00  0.00     0.083 A 
BRANCH  26  30
ATOM     30  C   UNL d   1      -0.565  12.764   2.588  0.00  0.00    -0.002 A 
ATOM     31  C   UNL d   1      -0.491  13.576   1.445  0.00  0.00     0.014 A 
ATOM     32  C   UNL d   1      -0.935  14.901   1.475  0.00  0.00     0.001 A 
ATOM     33  C   UNL d   1      -1.450  15.435   2.653  0.00  0.00     0.000 A 
ATOM     34  C   UNL d   1      -1.515  14.650   3.802  0.00  0.00     0.001 A 
ATOM     35  C   UNL d   1      -1.074  13.324   3.771  0.00  0.00     0.014 A 
ENDBRANCH  26  30
ENDBRANCH   4  24
TORSDOF 7
