REMARK  3 active torsions:
REMARK  status: ('A' for Active; 'I' for Inactive)
REMARK    1  A    between atoms: C_6  and  C_1 
REMARK    2  A    between atoms: C_3  and  C_2 
REMARK       I    between atoms: N_8  and  C_3 
REMARK    3  A    between atoms: S_7  and  N_8 
ROOT
ATOM      1  C   UNL d   1      -1.298  -7.774   0.890  0.00  0.00     0.086 A 
ATOM      2  C   UNL d   1      -1.127  -6.352   0.853  0.00  0.00     0.093 A 
ATOM      3  N   UNL d   1      -2.248  -8.128   1.775  0.00  0.00    -0.259 N 
ATOM      4  HN  UNL d   1      -2.570  -9.072   1.988  1.00  0.00     0.195 HD
ATOM      5  O   UNL d   1      -2.697  -6.952   2.334  0.00  0.00    -0.241 OA
ATOM      6  C   UNL d   1      -2.017  -5.902   1.807  0.00  0.00     0.090 A 
ATOM      7  C   UNL d   1      -2.345  -4.585   2.383  0.00  0.00     0.080 C 
ENDROOT
BRANCH   2   8
ATOM      8  C   UNL d   1      -0.196  -5.585   0.028  0.00  0.00     0.265 C 
ATOM      9  N   UNL d   1      -0.608  -4.346  -0.306  0.00  0.00    -0.306 N 
ATOM     10  HN  UNL d   1      -0.316  -3.508   0.195  1.00  0.00     0.176 HD
ATOM     11  O   UNL d   1       0.888  -6.067  -0.281  0.00  0.00    -0.267 OA
BRANCH   9  12
ATOM     12  S   UNL d   1      -1.550  -4.314  -1.501  0.00  0.00    -0.119 SA
ATOM     13  C   UNL d   1      -1.129  -2.627  -2.134  0.00  0.00     0.153 C 
ATOM     14  C   UNL d   1      -0.896  -2.752  -3.657  0.00  0.00     0.173 C 
ATOM     15  O   UNL d   1      -2.009  -2.216  -4.409  0.00  0.00    -0.352 OA
ATOM     16  O   UNL d   1       0.303  -2.040  -4.033  0.00  0.00    -0.352 OA
ATOM     17  C   UNL d   1      -0.759  -4.236  -4.034  0.00  0.00     0.080 C 
ATOM     18  C   UNL d   1      -1.477  -1.139  -5.169  0.00  0.00     0.197 C 
ATOM     19  C   UNL d   1      -0.011  -1.448  -5.287  0.00  0.00     0.197 C 
ATOM     20  C   UNL d   1      -0.435  -5.011  -2.775  0.00  0.00     0.090 C 
ENDBRANCH   9  12
ENDBRANCH   2   8
BRANCH   1  21
ATOM     21  C   UNL d   1      -0.596  -8.812   0.144  0.00  0.00     0.037 A 
ATOM     22  C   UNL d   1       0.705  -9.207   0.508  0.00  0.00     0.048 A 
ATOM     23 CL   UNL d   1       1.571  -8.495   1.832  0.00  0.00    -0.083 Cl
ATOM     24  C   UNL d   1       1.341 -10.271  -0.149  0.00  0.00     0.025 A 
ATOM     25  C   UNL d   1       0.684 -10.974  -1.155  0.00  0.00     0.003 A 
ATOM     26  C   UNL d   1      -0.603 -10.596  -1.526  0.00  0.00     0.025 A 
ATOM     27  C   UNL d   1      -1.236  -9.516  -0.892  0.00  0.00     0.048 A 
ATOM     28 CL   UNL d   1      -2.839  -9.138  -1.436  0.00  0.00    -0.083 Cl
ENDBRANCH   1  21
TORSDOF 3
