REMARK  5 active torsions:
REMARK  status: ('A' for Active; 'I' for Inactive)
REMARK    1  A    between atoms: C_4  and  C_1 
REMARK    2  A    between atoms: N_9  and  C_2 
REMARK       I    between atoms: C_3  and  N_5 
REMARK    3  A    between atoms: C_8  and  C_3 
REMARK    4  A    between atoms: O_16  and  C_4 
REMARK    5  A    between atoms: N_5  and  C_10 
ROOT
ATOM      1  C   UNL d   1       1.378  -0.339   0.127  0.00  0.00     0.066 A 
ATOM      2  C   UNL d   1       0.565  -1.432  -0.237  0.00  0.00     0.046 A 
ATOM      3  C   UNL d   1       0.834   0.955   0.300  0.00  0.00     0.050 A 
ATOM      4  C   UNL d   1      -0.794  -1.139  -0.469  0.00  0.00     0.032 A 
ATOM      5  C   UNL d   1      -0.514   1.208   0.062  0.00  0.00     0.036 A 
ATOM      6  C   UNL d   1      -1.324   0.149  -0.338  0.00  0.00     0.032 A 
ENDROOT
BRANCH   5   7
ATOM      7  N   UNL d   1      -1.128   2.467   0.215  0.00  0.00    -0.323 N 
ATOM      8  C   UNL d   1      -0.524   3.650   0.599  0.00  0.00     0.256 C 
ATOM      9  O   UNL d   1       0.677   3.821   0.781  0.00  0.00    -0.267 OA
ATOM     10  H   UNL d   1      -2.111   2.502  -0.021  0.00  0.00     0.169 HD
BRANCH   8  11
ATOM     11  C   UNL d   1      -1.436   4.822   0.754  0.00  0.00     0.032 A 
ATOM     12  C   UNL d   1      -2.785   4.686   1.113  0.00  0.00     0.018 A 
ATOM     13  C   UNL d   1      -3.596   5.820   1.230  0.00  0.00     0.025 A 
ATOM     14  C   UNL d   1      -3.058   7.087   1.004  0.00  0.00     0.034 A 
ATOM     15  C   UNL d   1      -1.713   7.234   0.676  0.00  0.00     0.025 A 
ATOM     16 CL   UNL d   1      -4.062   8.477   1.141  0.00  0.00    -0.084 Cl
ATOM     17  C   UNL d   1      -0.902   6.104   0.555  0.00  0.00     0.018 A 
ENDBRANCH   8  11
ENDBRANCH   5   7
BRANCH   1  18
ATOM     18  C   UNL d   1       2.821  -0.467   0.439  0.00  0.00     0.178 C 
ATOM     19  O   UNL d   1       3.289  -1.251   1.247  0.00  0.00    -0.646 OA
BRANCH  18  20
ATOM     20  O   UNL d   1       3.578   0.388  -0.289  0.00  0.00    -0.773 OA
ATOM     21  H   UNL d   1       3.074   0.963  -0.898  0.00  0.00     0.167 HD
ENDBRANCH  18  20
ENDBRANCH   1  18
BRANCH   2  22
ATOM     22  N   UNL d   1       0.965  -2.748  -0.429  0.00  0.00    -0.389 N 
ATOM     23  C   UNL d   1       0.237  -3.795   0.288  0.00  0.00     0.149 C 
ATOM     24  C   UNL d   1       2.279  -3.115  -0.936  0.00  0.00     0.149 C 
ENDBRANCH   2  22
TORSDOF 5
