REMARK  2 active torsions:
REMARK  status: ('A' for Active; 'I' for Inactive)
REMARK       I    between atoms: N_2  and  C_1 
REMARK       I    between atoms: N_3  and  C_1 
REMARK    1  A    between atoms: C_4  and  N_2 
REMARK    2  A    between atoms: C_5  and  N_3 
ROOT
ATOM      1  C   UNL d   1       0.979   0.029   0.120  0.00  0.00     0.325 C 
ATOM      2  N   UNL d   1       0.553  -1.211   0.508  0.00  0.00    -0.306 N 
ATOM      3  N   UNL d   1       0.126   0.732  -0.683  0.00  0.00    -0.306 N 
ATOM      4  O   UNL d   1       2.101   0.486   0.329  0.00  0.00    -0.247 OA
ATOM      5  H   UNL d   1      -0.180  -1.618  -0.059  0.00  0.00     0.171 HD
ATOM      6  H   UNL d   1       0.613   1.447  -1.215  0.00  0.00     0.171 HD
ENDROOT
BRANCH   2   7
ATOM      7  C   UNL d   1       1.252  -2.109   1.337  0.00  0.00     0.075 A 
ATOM      8  C   UNL d   1       0.979  -3.477   1.195  0.00  0.00     0.146 A 
ATOM      9  C   UNL d   1       1.643  -4.432   1.954  0.00  0.00     0.086 A 
ATOM     10  F   UNL d   1       0.085  -3.881   0.278  0.00  0.00    -0.204 F 
ATOM     11  C   UNL d   1       2.568  -4.007   2.897  0.00  0.00     0.119 A 
ATOM     12  C   UNL d   1       2.833  -2.654   3.085  0.00  0.00     0.044 A 
ATOM     13  F   UNL d   1       3.215  -4.915   3.639  0.00  0.00    -0.206 F 
ATOM     14  C   UNL d   1       2.179  -1.700   2.299  0.00  0.00     0.036 A 
ENDBRANCH   2   7
BRANCH   3  15
ATOM     15  C   UNL d   1      -1.279   0.704  -0.789  0.00  0.00     0.075 A 
ATOM     16  C   UNL d   1      -2.143   0.216   0.204  0.00  0.00     0.146 A 
ATOM     17  C   UNL d   1      -3.523   0.250   0.041  0.00  0.00     0.086 A 
ATOM     18  F   UNL d   1      -1.673  -0.234   1.375  0.00  0.00    -0.204 F 
ATOM     19  C   UNL d   1      -4.053   0.783  -1.124  0.00  0.00     0.119 A 
ATOM     20  C   UNL d   1      -3.224   1.295  -2.116  0.00  0.00     0.044 A 
ATOM     21  F   UNL d   1      -5.380   0.819  -1.291  0.00  0.00    -0.206 F 
ATOM     22  C   UNL d   1      -1.837   1.270  -1.942  0.00  0.00     0.036 A 
ENDBRANCH   3  15
TORSDOF 2
