REMARK  6 active torsions:
REMARK  status: ('A' for Active; 'I' for Inactive)
REMARK    1  A    between atoms: C_8  and  C_1 
REMARK    2  A    between atoms: C_7  and  C_3 
REMARK    3  A    between atoms: C_9  and  N_13 
REMARK    4  A    between atoms: N_14  and  C_9 
REMARK    5  A    between atoms: N_13  and  N_10 
REMARK    6  A    between atoms: C_20  and  N_14 
ROOT
ATOM      1  C   UNL d   1      -0.074  -2.150   0.854  0.00  0.00     0.041 C 
ATOM      2  N   UNL d   1       0.766  -3.068   0.486  0.00  0.00    -0.302 N 
ATOM      3  HN  UNL d   1       0.432  -4.027   0.394  1.00  0.00     0.186 HD
ATOM      4  C   UNL d   1      -1.516  -2.624   0.935  0.00  0.00     0.071 C 
ENDROOT
BRANCH   1   5
ATOM      5  C   UNL d   1       0.184  -0.765   1.214  0.00  0.00     0.052 A 
ATOM      6  S   UNL d   1       1.573  -0.331   2.131  0.00  0.00    -0.067 SA
ATOM      7  C   UNL d   1       0.973   1.265   2.319  0.00  0.00     0.092 A 
ATOM      8  N   UNL d   1      -0.158   1.500   1.688  0.00  0.00    -0.352 N 
ATOM      9  C   UNL d   1      -0.616   0.359   1.049  0.00  0.00     0.025 A 
ATOM     10  HN  UNL d   1      -0.633   2.403   1.670  1.00  0.00     0.166 HD
ATOM     11  C   UNL d   1      -1.905   0.480   0.316  0.00  0.00     0.070 C 
BRANCH   7  12
ATOM     12  C   UNL d   1       1.587   2.286   3.136  0.00  0.00     0.038 A 
ATOM     13  S   UNL d   1       3.250   2.300   3.559  0.00  0.00    -0.099 SA
ATOM     14  C   UNL d   1       3.089   3.753   4.447  0.00  0.00     0.050 A 
ATOM     15  C   UNL d   1       1.797   4.227   4.434  0.00  0.00     0.008 A 
ATOM     16  C   UNL d   1       0.936   3.385   3.673  0.00  0.00     0.022 A 
ENDBRANCH   7  12
ENDBRANCH   1   5
BRANCH   2  17
ATOM     17  N   UNL d   1       2.071  -2.806   0.220  0.00  0.00    -0.276 N 
ATOM     18  H   UNL d   1       2.364  -1.848   0.073  0.00  0.00     0.189 HD
BRANCH  17  19
ATOM     19  C   UNL d   1       3.005  -3.812   0.273  0.00  0.00     0.186 C 
ATOM     20  S   UNL d   1       2.812  -5.289   1.041  0.00  0.00    -0.040 SA
BRANCH  19  21
ATOM     21  N   UNL d   1       4.186  -3.606  -0.376  0.00  0.00    -0.361 N 
ATOM     22  H   UNL d   1       4.820  -4.391  -0.274  0.00  0.00     0.162 HD
BRANCH  21  23
ATOM     23  C   UNL d   1       4.489  -2.636  -1.428  0.00  0.00     0.083 C 
ATOM     24  C   UNL d   1       5.442  -3.257  -2.463  0.00  0.00     0.025 C 
ATOM     25  C   UNL d   1       6.863  -3.445  -1.928  0.00  0.00     0.002 C 
ATOM     26  C   UNL d   1       7.423  -2.154  -1.341  0.00  0.00     0.000 C 
ATOM     27  C   UNL d   1       6.489  -1.552  -0.295  0.00  0.00     0.002 C 
ATOM     28  C   UNL d   1       5.079  -1.347  -0.847  0.00  0.00     0.025 C 
ENDBRANCH  21  23
ENDBRANCH  19  21
ENDBRANCH  17  19
ENDBRANCH   2  17
TORSDOF 6
