REMARK  3 active torsions:
REMARK  status: ('A' for Active; 'I' for Inactive)
REMARK    1  A    between atoms: C_7  and  C_2 
REMARK    2  A    between atoms: O_15  and  C_7 
REMARK    3  A    between atoms: C_18  and  O_15 
ROOT
ATOM      1  C   UNL d   1      -1.517  -1.522   0.022  0.00  0.00     0.071 A 
ATOM      2  C   UNL d   1      -1.260  -2.851   0.009  0.00  0.00     0.136 C 
ATOM      3  C   UNL d   1      -0.362  -0.531  -0.005  0.00  0.00     0.258 A 
ATOM      4  C   UNL d   1      -2.749  -0.691   0.037  0.00  0.00     0.009 A 
ATOM      5  N   UNL d   1      -0.935   0.718  -0.044  0.00  0.00    -0.322 N 
ATOM      6  C   UNL d   1      -2.317   0.646  -0.022  0.00  0.00     0.046 A 
ATOM      7  C   UNL d   1       0.079  -3.359  -0.012  0.00  0.00     0.106 C 
ATOM      8  N   UNL d   1       1.140  -3.833  -0.038  0.00  0.00    -0.191 NA
ATOM      9  C   UNL d   1      -4.111  -0.930   0.108  0.00  0.00     0.034 A 
ATOM     10  O   UNL d   1       0.830  -0.756   0.003  0.00  0.00    -0.267 OA
ATOM     11  C   UNL d   1      -3.166   1.738  -0.044  0.00  0.00     0.032 A 
ATOM     12  C   UNL d   1      -4.995   0.161   0.075  0.00  0.00     0.011 A 
ATOM     13  C   UNL d   1      -4.534   1.484  -0.003  0.00  0.00     0.021 A 
ATOM     14 BR   UNL d   1      -6.862  -0.153   0.133  0.00  0.00    -0.051 Br
ATOM     15  H   UNL d   1      -0.385   1.564  -0.072  0.00  0.00     0.169 HD
ENDROOT
BRANCH   2  16
ATOM     16  C   UNL d   1      -2.311  -3.908  -0.026  0.00  0.00     0.305 C 
ATOM     17  O   UNL d   1      -3.454  -3.764  -0.421  0.00  0.00    -0.258 OA
BRANCH  16  18
ATOM     18  O   UNL d   1      -1.794  -5.085   0.421  0.00  0.00    -0.317 OA
BRANCH  18  19
ATOM     19  C   UNL d   1      -2.649  -6.240   0.414  0.00  0.00     0.174 C 
ATOM     20  C   UNL d   1      -2.734  -6.852  -0.972  0.00  0.00     0.034 C 
ENDBRANCH  18  19
ENDBRANCH  16  18
ENDBRANCH   2  16
TORSDOF 3
