REMARK  5 active torsions:
REMARK  status: ('A' for Active; 'I' for Inactive)
REMARK    1  A    between atoms: C_3  and  C_1 
REMARK    2  A    between atoms: O_24  and  C_2 
REMARK       I    between atoms: N_11  and  C_3 
REMARK    3  A    between atoms: C_6  and  C_9 
REMARK    4  A    between atoms: C_7  and  C_10 
REMARK    5  A    between atoms: C_12  and  N_11 
ROOT
ATOM      1  C   UNL d   1      -4.538  -1.539   0.888  0.00  0.00     0.050 A 
ATOM      2  C   UNL d   1      -5.905  -0.991  -1.050  0.00  0.00     0.050 A 
ATOM      3  C   UNL d   1      -4.531   0.743   0.004  0.00  0.00     0.036 A 
ATOM      4  C   UNL d   1      -5.444  -1.922  -0.107  0.00  0.00     0.032 A 
ATOM      5  C   UNL d   1      -4.116  -0.200   0.948  0.00  0.00     0.045 A 
ATOM      6  C   UNL d   1      -5.447   0.343  -0.979  0.00  0.00     0.045 A 
ENDROOT
BRANCH   3   7
ATOM      7  N   UNL d   1      -4.029   2.067  -0.044  0.00  0.00    -0.323 N 
ATOM      8  C   UNL d   1      -3.005   2.589   0.740  0.00  0.00     0.259 C 
ATOM      9  O   UNL d   1      -2.447   1.996   1.658  0.00  0.00    -0.267 OA
ATOM     10  H   UNL d   1      -4.355   2.643  -0.808  0.00  0.00     0.169 HD
BRANCH   8  11
ATOM     11  C   UNL d   1      -2.585   3.951   0.399  0.00  0.00     0.074 A 
ATOM     12  C   UNL d   1      -1.225   4.442   0.492  0.00  0.00     0.113 A 
ATOM     13  C   UNL d   1      -1.140   5.770   0.135  0.00  0.00     0.108 A 
ATOM     14 CL   UNL d   1       0.240   6.789  -0.011  0.00  0.00    -0.073 Cl
ATOM     15  S   UNL d   1      -2.647   6.451  -0.248  0.00  0.00    -0.086 SA
ATOM     16  C   UNL d   1      -3.448   4.964   0.015  0.00  0.00     0.071 A 
BRANCH  12  17
ATOM     17  O   UNL d   1      -0.183   3.611   0.771  0.00  0.00    -0.353 OA
ATOM     18  C   UNL d   1       0.777   4.124   1.688  0.00  0.00     0.210 C 
ENDBRANCH  12  17
ENDBRANCH   8  11
ENDBRANCH   3   7
BRANCH   1  19
ATOM     19  C   UNL d   1      -3.963  -2.536   1.867  0.00  0.00     0.417 C 
ATOM     20  F   UNL d   1      -4.348  -3.818   1.615  0.00  0.00    -0.166 F 
ATOM     21  F   UNL d   1      -2.602  -2.550   1.850  0.00  0.00    -0.166 F 
ATOM     22  F   UNL d   1      -4.325  -2.281   3.152  0.00  0.00    -0.166 F 
ENDBRANCH   1  19
BRANCH   2  23
ATOM     23  C   UNL d   1      -6.846  -1.419  -2.152  0.00  0.00     0.417 C 
ATOM     24  F   UNL d   1      -7.086  -2.760  -2.171  0.00  0.00    -0.166 F 
ATOM     25  F   UNL d   1      -8.065  -0.822  -2.060  0.00  0.00    -0.166 F 
ATOM     26  F   UNL d   1      -6.368  -1.110  -3.389  0.00  0.00    -0.166 F 
ENDBRANCH   2  23
TORSDOF 5
