REMARK  4 active torsions:
REMARK  status: ('A' for Active; 'I' for Inactive)
REMARK    1  A    between atoms: N_2  and  C_1 
REMARK    2  A    between atoms: C_3  and  C_8 
REMARK    3  A    between atoms: S_6  and  C_4 
REMARK    4  A    between atoms: C_7  and  S_6 
ROOT
ATOM      1  C   UNL d   1       1.377  -0.135  -0.229  0.00  0.00     0.120 A 
ATOM      2  C   UNL d   1       0.594  -1.294  -0.174  0.00  0.00     0.038 A 
ATOM      3  C   UNL d   1       0.822   1.154  -0.109  0.00  0.00     0.053 A 
ATOM      4  C   UNL d   1      -0.558   1.305   0.082  0.00  0.00     0.050 A 
ATOM      5  C   UNL d   1      -0.788  -1.124  -0.005  0.00  0.00     0.022 A 
ATOM      6  C   UNL d   1      -1.357   0.152   0.114  0.00  0.00     0.017 A 
ENDROOT
BRANCH   2   7
ATOM      7  S   UNL d   1       1.221  -2.967  -0.148  0.00  0.00    -0.086 SA
BRANCH   7   8
ATOM      8  C   UNL d   1       1.266  -3.429  -1.875  0.00  0.00     0.028 A 
ATOM      9  C   UNL d   1       0.212  -4.075  -2.536  0.00  0.00     0.052 A 
ATOM     10  C   UNL d   1       0.381  -4.558  -3.838  0.00  0.00     0.049 A 
ATOM     11 CL   UNL d   1      -1.326  -4.352  -1.793  0.00  0.00    -0.083 Cl
ATOM     12  C   UNL d   1       1.603  -4.405  -4.496  0.00  0.00     0.041 A 
ATOM     13  C   UNL d   1       2.666  -3.742  -3.872  0.00  0.00    -0.039 A 
ATOM     14 CL   UNL d   1       1.741  -5.090  -6.076  0.00  0.00    -0.084 Cl
ATOM     15  C   UNL d   1       2.484  -3.269  -2.557  0.00  0.00     0.029 A 
ATOM     16  C   UNL d   1       4.016  -3.543  -4.505  0.00  0.00     0.050 C 
ENDBRANCH   7   8
ENDBRANCH   2   7
BRANCH   1  17
ATOM     17  N   UNL d   1       2.814  -0.209  -0.409  0.00  0.00    -0.114 N 
ATOM     18  O   UNL d   1       3.479  -0.755   0.481  0.00  0.00    -0.532 OA
ATOM     19  O   UNL d   1       3.275   0.324  -1.427  0.00  0.00    -0.532 OA
ENDBRANCH   1  17
BRANCH   4  20
ATOM     20  C   UNL d   1      -1.187   2.666   0.271  0.00  0.00     0.417 C 
ATOM     21  F   UNL d   1      -0.279   3.679   0.303  0.00  0.00    -0.166 F 
ATOM     22  F   UNL d   1      -2.064   2.975  -0.721  0.00  0.00    -0.166 F 
ATOM     23  F   UNL d   1      -1.887   2.753   1.435  0.00  0.00    -0.166 F 
ENDBRANCH   4  20
TORSDOF 4
