REMARK  8 active torsions:
REMARK  status: ('A' for Active; 'I' for Inactive)
REMARK    1  A    between atoms: C_7  and  C_2 
REMARK    2  A    between atoms: N_10  and  C_3 
REMARK    3  A    between atoms: C_8  and  C_16 
REMARK    4  A    between atoms: C_9  and  C_17 
REMARK    5  A    between atoms: O_15  and  C_11 
REMARK    6  A    between atoms: C_16  and  O_15 
REMARK    7  A    between atoms: C_17  and  O_26 
REMARK    8  A    between atoms: O_26  and  C_25 
ROOT
ATOM      1  C   UNL d   1       1.416  -2.412   0.044  0.00  0.00     0.034 A 
ATOM      2  C   UNL d   1       1.301  -3.326  -1.017  0.00  0.00     0.082 A 
ATOM      3  C   UNL d   1       2.364  -2.648   1.065  0.00  0.00     0.053 A 
ATOM      4  C   UNL d   1       2.217  -4.387  -1.090  0.00  0.00     0.040 A 
ATOM      5  C   UNL d   1       3.220  -3.743   1.014  0.00  0.00     0.070 A 
ATOM      6  C   UNL d   1       3.167  -4.589  -0.087  0.00  0.00     0.039 A 
ENDROOT
BRANCH   1   7
ATOM      7  C   UNL d   1       0.627  -1.177   0.188  0.00  0.00     0.094 C 
ATOM      8  O   UNL d   1      -0.603  -1.328   0.824  0.00  0.00    -0.273 OA
ATOM      9  C   UNL d   1      -1.323  -0.215   1.150  0.00  0.00     0.312 C 
ATOM     10  C   UNL d   1      -0.645   1.115   1.029  0.00  0.00     0.136 C 
ATOM     11  O   UNL d   1      -2.469  -0.327   1.589  0.00  0.00    -0.258 OA
ATOM     12  C   UNL d   1       0.565   1.256   0.432  0.00  0.00     0.060 C 
ATOM     13 CL   UNL d   1      -1.486   2.398   1.849  0.00  0.00    -0.075 Cl
ATOM     14  C   UNL d   1       1.162   0.022  -0.077  0.00  0.00     0.069 C 
BRANCH  12  15
ATOM     15  N   UNL d   1       1.349   2.429   0.287  0.00  0.00    -0.388 N 
ATOM     16  C   UNL d   1       0.813   3.796   0.325  0.00  0.00     0.149 C 
ATOM     17  C   UNL d   1       2.821   2.437   0.323  0.00  0.00     0.149 C 
ENDBRANCH  12  15
ENDBRANCH   1   7
BRANCH   2  18
ATOM     18  O   UNL d   1       0.292  -3.134  -1.929  0.00  0.00    -0.342 OA
BRANCH  18  19
ATOM     19  C   UNL d   1       0.008  -4.256  -2.787  0.00  0.00     0.293 C 
BRANCH  19  20
ATOM     20  C   UNL d   1      -1.333  -4.148  -3.500  0.00  0.00     0.408 C 
ATOM     21  F   UNL d   1      -1.841  -2.898  -3.493  0.00  0.00    -0.169 F 
ATOM     22  F   UNL d   1      -1.206  -4.524  -4.796  0.00  0.00    -0.169 F 
ATOM     23  F   UNL d   1      -2.248  -4.973  -2.938  0.00  0.00    -0.169 F 
ENDBRANCH  19  20
ENDBRANCH  18  19
ENDBRANCH   2  18
BRANCH   5  24
ATOM     24  O   UNL d   1       4.181  -4.044   1.933  0.00  0.00    -0.342 OA
BRANCH  24  25
ATOM     25  C   UNL d   1       3.911  -3.662   3.289  0.00  0.00     0.293 C 
BRANCH  25  26
ATOM     26  C   UNL d   1       5.026  -4.133   4.221  0.00  0.00     0.408 C 
ATOM     27  F   UNL d   1       6.041  -4.737   3.565  0.00  0.00    -0.169 F 
ATOM     28  F   UNL d   1       5.553  -3.085   4.899  0.00  0.00    -0.169 F 
ATOM     29  F   UNL d   1       4.556  -5.008   5.139  0.00  0.00    -0.169 F 
ENDBRANCH  25  26
ENDBRANCH  24  25
ENDBRANCH   5  24
TORSDOF 8
