REMARK  6 active torsions:
REMARK  status: ('A' for Active; 'I' for Inactive)
REMARK    1  A    between atoms: C_6  and  C_1 
REMARK    2  A    between atoms: O_8  and  C_1 
REMARK    3  A    between atoms: C_4  and  S_7 
REMARK    4  A    between atoms: S_7  and  C_13 
REMARK    5  A    between atoms: C_14  and  O_8 
REMARK    6  A    between atoms: C_13  and  C_14 
ROOT
ATOM      1  C   UNL d   1       3.218   0.650   0.990  0.00  0.00     0.189 C 
ENDROOT
BRANCH   1   2
ATOM      2  C   UNL d   1       4.732   0.539   0.833  0.00  0.00     0.107 C 
BRANCH   2   3
ATOM      3  S   UNL d   1       5.556   1.369   2.229  0.00  0.00    -0.110 SA
BRANCH   3   4
ATOM      4  C   UNL d   1       7.266   1.028   1.853  0.00  0.00     0.069 A 
ATOM      5  N   UNL d   1       7.566   0.349   0.725  0.00  0.00    -0.361 N 
ATOM      6  C   UNL d   1       8.871   0.091   0.487  0.00  0.00     0.089 A 
ATOM      7  HN  UNL d   1       6.838   0.043   0.079  1.00  0.00     0.165 HD
ATOM      8  C   UNL d   1       9.900   0.473   1.332  0.00  0.00     0.017 A 
ATOM      9  C   UNL d   1       9.573   1.174   2.485  0.00  0.00     0.004 A 
ATOM     10  C   UNL d   1       8.237   1.461   2.750  0.00  0.00     0.037 A 
ENDBRANCH   3   4
ENDBRANCH   2   3
ENDBRANCH   1   2
BRANCH   1  11
ATOM     11  O   UNL d   1       2.552  -0.006  -0.103  0.00  0.00    -0.317 OA
BRANCH  11  12
ATOM     12  C   UNL d   1       2.425   0.731  -1.236  0.00  0.00     0.293 C 
ATOM     13  O   UNL d   1       2.816   1.876  -1.391  0.00  0.00    -0.259 OA
BRANCH  12  14
ATOM     14  C   UNL d   1       1.750  -0.061  -2.298  0.00  0.00     0.039 A 
ATOM     15  C   UNL d   1       1.585   0.527  -3.559  0.00  0.00     0.017 A 
ATOM     16  C   UNL d   1       0.968  -0.183  -4.590  0.00  0.00     0.001 A 
ATOM     17  C   UNL d   1       0.514  -1.482  -4.368  0.00  0.00     0.000 A 
ATOM     18  C   UNL d   1       0.671  -2.073  -3.115  0.00  0.00     0.001 A 
ATOM     19  C   UNL d   1       1.287  -1.366  -2.080  0.00  0.00     0.017 A 
ENDBRANCH  12  14
ENDBRANCH  11  12
ENDBRANCH   1  11
TORSDOF 6
