REMARK  4 active torsions:
REMARK  status: ('A' for Active; 'I' for Inactive)
REMARK    1  A    between atoms: C_3  and  O_10 
REMARK       I    between atoms: N_8  and  C_3 
REMARK    2  A    between atoms: C_11  and  C_4 
REMARK    3  A    between atoms: C_12  and  N_8 
REMARK    4  A    between atoms: O_10  and  C_11 
ROOT
ATOM      1  C   UNL d   1      -3.415  -3.827   0.256  0.00  0.00     0.365 C 
ATOM      2  N   UNL d   1      -4.705  -3.386   0.143  0.00  0.00    -0.303 N 
ATOM      3  O   UNL d   1      -3.190  -5.008   0.501  0.00  0.00    -0.238 OA
ATOM      4  H   UNL d   1      -5.363  -4.120   0.373  0.00  0.00     0.171 HD
ENDROOT
BRANCH   1   5
ATOM      5  O   UNL d   1      -2.463  -2.869   0.177  0.00  0.00    -0.298 OA
BRANCH   5   6
ATOM      6  C   UNL d   1      -1.139  -3.281   0.559  0.00  0.00     0.239 C 
BRANCH   6   7
ATOM      7  C   UNL d   1      -0.905  -3.100   2.022  0.00  0.00     0.059 A 
ATOM      8  N   UNL d   1      -0.030  -2.188   2.470  0.00  0.00    -0.263 N 
ATOM      9  O   UNL d   1      -0.075  -2.269   3.851  0.00  0.00    -0.243 OA
ATOM     10  HN  UNL d   1       0.549  -1.564   1.908  1.00  0.00     0.194 HD
ATOM     11  C   UNL d   1      -0.969  -3.224   4.221  0.00  0.00     0.074 A 
ATOM     12  C   UNL d   1      -1.151  -3.441   5.667  0.00  0.00     0.079 C 
ATOM     13  C   UNL d   1      -1.519  -3.786   3.098  0.00  0.00     0.063 A 
ENDBRANCH   6   7
ENDBRANCH   5   6
ENDBRANCH   1   5
BRANCH   2  14
ATOM     14  C   UNL d   1      -5.238  -2.118  -0.142  0.00  0.00     0.036 A 
ATOM     15  C   UNL d   1      -4.513  -1.053  -0.681  0.00  0.00     0.031 A 
ATOM     16  C   UNL d   1      -5.144   0.167  -0.958  0.00  0.00     0.026 A 
ATOM     17  C   UNL d   1      -6.501   0.327  -0.691  0.00  0.00     0.034 A 
ATOM     18  C   UNL d   1      -7.235  -0.723  -0.152  0.00  0.00     0.026 A 
ATOM     19 CL   UNL d   1      -7.274   1.822  -1.040  0.00  0.00    -0.084 Cl
ATOM     20  C   UNL d   1      -6.607  -1.943   0.112  0.00  0.00     0.031 A 
ENDBRANCH   2  14
TORSDOF 4
