REMARK  3 active torsions:
REMARK  status: ('A' for Active; 'I' for Inactive)
REMARK    1  A    between atoms: C_2  and  S_1 
REMARK    2  A    between atoms: O_3  and  S_1 
REMARK    3  A    between atoms: C_10  and  O_3 
ROOT
ATOM      1  S   UNL d   1       1.026   0.059  -0.079  0.00  0.00     0.303 S 
ATOM      2  O   UNL d   1       0.390   1.198  -0.711  0.00  0.00    -0.193 OA
ATOM      3  O   UNL d   1       2.471  -0.026   0.017  0.00  0.00    -0.193 OA
ENDROOT
BRANCH   1   4
ATOM      4  C   UNL d   1       0.490  -1.391  -0.970  0.00  0.00     0.088 A 
ATOM      5  C   UNL d   1       1.288  -2.540  -0.959  0.00  0.00     0.051 A 
ATOM      6  C   UNL d   1       0.909  -3.651  -1.720  0.00  0.00     0.057 A 
ATOM      7 CL   UNL d   1       1.934  -5.042  -1.672  0.00  0.00    -0.083 Cl
ATOM      8  C   UNL d   1      -0.259  -3.608  -2.493  0.00  0.00     0.055 A 
ATOM      9  C   UNL d   1      -1.048  -2.452  -2.499  0.00  0.00     0.027 A 
ATOM     10 CL   UNL d   1      -0.774  -4.937  -3.469  0.00  0.00    -0.083 Cl
ATOM     11  C   UNL d   1      -0.675  -1.340  -1.741  0.00  0.00     0.027 A 
ENDBRANCH   1   4
BRANCH   1  12
ATOM     12  O   UNL d   1       0.382  -0.148   1.404  0.00  0.00    -0.229 OA
BRANCH  12  13
ATOM     13  C   UNL d   1       0.581   0.747   2.428  0.00  0.00     0.091 A 
ATOM     14  C   UNL d   1       1.337   1.918   2.350  0.00  0.00     0.063 A 
ATOM     15  C   UNL d   1       1.474   2.747   3.473  0.00  0.00     0.058 A 
ATOM     16 CL   UNL d   1       2.431   4.177   3.303  0.00  0.00    -0.082 Cl
ATOM     17  C   UNL d   1       0.851   2.407   4.678  0.00  0.00     0.056 A 
ATOM     18  C   UNL d   1       0.088   1.240   4.754  0.00  0.00     0.028 A 
ATOM     19 CL   UNL d   1       0.982   3.377   6.101  0.00  0.00    -0.083 Cl
ATOM     20  C   UNL d   1      -0.044   0.414   3.634  0.00  0.00     0.040 A 
ENDBRANCH  12  13
ENDBRANCH   1  12
TORSDOF 3
