REMARK  4 active torsions:
REMARK  status: ('A' for Active; 'I' for Inactive)
REMARK    1  A    between atoms: C_5  and  C_3 
REMARK    2  A    between atoms: C_11  and  N_4 
REMARK       I    between atoms: N_10  and  C_5 
REMARK       I    between atoms: C_9  and  N_12 
REMARK       I    between atoms: N_13  and  C_9 
REMARK    3  A    between atoms: N_12  and  N_10 
REMARK    4  A    between atoms: C_19  and  N_13 
ROOT
ATOM      1  C   UNL d   1       2.310   1.480   0.069  0.00  0.00     0.292 C 
ATOM      2  N   UNL d   1       2.231   2.852   0.199  0.00  0.00    -0.260 N 
ATOM      3  O   UNL d   1       3.366   0.869  -0.032  0.00  0.00    -0.264 OA
ATOM      4  H   UNL d   1       1.364   3.330   0.451  0.00  0.00     0.190 HD
ENDROOT
BRANCH   1   5
ATOM      5  C   UNL d   1       0.978   0.745   0.066  0.00  0.00     0.168 C 
ATOM      6  N   UNL d   1      -0.025   1.284   0.715  0.00  0.00    -0.286 N 
ATOM      7  N   UNL d   1      -1.210   0.570   0.784  0.00  0.00    -0.267 N 
ATOM      8  HN  UNL d   1       0.064   2.200   1.155  1.00  0.00     0.188 HD
ATOM      9  C   UNL d   1      -1.335  -0.699   0.249  0.00  0.00     0.120 C 
ATOM     10  C   UNL d   1      -0.397  -1.334  -0.452  0.00  0.00     0.076 C 
ATOM     11  C   UNL d   1       0.831  -0.570  -0.673  0.00  0.00     0.206 C 
ATOM     12  O   UNL d   1       1.672  -0.959  -1.470  0.00  0.00    -0.286 OA
BRANCH   7  13
ATOM     13  C   UNL d   1      -2.312   1.244   1.411  0.00  0.00     0.056 A 
ATOM     14  C   UNL d   1      -2.420   2.646   1.356  0.00  0.00     0.034 A 
ATOM     15  C   UNL d   1      -3.534   3.310   1.883  0.00  0.00     0.044 A 
ATOM     16  C   UNL d   1      -4.544   2.581   2.494  0.00  0.00     0.116 A 
ATOM     17  C   UNL d   1      -4.455   1.202   2.600  0.00  0.00     0.044 A 
ATOM     18  F   UNL d   1      -5.617   3.213   2.984  0.00  0.00    -0.206 F 
ATOM     19  C   UNL d   1      -3.344   0.538   2.065  0.00  0.00     0.034 A 
ENDBRANCH   7  13
ENDBRANCH   1   5
BRANCH   2  20
ATOM     20  N   UNL d   1       3.431   3.594   0.289  0.00  0.00    -0.248 N 
ATOM     21  C   UNL d   1       3.306   4.969   0.428  0.00  0.00     0.339 C 
ATOM     22  N   UNL d   1       4.529   5.610   0.385  0.00  0.00    -0.308 N 
ATOM     23  O   UNL d   1       2.203   5.485   0.582  0.00  0.00    -0.245 OA
ATOM     24  H   UNL d   1       5.344   5.013   0.380  0.00  0.00     0.170 HD
ATOM     25  H   UNL d   1       4.201   3.215  -0.257  0.00  0.00     0.192 HD
BRANCH  22  26
ATOM     26  C   UNL d   1       4.761   7.003   0.363  0.00  0.00     0.036 A 
ATOM     27  C   UNL d   1       3.738   7.956   0.380  0.00  0.00     0.031 A 
ATOM     28  C   UNL d   1       4.027   9.319   0.248  0.00  0.00     0.026 A 
ATOM     29  C   UNL d   1       5.345   9.739   0.108  0.00  0.00     0.034 A 
ATOM     30  C   UNL d   1       6.380   8.809   0.139  0.00  0.00     0.026 A 
ATOM     31 CL   UNL d   1       5.692  11.407  -0.127  0.00  0.00    -0.084 Cl
ATOM     32  C   UNL d   1       6.088   7.445   0.273  0.00  0.00     0.031 A 
ENDBRANCH  22  26
ENDBRANCH   2  20
TORSDOF 4
