REMARK  6 active torsions:
REMARK  status: ('A' for Active; 'I' for Inactive)
REMARK    1  A    between atoms: C_5  and  C_1 
REMARK    2  A    between atoms: C_8  and  C_2 
REMARK       I    between atoms: N_12  and  C_8 
REMARK    3  A    between atoms: C_21  and  N_12 
REMARK    4  A    between atoms: O_22  and  C_15 
REMARK    5  A    between atoms: C_16  and  C_27 
REMARK    6  A    between atoms: C_27  and  C_21 
ROOT
ATOM      1  C   UNL d   1      -1.125  -0.727   0.396  0.00  0.00     0.088 A 
ATOM      2  C   UNL d   1       0.030  -1.303  -0.244  0.00  0.00     0.092 A 
ATOM      3  N   UNL d   1      -1.060   0.613   0.331  0.00  0.00    -0.259 N 
ATOM      4  HN  UNL d   1      -1.720   1.273   0.741  1.00  0.00     0.195 HD
ATOM      5  O   UNL d   1       0.063   0.923  -0.393  0.00  0.00    -0.241 OA
ATOM      6  C   UNL d   1       0.722  -0.212  -0.734  0.00  0.00     0.090 A 
ATOM      7  C   UNL d   1       1.933  -0.001  -1.550  0.00  0.00     0.080 C 
ENDROOT
BRANCH   2   8
ATOM      8  C   UNL d   1       0.368  -2.703  -0.404  0.00  0.00     0.256 C 
ATOM      9  O   UNL d   1      -0.488  -3.552  -0.646  0.00  0.00    -0.267 OA
ATOM     10  N   UNL d   1       1.701  -3.020  -0.206  0.00  0.00    -0.356 N 
ATOM     11  H   UNL d   1       2.275  -2.320   0.245  0.00  0.00     0.162 HD
BRANCH  10  12
ATOM     12  C   UNL d   1       2.099  -4.415  -0.081  0.00  0.00     0.127 C 
BRANCH  12  13
ATOM     13  C   UNL d   1       3.617  -4.600  -0.051  0.00  0.00     0.058 C 
BRANCH  13  14
ATOM     14  C   UNL d   1       4.019  -6.055   0.024  0.00  0.00    -0.057 A 
ATOM     15  C   UNL d   1       4.182  -6.806  -1.147  0.00  0.00     0.010 A 
ATOM     16  C   UNL d   1       4.535  -8.157  -1.079  0.00  0.00     0.037 A 
ATOM     17  C   UNL d   1       4.743  -8.777   0.152  0.00  0.00     0.068 A 
ATOM     18  C   UNL d   1       4.567  -8.043   1.324  0.00  0.00     0.037 A 
ATOM     19  C   UNL d   1       4.205  -6.690   1.260  0.00  0.00     0.010 A 
BRANCH  17  20
ATOM     20  O   UNL d   1       5.069 -10.104   0.085  0.00  0.00    -0.356 OA
ATOM     21  C   UNL d   1       5.806 -10.623   1.186  0.00  0.00     0.210 C 
ENDBRANCH  17  20
ENDBRANCH  13  14
ENDBRANCH  12  13
ENDBRANCH  10  12
ENDBRANCH   2   8
BRANCH   1  22
ATOM     22  C   UNL d   1      -2.227  -1.389   1.106  0.00  0.00     0.054 A 
ATOM     23  C   UNL d   1      -3.573  -0.983   1.010  0.00  0.00     0.049 A 
ATOM     24 CL   UNL d   1      -4.111   0.339   0.028  0.00  0.00    -0.083 Cl
ATOM     25  C   UNL d   1      -4.582  -1.668   1.711  0.00  0.00     0.025 A 
ATOM     26  C   UNL d   1      -4.275  -2.775   2.498  0.00  0.00     0.005 A 
ATOM     27  C   UNL d   1      -2.951  -3.179   2.616  0.00  0.00     0.043 A 
ATOM     28  C   UNL d   1      -1.947  -2.476   1.948  0.00  0.00     0.130 A 
ATOM     29  F   UNL d   1      -0.679  -2.860   2.168  0.00  0.00    -0.205 F 
ENDBRANCH   1  22
TORSDOF 6
