REMARK  6 active torsions:
REMARK  status: ('A' for Active; 'I' for Inactive)
REMARK    1  A    between atoms: C_2  and  C_1 
REMARK       I    between atoms: N_3  and  C_2 
REMARK       I    between atoms: C_4  and  N_3 
REMARK       I    between atoms: N_8  and  C_4 
REMARK    2  A    between atoms: O_18  and  C_5 
REMARK    3  A    between atoms: O_19  and  C_6 
REMARK    4  A    between atoms: C_7  and  N_8 
REMARK    5  A    between atoms: O_20  and  C_13 
REMARK    6  A    between atoms: O_21  and  C_14 
ROOT
ATOM      1  C   UNL d   1       0.352  -3.584  -1.789  0.00  0.00     0.265 C 
ATOM      2  N   UNL d   1       1.429  -4.453  -1.756  0.00  0.00    -0.275 N 
ATOM      3  C   UNL d   1       2.719  -4.347  -1.284  0.00  0.00     0.327 C 
ATOM      4  N   UNL d   1       3.194  -3.105  -0.915  0.00  0.00    -0.304 N 
ATOM      5  O   UNL d   1       0.481  -2.382  -1.536  0.00  0.00    -0.267 OA
ATOM      6  O   UNL d   1       3.366  -5.397  -1.238  0.00  0.00    -0.247 OA
ATOM      7  H   UNL d   1       1.244  -5.405  -2.022  0.00  0.00     0.173 HD
ATOM      8  H   UNL d   1       2.837  -2.330  -1.449  0.00  0.00     0.171 HD
ENDROOT
BRANCH   1   9
ATOM      9  C   UNL d   1      -0.974  -4.149  -2.249  0.00  0.00     0.102 C 
ATOM     10  C   UNL d   1      -2.173  -3.591  -1.763  0.00  0.00     0.108 C 
ATOM     11  C   UNL d   1      -3.393  -3.888  -2.401  0.00  0.00     0.070 C 
ATOM     12 CL   UNL d   1      -4.885  -3.116  -1.985  0.00  0.00    -0.081 Cl
ATOM     13  C   UNL d   1      -3.436  -4.788  -3.461  0.00  0.00     0.053 C 
ATOM     14  C   UNL d   1      -2.272  -5.433  -3.870  0.00  0.00     0.070 C 
ATOM     15  C   UNL d   1      -1.044  -5.173  -3.228  0.00  0.00     0.108 C 
ATOM     16 CL   UNL d   1      -2.419  -6.464  -5.253  0.00  0.00    -0.081 Cl
BRANCH  10  17
ATOM     17  O   UNL d   1      -2.118  -2.747  -0.682  0.00  0.00    -0.353 OA
ATOM     18  C   UNL d   1      -2.873  -3.209   0.444  0.00  0.00     0.210 C 
ENDBRANCH  10  17
BRANCH  15  19
ATOM     19  O   UNL d   1       0.106  -5.852  -3.563  0.00  0.00    -0.353 OA
ATOM     20  C   UNL d   1      -0.007  -7.281  -3.470  0.00  0.00     0.210 C 
ENDBRANCH  15  19
ENDBRANCH   1   9
BRANCH   4  21
ATOM     21  C   UNL d   1       4.462  -3.022  -0.262  0.00  0.00     0.103 C 
ATOM     22  C   UNL d   1       5.561  -2.250  -0.666  0.00  0.00     0.097 C 
ATOM     23  C   UNL d   1       6.795  -2.430   0.007  0.00  0.00     0.039 C 
ATOM     24  C   UNL d   1       6.962  -3.329   1.059  0.00  0.00     0.006 C 
ATOM     25  C   UNL d   1       5.858  -4.014   1.528  0.00  0.00     0.039 C 
ATOM     26  C   UNL d   1       4.623  -3.812   0.912  0.00  0.00     0.097 C 
BRANCH  22  27
ATOM     27  O   UNL d   1       5.730  -1.328  -1.652  0.00  0.00    -0.354 OA
ATOM     28  C   UNL d   1       4.774  -1.038  -2.642  0.00  0.00     0.210 C 
ENDBRANCH  22  27
BRANCH  26  29
ATOM     29  O   UNL d   1       3.533  -4.348   1.568  0.00  0.00    -0.354 OA
ATOM     30  C   UNL d   1       2.898  -3.307   2.317  0.00  0.00     0.210 C 
ENDBRANCH  26  29
ENDBRANCH   4  21
TORSDOF 6
