REMARK  2 active torsions:
REMARK  status: ('A' for Active; 'I' for Inactive)
REMARK    1  A    between atoms: S_10  and  C_2 
REMARK    2  A    between atoms: C_6  and  C_3 
REMARK       I    between atoms: N_11  and  C_6 
ROOT
ATOM      1  C   UNL d   1      -0.709  -0.099  -0.036  0.00  0.00     0.069 A 
ATOM      2  C   UNL d   1       0.183   0.955  -0.030  0.00  0.00     0.062 A 
ATOM      3  C   UNL d   1       1.333  -1.248  -0.031  0.00  0.00     0.075 A 
ATOM      4  S   UNL d   1       1.806   0.396  -0.041  0.00  0.00    -0.076 SA
ATOM      5  C   UNL d   1      -0.044  -1.364  -0.043  0.00  0.00     0.049 A 
ATOM      6  C   UNL d   1      -2.135   0.037  -0.013  0.00  0.00     0.101 C 
ATOM      7  N   UNL d   1      -3.290   0.134  -0.017  0.00  0.00    -0.191 NA
ENDROOT
BRANCH   2   8
ATOM      8  S   UNL d   1      -0.148   2.683   0.066  0.00  0.00    -0.126 SA
ATOM      9  C   UNL d   1      -0.994   2.994  -1.500  0.00  0.00     0.096 C 
ENDBRANCH   2   8
BRANCH   3  10
ATOM     10  C   UNL d   1       2.289  -2.342  -0.004  0.00  0.00     0.256 C 
ATOM     11  O   UNL d   1       1.965  -3.527  -0.003  0.00  0.00    -0.267 OA
ATOM     12  N   UNL d   1       3.615  -2.015   0.027  0.00  0.00    -0.366 N 
ATOM     13  H   UNL d   1       3.933  -1.057   0.054  0.00  0.00     0.159 HD
ATOM     14  H   UNL d   1       4.287  -2.767   0.067  0.00  0.00     0.159 HD
ENDBRANCH   3  10
TORSDOF 2
