REMARK  6 active torsions:
REMARK  status: ('A' for Active; 'I' for Inactive)
REMARK    1  A    between atoms: C_3  and  C_1 
REMARK    2  A    between atoms: C_2  and  C_6 
REMARK    3  A    between atoms: C_7  and  C_22 
REMARK       I    between atoms: N_9  and  C_7 
REMARK    4  A    between atoms: S_12  and  C_8 
REMARK    5  A    between atoms: C_13  and  N_9 
REMARK    6  A    between atoms: C_22  and  S_12 
ROOT
ATOM      1  C   UNL d   1      -2.041   6.137  -4.637  0.00  0.00     0.231 C 
ATOM      2  N   UNL d   1      -1.237   7.234  -4.362  0.00  0.00    -0.327 N 
ATOM      3  O   UNL d   1      -2.986   6.134  -5.430  0.00  0.00    -0.272 OA
ATOM      4  H   UNL d   1      -0.437   7.068  -3.759  0.00  0.00     0.169 HD
ENDROOT
BRANCH   1   5
ATOM      5  C   UNL d   1      -1.608   4.821  -4.027  0.00  0.00     0.184 C 
BRANCH   5   6
ATOM      6  S   UNL d   1      -1.121   4.934  -2.284  0.00  0.00    -0.103 SA
BRANCH   6   7
ATOM      7  C   UNL d   1      -0.720   3.214  -2.000  0.00  0.00     0.070 A 
ATOM      8  C   UNL d   1      -0.310   2.800  -0.740  0.00  0.00     0.038 A 
ATOM      9  C   UNL d   1       0.099   1.476  -0.569  0.00  0.00     0.020 A 
ATOM     10  C   UNL d   1       0.086   0.596  -1.655  0.00  0.00     0.063 A 
ATOM     11  C   UNL d   1      -0.386   1.086  -2.861  0.00  0.00     0.105 A 
ATOM     12  N   UNL d   1      -0.779   2.367  -3.052  0.00  0.00    -0.360 N 
ATOM     13  HN  UNL d   1      -1.110   2.684  -3.963  1.00  0.00     0.166 HD
BRANCH  10  14
ATOM     14  C   UNL d   1       0.600  -0.807  -1.546  0.00  0.00     0.418 C 
ATOM     15  F   UNL d   1       0.546  -1.501  -2.717  0.00  0.00    -0.166 F 
ATOM     16  F   UNL d   1      -0.086  -1.551  -0.637  0.00  0.00    -0.166 F 
ATOM     17  F   UNL d   1       1.903  -0.846  -1.153  0.00  0.00    -0.166 F 
ENDBRANCH  10  14
ENDBRANCH   6   7
ENDBRANCH   5   6
ENDBRANCH   1   5
BRANCH   2  18
ATOM     18  C   UNL d   1      -1.356   8.515  -4.944  0.00  0.00     0.035 A 
ATOM     19  C   UNL d   1      -2.469   8.908  -5.695  0.00  0.00     0.045 A 
ATOM     20  C   UNL d   1      -2.509  10.146  -6.357  0.00  0.00     0.050 A 
ATOM     21  C   UNL d   1      -1.420  11.015  -6.232  0.00  0.00     0.016 A 
ATOM     22  C   UNL d   1      -0.327  10.659  -5.441  0.00  0.00     0.003 A 
ATOM     23  C   UNL d   1      -0.299   9.417  -4.796  0.00  0.00     0.029 A 
BRANCH  20  24
ATOM     24  C   UNL d   1      -3.692  10.511  -7.220  0.00  0.00     0.417 C 
ATOM     25  F   UNL d   1      -4.712   9.608  -7.178  0.00  0.00    -0.166 F 
ATOM     26  F   UNL d   1      -4.244  11.706  -6.872  0.00  0.00    -0.166 F 
ATOM     27  F   UNL d   1      -3.355  10.627  -8.536  0.00  0.00    -0.166 F 
ENDBRANCH  20  24
ENDBRANCH   2  18
TORSDOF 6
