REMARK  4 active torsions:
REMARK  status: ('A' for Active; 'I' for Inactive)
REMARK    1  A    between atoms: C_12  and  C_1 
REMARK    2  A    between atoms: S_14  and  C_2 
REMARK    3  A    between atoms: C_6  and  C_3 
REMARK    4  A    between atoms: C_13  and  C_9 
ROOT
ATOM      1  C   UNL d   1      -1.828   2.335  -0.082  0.00  0.00     0.092 A 
ATOM      2  N   UNL d   1      -1.600   3.510  -0.634  0.00  0.00    -0.348 N 
ATOM      3  HN  UNL d   1      -0.727   3.780  -1.087  1.00  0.00     0.166 HD
ATOM      4  C   UNL d   1      -2.714   4.330  -0.513  0.00  0.00     0.050 A 
ATOM      5  S   UNL d   1      -3.404   2.156   0.602  0.00  0.00    -0.081 SA
ATOM      6  C   UNL d   1      -3.801   3.739   0.099  0.00  0.00     0.082 A 
ENDROOT
BRANCH   1   7
ATOM      7  C   UNL d   1      -0.836   1.278  -0.049  0.00  0.00     0.046 A 
ATOM      8  C   UNL d   1       0.548   1.377   0.024  0.00  0.00    -0.026 A 
ATOM      9  C   UNL d   1       1.199   0.057   0.028  0.00  0.00     0.040 A 
ATOM     10  C   UNL d   1       1.324   2.665   0.098  0.00  0.00     0.050 C 
ATOM     11  C   UNL d   1       0.259  -0.969  -0.007  0.00  0.00     0.056 A 
ATOM     12  S   UNL d   1      -1.325  -0.353  -0.143  0.00  0.00    -0.079 SA
BRANCH   9  13
ATOM     13  C   UNL d   1       2.662  -0.116   0.131  0.00  0.00     0.158 C 
ATOM     14  O   UNL d   1       3.331   0.640   0.842  0.00  0.00    -0.293 OA
ATOM     15  C   UNL d   1       3.396  -1.145  -0.693  0.00  0.00     0.097 C 
ENDBRANCH   9  13
BRANCH  11  16
ATOM     16  S   UNL d   1       0.565  -2.713   0.116  0.00  0.00    -0.126 SA
ATOM     17  C   UNL d   1      -1.078  -3.469   0.030  0.00  0.00     0.096 C 
ENDBRANCH  11  16
ENDBRANCH   1   7
BRANCH   4  18
ATOM     18  C   UNL d   1      -2.714   5.694  -1.030  0.00  0.00    -0.009 A 
ATOM     19  C   UNL d   1      -1.844   6.041  -2.073  0.00  0.00     0.015 A 
ATOM     20  C   UNL d   1      -1.842   7.338  -2.596  0.00  0.00     0.024 A 
ATOM     21  C   UNL d   1      -2.701   8.298  -2.073  0.00  0.00     0.034 A 
ATOM     22  C   UNL d   1      -3.561   7.978  -1.023  0.00  0.00     0.024 A 
ATOM     23 CL   UNL d   1      -2.708   9.893  -2.720  0.00  0.00    -0.084 Cl
ATOM     24  C   UNL d   1      -3.563   6.681  -0.503  0.00  0.00     0.015 A 
ENDBRANCH   4  18
TORSDOF 4
