REMARK  5 active torsions:
REMARK  status: ('A' for Active; 'I' for Inactive)
REMARK    1  A    between atoms: O_4  and  C_1 
REMARK    2  A    between atoms: C_3  and  C_2 
REMARK       I    between atoms: N_5  and  C_3 
REMARK    3  A    between atoms: C_13  and  O_4 
REMARK    4  A    between atoms: C_12  and  N_5 
REMARK    5  A    between atoms: C_8  and  C_12 
ROOT
ATOM      1  C   UNL d   1      -0.509   1.020   0.108  0.00  0.00     0.163 A 
ATOM      2  C   UNL d   1       0.811   1.452   0.117  0.00  0.00     0.083 A 
ATOM      3  N   UNL d   1      -0.860  -0.286   0.314  0.00  0.00    -0.346 N 
ATOM      4  HN  UNL d   1      -1.841  -0.557   0.373  1.00  0.00     0.167 HD
ATOM      5  C   UNL d   1       1.795   0.448   0.247  0.00  0.00     0.023 A 
ATOM      6  C   UNL d   1       0.115  -1.207   0.436  0.00  0.00     0.090 A 
ATOM      7  C   UNL d   1       1.452  -0.893   0.389  0.00  0.00     0.018 A 
ENDROOT
BRANCH   2   8
ATOM      8  C   UNL d   1       1.329   2.841   0.003  0.00  0.00     0.255 C 
ATOM      9  N   UNL d   1       0.496   3.940  -0.100  0.00  0.00    -0.356 N 
ATOM     10  H   UNL d   1      -0.510   3.845  -0.186  0.00  0.00     0.162 HD
ATOM     11  O   UNL d   1       2.557   2.995   0.023  0.00  0.00    -0.268 OA
BRANCH   9  12
ATOM     12  C   UNL d   1       1.145   5.235  -0.175  0.00  0.00     0.127 C 
BRANCH  12  13
ATOM     13  C   UNL d   1       0.283   6.450  -0.228  0.00  0.00     0.003 A 
ATOM     14  C   UNL d   1      -1.087   6.555   0.387  0.00  0.00     0.007 A 
ATOM     15  C   UNL d   1      -0.929   6.556  -1.113  0.00  0.00     0.007 A 
ENDBRANCH  12  13
ENDBRANCH   9  12
ENDBRANCH   2   8
BRANCH   1  16
ATOM     16  O   UNL d   1      -1.546   1.909  -0.160  0.00  0.00    -0.293 OA
BRANCH  16  17
ATOM     17  C   UNL d   1      -2.676   1.337  -0.724  0.00  0.00     0.077 A 
ATOM     18  C   UNL d   1      -3.908   1.532  -0.099  0.00  0.00     0.037 A 
ATOM     19  C   UNL d   1      -5.053   0.911  -0.611  0.00  0.00     0.003 A 
ATOM     20  C   UNL d   1      -4.967   0.105  -1.748  0.00  0.00     0.000 A 
ATOM     21  C   UNL d   1      -3.743  -0.063  -2.392  0.00  0.00     0.003 A 
ATOM     22  C   UNL d   1      -2.602   0.567  -1.893  0.00  0.00     0.037 A 
ENDBRANCH  16  17
ENDBRANCH   1  16
TORSDOF 5
