REMARK  1 active torsions:
REMARK  status: ('A' for Active; 'I' for Inactive)
REMARK    1  A    between atoms: C_12  and  C_6 
ROOT
ATOM      1  C   UNL d   1       0.312   0.561   0.029  0.00  0.00     0.122 A 
ATOM      2  C   UNL d   1       0.171  -0.805   0.022  0.00  0.00     0.063 A 
ATOM      3  N   UNL d   1       1.627   1.015   0.029  0.00  0.00    -0.344 N 
ATOM      4  HN  UNL d   1       1.909   1.995   0.057  1.00  0.00     0.167 HD
ATOM      5  S   UNL d   1       1.681  -1.562   0.018  0.00  0.00    -0.067 SA
ATOM      6  C   UNL d   1       2.455  -0.013  -0.012  0.00  0.00     0.085 A 
ATOM      7  C   UNL d   1      -0.883   1.395   0.034  0.00  0.00     0.288 A 
ATOM      8  N   UNL d   1      -2.201  -0.712   0.020  0.00  0.00    -0.301 N 
ATOM      9  HN  UNL d   1      -3.123  -1.148   0.017  1.00  0.00     0.186 HD
ATOM     10  N   UNL d   1      -2.070   0.668   0.027  0.00  0.00    -0.264 N 
ATOM     11  C   UNL d   1      -1.117  -1.441   0.019  0.00  0.00     0.041 A 
ATOM     12  O   UNL d   1      -0.877   2.622   0.041  0.00  0.00    -0.264 OA
ATOM     13  C   UNL d   1      -1.274  -2.940   0.010  0.00  0.00     0.071 C 
ATOM     14  H   UNL d   1      -2.933   1.202   0.026  0.00  0.00     0.190 HD
ENDROOT
BRANCH   6  15
ATOM     15  C   UNL d   1       3.927   0.081  -0.023  0.00  0.00    -0.002 A 
ATOM     16  C   UNL d   1       4.556   1.181   0.579  0.00  0.00     0.014 A 
ATOM     17  C   UNL d   1       5.951   1.273   0.620  0.00  0.00     0.001 A 
ATOM     18  C   UNL d   1       6.736   0.274   0.047  0.00  0.00     0.000 A 
ATOM     19  C   UNL d   1       6.128  -0.810  -0.579  0.00  0.00     0.001 A 
ATOM     20  C   UNL d   1       4.735  -0.903  -0.619  0.00  0.00     0.014 A 
ENDBRANCH   6  15
TORSDOF 1
