REMARK  6 active torsions:
REMARK  status: ('A' for Active; 'I' for Inactive)
REMARK    1  A    between atoms: C_2  and  S_1 
REMARK    2  A    between atoms: C_7  and  S_1 
REMARK    3  A    between atoms: C_3  and  O_11 
REMARK    4  A    between atoms: N_10  and  C_4 
REMARK    5  A    between atoms: C_17  and  N_10 
REMARK    6  A    between atoms: O_11  and  C_18 
ROOT
ATOM      1  C   UNL d   1       0.389   0.412   1.579  0.00  0.00     0.159 C 
ATOM      2  C   UNL d   1      -0.397   1.494   1.707  0.00  0.00     0.123 C 
ATOM      3  C   UNL d   1       0.847  -0.052   0.329  0.00  0.00     0.113 C 
ATOM      4  N   UNL d   1       1.218  -0.413  -0.706  0.00  0.00    -0.191 NA
ENDROOT
BRANCH   1   5
ATOM      5  S   UNL d   1       0.759  -0.518   2.994  0.00  0.00     0.218 S 
ATOM      6  O   UNL d   1      -0.186  -1.615   3.098  0.00  0.00    -0.216 OA
ATOM      7  O   UNL d   1       0.955   0.370   4.128  0.00  0.00    -0.216 OA
BRANCH   5   8
ATOM      8  C   UNL d   1       2.356  -1.254   2.660  0.00  0.00     0.065 A 
ATOM      9  C   UNL d   1       3.520  -0.616   3.103  0.00  0.00     0.025 A 
ATOM     10  C   UNL d   1       4.763  -1.198   2.841  0.00  0.00     0.025 A 
ATOM     11  C   UNL d   1       4.835  -2.410   2.153  0.00  0.00     0.034 A 
ATOM     12  C   UNL d   1       3.671  -3.058   1.737  0.00  0.00     0.025 A 
ATOM     13 CL   UNL d   1       6.369  -3.113   1.820  0.00  0.00    -0.084 Cl
ATOM     14  C   UNL d   1       2.424  -2.487   2.000  0.00  0.00     0.025 A 
ENDBRANCH   5   8
ENDBRANCH   1   5
BRANCH   2  15
ATOM     15  N   UNL d   1      -0.876   2.338   0.726  0.00  0.00    -0.364 N 
ATOM     16  H   UNL d   1      -0.628   2.120  -0.238  0.00  0.00     0.165 HD
BRANCH  15  17
ATOM     17  C   UNL d   1      -1.704   3.467   0.872  0.00  0.00     0.032 A 
ATOM     18  C   UNL d   1      -2.101   3.972   2.114  0.00  0.00     0.032 A 
ATOM     19  C   UNL d   1      -2.935   5.092   2.219  0.00  0.00     0.039 A 
ATOM     20  C   UNL d   1      -3.354   5.766   1.078  0.00  0.00     0.078 A 
ATOM     21  C   UNL d   1      -3.002   5.250  -0.170  0.00  0.00     0.039 A 
ATOM     22  C   UNL d   1      -2.184   4.117  -0.273  0.00  0.00     0.032 A 
BRANCH  20  23
ATOM     23  O   UNL d   1      -4.128   6.883   1.047  0.00  0.00    -0.255 OA
BRANCH  23  24
ATOM     24  C   UNL d   1      -4.089   7.798   2.135  0.00  0.00     0.530 C 
ATOM     25  F   UNL d   1      -3.105   7.566   3.029  0.00  0.00    -0.144 F 
ATOM     26  F   UNL d   1      -3.902   9.043   1.640  0.00  0.00    -0.144 F 
ATOM     27  F   UNL d   1      -5.276   7.777   2.781  0.00  0.00    -0.144 F 
ENDBRANCH  23  24
ENDBRANCH  20  23
ENDBRANCH  15  17
ENDBRANCH   2  15
TORSDOF 6
