REMARK  5 active torsions:
REMARK  status: ('A' for Active; 'I' for Inactive)
REMARK    1  A    between atoms: N_2  and  C_1 
REMARK       I    between atoms: N_3  and  C_5 
REMARK       I    between atoms: C_4  and  N_3 
REMARK       I    between atoms: N_12  and  C_4 
REMARK    2  A    between atoms: C_5  and  C_8 
REMARK    3  A    between atoms: O_10  and  C_6 
REMARK    4  A    between atoms: C_9  and  O_10 
REMARK    5  A    between atoms: C_25  and  N_12 
ROOT
ATOM      1  C   UNL d   1       1.169  -0.454   0.999  0.00  0.00     0.137 A 
ATOM      2  C   UNL d   1       0.427  -1.561   0.590  0.00  0.00     0.109 A 
ATOM      3  C   UNL d   1       0.564   0.799   1.210  0.00  0.00     0.055 A 
ATOM      4  C   UNL d   1      -0.801   0.995   0.938  0.00  0.00     0.029 A 
ATOM      5  C   UNL d   1      -0.933  -1.353   0.315  0.00  0.00     0.041 A 
ATOM      6  C   UNL d   1      -1.536  -0.089   0.460  0.00  0.00     0.019 A 
ENDROOT
BRANCH   4   7
ATOM      7  C   UNL d   1      -1.313   2.392   1.075  0.00  0.00     0.239 C 
ATOM      8  N   UNL d   1      -2.590   2.780   0.725  0.00  0.00    -0.175 NA
ATOM      9  C   UNL d   1      -3.804   2.272   1.169  0.00  0.00     0.301 C 
ATOM     10  H   UNL d   1      -2.607   3.788   0.794  0.00  0.00     0.141 HD
ATOM     11  N   UNL d   1      -4.818   3.163   0.868  0.00  0.00    -0.344 N 
ATOM     12  O   UNL d   1      -3.980   1.172   1.672  0.00  0.00    -0.254 OA
ATOM     13  H   UNL d   1      -4.576   3.933   0.261  0.00  0.00     0.164 HD
ATOM     14  O   UNL d   1      -0.536   3.279   1.435  0.00  0.00    -0.274 OA
BRANCH  11  15
ATOM     15  C   UNL d   1      -6.249   2.893   0.974  0.00  0.00     0.077 C 
ATOM     16  C   UNL d   1      -6.697   1.814  -0.008  0.00  0.00     0.032 C 
ATOM     17  C   UNL d   1      -6.708   2.591   2.397  0.00  0.00     0.032 C 
ENDBRANCH  11  15
ENDBRANCH   4   7
BRANCH   1  18
ATOM     18  N   UNL d   1       2.609  -0.487   1.107  0.00  0.00    -0.113 N 
ATOM     19  O   UNL d   1       3.256  -0.737   0.082  0.00  0.00    -0.532 OA
ATOM     20  O   UNL d   1       3.094  -0.213   2.215  0.00  0.00    -0.532 OA
ENDBRANCH   1  18
BRANCH   2  21
ATOM     21  O   UNL d   1       0.851  -2.835   0.299  0.00  0.00    -0.308 OA
BRANCH  21  22
ATOM     22  C   UNL d   1       1.914  -3.426   0.937  0.00  0.00     0.079 A 
ATOM     23  C   UNL d   1       2.177  -3.329   2.303  0.00  0.00     0.061 A 
ATOM     24  C   UNL d   1       3.311  -3.958   2.827  0.00  0.00     0.038 A 
ATOM     25 CL   UNL d   1       3.689  -3.775   4.496  0.00  0.00    -0.084 Cl
ATOM     26  C   UNL d   1       4.142  -4.731   2.018  0.00  0.00     0.048 A 
ATOM     27  C   UNL d   1       3.830  -4.878   0.671  0.00  0.00     0.038 A 
ATOM     28  C   UNL d   1       2.721  -4.232   0.128  0.00  0.00     0.061 A 
ATOM     29 CL   UNL d   1       4.817  -5.867  -0.334  0.00  0.00    -0.084 Cl
ENDBRANCH  21  22
ENDBRANCH   2  21
TORSDOF 5
