REMARK  4 active torsions:
REMARK  status: ('A' for Active; 'I' for Inactive)
REMARK    1  A    between atoms: C_3  and  C_1 
REMARK    2  A    between atoms: C_10  and  C_2 
REMARK       I    between atoms: N_15  and  C_10 
REMARK       I    between atoms: C_12  and  N_16 
REMARK       I    between atoms: N_17  and  C_12 
REMARK    3  A    between atoms: N_16  and  N_15 
REMARK    4  A    between atoms: C_20  and  N_17 
ROOT
ATOM      1  C   UNL d   1       0.339  -2.678  -0.070  0.00  0.00     0.275 C 
ATOM      2  N   UNL d   1      -0.541  -3.690  -0.404  0.00  0.00    -0.262 N 
ATOM      3  O   UNL d   1       1.526  -2.946   0.117  0.00  0.00    -0.266 OA
ATOM      4  H   UNL d   1      -1.529  -3.534  -0.569  0.00  0.00     0.190 HD
ENDROOT
BRANCH   1   5
ATOM      5  C   UNL d   1      -0.159  -1.312   0.027  0.00  0.00     0.096 A 
ATOM      6  C   UNL d   1      -1.396  -0.745  -0.262  0.00  0.00     0.145 A 
ATOM      7  O   UNL d   1      -1.318   0.602  -0.046  0.00  0.00    -0.234 OA
ATOM      8  N   UNL d   1      -0.082   0.950   0.422  0.00  0.00    -0.264 N 
ATOM      9  C   UNL d   1       0.612  -0.189   0.495  0.00  0.00     0.047 A 
ATOM     10  HN  UNL d   1       0.243   1.886   0.666  1.00  0.00     0.194 HD
ATOM     11  C   UNL d   1       1.993  -0.119   1.042  0.00  0.00     0.071 C 
BRANCH   6  12
ATOM     12  C   UNL d   1      -2.695  -1.339  -0.707  0.00  0.00     0.094 A 
ATOM     13  N   UNL d   1      -2.895  -2.641  -0.935  0.00  0.00    -0.258 N 
ATOM     14  O   UNL d   1      -4.243  -2.780  -1.218  0.00  0.00    -0.242 OA
ATOM     15  HN  UNL d   1      -2.195  -3.382  -0.907  1.00  0.00     0.195 HD
ATOM     16  C   UNL d   1      -4.837  -1.560  -1.169  0.00  0.00     0.074 A 
ATOM     17  C   UNL d   1      -3.892  -0.606  -0.886  0.00  0.00     0.068 A 
ATOM     18  C   UNL d   1      -6.294  -1.539  -1.381  0.00  0.00     0.079 C 
ENDBRANCH   6  12
ENDBRANCH   1   5
BRANCH   2  19
ATOM     19  N   UNL d   1      -0.011  -4.974  -0.606  0.00  0.00    -0.248 N 
ATOM     20  C   UNL d   1      -0.728  -6.129  -0.413  0.00  0.00     0.339 C 
ATOM     21  N   UNL d   1      -2.086  -6.018  -0.608  0.00  0.00    -0.308 N 
ATOM     22  O   UNL d   1      -0.116  -7.160  -0.144  0.00  0.00    -0.245 OA
ATOM     23  H   UNL d   1      -2.370  -5.255  -1.205  0.00  0.00     0.170 HD
ATOM     24  H   UNL d   1       0.984  -5.062  -0.393  0.00  0.00     0.192 HD
BRANCH  21  25
ATOM     25  C   UNL d   1      -2.981  -7.107  -0.505  0.00  0.00     0.036 A 
ATOM     26  C   UNL d   1      -2.760  -8.181   0.363  0.00  0.00     0.029 A 
ATOM     27  C   UNL d   1      -3.619  -9.282   0.364  0.00  0.00     0.002 A 
ATOM     28  C   UNL d   1      -4.707  -9.316  -0.503  0.00  0.00     0.000 A 
ATOM     29  C   UNL d   1      -4.959  -8.231  -1.341  0.00  0.00     0.002 A 
ATOM     30  C   UNL d   1      -4.112  -7.119  -1.328  0.00  0.00     0.029 A 
ENDBRANCH  21  25
ENDBRANCH   2  19
TORSDOF 4
