REMARK  3 active torsions:
REMARK  status: ('A' for Active; 'I' for Inactive)
REMARK    1  A    between atoms: C_4  and  C_1 
REMARK    2  A    between atoms: C_2  and  C_4 
REMARK    3  A    between atoms: N_9  and  C_5 
ROOT
ATOM      1  C   UNL d   1      -1.154  -1.419  -0.268  0.00  0.00     0.036 A 
ATOM      2  C   UNL d   1      -0.960  -0.202   0.409  0.00  0.00     0.049 A 
ATOM      3  C   UNL d   1       0.188   0.565   0.170  0.00  0.00     0.048 A 
ATOM      4  C   UNL d   1      -0.182  -1.846  -1.189  0.00  0.00     0.019 A 
ATOM      5  C   UNL d   1       1.148   0.117  -0.733  0.00  0.00     0.035 A 
ATOM      6 CL   UNL d   1      -2.063   0.413   1.591  0.00  0.00    -0.083 Cl
ATOM      7  C   UNL d   1       0.973  -1.089  -1.407  0.00  0.00     0.025 A 
ATOM      8 CL   UNL d   1       2.554   1.062  -1.027  0.00  0.00    -0.084 Cl
ENDROOT
BRANCH   1   9
ATOM      9  C   UNL d   1      -2.420  -2.184  -0.137  0.00  0.00     0.185 C 
ATOM     10  O   UNL d   1      -3.494  -1.587  -0.135  0.00  0.00    -0.287 OA
BRANCH   9  11
ATOM     11  C   UNL d   1      -2.447  -3.676  -0.124  0.00  0.00     0.072 C 
ATOM     12  C   UNL d   1      -1.438  -4.520   0.128  0.00  0.00     0.088 C 
BRANCH  12  13
ATOM     13  N   UNL d   1      -1.437  -5.909   0.103  0.00  0.00    -0.398 N 
ATOM     14  C   UNL d   1      -2.616  -6.740  -0.165  0.00  0.00     0.148 C 
ATOM     15  C   UNL d   1      -0.225  -6.688   0.363  0.00  0.00     0.148 C 
ENDBRANCH  12  13
ENDBRANCH   9  11
ENDBRANCH   1   9
TORSDOF 3
