REMARK  3 active torsions:
REMARK  status: ('A' for Active; 'I' for Inactive)
REMARK    1  A    between atoms: C_2  and  C_1 
REMARK       I    between atoms: N_5  and  C_2 
REMARK    2  A    between atoms: N_14  and  C_3 
REMARK    3  A    between atoms: C_6  and  N_5 
ROOT
ATOM      1  C   UNL d   1       1.029  -0.104  -0.000  0.00  0.00     0.127 C 
ATOM      2  C   UNL d   1       0.405   0.803  -0.778  0.00  0.00     0.113 C 
ATOM      3  C   UNL d   1       0.329  -1.152   0.650  0.00  0.00     0.106 C 
ATOM      4  N   UNL d   1      -0.192  -2.035   1.194  0.00  0.00    -0.191 NA
ENDROOT
BRANCH   1   5
ATOM      5  C   UNL d   1       2.530   0.002   0.128  0.00  0.00     0.268 C 
ATOM      6  N   UNL d   1       3.161  -1.089   0.709  0.00  0.00    -0.322 N 
ATOM      7  H   UNL d   1       2.617  -1.922   0.891  0.00  0.00     0.169 HD
ATOM      8  O   UNL d   1       3.106   1.003  -0.284  0.00  0.00    -0.266 OA
BRANCH   6   9
ATOM      9  C   UNL d   1       4.529  -1.177   1.071  0.00  0.00     0.038 A 
ATOM     10  C   UNL d   1       5.417  -0.097   1.040  0.00  0.00     0.053 A 
ATOM     11  C   UNL d   1       6.741  -0.256   1.460  0.00  0.00     0.037 A 
ATOM     12 CL   UNL d   1       7.811   1.095   1.440  0.00  0.00    -0.084 Cl
ATOM     13  C   UNL d   1       7.205  -1.488   1.906  0.00  0.00     0.048 A 
ATOM     14  C   UNL d   1       6.329  -2.567   1.929  0.00  0.00     0.037 A 
ATOM     15  C   UNL d   1       4.999  -2.418   1.520  0.00  0.00     0.053 A 
ATOM     16 CL   UNL d   1       6.885  -4.101   2.474  0.00  0.00    -0.084 Cl
ENDBRANCH   6   9
ENDBRANCH   1   5
BRANCH   2  17
ATOM     17  N   UNL d   1      -0.942   0.991  -1.089  0.00  0.00    -0.397 N 
ATOM     18  C   UNL d   1      -2.028   0.876  -0.111  0.00  0.00     0.148 C 
ATOM     19  C   UNL d   1      -1.336   1.704  -2.309  0.00  0.00     0.148 C 
ENDBRANCH   2  17
TORSDOF 3
