REMARK  5 active torsions:
REMARK  status: ('A' for Active; 'I' for Inactive)
REMARK    1  A    between atoms: N_6  and  C_1 
REMARK    2  A    between atoms: N_4  and  C_2 
REMARK    3  A    between atoms: N_10  and  C_5 
REMARK    4  A    between atoms: N_14  and  N_6 
REMARK    5  A    between atoms: N_15  and  N_10 
ROOT
ATOM      1  C   UNL d   1       0.139   1.274   0.101  0.00  0.00     0.099 C 
ATOM      2  C   UNL d   1       1.564   1.231   0.087  0.00  0.00     0.132 C 
ATOM      3  C   UNL d   1      -0.549   0.023  -0.029  0.00  0.00     0.102 C 
ATOM      4  C   UNL d   1       0.168  -1.194  -0.234  0.00  0.00     0.066 C 
ATOM      5  C   UNL d   1      -1.986  -0.054   0.076  0.00  0.00     0.104 C 
ATOM      6  N   UNL d   1      -3.131  -0.221   0.146  0.00  0.00    -0.191 NA
ATOM      7  C   UNL d   1       2.263   0.018   0.014  0.00  0.00     0.041 C 
ATOM      8  C   UNL d   1       1.567  -1.173  -0.125  0.00  0.00     0.034 C 
ENDROOT
BRANCH   1   9
ATOM      9  N   UNL d   1      -0.527   2.520   0.339  0.00  0.00    -0.316 N 
ATOM     10  H   UNL d   1       0.116   3.326   0.342  0.00  0.00     0.181 HD
BRANCH   9  11
ATOM     11  N   UNL d   1      -1.796   2.796  -0.209  0.00  0.00    -0.239 NA
ATOM     12  C   UNL d   1      -2.497   3.711   0.709  0.00  0.00     0.135 C 
ATOM     13  C   UNL d   1      -1.647   3.461  -1.513  0.00  0.00     0.135 C 
ENDBRANCH   9  11
ENDBRANCH   1   9
BRANCH   4  14
ATOM     14  N   UNL d   1      -0.469  -2.456  -0.482  0.00  0.00    -0.318 N 
ATOM     15  H   UNL d   1      -1.453  -2.387  -0.755  0.00  0.00     0.181 HD
BRANCH  14  16
ATOM     16  N   UNL d   1       0.305  -3.443  -1.171  0.00  0.00    -0.239 NA
ATOM     17  C   UNL d   1      -0.132  -4.790  -0.802  0.00  0.00     0.135 C 
ATOM     18  C   UNL d   1       0.214  -3.257  -2.623  0.00  0.00     0.135 C 
ENDBRANCH  14  16
ENDBRANCH   4  14
BRANCH   2  19
ATOM     19  N   UNL d   1       2.384   2.458   0.099  0.00  0.00    -0.113 N 
ATOM     20  O   UNL d   1       1.804   3.555   0.083  0.00  0.00    -0.532 OA
ATOM     21  O   UNL d   1       3.616   2.333   0.099  0.00  0.00    -0.532 OA
ENDBRANCH   2  19
TORSDOF 5
