REMARK  3 active torsions:
REMARK  status: ('A' for Active; 'I' for Inactive)
REMARK    1  A    between atoms: C_3  and  C_1 
REMARK    2  A    between atoms: C_4  and  C_2 
REMARK       I    between atoms: N_14  and  C_4 
REMARK    3  A    between atoms: C_16  and  N_14 
ROOT
ATOM      1  C   UNL d   1       0.405  -0.140  -0.507  0.00  0.00     0.136 A 
ATOM      2  C   UNL d   1      -0.123  -1.319   0.036  0.00  0.00     0.093 A 
ATOM      3  O   UNL d   1      -0.477   0.878  -0.248  0.00  0.00    -0.235 OA
ATOM      4  N   UNL d   1      -1.567   0.426   0.419  0.00  0.00    -0.264 N 
ATOM      5  HN  UNL d   1      -2.375   0.974   0.714  1.00  0.00     0.194 HD
ATOM      6  C   UNL d   1      -1.371  -0.880   0.612  0.00  0.00     0.047 A 
ATOM      7  C   UNL d   1      -2.427  -1.576   1.382  0.00  0.00     0.071 C 
ENDROOT
BRANCH   2   8
ATOM      8  C   UNL d   1       0.507  -2.656   0.094  0.00  0.00     0.261 C 
ATOM      9  N   UNL d   1      -0.412  -3.696   0.175  0.00  0.00    -0.323 N 
ATOM     10  H   UNL d   1      -1.362  -3.481  -0.086  0.00  0.00     0.169 HD
ATOM     11  O   UNL d   1       1.718  -2.783   0.086  0.00  0.00    -0.267 OA
BRANCH   9  12
ATOM     12  C   UNL d   1      -0.223  -5.033   0.636  0.00  0.00     0.035 A 
ATOM     13  C   UNL d   1       0.982  -5.561   1.097  0.00  0.00     0.030 A 
ATOM     14  C   UNL d   1       1.037  -6.866   1.633  0.00  0.00     0.009 A 
ATOM     15  C   UNL d   1      -0.107  -7.668   1.710  0.00  0.00    -0.062 A 
ATOM     16  C   UNL d   1      -1.313  -7.146   1.233  0.00  0.00     0.009 A 
ATOM     17  C   UNL d   1      -0.065  -9.024   2.360  0.00  0.00     0.048 C 
ATOM     18  C   UNL d   1      -1.366  -5.849   0.696  0.00  0.00     0.030 A 
ENDBRANCH   9  12
ENDBRANCH   2   8
BRANCH   1  19
ATOM     19  C   UNL d   1       1.555   0.219  -1.282  0.00  0.00     0.079 A 
ATOM     20  C   UNL d   1       2.338   1.367  -1.176  0.00  0.00     0.040 A 
ATOM     21  N   UNL d   1       3.166   1.605  -2.268  0.00  0.00    -0.296 N 
ATOM     22  C   UNL d   1       2.348   2.378  -0.085  0.00  0.00     0.071 C 
ATOM     23  N   UNL d   1       3.047   0.669  -3.193  0.00  0.00    -0.061 NA
ATOM     24  HN  UNL d   1       3.792   2.407  -2.346  1.00  0.00     0.183 HD
ATOM     25  S   UNL d   1       1.975  -0.541  -2.761  0.00  0.00     0.004 SA
ENDBRANCH   1  19
TORSDOF 3
