REMARK  4 active torsions:
REMARK  status: ('A' for Active; 'I' for Inactive)
REMARK    1  A    between atoms: N_8  and  C_3 
REMARK    2  A    between atoms: C_9  and  N_4 
REMARK    3  A    between atoms: N_10  and  N_8 
REMARK       I    between atoms: C_11  and  N_10 
REMARK    4  A    between atoms: C_15  and  C_11 
ROOT
ATOM      1  C   UNL d   1       0.270   0.133  -0.131  0.00  0.00     0.133 C 
ATOM      2  C   UNL d   1      -0.740  -0.843   0.381  0.00  0.00     0.291 C 
ATOM      3  C   UNL d   1       0.375   1.386   0.339  0.00  0.00     0.094 C 
ATOM      4  N   UNL d   1      -1.492  -0.413   1.481  0.00  0.00    -0.220 N 
ATOM      5  N   UNL d   1      -1.498   0.895   1.906  0.00  0.00    -0.300 N 
ATOM      6  HN  UNL d   1      -2.156   1.217   2.616  1.00  0.00     0.186 HD
ATOM      7  C   UNL d   1      -0.641   1.700   1.373  0.00  0.00     0.141 C 
ATOM      8  O   UNL d   1      -0.859  -1.936  -0.173  0.00  0.00    -0.264 OA
ATOM      9 CL   UNL d   1       1.296  -0.448  -1.412  0.00  0.00    -0.076 Cl
ENDROOT
BRANCH   3  10
ATOM     10  N   UNL d   1       1.314   2.367  -0.006  0.00  0.00    -0.291 N 
ATOM     11  C   UNL d   1       1.108   3.806   0.144  0.00  0.00     0.178 C 
BRANCH  10  12
ATOM     12  N   UNL d   1       2.689   2.031  -0.083  0.00  0.00    -0.264 N 
ATOM     13  C   UNL d   1       3.333   1.444   1.002  0.00  0.00     0.270 C 
ATOM     14  O   UNL d   1       2.834   1.223   2.097  0.00  0.00    -0.266 OA
ATOM     15  H   UNL d   1       3.068   1.949  -1.022  0.00  0.00     0.190 HD
BRANCH  13  16
ATOM     16  C   UNL d   1       4.730   1.039   0.711  0.00  0.00     0.033 A 
ATOM     17  C   UNL d   1       5.593   1.926   0.056  0.00  0.00     0.017 A 
ATOM     18  C   UNL d   1       6.884   1.520  -0.283  0.00  0.00     0.007 A 
ATOM     19  C   UNL d   1       7.327   0.230   0.036  0.00  0.00    -0.062 A 
ATOM     20  C   UNL d   1       6.464  -0.643   0.714  0.00  0.00     0.007 A 
ATOM     21  C   UNL d   1       8.684  -0.231  -0.412  0.00  0.00     0.048 C 
ATOM     22  C   UNL d   1       5.173  -0.237   1.065  0.00  0.00     0.017 A 
ENDBRANCH  13  16
ENDBRANCH  10  12
ENDBRANCH   3  10
BRANCH   4  23
ATOM     23  C   UNL d   1      -2.289  -1.291   2.294  0.00  0.00     0.061 A 
ATOM     24  C   UNL d   1      -2.107  -2.684   2.283  0.00  0.00     0.058 A 
ATOM     25  C   UNL d   1      -2.835  -3.513   3.143  0.00  0.00     0.074 A 
ATOM     26 CL   UNL d   1      -2.545  -5.211   3.128  0.00  0.00    -0.081 Cl
ATOM     27  C   UNL d   1      -3.765  -2.964   4.018  0.00  0.00     0.138 A 
ATOM     28  C   UNL d   1      -3.974  -1.592   4.046  0.00  0.00     0.046 A 
ATOM     29  F   UNL d   1      -4.464  -3.742   4.857  0.00  0.00    -0.204 F 
ATOM     30  C   UNL d   1      -3.236  -0.763   3.195  0.00  0.00     0.035 A 
ENDBRANCH   4  23
TORSDOF 4
