REMARK  4 active torsions:
REMARK  status: ('A' for Active; 'I' for Inactive)
REMARK    1  A    between atoms: S_15  and  C_5 
REMARK    2  A    between atoms: C_8  and  C_14 
REMARK    3  A    between atoms: C_14  and  C_17 
REMARK    4  A    between atoms: C_17  and  S_15 
ROOT
ATOM      1  N   UNL d   1       0.838   0.052   0.062  0.00  0.00    -0.314 N 
ATOM      2  C   UNL d   1      -0.023   1.118  -0.037  0.00  0.00     0.158 A 
ATOM      3  N   UNL d   1      -1.265   0.669   0.014  0.00  0.00    -0.281 N 
ATOM      4  HN  UNL d   1      -2.109   1.241  -0.015  1.00  0.00     0.188 HD
ATOM      5  C   UNL d   1       0.037  -1.057   0.144  0.00  0.00     0.163 A 
ATOM      6  N   UNL d   1      -1.224  -0.701   0.112  0.00  0.00    -0.278 N 
ATOM      7  HN  UNL d   1      -2.029  -1.327   0.152  1.00  0.00     0.189 HD
ATOM      8  C   UNL d   1       0.323   2.501  -0.153  0.00  0.00     0.120 A 
ATOM      9  O   UNL d   1       1.503   2.951  -0.691  0.00  0.00    -0.319 OA
ATOM     10  C   UNL d   1      -0.432   3.601   0.223  0.00  0.00     0.043 A 
ATOM     11  C   UNL d   1       1.492   4.306  -0.645  0.00  0.00     0.142 A 
ATOM     12  C   UNL d   1       0.326   4.758  -0.079  0.00  0.00     0.027 A 
ATOM     13  C   UNL d   1       2.276   0.077   0.136  0.00  0.00     0.160 C 
ENDROOT
BRANCH   5  14
ATOM     14  S   UNL d   1       0.639  -2.671   0.293  0.00  0.00    -0.085 SA
BRANCH  14  15
ATOM     15  C   UNL d   1      -0.922  -3.608   0.268  0.00  0.00     0.166 C 
BRANCH  15  16
ATOM     16  C   UNL d   1      -0.709  -5.104   0.502  0.00  0.00     0.176 C 
ATOM     17  O   UNL d   1       0.401  -5.575   0.755  0.00  0.00    -0.291 OA
BRANCH  16  18
ATOM     18  C   UNL d   1      -1.879  -5.984   0.423  0.00  0.00     0.054 A 
ATOM     19  S   UNL d   1      -3.464  -5.404   0.118  0.00  0.00    -0.073 SA
ATOM     20  C   UNL d   1      -4.117  -6.966   0.174  0.00  0.00     0.097 A 
ATOM     21 CL   UNL d   1      -5.806  -7.168  -0.084  0.00  0.00    -0.074 Cl
ATOM     22  C   UNL d   1      -3.180  -7.934   0.427  0.00  0.00     0.064 A 
ATOM     23  C   UNL d   1      -1.883  -7.362   0.578  0.00  0.00     0.048 A 
ATOM     24 CL   UNL d   1      -3.457  -9.616   0.554  0.00  0.00    -0.082 Cl
ENDBRANCH  16  18
ENDBRANCH  15  16
ENDBRANCH  14  15
ENDBRANCH   5  14
TORSDOF 4
