REMARK  2 active torsions:
REMARK  status: ('A' for Active; 'I' for Inactive)
REMARK    1  A    between atoms: C_5  and  N_1 
REMARK    2  A    between atoms: C_9  and  C_4 
ROOT
ATOM      1  C   UNL d   1       7.643  -0.130  -0.388  0.00  0.00     0.066 A 
ATOM      2  C   UNL d   1       3.309  -0.031  -0.156  0.00  0.00     0.048 A 
ATOM      3  C   UNL d   1       5.518   0.574   0.653  0.00  0.00     0.092 A 
ATOM      4  C   UNL d   1       6.172  -0.123  -0.368  0.00  0.00     0.013 A 
ATOM      5  O   UNL d   1       6.237   1.259   1.657  0.00  0.00    -0.275 OA
ATOM      6  C   UNL d   1       7.618   1.264   1.671  0.00  0.00     0.289 A 
ATOM      7  C   UNL d   1       8.285   0.534   0.590  0.00  0.00     0.099 A 
ATOM      8  C   UNL d   1       4.121   0.638   0.764  0.00  0.00     0.068 A 
ATOM      9  C   UNL d   1       5.353  -0.768  -1.295  0.00  0.00     0.017 A 
ATOM     10  C   UNL d   1       3.954  -0.729  -1.184  0.00  0.00     0.031 A 
ATOM     11  O   UNL d   1       8.269   1.843   2.531  0.00  0.00    -0.260 OA
ENDROOT
BRANCH   2  12
ATOM     12  N   UNL d   1       1.890  -0.006  -0.070  0.00  0.00    -0.244 N 
ATOM     13  C   UNL d   1       1.154   0.938   0.617  0.00  0.00     0.266 A 
ATOM     14  C   UNL d   1      -0.255   0.617   0.400  0.00  0.00     0.048 A 
ATOM     15  O   UNL d   1       1.494   1.908   1.272  0.00  0.00    -0.267 OA
ATOM     16  C   UNL d   1      -1.399   1.269   0.819  0.00  0.00     0.018 A 
ATOM     17  C   UNL d   1      -0.313  -0.518  -0.378  0.00  0.00     0.048 A 
ATOM     18  C   UNL d   1      -2.627   0.720   0.436  0.00  0.00     0.001 A 
ATOM     19  C   UNL d   1      -2.683  -0.455  -0.341  0.00  0.00     0.001 A 
ATOM     20  C   UNL d   1      -1.512  -1.090  -0.759  0.00  0.00     0.018 A 
ATOM     21  C   UNL d   1       1.054  -0.920  -0.680  0.00  0.00     0.266 A 
ATOM     22  O   UNL d   1       1.288  -1.921  -1.335  0.00  0.00    -0.267 OA
ENDBRANCH   2  12
BRANCH   1  23
ATOM     23  C   UNL d   1       8.472  -0.835  -1.423  0.00  0.00     0.418 C 
ATOM     24  F   UNL d   1       7.783  -1.482  -2.392  0.00  0.00    -0.166 F 
ATOM     25  F   UNL d   1       9.294   0.038  -2.063  0.00  0.00    -0.166 F 
ATOM     26  F   UNL d   1       9.278  -1.765  -0.845  0.00  0.00    -0.166 F 
ENDBRANCH   1  23
TORSDOF 2
