REMARK  3 active torsions:
REMARK  status: ('A' for Active; 'I' for Inactive)
REMARK    1  A    between atoms: N_7  and  C_1 
REMARK    2  A    between atoms: C_16  and  N_8 
REMARK    3  A    between atoms: C_10  and  C_16 
ROOT
ATOM      1  C   UNL d   1      -0.829  -1.286  -0.043  0.00  0.00     0.171 A 
ATOM      2  C   UNL d   1       0.567  -1.348  -0.033  0.00  0.00     0.153 A 
ATOM      3  N   UNL d   1      -0.051   0.862   0.022  0.00  0.00    -0.299 N 
ATOM      4  HN  UNL d   1       0.006   1.880   0.048  1.00  0.00     0.187 HD
ATOM      5  C   UNL d   1      -1.149   0.103  -0.018  0.00  0.00     0.059 A 
ATOM      6  N   UNL d   1       0.964  -0.021   0.021  0.00  0.00    -0.279 N 
ATOM      7  N   UNL d   1       1.514  -2.330  -0.066  0.00  0.00    -0.368 N 
ATOM      8  C   UNL d   1      -2.481   0.766  -0.019  0.00  0.00     0.072 C 
ATOM      9  C   UNL d   1       2.303   0.526  -0.016  0.00  0.00     0.179 C 
ATOM     10  H   UNL d   1       2.442  -2.208   0.337  0.00  0.00     0.161 HD
ENDROOT
BRANCH   1  11
ATOM     11  N   UNL d   1      -1.795  -2.355  -0.029  0.00  0.00    -0.110 N 
ATOM     12  O   UNL d   1      -1.392  -3.519   0.035  0.00  0.00    -0.532 OA
ATOM     13  O   UNL d   1      -2.992  -2.035  -0.074  0.00  0.00    -0.532 OA
ENDBRANCH   1  11
BRANCH   7  14
ATOM     14  C   UNL d   1       1.326  -3.657  -0.640  0.00  0.00     0.167 C 
BRANCH  14  15
ATOM     15  C   UNL d   1       2.598  -4.286  -1.147  0.00  0.00     0.000 A 
ATOM     16  S   UNL d   1       3.887  -4.628  -0.066  0.00  0.00    -0.105 SA
ATOM     17  C   UNL d   1       4.835  -5.317  -1.312  0.00  0.00     0.050 A 
ATOM     18  C   UNL d   1       4.192  -5.285  -2.529  0.00  0.00     0.008 A 
ATOM     19  C   UNL d   1       2.903  -4.685  -2.435  0.00  0.00     0.017 A 
ENDBRANCH  14  15
ENDBRANCH   7  14
TORSDOF 3
