REMARK  2 active torsions:
REMARK  status: ('A' for Active; 'I' for Inactive)
REMARK    1  A    between atoms: C_7  and  C_3 
REMARK    2  A    between atoms: C_8  and  C_4 
ROOT
ATOM      1  N   UNL d   1       1.414  -0.597  -0.014  0.00  0.00    -0.349 N 
ATOM      2  HN  UNL d   1       2.300  -1.102  -0.011  1.00  0.00     0.166 HD
ATOM      3  C   UNL d   1       0.224  -1.168  -0.048  0.00  0.00     0.086 A 
ATOM      4  C   UNL d   1       1.292   0.783   0.016  0.00  0.00     0.050 A 
ATOM      5  S   UNL d   1      -1.102  -0.063  -0.020  0.00  0.00    -0.081 SA
ATOM      6  C   UNL d   1      -0.006   1.250   0.009  0.00  0.00     0.082 A 
ENDROOT
BRANCH   4   7
ATOM      7  C   UNL d   1       2.466   1.650   0.022  0.00  0.00    -0.006 A 
ATOM      8  C   UNL d   1       3.643   1.224  -0.610  0.00  0.00     0.059 A 
ATOM      9  C   UNL d   1       4.762   2.053  -0.630  0.00  0.00     0.155 A 
ATOM     10  F   UNL d   1       5.875   1.639  -1.252  0.00  0.00    -0.203 F 
ATOM     11  C   UNL d   1       4.728   3.299  -0.018  0.00  0.00     0.154 A 
ATOM     12  C   UNL d   1       3.576   3.733   0.627  0.00  0.00     0.046 A 
ATOM     13  F   UNL d   1       5.806   4.095  -0.042  0.00  0.00    -0.203 F 
ATOM     14  C   UNL d   1       2.446   2.910   0.648  0.00  0.00     0.017 A 
ENDBRANCH   4   7
BRANCH   3  15
ATOM     15  C   UNL d   1      -0.005  -2.618  -0.058  0.00  0.00     0.013 A 
ATOM     16  C   UNL d   1      -1.114  -3.211  -0.656  0.00  0.00     0.101 A 
ATOM     17  N   UNL d   1      -1.362  -4.546  -0.676  0.00  0.00    -0.374 N 
ATOM     18  C   UNL d   1      -0.452  -5.338  -0.074  0.00  0.00     0.087 A 
ATOM     19  HN  UNL d   1      -2.194  -4.930  -1.125  1.00  0.00     0.164 HD
ATOM     20  C   UNL d   1       0.692  -4.860   0.541  0.00  0.00     0.018 A 
ATOM     21  C   UNL d   1       0.918  -3.483   0.541  0.00  0.00     0.017 A 
ENDBRANCH   3  15
TORSDOF 2
