REMARK  10 active torsions:
REMARK  status: ('A' for Active; 'I' for Inactive)
REMARK    1  A    between atoms: C_6  and  C_1 
REMARK    2  A    between atoms: C_7  and  C_1 
REMARK    3  A    between atoms: N_11  and  N_2 
REMARK    4  A    between atoms: C_4  and  C_5 
REMARK    5  A    between atoms: C_14  and  C_6 
REMARK    6  A    between atoms: O_22  and  C_7 
REMARK    7  A    between atoms: C_10  and  S_13 
REMARK    8  A    between atoms: C_23  and  N_11 
REMARK    9  A    between atoms: S_13  and  C_14 
REMARK   10  A    between atoms: C_24  and  O_22 
ROOT
ATOM      1  C   UNL d   1       1.103   0.136   0.119  0.00  0.00     0.170 C 
ATOM      2  N   UNL d   1       0.461  -0.830   0.723  0.00  0.00    -0.292 N 
ATOM      3  HN  UNL d   1      -0.557  -0.811   0.784  1.00  0.00     0.187 HD
ENDROOT
BRANCH   1   4
ATOM      4  C   UNL d   1       2.618   0.168   0.003  0.00  0.00     0.193 C 
ATOM      5  O   UNL d   1       3.206  -0.891  -0.217  0.00  0.00    -0.290 OA
BRANCH   4   6
ATOM      6  C   UNL d   1       3.332   1.491   0.170  0.00  0.00     0.166 C 
BRANCH   6   7
ATOM      7  S   UNL d   1       3.856   2.070  -1.476  0.00  0.00    -0.104 SA
BRANCH   7   8
ATOM      8  C   UNL d   1       4.806   3.527  -1.072  0.00  0.00     0.069 A 
ATOM      9  N   UNL d   1       5.004   3.862   0.221  0.00  0.00    -0.360 N 
ATOM     10  C   UNL d   1       5.724   4.992   0.465  0.00  0.00     0.105 A 
ATOM     11  HN  UNL d   1       4.631   3.294   0.981  1.00  0.00     0.166 HD
ATOM     12  C   UNL d   1       6.261   5.810  -0.519  0.00  0.00     0.063 A 
ATOM     13  C   UNL d   1       6.054   5.433  -1.848  0.00  0.00     0.020 A 
ATOM     14  C   UNL d   1       5.322   4.278  -2.124  0.00  0.00     0.038 A 
BRANCH  12  15
ATOM     15  C   UNL d   1       7.021   7.056  -0.176  0.00  0.00     0.418 C 
ATOM     16  F   UNL d   1       7.117   7.290   1.161  0.00  0.00    -0.166 F 
ATOM     17  F   UNL d   1       8.300   7.034  -0.644  0.00  0.00    -0.166 F 
ATOM     18  F   UNL d   1       6.452   8.173  -0.709  0.00  0.00    -0.166 F 
ENDBRANCH  12  15
ENDBRANCH   7   8
ENDBRANCH   6   7
ENDBRANCH   4   6
ENDBRANCH   1   4
BRANCH   1  19
ATOM     19  C   UNL d   1       0.225   1.256  -0.413  0.00  0.00     0.315 C 
ATOM     20  O   UNL d   1       0.560   2.423  -0.354  0.00  0.00    -0.257 OA
BRANCH  19  21
ATOM     21  O   UNL d   1      -0.980   0.770  -0.789  0.00  0.00    -0.317 OA
BRANCH  21  22
ATOM     22  C   UNL d   1      -2.061   1.709  -0.746  0.00  0.00     0.175 C 
ATOM     23  C   UNL d   1      -2.668   1.683   0.648  0.00  0.00     0.034 C 
ENDBRANCH  21  22
ENDBRANCH  19  21
ENDBRANCH   1  19
BRANCH   2  24
ATOM     24  N   UNL d   1       1.159  -1.858   1.270  0.00  0.00    -0.300 N 
ATOM     25  H   UNL d   1       2.086  -2.096   0.896  0.00  0.00     0.187 HD
BRANCH  24  26
ATOM     26  C   UNL d   1       0.436  -2.987   1.718  0.00  0.00     0.048 A 
ATOM     27  C   UNL d   1      -0.958  -3.093   1.601  0.00  0.00     0.031 A 
ATOM     28  C   UNL d   1      -1.645  -4.194   2.121  0.00  0.00     0.002 A 
ATOM     29  C   UNL d   1      -0.950  -5.191   2.801  0.00  0.00     0.000 A 
ATOM     30  C   UNL d   1       0.430  -5.087   2.956  0.00  0.00     0.002 A 
ATOM     31  C   UNL d   1       1.116  -3.993   2.417  0.00  0.00     0.031 A 
ENDBRANCH  24  26
ENDBRANCH   2  24
TORSDOF 10
