REMARK  4 active torsions:
REMARK  status: ('A' for Active; 'I' for Inactive)
REMARK    1  A    between atoms: O_5  and  C_2 
REMARK    2  A    between atoms: C_3  and  O_5 
REMARK    3  A    between atoms: C_6  and  C_3 
REMARK    4  A    between atoms: O_11  and  C_6 
ROOT
ATOM      1  C   UNL d   1      -0.266   0.630   0.050  0.00  0.00    -0.018 A 
ATOM      2  C   UNL d   1       0.822   1.496   0.098  0.00  0.00     0.077 A 
ATOM      3  C   UNL d   1      -0.095  -0.760   0.043  0.00  0.00    -0.043 A 
ATOM      4  C   UNL d   1       1.175  -1.328   0.098  0.00  0.00    -0.055 A 
ATOM      5  C   UNL d   1       2.090   0.935   0.245  0.00  0.00     0.038 A 
ATOM      6  C   UNL d   1       2.266  -0.458   0.217  0.00  0.00     0.010 A 
ATOM      7  C   UNL d   1      -1.713   1.002  -0.038  0.00  0.00     0.042 A 
ATOM      8  C   UNL d   1      -1.405  -1.474  -0.057  0.00  0.00     0.040 A 
ATOM      9  C   UNL d   1      -2.443  -0.348  -0.024  0.00  0.00     0.009 A 
ATOM     10  C   UNL d   1       1.414  -2.805   0.016  0.00  0.00     0.049 C 
ENDROOT
BRANCH   2  11
ATOM     11  O   UNL d   1       0.549   2.831   0.014  0.00  0.00    -0.330 OA
BRANCH  11  12
ATOM     12  C   UNL d   1       1.516   3.743  -0.550  0.00  0.00     0.145 C 
ATOM     13  C   UNL d   1       2.161   3.262  -1.859  0.00  0.00     0.058 C 
ATOM     14  C   UNL d   1       0.713   5.012  -0.886  0.00  0.00     0.058 C 
BRANCH  12  15
ATOM     15  C   UNL d   1       2.563   4.171   0.497  0.00  0.00     0.175 C 
ATOM     16  O   UNL d   1       3.706   4.516   0.246  0.00  0.00    -0.648 OA
BRANCH  15  17
ATOM     17  O   UNL d   1       2.066   4.165   1.761  0.00  0.00    -0.774 OA
ATOM     18  H   UNL d   1       1.150   3.812   1.775  0.00  0.00     0.167 HD
ENDBRANCH  15  17
ENDBRANCH  12  15
ENDBRANCH  11  12
ENDBRANCH   2  11
TORSDOF 4
