REMARK  6 active torsions:
REMARK  status: ('A' for Active; 'I' for Inactive)
REMARK    1  A    between atoms: C_5  and  C_1 
REMARK    2  A    between atoms: C_4  and  C_2 
REMARK    3  A    between atoms: N_10  and  C_3 
REMARK    4  A    between atoms: C_6  and  C_4 
REMARK    5  A    between atoms: O_18  and  C_5 
REMARK    6  A    between atoms: C_7  and  N_10 
ROOT
ATOM      1  C   UNL d   1       3.559   4.156  -0.178  0.00  0.00     0.106 C 
ATOM      2  C   UNL d   1       2.505   3.319  -0.168  0.00  0.00     0.114 C 
ATOM      3  C   UNL d   1       3.422   5.561  -0.057  0.00  0.00     0.104 C 
ATOM      4  N   UNL d   1       3.308   6.711   0.031  0.00  0.00    -0.191 NA
ENDROOT
BRANCH   1   5
ATOM      5  C   UNL d   1       4.907   3.515  -0.326  0.00  0.00     0.175 C 
ATOM      6  O   UNL d   1       5.039   2.313  -0.535  0.00  0.00    -0.291 OA
BRANCH   5   7
ATOM      7  C   UNL d   1       6.122   4.373  -0.167  0.00  0.00     0.061 A 
ATOM      8  C   UNL d   1       7.501   3.756  -0.306  0.00  0.00     0.013 A 
ATOM      9  C   UNL d   1       7.006   4.176   1.046  0.00  0.00     0.013 A 
ENDBRANCH   5   7
ENDBRANCH   1   5
BRANCH   2  10
ATOM     10  N   UNL d   1       1.139   3.531  -0.053  0.00  0.00    -0.363 N 
ATOM     11  H   UNL d   1       0.859   4.513   0.033  0.00  0.00     0.165 HD
BRANCH  10  12
ATOM     12  C   UNL d   1       0.152   2.579  -0.040  0.00  0.00     0.055 A 
ATOM     13  C   UNL d   1      -1.209   2.841   0.071  0.00  0.00     0.106 A 
ATOM     14  S   UNL d   1      -2.130   1.378   0.059  0.00  0.00    -0.094 SA
ATOM     15  C   UNL d   1      -0.745   0.411  -0.101  0.00  0.00     0.053 A 
ATOM     16  C   UNL d   1       0.400   1.168  -0.144  0.00  0.00     0.038 A 
BRANCH  13  17
ATOM     17  C   UNL d   1      -1.972   4.072   0.190  0.00  0.00     0.302 C 
ATOM     18  O   UNL d   1      -3.196   4.160   0.223  0.00  0.00    -0.259 OA
BRANCH  17  19
ATOM     19  O   UNL d   1      -1.145   5.161   0.265  0.00  0.00    -0.322 OA
ATOM     20  C   UNL d   1      -1.863   6.394   0.391  0.00  0.00     0.213 C 
ENDBRANCH  17  19
ENDBRANCH  13  17
ENDBRANCH  10  12
ENDBRANCH   2  10
TORSDOF 6
