REMARK  3 active torsions:
REMARK  status: ('A' for Active; 'I' for Inactive)
REMARK    1  A    between atoms: C_6  and  C_1 
REMARK    2  A    between atoms: C_13  and  N_4 
REMARK       I    between atoms: N_5  and  C_6 
REMARK    3  A    between atoms: S_15  and  C_10 
ROOT
ATOM      1  C   UNL d   1      -0.191  -1.156  -0.112  0.00  0.00     0.142 C 
ATOM      2  N   UNL d   1       1.010  -0.659  -0.449  0.00  0.00    -0.272 N 
ATOM      3  HN  UNL d   1       1.838  -1.162  -0.767  1.00  0.00     0.189 HD
ATOM      4  N   UNL d   1       0.852   0.677  -0.264  0.00  0.00    -0.196 N 
ATOM      5  N   UNL d   1      -0.417   1.091  -0.030  0.00  0.00    -0.281 N 
ATOM      6  HN  UNL d   1      -0.769   2.042   0.075  1.00  0.00     0.189 HD
ATOM      7  C   UNL d   1      -1.094  -0.065   0.029  0.00  0.00     0.057 C 
ATOM      8  C   UNL d   1      -2.557  -0.081   0.250  0.00  0.00     0.072 C 
ENDROOT
BRANCH   1   9
ATOM      9  C   UNL d   1      -0.496  -2.595   0.036  0.00  0.00     0.279 C 
ATOM     10  N   UNL d   1       0.543  -3.474   0.455  0.00  0.00    -0.293 N 
ATOM     11  C   UNL d   1       0.518  -4.880   0.337  0.00  0.00     0.144 C 
ATOM     12  C   UNL d   1       1.640  -2.964   1.281  0.00  0.00     0.136 C 
ATOM     13  N   UNL d   1       1.412  -5.673   0.815  0.00  0.00    -0.370 N 
ATOM     14  C   UNL d   1       2.568  -5.179   1.538  0.00  0.00     0.123 C 
ATOM     15  HN  UNL d   1       1.303  -6.679   0.682  1.00  0.00     0.161 HD
ATOM     16  C   UNL d   1       2.903  -3.777   1.103  0.00  0.00     0.040 C 
ATOM     17  O   UNL d   1      -1.666  -2.949  -0.098  0.00  0.00    -0.265 OA
BRANCH  11  18
ATOM     18  S   UNL d   1      -0.770  -5.650  -0.576  0.00  0.00    -0.098 SA
ATOM     19  C   UNL d   1      -0.590  -7.370  -0.044  0.00  0.00     0.099 C 
ENDBRANCH  11  18
ENDBRANCH   1   9
BRANCH   4  20
ATOM     20  C   UNL d   1       1.968   1.552  -0.228  0.00  0.00     0.074 A 
ATOM     21  C   UNL d   1       3.245   1.067  -0.551  0.00  0.00     0.033 A 
ATOM     22  C   UNL d   1       4.350   1.916  -0.499  0.00  0.00     0.002 A 
ATOM     23  C   UNL d   1       4.189   3.246  -0.113  0.00  0.00     0.000 A 
ATOM     24  C   UNL d   1       2.923   3.730   0.223  0.00  0.00     0.002 A 
ATOM     25  C   UNL d   1       1.810   2.888   0.163  0.00  0.00     0.033 A 
ENDBRANCH   4  20
TORSDOF 3
