REMARK  6 active torsions:
REMARK  status: ('A' for Active; 'I' for Inactive)
REMARK    1  A    between atoms: N_8  and  S_1 
REMARK    2  A    between atoms: C_10  and  S_1 
REMARK    3  A    between atoms: C_7  and  C_2 
REMARK    4  A    between atoms: C_4  and  C_13 
REMARK    5  A    between atoms: C_9  and  C_5 
REMARK    6  A    between atoms: O_22  and  C_9 
ROOT
ATOM      1  C   UNL d   1       0.304   0.349   1.567  0.00  0.00     0.074 A 
ATOM      2  C   UNL d   1      -0.391   1.108   4.195  0.00  0.00    -0.025 A 
ATOM      3  C   UNL d   1      -0.191  -0.605   2.458  0.00  0.00     0.025 A 
ATOM      4  C   UNL d   1       0.458   1.673   1.973  0.00  0.00     0.025 A 
ATOM      5  C   UNL d   1      -0.544  -0.221   3.761  0.00  0.00     0.014 A 
ATOM      6  C   UNL d   1       0.136   2.038   3.286  0.00  0.00     0.014 A 
ENDROOT
BRANCH   2   7
ATOM      7  C   UNL d   1      -0.704   1.472   5.590  0.00  0.00    -0.002 A 
ATOM      8  C   UNL d   1      -1.305   2.667   5.984  0.00  0.00     0.100 A 
ATOM      9  S   UNL d   1      -1.493   2.743   7.695  0.00  0.00    -0.079 SA
ATOM     10  C   UNL d   1      -0.834   1.192   7.939  0.00  0.00     0.081 A 
ATOM     11  C   UNL d   1      -0.455   0.629   6.736  0.00  0.00     0.038 A 
BRANCH   8  12
ATOM     12  C   UNL d   1      -1.802   3.834   5.182  0.00  0.00     0.424 C 
ATOM     13  F   UNL d   1      -2.515   4.732   5.914  0.00  0.00    -0.166 F 
ATOM     14  F   UNL d   1      -0.785   4.543   4.625  0.00  0.00    -0.166 F 
ATOM     15  F   UNL d   1      -2.615   3.443   4.167  0.00  0.00    -0.166 F 
ENDBRANCH   8  12
BRANCH  10  16
ATOM     16  C   UNL d   1      -0.742   0.664   9.290  0.00  0.00     0.299 C 
ATOM     17  O   UNL d   1      -1.089   1.231  10.320  0.00  0.00    -0.259 OA
BRANCH  16  18
ATOM     18  O   UNL d   1      -0.200  -0.590   9.258  0.00  0.00    -0.322 OA
ATOM     19  C   UNL d   1      -0.054  -1.192  10.546  0.00  0.00     0.213 C 
ENDBRANCH  16  18
ENDBRANCH  10  16
ENDBRANCH   2   7
BRANCH   1  20
ATOM     20  S   UNL d   1       0.922  -0.134  -0.029  0.00  0.00     0.243 S 
ATOM     21  O   UNL d   1       2.287   0.341  -0.098  0.00  0.00    -0.206 OA
ATOM     22  O   UNL d   1       0.606  -1.537  -0.237  0.00  0.00    -0.206 OA
BRANCH  20  23
ATOM     23  N   UNL d   1      -0.016   0.773  -1.154  0.00  0.00    -0.206 NA
ATOM     24  C   UNL d   1      -1.447   0.359  -1.239  0.00  0.00     0.107 C 
ATOM     25  C   UNL d   1      -2.214   1.348  -2.114  0.00  0.00     0.015 C 
ATOM     26  C   UNL d   1      -1.611   1.427  -3.513  0.00  0.00     0.002 C 
ATOM     27  C   UNL d   1      -0.124   1.752  -3.436  0.00  0.00     0.015 C 
ATOM     28  C   UNL d   1       0.617   0.789  -2.511  0.00  0.00     0.107 C 
ENDBRANCH  20  23
ENDBRANCH   1  20
TORSDOF 6
