REMARK  6 active torsions:
REMARK  status: ('A' for Active; 'I' for Inactive)
REMARK    1  A    between atoms: C_5  and  C_1 
REMARK    2  A    between atoms: C_8  and  C_2 
REMARK    3  A    between atoms: O_12  and  C_8 
REMARK    4  A    between atoms: N_9  and  O_12 
REMARK    5  A    between atoms: C_13  and  C_11 
REMARK    6  A    between atoms: N_20  and  C_11 
ROOT
ATOM      1  O   UNL d   1       3.947  -0.986  -0.018  0.00  0.00    -0.193 OA
ENDROOT
BRANCH   1   2
ATOM      2  N   UNL d   1       4.060   0.374  -0.355  0.00  0.00    -0.241 N 
ATOM      3  C   UNL d   1       5.282   0.781  -0.575  0.00  0.00     0.129 C 
ATOM      4  HN  UNL d   1       3.252   0.994  -0.422  1.00  0.00     0.196 HD
BRANCH   3   5
ATOM      5  C   UNL d   1       6.511  -0.077  -0.582  0.00  0.00     0.009 A 
ATOM      6  C   UNL d   1       6.502  -1.343  -1.180  0.00  0.00     0.017 A 
ATOM      7  C   UNL d   1       7.646  -2.145  -1.153  0.00  0.00     0.025 A 
ATOM      8  C   UNL d   1       8.814  -1.668  -0.562  0.00  0.00     0.034 A 
ATOM      9  C   UNL d   1       8.852  -0.390  -0.009  0.00  0.00     0.025 A 
ATOM     10 CL   UNL d   1      10.215  -2.665  -0.509  0.00  0.00    -0.084 Cl
ATOM     11  C   UNL d   1       7.701   0.404  -0.015  0.00  0.00     0.017 A 
ENDBRANCH   3   5
BRANCH   3  12
ATOM     12  N   UNL d   1       5.423   2.125  -0.816  0.00  0.00    -0.383 N 
ATOM     13  H   UNL d   1       4.613   2.674  -0.544  0.00  0.00     0.157 HD
ATOM     14  H   UNL d   1       6.311   2.583  -0.673  0.00  0.00     0.157 HD
ENDBRANCH   3  12
ENDBRANCH   1   2
BRANCH   1  15
ATOM     15  C   UNL d   1       2.619  -1.356   0.087  0.00  0.00     0.318 C 
ATOM     16  O   UNL d   1       1.660  -0.618  -0.109  0.00  0.00    -0.257 OA
BRANCH  15  17
ATOM     17  C   UNL d   1       2.472  -2.763   0.449  0.00  0.00     0.091 A 
ATOM     18  C   UNL d   1       1.287  -3.547   0.664  0.00  0.00     0.150 A 
ATOM     19  N   UNL d   1       1.613  -4.820   0.989  0.00  0.00    -0.294 N 
ATOM     20  N   UNL d   1       2.947  -4.848   0.993  0.00  0.00    -0.306 N 
ATOM     21  HN  UNL d   1       0.976  -5.591   1.188  1.00  0.00     0.187 HD
ATOM     22  C   UNL d   1       3.638  -6.073   1.319  0.00  0.00     0.177 C 
ATOM     23  C   UNL d   1       3.514  -3.656   0.673  0.00  0.00     0.129 A 
BRANCH  18  24
ATOM     24  C   UNL d   1      -0.175  -3.159   0.582  0.00  0.00     0.435 C 
ATOM     25  F   UNL d   1      -0.412  -1.857   0.303  0.00  0.00    -0.165 F 
ATOM     26  F   UNL d   1      -0.826  -3.877  -0.377  0.00  0.00    -0.165 F 
ATOM     27  F   UNL d   1      -0.823  -3.414   1.754  0.00  0.00    -0.165 F 
ENDBRANCH  18  24
ENDBRANCH  15  17
ENDBRANCH   1  15
TORSDOF 6
