REMARK  3 active torsions:
REMARK  status: ('A' for Active; 'I' for Inactive)
REMARK    1  A    between atoms: C_3  and  C_1 
REMARK    2  A    between atoms: N_10  and  C_3 
REMARK    3  A    between atoms: O_11  and  N_6 
ROOT
ATOM      1  C   UNL d   1       2.201   0.702  -0.384  0.00  0.00     0.222 C 
ATOM      2  O   UNL d   1       1.046   1.442   0.027  0.00  0.00    -0.333 OA
ATOM      3  O   UNL d   1       1.075  -1.462  -0.032  0.00  0.00    -0.345 OA
ATOM      4  C   UNL d   1      -0.083   0.673   0.121  0.00  0.00     0.103 A 
ATOM      5  C   UNL d   1       2.243  -0.682   0.259  0.00  0.00     0.216 C 
ATOM      6  C   UNL d   1      -0.072  -0.721   0.052  0.00  0.00     0.102 A 
ATOM      7  C   UNL d   1      -1.291   1.362   0.215  0.00  0.00     0.040 A 
ATOM      8  C   UNL d   1      -1.275  -1.422   0.017  0.00  0.00     0.039 A 
ATOM      9  C   UNL d   1      -2.495   0.659   0.189  0.00  0.00     0.003 A 
ATOM     10  C   UNL d   1      -2.487  -0.731   0.077  0.00  0.00     0.003 A 
ENDROOT
BRANCH   1  11
ATOM     11  C   UNL d   1       2.353   0.613  -1.927  0.00  0.00     0.127 C 
ATOM     12  N   UNL d   1       3.505   0.522  -2.538  0.00  0.00    -0.255 N 
ATOM     13  HN  UNL d   1       3.607   0.465  -3.552  1.00  0.00     0.195 HD
BRANCH  12  14
ATOM     14  O   UNL d   1       4.581   0.514  -1.646  0.00  0.00    -0.288 OA
ATOM     15  H   UNL d   1       5.347   0.489  -2.251  0.00  0.00     0.244 HD
ENDBRANCH  12  14
BRANCH  11  16
ATOM     16  N   UNL d   1       1.233   0.632  -2.719  0.00  0.00    -0.385 N 
ATOM     17  H   UNL d   1       0.411   1.089  -2.337  0.00  0.00     0.157 HD
ATOM     18  H   UNL d   1       1.416   0.832  -3.694  0.00  0.00     0.157 HD
ENDBRANCH  11  16
ENDBRANCH   1  11
TORSDOF 3
