REMARK  7 active torsions:
REMARK  status: ('A' for Active; 'I' for Inactive)
REMARK    1  A    between atoms: C_9  and  N_1 
REMARK    2  A    between atoms: S_8  and  C_2 
REMARK    3  A    between atoms: O_12  and  C_3 
REMARK    4  A    between atoms: C_13  and  S_8 
REMARK    5  A    between atoms: C_10  and  C_13 
REMARK    6  A    between atoms: O_14  and  C_10 
REMARK    7  A    between atoms: C_17  and  O_14 
ROOT
ATOM      1  N   UNL d   1      -0.136  -1.351   0.026  0.00  0.00    -0.255 N 
ATOM      2  C   UNL d   1       1.126  -0.778   0.069  0.00  0.00     0.169 A 
ATOM      3  C   UNL d   1      -0.980  -0.250  -0.049  0.00  0.00     0.245 A 
ATOM      4  N   UNL d   1       1.040   0.533   0.027  0.00  0.00    -0.276 N 
ATOM      5  HN  UNL d   1       1.822   1.187   0.055  1.00  0.00     0.189 HD
ATOM      6  N   UNL d   1      -0.288   0.864  -0.060  0.00  0.00    -0.263 N 
ATOM      7  HN  UNL d   1      -0.669   1.808  -0.124  1.00  0.00     0.190 HD
ENDROOT
BRANCH   2   8
ATOM      8  S   UNL d   1       2.629  -1.646  -0.038  0.00  0.00    -0.082 SA
BRANCH   8   9
ATOM      9  C   UNL d   1       3.731  -0.528   0.867  0.00  0.00     0.193 C 
BRANCH   9  10
ATOM     10  C   UNL d   1       3.330  -0.347   2.317  0.00  0.00     0.268 C 
ATOM     11  O   UNL d   1       2.376  -0.858   2.885  0.00  0.00    -0.264 OA
BRANCH  10  12
ATOM     12  O   UNL d   1       4.221   0.513   2.898  0.00  0.00    -0.321 OA
BRANCH  12  13
ATOM     13  C   UNL d   1       3.851   1.045   4.177  0.00  0.00     0.174 C 
ATOM     14  C   UNL d   1       3.160   2.376   3.946  0.00  0.00     0.034 C 
ENDBRANCH  12  13
ENDBRANCH  10  12
ENDBRANCH   9  10
ENDBRANCH   8   9
ENDBRANCH   2   8
BRANCH   1  15
ATOM     15  C   UNL d   1      -0.512  -2.723   0.030  0.00  0.00     0.045 A 
ATOM     16  C   UNL d   1       0.200  -3.656   0.795  0.00  0.00     0.030 A 
ATOM     17  C   UNL d   1      -0.151  -5.007   0.760  0.00  0.00     0.002 A 
ATOM     18  C   UNL d   1      -1.222  -5.432  -0.022  0.00  0.00     0.000 A 
ATOM     19  C   UNL d   1      -1.950  -4.506  -0.767  0.00  0.00     0.002 A 
ATOM     20  C   UNL d   1      -1.600  -3.153  -0.744  0.00  0.00     0.030 A 
ENDBRANCH   1  15
BRANCH   3  21
ATOM     21  O   UNL d   1      -2.308  -0.263  -0.012  0.00  0.00    -0.331 OA
ATOM     22  H   UNL d   1      -2.593  -1.095   0.400  0.00  0.00     0.221 HD
ENDBRANCH   3  21
TORSDOF 7
