REMARK  3 active torsions:
REMARK  status: ('A' for Active; 'I' for Inactive)
REMARK    1  A    between atoms: C_2  and  S_1 
REMARK    2  A    between atoms: O_8  and  S_1 
REMARK    3  A    between atoms: C_11  and  O_8 
ROOT
ATOM      1  C   UNL d   1       0.581  -1.389  -0.838  0.00  0.00     0.099 C 
ATOM      2  C   UNL d   1       1.276  -2.608  -0.572  0.00  0.00    -0.031 C 
ATOM      3  C   UNL d   1      -0.492  -1.366  -1.779  0.00  0.00    -0.031 C 
ATOM      4  C   UNL d   1       0.786  -3.827  -1.116  0.00  0.00    -0.048 C 
ATOM      5  C   UNL d   1      -0.886  -2.587  -2.412  0.00  0.00    -0.048 C 
ATOM      6  C   UNL d   1      -0.282  -3.815  -2.046  0.00  0.00    -0.049 C 
ATOM      7  C   UNL d   1      -1.226  -0.119  -2.219  0.00  0.00     0.050 C 
ATOM      8  C   UNL d   1       2.539  -2.678   0.262  0.00  0.00     0.050 C 
ATOM      9  C   UNL d   1      -1.961  -2.611  -3.486  0.00  0.00     0.049 C 
ATOM     10  C   UNL d   1       1.396  -5.167  -0.743  0.00  0.00     0.049 C 
ATOM     11  C   UNL d   1      -0.745  -5.133  -2.642  0.00  0.00     0.049 C 
ENDROOT
BRANCH   1  12
ATOM     12  S   UNL d   1       1.082   0.126   0.070  0.00  0.00     0.304 S 
ATOM     13  O   UNL d   1       1.700  -0.276   1.321  0.00  0.00    -0.193 OA
ATOM     14  O   UNL d   1      -0.035   1.040   0.144  0.00  0.00    -0.193 OA
BRANCH  12  15
ATOM     15  O   UNL d   1       2.228   0.748  -0.911  0.00  0.00    -0.228 OA
BRANCH  15  16
ATOM     16  C   UNL d   1       2.871   1.932  -0.664  0.00  0.00     0.105 A 
ATOM     17  C   UNL d   1       3.766   2.366  -1.635  0.00  0.00     0.125 A 
ATOM     18  N   UNL d   1       4.485   3.515  -1.562  0.00  0.00    -0.373 N 
ATOM     19  C   UNL d   1       4.300   4.272  -0.465  0.00  0.00     0.088 A 
ATOM     20  HN  UNL d   1       5.133   3.791  -2.300  1.00  0.00     0.164 HD
ATOM     21  C   UNL d   1       3.437   3.926   0.564  0.00  0.00     0.020 A 
ATOM     22  C   UNL d   1       2.714   2.737   0.461  0.00  0.00     0.041 A 
ENDBRANCH  15  16
ENDBRANCH  12  15
ENDBRANCH   1  12
TORSDOF 3
