REMARK  6 active torsions:
REMARK  status: ('A' for Active; 'I' for Inactive)
REMARK    1  A    between atoms: C_5  and  C_1 
REMARK    2  A    between atoms: C_11  and  C_4 
REMARK    3  A    between atoms: S_15  and  C_10 
REMARK    4  A    between atoms: C_14  and  C_16 
REMARK    5  A    between atoms: C_19  and  C_14 
REMARK    6  A    between atoms: C_16  and  S_15 
ROOT
ATOM      1  C   UNL d   1       0.297  -2.745   0.052  0.00  0.00     0.050 A 
ATOM      2  N   UNL d   1      -0.073  -3.466  -1.023  0.00  0.00    -0.336 N 
ATOM      3  HN  UNL d   1      -0.588  -3.044  -1.796  1.00  0.00     0.168 HD
ATOM      4  C   UNL d   1       0.264  -4.762  -1.031  0.00  0.00     0.144 A 
ATOM      5  N   UNL d   1       0.993  -5.371  -0.080  0.00  0.00    -0.347 N 
ATOM      6  HN  UNL d   1       1.266  -6.351  -0.156  1.00  0.00     0.167 HD
ATOM      7  C   UNL d   1       0.993  -3.296   1.108  0.00  0.00     0.047 A 
ATOM      8  C   UNL d   1       1.343  -4.617   0.975  0.00  0.00     0.092 A 
ENDROOT
BRANCH   1   9
ATOM      9  C   UNL d   1      -0.053  -1.336   0.019  0.00  0.00     0.051 A 
ATOM     10  C   UNL d   1       0.643  -0.157   0.450  0.00  0.00     0.080 A 
ATOM     11  N   UNL d   1      -0.125   0.930   0.262  0.00  0.00    -0.259 N 
ATOM     12  O   UNL d   1      -1.284   0.492  -0.339  0.00  0.00    -0.241 OA
ATOM     13  HN  UNL d   1       0.106   1.891   0.514  1.00  0.00     0.195 HD
ATOM     14  C   UNL d   1      -1.241  -0.855  -0.496  0.00  0.00     0.087 A 
ATOM     15  C   UNL d   1      -2.421  -1.473  -1.137  0.00  0.00     0.080 C 
BRANCH  10  16
ATOM     16  C   UNL d   1       1.979  -0.026   1.041  0.00  0.00    -0.006 A 
ATOM     17  C   UNL d   1       2.226   0.937   2.032  0.00  0.00     0.015 A 
ATOM     18  C   UNL d   1       3.471   1.002   2.669  0.00  0.00     0.024 A 
ATOM     19  C   UNL d   1       4.473   0.098   2.324  0.00  0.00     0.034 A 
ATOM     20  C   UNL d   1       4.259  -0.835   1.314  0.00  0.00     0.024 A 
ATOM     21 CL   UNL d   1       5.981   0.131   3.149  0.00  0.00    -0.084 Cl
ATOM     22  C   UNL d   1       3.028  -0.875   0.655  0.00  0.00     0.015 A 
ENDBRANCH  10  16
ENDBRANCH   1   9
BRANCH   4  23
ATOM     23  S   UNL d   1      -0.267  -5.714  -2.430  0.00  0.00    -0.086 SA
BRANCH  23  24
ATOM     24  C   UNL d   1      -0.450  -7.337  -1.626  0.00  0.00     0.166 C 
BRANCH  24  25
ATOM     25  C   UNL d   1      -1.463  -7.311  -0.493  0.00  0.00     0.169 C 
ATOM     26  O   UNL d   1      -2.430  -6.554  -0.480  0.00  0.00    -0.291 OA
BRANCH  25  27
ATOM     27  C   UNL d   1      -1.307  -8.284   0.638  0.00  0.00     0.010 A 
ATOM     28  C   UNL d   1      -0.339  -9.296   0.649  0.00  0.00     0.015 A 
ATOM     29  C   UNL d   1      -0.234 -10.159   1.745  0.00  0.00     0.001 A 
ATOM     30  C   UNL d   1      -1.099 -10.027   2.829  0.00  0.00     0.000 A 
ATOM     31  C   UNL d   1      -2.077  -9.037   2.821  0.00  0.00     0.001 A 
ATOM     32  C   UNL d   1      -2.181  -8.169   1.731  0.00  0.00     0.015 A 
ENDBRANCH  25  27
ENDBRANCH  24  25
ENDBRANCH  23  24
ENDBRANCH   4  23
TORSDOF 6
