REMARK  6 active torsions:
REMARK  status: ('A' for Active; 'I' for Inactive)
REMARK    1  A    between atoms: C_10  and  C_3 
REMARK    2  A    between atoms: C_9  and  C_4 
REMARK    3  A    between atoms: C_6  and  C_8 
REMARK    4  A    between atoms: C_8  and  O_15 
REMARK    5  A    between atoms: O_15  and  N_11 
REMARK    6  A    between atoms: C_18  and  C_19 
ROOT
ATOM      1  C   UNL d   1      -0.075  -2.663  -0.046  0.00  0.00    -0.002 A 
ATOM      2  C   UNL d   1       0.465  -3.466   0.973  0.00  0.00     0.015 A 
ATOM      3  C   UNL d   1      -0.800  -3.299  -1.068  0.00  0.00     0.015 A 
ATOM      4  C   UNL d   1      -0.445  -5.471  -0.045  0.00  0.00    -0.019 A 
ATOM      5  C   UNL d   1      -0.986  -4.687  -1.067  0.00  0.00     0.014 A 
ATOM      6  C   UNL d   1       0.278  -4.859   0.982  0.00  0.00     0.014 A 
ENDROOT
BRANCH   4   7
ATOM      7  C   UNL d   1      -0.597  -6.946  -0.074  0.00  0.00     0.126 C 
ATOM      8  N   UNL d   1      -1.211  -7.532  -1.050  0.00  0.00    -0.268 N 
ATOM      9  HN  UNL d   1      -1.659  -7.044  -1.826  1.00  0.00     0.194 HD
BRANCH   8  10
ATOM     10  O   UNL d   1      -1.178  -8.936  -0.901  0.00  0.00    -0.195 OA
BRANCH  10  11
ATOM     11  C   UNL d   1      -1.927  -9.511  -1.893  0.00  0.00     0.316 C 
ATOM     12  O   UNL d   1      -2.588  -8.928  -2.747  0.00  0.00    -0.257 OA
BRANCH  11  13
ATOM     13  C   UNL d   1      -1.776 -10.987  -1.930  0.00  0.00     0.063 A 
ATOM     14  C   UNL d   1      -1.663 -11.819  -0.809  0.00  0.00     0.050 A 
ATOM     15 CL   UNL d   1      -1.721 -11.244   0.818  0.00  0.00    -0.083 Cl
ATOM     16  C   UNL d   1      -1.554 -13.209  -0.982  0.00  0.00     0.025 A 
ATOM     17  C   UNL d   1      -1.575 -13.776  -2.259  0.00  0.00     0.002 A 
ATOM     18  C   UNL d   1      -1.710 -12.960  -3.375  0.00  0.00     0.001 A 
ATOM     19  C   UNL d   1      -1.810 -11.575  -3.211  0.00  0.00     0.019 A 
ENDBRANCH  11  13
ENDBRANCH  10  11
ENDBRANCH   8  10
ENDBRANCH   4   7
BRANCH   1  20
ATOM     20  C   UNL d   1       0.151  -1.202  -0.033  0.00  0.00     0.084 A 
ATOM     21  N   UNL d   1       1.216  -0.608   0.477  0.00  0.00    -0.352 N 
ATOM     22  C   UNL d   1       1.146   0.775   0.315  0.00  0.00     0.024 A 
ATOM     23  HN  UNL d   1       1.988  -1.097   0.931  1.00  0.00     0.166 HD
ATOM     24  C   UNL d   1      -0.022   1.208  -0.288  0.00  0.00     0.077 A 
ATOM     25  S   UNL d   1      -1.026  -0.117  -0.674  0.00  0.00    -0.081 SA
BRANCH  22  26
ATOM     26  C   UNL d   1       2.299   1.659   0.781  0.00  0.00    -0.008 C 
ATOM     27  C   UNL d   1       3.442   0.823   1.392  0.00  0.00     0.021 C 
ATOM     28  C   UNL d   1       2.874   2.454  -0.409  0.00  0.00     0.021 C 
ATOM     29  C   UNL d   1       1.810   2.656   1.851  0.00  0.00     0.021 C 
ENDBRANCH  22  26
ENDBRANCH   1  20
TORSDOF 6
