REMARK  3 active torsions:
REMARK  status: ('A' for Active; 'I' for Inactive)
REMARK    1  A    between atoms: N_2  and  C_1 
REMARK    2  A    between atoms: N_4  and  C_1 
REMARK       I    between atoms: C_3  and  N_2 
REMARK    3  A    between atoms: C_7  and  C_3 
ROOT
ATOM      1  N   UNL d   1       0.399   0.674  -1.154  0.00  0.00    -0.300 N 
ATOM      2  C   UNL d   1       0.912   0.954  -2.418  0.00  0.00     0.257 C 
ATOM      3  O   UNL d   1       1.893   0.402  -2.908  0.00  0.00    -0.267 OA
ATOM      4  H   UNL d   1      -0.485   1.095  -0.924  0.00  0.00     0.171 HD
ENDROOT
BRANCH   1   5
ATOM      5  C   UNL d   1       1.020   0.008  -0.094  0.00  0.00     0.176 C 
ATOM      6  S   UNL d   1       2.692  -0.020   0.098  0.00  0.00    -0.041 SA
BRANCH   5   7
ATOM      7  N   UNL d   1       0.102  -0.602   0.802  0.00  0.00    -0.357 N 
ATOM      8  C   UNL d   1       0.575  -1.388   1.970  0.00  0.00     0.135 C 
ATOM      9  C   UNL d   1      -0.245  -1.150   3.239  0.00  0.00     0.093 C 
ATOM     10  S   UNL d   1      -2.006  -1.558   3.028  0.00  0.00    -0.166 SA
ATOM     11  C   UNL d   1      -2.301  -0.594   1.516  0.00  0.00     0.093 C 
ATOM     12  C   UNL d   1      -1.290  -0.927   0.419  0.00  0.00     0.135 C 
ENDBRANCH   5   7
ENDBRANCH   1   5
BRANCH   2  13
ATOM     13  C   UNL d   1       0.109   1.857  -3.294  0.00  0.00     0.032 A 
ATOM     14  C   UNL d   1      -0.752   2.848  -2.807  0.00  0.00     0.017 A 
ATOM     15  C   UNL d   1      -1.467   3.651  -3.704  0.00  0.00     0.001 A 
ATOM     16  C   UNL d   1      -1.321   3.477  -5.081  0.00  0.00     0.000 A 
ATOM     17  C   UNL d   1      -0.458   2.502  -5.572  0.00  0.00     0.001 A 
ATOM     18  C   UNL d   1       0.255   1.698  -4.682  0.00  0.00     0.017 A 
ENDBRANCH   2  13
TORSDOF 3
