REMARK  6 active torsions:
REMARK  status: ('A' for Active; 'I' for Inactive)
REMARK    1  A    between atoms: C_17  and  C_7 
REMARK    2  A    between atoms: C_8  and  C_16 
REMARK    3  A    between atoms: C_13  and  S_15 
REMARK    4  A    between atoms: S_14  and  C_13 
REMARK    5  A    between atoms: C_16  and  S_14 
REMARK    6  A    between atoms: S_15  and  C_17 
ROOT
ATOM      1  C   UNL d   1      -6.022  -1.845   0.006  0.00  0.00     0.148 C 
ENDROOT
BRANCH   1   2
ATOM      2  S   UNL d   1      -4.216  -1.899  -0.151  0.00  0.00    -0.151 SA
BRANCH   2   3
ATOM      3  C   UNL d   1      -3.817  -0.127  -0.009  0.00  0.00     0.151 C 
BRANCH   3   4
ATOM      4  C   UNL d   1      -2.329   0.031   0.019  0.00  0.00     0.091 A 
ATOM      5  N   UNL d   1      -1.558  -0.513   1.022  0.00  0.00    -0.343 N 
ATOM      6  C   UNL d   1      -0.241  -0.258   0.747  0.00  0.00     0.060 A 
ATOM      7  H   UNL d   1      -1.911  -1.063   1.793  0.00  0.00     0.167 HD
ATOM      8  C   UNL d   1      -0.275   0.460  -0.443  0.00  0.00     0.060 A 
ATOM      9  C   UNL d   1       0.942  -0.592   1.409  0.00  0.00     0.032 A 
ATOM     10  N   UNL d   1      -1.570   0.644  -0.870  0.00  0.00    -0.343 N 
ATOM     11  C   UNL d   1       0.933   0.875  -1.023  0.00  0.00     0.032 A 
ATOM     12  HN  UNL d   1      -1.879   1.149  -1.701  1.00  0.00     0.167 HD
ATOM     13  C   UNL d   1       2.136   0.558  -0.377  0.00  0.00     0.002 A 
ATOM     14  C   UNL d   1       2.137  -0.162   0.820  0.00  0.00     0.002 A 
ENDBRANCH   3   4
ENDBRANCH   2   3
ENDBRANCH   1   2
BRANCH   1  15
ATOM     15  S   UNL d   1      -6.703  -3.544  -0.010  0.00  0.00    -0.151 SA
BRANCH  15  16
ATOM     16  C   UNL d   1      -5.924  -4.216   1.500  0.00  0.00     0.151 C 
BRANCH  16  17
ATOM     17  C   UNL d   1      -6.421  -3.514   2.710  0.00  0.00     0.091 A 
ATOM     18  N   UNL d   1      -5.903  -2.433   3.264  0.00  0.00    -0.343 N 
ATOM     19  C   UNL d   1      -6.737  -2.122   4.309  0.00  0.00     0.060 A 
ATOM     20  HN  UNL d   1      -5.062  -1.934   2.976  1.00  0.00     0.167 HD
ATOM     21  C   UNL d   1      -6.670  -1.057   5.218  0.00  0.00     0.032 A 
ATOM     22  C   UNL d   1      -7.775  -3.039   4.408  0.00  0.00     0.060 A 
ATOM     23  C   UNL d   1      -7.655  -0.958   6.205  0.00  0.00     0.002 A 
ATOM     24  C   UNL d   1      -8.685  -1.897   6.285  0.00  0.00     0.002 A 
ATOM     25  C   UNL d   1      -8.770  -2.963   5.382  0.00  0.00     0.032 A 
ATOM     26  N   UNL d   1      -7.556  -3.918   3.383  0.00  0.00    -0.343 N 
ATOM     27  H   UNL d   1      -8.134  -4.705   3.134  0.00  0.00     0.167 HD
ENDBRANCH  16  17
ENDBRANCH  15  16
ENDBRANCH   1  15
TORSDOF 6
