REMARK  9 active torsions:
REMARK  status: ('A' for Active; 'I' for Inactive)
REMARK    1  A    between atoms: O_3  and  C_1 
REMARK    2  A    between atoms: C_7  and  C_1 
REMARK       I    between atoms: C_2  and  N_5 
REMARK    3  A    between atoms: C_8  and  C_2 
REMARK    4  A    between atoms: C_4  and  O_3 
REMARK    5  A    between atoms: N_5  and  C_28 
REMARK    6  A    between atoms: O_21  and  C_6 
REMARK    7  A    between atoms: C_29  and  C_17 
REMARK    8  A    between atoms: C_28  and  C_30 
REMARK    9  A    between atoms: C_30  and  C_29 
ROOT
ATOM      1  C   UNL d   1      -0.800   0.389   0.674  0.00  0.00     0.112 A 
ATOM      2  C   UNL d   1      -1.439  -0.844   0.855  0.00  0.00     0.102 A 
ATOM      3  C   UNL d   1      -2.839  -0.879   0.958  0.00  0.00     0.046 A 
ATOM      4  C   UNL d   1      -1.541   1.569   0.622  0.00  0.00     0.041 A 
ATOM      5  C   UNL d   1      -3.605   0.294   0.910  0.00  0.00    -0.055 A 
ATOM      6  C   UNL d   1      -2.938   1.518   0.729  0.00  0.00     0.010 A 
ENDROOT
BRANCH   5   7
ATOM      7  C   UNL d   1      -5.123   0.283   0.953  0.00  0.00     0.041 C 
BRANCH   7   8
ATOM      8  C   UNL d   1      -5.840  -0.874   1.673  0.00  0.00     0.029 C 
BRANCH   8   9
ATOM      9  C   UNL d   1      -5.523  -1.030   3.171  0.00  0.00     0.081 C 
ATOM     10  C   UNL d   1      -6.305  -2.196   3.776  0.00  0.00     0.032 C 
BRANCH   9  11
ATOM     11  N   UNL d   1      -5.655   0.204   3.933  0.00  0.00    -0.353 N 
ATOM     12  C   UNL d   1      -6.828   0.890   4.192  0.00  0.00     0.251 C 
ATOM     13  O   UNL d   1      -7.934   0.472   3.876  0.00  0.00    -0.268 OA
ATOM     14  H   UNL d   1      -4.774   0.647   4.142  0.00  0.00     0.163 HD
BRANCH  12  15
ATOM     15  C   UNL d   1      -6.683   2.246   4.837  0.00  0.00     0.032 A 
ATOM     16  C   UNL d   1      -5.451   2.757   5.278  0.00  0.00     0.018 A 
ATOM     17  C   UNL d   1      -5.342   4.080   5.725  0.00  0.00     0.025 A 
ATOM     18  C   UNL d   1      -6.468   4.894   5.768  0.00  0.00     0.034 A 
ATOM     19  C   UNL d   1      -7.713   4.384   5.409  0.00  0.00     0.025 A 
ATOM     20 CL   UNL d   1      -6.312   6.539   6.245  0.00  0.00    -0.084 Cl
ATOM     21  C   UNL d   1      -7.820   3.065   4.945  0.00  0.00     0.018 A 
ENDBRANCH  12  15
ENDBRANCH   9  11
ENDBRANCH   8   9
ENDBRANCH   7   8
ENDBRANCH   5   7
BRANCH   2  22
ATOM     22  O   UNL d   1      -0.648  -1.958   0.969  0.00  0.00    -0.353 OA
ATOM     23  C   UNL d   1      -1.247  -3.168   0.514  0.00  0.00     0.210 C 
ENDBRANCH   2  22
BRANCH   1  24
ATOM     24  O   UNL d   1       0.604   0.508   0.608  0.00  0.00    -0.272 OA
BRANCH  24  25
ATOM     25  C   UNL d   1       1.218  -0.140  -0.452  0.00  0.00     0.298 C 
ATOM     26  O   UNL d   1       0.670  -0.748  -1.364  0.00  0.00    -0.259 OA
BRANCH  25  27
ATOM     27  C   UNL d   1       2.704   0.025  -0.401  0.00  0.00     0.040 A 
ATOM     28  C   UNL d   1       3.481  -0.732  -1.294  0.00  0.00     0.019 A 
ATOM     29  C   UNL d   1       4.869  -0.572  -1.349  0.00  0.00     0.025 A 
ATOM     30  C   UNL d   1       5.491   0.347  -0.508  0.00  0.00     0.034 A 
ATOM     31  C   UNL d   1       4.738   1.091   0.399  0.00  0.00     0.025 A 
ATOM     32 CL   UNL d   1       7.194   0.573  -0.600  0.00  0.00    -0.084 Cl
ATOM     33  C   UNL d   1       3.345   0.931   0.458  0.00  0.00     0.019 A 
ENDBRANCH  25  27
ENDBRANCH  24  25
ENDBRANCH   1  24
TORSDOF 9
